data_PCOD9340844
_publ_section_title
;
Structure prediction by ZEFSAII (Michael W. Deem and Ramdas Pophale) SiO2 
 PCOD9340844
Probable space group: P C A 21
;
_chemical_formula_sum "Si O2"
_cell_formula_units_Z 32
_cell_length_a 14.287668
_cell_length_b 6.736974
_cell_length_c 15.492063
_cell_angle_alpha 90.000000
_cell_angle_beta 90.000000
_cell_angle_gamma 90.000000
_cell_volume 1491.198560
_symmetry_space_group_name_H-M "P C A 21"
_symmetry_group_IT_number 29
_symmetry_cell_setting 'orthorhombic'
loop_
_space_group_symop_operation_xyz
x,y,z
-x,-y,1/2+z
1/2-x,y,1/2+z
1/2+x,-y,z
loop_
_atom_site_type_symbol
_atom_site_label
_atom_site_fract_x
_atom_site_fract_y
_atom_site_fract_z
Si Si1 0.607600 0.050874 0.625000
Si Si2 0.860703 0.817509 0.963884
Si Si3 0.232272 0.250517 0.722404
Si Si4 0.909550 0.526998 0.520425
Si Si5 0.544898 0.702648 0.196935
Si Si6 0.030364 0.756399 0.868344
Si Si7 0.299973 0.545003 0.067988
Si Si8 0.162573 0.125930 0.903399
O O1 0.511648 0.097017 0.673949
O O2 0.648014 0.251906 0.584475
O O3 0.588285 0.906799 0.546185
O O4 0.687900 0.950791 0.683192
O O5 0.761101 0.922635 0.949552
O O6 0.927914 0.849551 0.883821
O O7 0.839257 0.590212 0.989871
O O8 0.345093 0.263209 0.715333
O O9 0.196310 0.419851 0.657125
O O10 0.194495 0.256419 0.820152
O O11 0.959947 0.565695 0.611602
O O12 0.954244 0.386274 0.449384
O O13 0.809062 0.434718 0.544814
O O14 0.893086 0.738821 0.472259
O O15 0.485006 0.634439 0.280101
O O16 0.106468 0.931741 0.872613
#
# Coordination Sequence:
#
# PCOD9340844 Si02
#       8
#     4   4   4   4   4   4   4   4
#     4  11  21  40  66  92 124 170 211 255 317 397
#     4  10  22  39  65  91 129 166 206 263 326 370
#     4  10  22  40  62  92 129 166 208 268 321 369
#     4  10  24  42  63  94 132 171 215 267 323 385
#     4  11  23  42  64  97 132 165 217 266 318 387
#     4  12  23  41  68  96 128 172 215 269 320 389
#     4   9  21  40  64  90 127 170 208 261 322 383
#     4  11  22  42  64  92 129 168 216 267 319 382
#
# _framework density 21.459249
#
# number of rings (size 3 to 8) (size 9 to 14) (size 15 to 20)
#    0.000    1.500    2.500    3.000    1.750    1.000 
#    0.000    3.750    0.000    0.000    0.000    0.000 
#    0.000    0.000    0.000    0.000    0.000    0.000 
#
# Total GULP energy -178589.659684 kJ/mol
# GULP energy per Si atom -5580.926865 kJ/mol
# Density = 2.141041 g / cm^3
# Si number density = 21.459249 Si / 1000 Ang^3
#
#
#
# Elastic Constant Matrix: (Units=GPa)
#
#
# Indices 1 2 3 4 5 6 
#
# 1 63.7261 29.9168 25.3153 0.0000 0.0000 0.0000
# 2 29.9168 44.4078 17.1963 0.0000 0.0000 0.0000
# 3 25.3153 17.1963 123.6991 0.0000 0.0000 0.0000
# 4 0.0000 0.0000 0.0000 28.2406 0.0000 0.0000
# 5 0.0000 0.0000 0.0000 0.0000 33.3731 0.0000
# 6 0.0000 0.0000 0.0000 0.0000 0.0000 11.7987
#
#
#
# Elastic Compliance Matrix: (Units=1/GPa)
#
#
# Indices 1 2 3 4 5 6 
#
# 1 0.023832 -0.014972 -0.002796 0.000000 0.000000 0.000000
# 2 -0.014972 0.033206 -0.001552 0.000000 0.000000 0.000000
# 3 -0.002796 -0.001552 0.008872 0.000000 0.000000 0.000000
# 4 0.000000 0.000000 0.000000 0.035410 0.000000 0.000000
# 5 0.000000 0.000000 0.000000 0.000000 0.029964 0.000000
# 6 0.000000 0.000000 0.000000 0.000000 0.000000 0.084755
#
#
# Mechanical properties :
#
#
# Convention : Reuss Voigt Hill
#
# Bulk Modulus (GPa) = 36.67109 41.85442 39.26275
# Shear Modulus (GPa) = 18.95593 25.30947 22.13270
#
# Velocity S-wave (km/s) = 2.97534 3.43799 3.21500
# Velocity P-wave (km/s) = 5.37860 5.94190 5.66725
#
# Compressibility (1/GPa) = 0.02726944
#
# Stress axis : x y z
#
# Youngs Moduli (GPa) = 41.96081 30.11476 112.71334
#
# Poissons Ratio (x) = 0.45089 0.31512
# Poissons Ratio (y) = 0.62826 0.17494
# Poissons Ratio (z) = 0.11731 0.04674
#
# Static dielectric constant tensor:
#      x y z
#    x 1.813460 0.000000 0.000000 
#    y 0.000000 1.751720 0.000000 
#    z 0.000000 0.000000 1.864120 
# 
# From -- ./inp_files/5215.got.cif
#   From: 2010.05.17/outbox.cif.g08.bks.cpg/sg29_3_cif.got.tgz:5215.got - 2010.06.04 01:19:37.
