data_PCOD9340908
_publ_section_title
;
Structure prediction by ZEFSAII (Michael W. Deem and Ramdas Pophale) SiO2 
 PCOD9340908
Probable space group: P C A 21
;
_chemical_formula_sum "Si O2"
_cell_formula_units_Z 28
_cell_length_a 9.061358
_cell_length_b 17.327558
_cell_length_c 8.222689
_cell_angle_alpha 90.000000
_cell_angle_beta 90.000000
_cell_angle_gamma 90.000000
_cell_volume 1291.054319
_symmetry_space_group_name_H-M "P C A 21"
_symmetry_group_IT_number 29
_symmetry_cell_setting 'orthorhombic'
loop_
_space_group_symop_operation_xyz
x,y,z
-x,-y,1/2+z
1/2-x,y,1/2+z
1/2+x,-y,z
loop_
_atom_site_type_symbol
_atom_site_label
_atom_site_fract_x
_atom_site_fract_y
_atom_site_fract_z
Si Si1 0.291848 0.030591 0.708110
Si Si2 0.163200 0.315992 0.470768
Si Si3 0.566692 0.832873 0.625217
Si Si4 0.973941 0.430348 0.305869
Si Si5 0.167242 0.563764 0.450449
Si Si6 0.963533 0.682976 0.309336
Si Si7 0.082733 0.945163 0.913816
O O1 0.174967 0.099903 0.687061
O O2 0.421027 0.046056 0.836728
O O3 0.200271 0.956049 0.770459
O O4 0.372097 0.012812 0.538515
O O5 0.148691 0.224469 0.498952
O O6 0.099831 0.350475 0.638697
O O7 0.332220 0.333556 0.435222
O O8 0.058221 0.349284 0.331218
O O9 0.521921 0.773788 0.768372
O O10 0.431394 0.870307 0.527299
O O11 0.842207 0.439398 0.436216
O O12 0.094689 0.494786 0.347283
O O13 0.897509 0.438797 0.131632
O O14 0.110263 0.642551 0.367560
#
# Coordination Sequence:
#
# PCOD9340908 Si02
#       7
#     4   4   4   4   4   4   4
#     4  12  23  42  71 100 138 183 239 299 357 433
#     4  10  22  41  67  97 135 177 230 274 349 404
#     4  10  24  42  70  95 144 178 243 284 363 420
#     4  12  25  45  71 105 138 183 228 286 344 416
#     4  12  25  45  72 101 143 178 232 283 345 416
#     4  10  22  41  66  98 132 182 225 280 343 410
#     4  12  23  44  67 102 134 183 239 294 359 429
#
# _framework density 21.687702999999999
#
# number of rings (size 3 to 8) (size 9 to 14) (size 15 to 20)
#    0.857    0.000    2.857    5.143    0.000    0.000 
#    2.571    0.000    0.000    0.000    0.000    0.000 
#    0.000    0.000    0.000    0.000    0.000    0.000 
#
# Total GULP energy -156339.966304 kJ/mol
# GULP energy per Si atom -5583.570225 kJ/mol
# Density = 2.163834 g / cm^3
# Si number density = 21.687703 Si / 1000 Ang^3
#
#
#
# Elastic Constant Matrix: (Units=GPa)
#
#
# Indices 1 2 3 4 5 6 
#
# 1 74.4714 27.3816 11.8691 0.0000 0.0000 0.0000
# 2 27.3816 60.6497 20.4356 0.0000 0.0000 0.0000
# 3 11.8691 20.4356 82.5437 0.0000 0.0000 0.0000
# 4 0.0000 0.0000 0.0000 34.4438 0.0000 0.0000
# 5 0.0000 0.0000 0.0000 0.0000 38.7263 0.0000
# 6 0.0000 0.0000 0.0000 0.0000 0.0000 19.8155
#
#
#
# Elastic Compliance Matrix: (Units=1/GPa)
#
#
# Indices 1 2 3 4 5 6 
#
# 1 0.016125 -0.007090 -0.000563 0.000000 0.000000 0.000000
# 2 -0.007090 0.021106 -0.004206 0.000000 0.000000 0.000000
# 3 -0.000563 -0.004206 0.013237 0.000000 0.000000 0.000000
# 4 0.000000 0.000000 0.000000 0.029033 0.000000 0.000000
# 5 0.000000 0.000000 0.000000 0.000000 0.025822 0.000000
# 6 0.000000 0.000000 0.000000 0.000000 0.000000 0.050465
#
#
# Mechanical properties :
#
#
# Convention : Reuss Voigt Hill
#
# Bulk Modulus (GPa) = 37.38380 37.44862 37.41621
# Shear Modulus (GPa) = 26.53600 29.12901 27.83251
#
# Velocity S-wave (km/s) = 3.50172 3.66882 3.58625
# Velocity P-wave (km/s) = 5.79864 5.93732 5.86839
#
# Compressibility (1/GPa) = 0.02674956
#
# Stress axis : x y z
#
# Youngs Moduli (GPa) = 62.01698 47.37945 75.54551
#
# Poissons Ratio (x) = 0.33592 0.04255
# Poissons Ratio (y) = 0.43970 0.31773
# Poissons Ratio (z) = 0.03493 0.19927
#
# Static dielectric constant tensor:
#      x y z
#    x 1.737560 0.000000 0.000000 
#    y 0.000000 1.812170 0.000000 
#    z 0.000000 0.000000 1.862490 
# 
# From -- ./inp_files/1218.got.cif
#   From: 2010.05.17/outbox.cif.g08.bks.cpg/sg29_1_cif.got.tgz:1218.got - 2010.06.04 01:19:37.
