data_PCOD9340962
_publ_section_title
;
Structure prediction by ZEFSAII (Michael W. Deem and Ramdas Pophale) SiO2 
 PCOD9340962
Probable space group: P C A 21
;
_chemical_formula_sum "Si O2"
_cell_formula_units_Z 28
_cell_length_a 18.777012
_cell_length_b 5.433292
_cell_length_c 11.138211
_cell_angle_alpha 90.000000
_cell_angle_beta 90.000000
_cell_angle_gamma 90.000000
_cell_volume 1136.331303
_symmetry_space_group_name_H-M "P C A 21"
_symmetry_group_IT_number 29
_symmetry_cell_setting 'orthorhombic'
loop_
_space_group_symop_operation_xyz
x,y,z
-x,-y,1/2+z
1/2-x,y,1/2+z
1/2+x,-y,z
loop_
_atom_site_type_symbol
_atom_site_label
_atom_site_fract_x
_atom_site_fract_y
_atom_site_fract_z
Si Si1 0.670230 0.902920 0.125000
Si Si2 0.549940 0.048550 0.943909
Si Si3 0.690100 0.143511 0.555865
Si Si4 0.290001 0.482111 0.435280
Si Si5 0.348998 0.244739 0.876036
Si Si6 0.520771 0.454350 0.390906
Si Si7 0.406588 0.645197 0.248266
O O1 0.631697 0.885964 0.252098
O O2 0.747675 0.027276 0.138730
O O3 0.616986 0.033329 0.031829
O O4 0.685478 0.639997 0.060653
O O5 0.503952 0.800564 0.947888
O O6 0.507738 0.303715 0.962683
O O7 0.576527 0.086585 0.805996
O O8 0.740476 0.285043 0.461886
O O9 0.637829 0.321707 0.628641
O O10 0.645627 0.930955 0.490680
O O11 0.234719 0.299811 0.371975
O O12 0.355169 0.526539 0.348377
O O13 0.396232 0.490274 0.880312
O O14 0.479982 0.495596 0.262789
#
# Coordination Sequence:
#
# PCOD9340962 Si02
#       7
#     4   4   4   4   4   4   4
#     4  11  22  42  68  99 136 186 232 295 351 426
#     4  10  22  46  70  96 139 183 235 278 355 417
#     4  11  23  41  66 101 138 177 234 296 350 417
#     4  11  22  42  68 102 134 179 234 295 349 423
#     4  11  27  41  66 104 137 182 236 292 353 425
#     4  10  24  46  68 102 138 186 235 282 352 426
#     4  10  22  42  70  96 136 185 228 284 354 414
#
# _framework density 24.640699000000001
#
# number of rings (size 3 to 8) (size 9 to 14) (size 15 to 20)
#    0.857    0.571    2.857    1.714    4.000    3.429 
#    2.571    0.000    0.000    0.000    0.000    0.000 
#    0.000    0.000    0.000    0.000    0.000    0.000 
#
# Total GULP energy -156428.873476 kJ/mol
# GULP energy per Si atom -5586.745481 kJ/mol
# Density = 2.458462 g / cm^3
# Si number density = 24.640699 Si / 1000 Ang^3
#
#
#
# Elastic Constant Matrix: (Units=GPa)
#
#
# Indices 1 2 3 4 5 6 
#
# 1 87.9670 11.8035 5.0086 0.0000 0.0000 0.0000
# 2 11.8035 80.6701 -9.9253 0.0000 0.0000 0.0000
# 3 5.0086 -9.9253 49.4994 0.0000 0.0000 0.0000
# 4 0.0000 0.0000 0.0000 14.1622 0.0000 0.0000
# 5 0.0000 0.0000 0.0000 0.0000 15.3409 0.0000
# 6 0.0000 0.0000 0.0000 0.0000 0.0000 48.3183
#
#
#
# Elastic Compliance Matrix: (Units=1/GPa)
#
#
# Indices 1 2 3 4 5 6 
#
# 1 0.011713 -0.001907 -0.001568 0.000000 0.000000 0.000000
# 2 -0.001907 0.013020 0.002804 0.000000 0.000000 0.000000
# 3 -0.001568 0.002804 0.020923 0.000000 0.000000 0.000000
# 4 0.000000 0.000000 0.000000 0.070611 0.000000 0.000000
# 5 0.000000 0.000000 0.000000 0.000000 0.065185 0.000000
# 6 0.000000 0.000000 0.000000 0.000000 0.000000 0.020696
#
#
# Mechanical properties :
#
#
# Convention : Reuss Voigt Hill
#
# Bulk Modulus (GPa) = 22.56571 25.76779 24.16675
# Shear Modulus (GPa) = 22.90838 29.64759 26.27798
#
# Velocity S-wave (km/s) = 3.05240 3.47247 3.26919
# Velocity P-wave (km/s) = 4.64765 5.15340 4.90705
#
# Compressibility (1/GPa) = 0.04431503
#
# Stress axis : x y z
#
# Youngs Moduli (GPa) = 85.37531 76.80435 47.79420
#
# Poissons Ratio (x) = 0.14644 0.07492
# Poissons Ratio (y) = 0.16278 -0.13400
# Poissons Ratio (z) = 0.13383 -0.21533
#
# Static dielectric constant tensor:
#      x y z
#    x 1.970260 0.000000 0.000000 
#    y 0.000000 1.994380 0.000000 
#    z 0.000000 0.000000 1.989940 
# 
# From -- ./inp_files/3732.got.cif
#   From: 2010.05.17/outbox.cif.g08.bks.cpg/sg29_2_cif.got.tgz:3732.got - 2010.06.04 01:19:37.
