data_PCOD9340616
_publ_section_title
;
Structure prediction by ZEFSAII (Michael W. Deem and Ramdas Pophale) SiO2 
 PCOD9340616
Probable space group: P C A 21
;
_chemical_formula_sum "Si O2"
_cell_formula_units_Z 32
_cell_length_a 19.068136
_cell_length_b 15.647249
_cell_length_c 5.288057
_cell_angle_alpha 90.000000
_cell_angle_beta 90.000000
_cell_angle_gamma 90.000000
_cell_volume 1577.765162
_symmetry_space_group_name_H-M "P C A 21"
_symmetry_group_IT_number 29
_symmetry_cell_setting 'orthorhombic'
loop_
_space_group_symop_operation_xyz
x,y,z
-x,-y,1/2+z
1/2-x,y,1/2+z
1/2+x,-y,z
loop_
_atom_site_type_symbol
_atom_site_label
_atom_site_fract_x
_atom_site_fract_y
_atom_site_fract_z
Si Si1 0.214376 0.651352 0.332020
Si Si2 0.441739 0.918014 0.399512
Si Si3 0.490083 0.206430 0.515479
Si Si4 0.363474 0.821490 0.776379
Si Si5 0.083601 0.088860 0.685840
Si Si6 0.426408 0.559738 0.742645
Si Si7 0.201519 0.000538 0.428076
Si Si8 0.991120 0.614536 0.744043
O O1 0.224880 0.634282 0.628344
O O2 0.195302 0.750925 0.297770
O O3 0.150650 0.595809 0.229972
O O4 0.486456 0.875888 0.176720
O O5 0.384239 0.850499 0.494580
O O6 0.503146 0.929142 0.603808
O O7 0.403237 0.007073 0.362501
O O8 0.564083 0.221735 0.372985
O O9 0.426705 0.177593 0.332585
O O10 0.472452 0.287152 0.689656
O O11 0.340136 0.909288 0.914542
O O12 0.142138 0.074393 0.471494
O O13 0.471285 0.600107 0.512660
O O14 0.430594 0.456913 0.728662
O O15 0.458790 0.587259 0.011617
O O16 0.253437 0.005542 0.670202
#
# Coordination Sequence:
#
# PCOD9340616 Si02
#       8
#     4   4   4   4   4   4   4   4
#     4  12  25  38  61  91 133 172 196 236 298 389
#     4  11  20  36  62  86 124 160 200 280 311 364
#     4  11  22  35  65  91 123 153 202 275 319 356
#     4  11  23  37  57  90 125 157 214 248 311 374
#     4  11  22  37  57  88 119 163 213 255 321 358
#     4  10  21  41  62  90 129 155 205 241 319 364
#     4  12  26  41  58  79 120 174 213 251 297 373
#     4  10  21  39  66  93 119 158 195 274 304 362
#
# _framework density 20.281852000000001
#
# number of rings (size 3 to 8) (size 9 to 14) (size 15 to 20)
#    0.000    1.000    3.750    3.750    5.250    0.000 
#    0.000    0.000    0.000    1.500    0.000    0.000 
#    0.000    0.000    0.000    0.000    0.000    0.000 
#
# Total GULP energy -178524.552530 kJ/mol
# GULP energy per Si atom -5578.892267 kJ/mol
# Density = 2.023569 g / cm^3
# Si number density = 20.281852 Si / 1000 Ang^3
#
#
#
# Elastic Constant Matrix: (Units=GPa)
#
#
# Indices 1 2 3 4 5 6 
#
# 1 49.7895 23.3243 15.7501 0.0000 0.0000 0.0000
# 2 23.3243 61.1272 2.5621 0.0000 0.0000 0.0000
# 3 15.7501 2.5621 77.8081 0.0000 0.0000 0.0000
# 4 0.0000 0.0000 0.0000 28.4019 0.0000 0.0000
# 5 0.0000 0.0000 0.0000 0.0000 25.5931 0.0000
# 6 0.0000 0.0000 0.0000 0.0000 0.0000 30.1567
#
#
#
# Elastic Compliance Matrix: (Units=1/GPa)
#
#
# Indices 1 2 3 4 5 6 
#
# 1 0.026260 -0.009811 -0.004993 0.000000 0.000000 0.000000
# 2 -0.009811 0.020047 0.001326 0.000000 0.000000 0.000000
# 3 -0.004993 0.001326 0.013819 0.000000 0.000000 0.000000
# 4 0.000000 0.000000 0.000000 0.035209 0.000000 0.000000
# 5 0.000000 0.000000 0.000000 0.000000 0.039073 0.000000
# 6 0.000000 0.000000 0.000000 0.000000 0.000000 0.033160
#
#
# Mechanical properties :
#
#
# Convention : Reuss Voigt Hill
#
# Bulk Modulus (GPa) = 30.14662 30.22199 30.18431
# Shear Modulus (GPa) = 24.32144 26.63624 25.47884
#
# Velocity S-wave (km/s) = 3.46666 3.62789 3.54819
# Velocity P-wave (km/s) = 5.56056 5.69931 5.63036
#
# Compressibility (1/GPa) = 0.03317121
#
# Stress axis : x y z
#
# Youngs Moduli (GPa) = 38.08112 49.88227 72.36374
#
# Poissons Ratio (x) = 0.48938 0.36128
# Poissons Ratio (y) = 0.37360 -0.09594
# Poissons Ratio (z) = 0.19012 -0.06613
#
# Static dielectric constant tensor:
#      x y z
#    x 1.768050 0.000000 0.000000 
#    y 0.000000 1.743430 0.000000 
#    z 0.000000 0.000000 1.832230 
# 
# From -- ./inp_files/449.got.cif
#   From: 2010.05.17/outbox.cif.g08.bks.cpg/sg29_1_cif.got.tgz:449.got - 2010.06.04 01:19:37.
