data_PCOD9340163
_publ_section_title
;
Structure prediction by ZEFSAII (Michael W. Deem and Ramdas Pophale) SiO2 
 PCOD9340163
Probable space group: P C A 21
;
_chemical_formula_sum "Si O2"
_cell_formula_units_Z 32
_cell_length_a 14.544737
_cell_length_b 8.523207
_cell_length_c 14.616973
_cell_angle_alpha 90.000000
_cell_angle_beta 90.000000
_cell_angle_gamma 90.000000
_cell_volume 1812.034047
_symmetry_space_group_name_H-M "P C A 21"
_symmetry_group_IT_number 29
_symmetry_cell_setting 'orthorhombic'
loop_
_space_group_symop_operation_xyz
x,y,z
-x,-y,1/2+z
1/2-x,y,1/2+z
1/2+x,-y,z
loop_
_atom_site_type_symbol
_atom_site_label
_atom_site_fract_x
_atom_site_fract_y
_atom_site_fract_z
Si Si1 0.500000 0.940621 0.733140
Si Si2 0.000000 0.061292 0.523762
Si Si3 0.353190 0.561641 0.882373
Si Si4 0.146809 0.438359 0.882373
Si Si5 0.500000 0.440620 0.233140
Si Si6 0.646809 0.938359 0.882373
Si Si7 0.353190 0.938359 0.882373
Si Si8 0.500000 0.561292 0.523762
O O1 0.500000 0.994475 0.628745
O O2 0.500000 0.750000 0.731249
O O3 0.588994 0.988565 0.792322
O O4 0.411006 0.988566 0.792322
O O5 0.000002 0.250000 0.522569
O O6 0.088637 0.000738 0.468481
O O7 0.911363 0.000741 0.468481
O O8 0.250000 0.499999 0.881397
O O9 0.411006 0.511434 0.792321
O O10 0.353118 0.750000 0.885323
O O11 0.411363 0.499262 0.968480
O O12 0.088994 0.488565 0.792322
O O13 0.146880 0.250000 0.885325
O O14 0.088636 0.500741 0.968481
O O15 0.500000 0.494475 0.128745
O O16 0.750000 0.999999 0.881397
#
# Coordination Sequence:
#
# PCOD9340163 Si02
#       8
#     4   4   4   4   4   4   4   4
#     4   8  18  35  54  75 104 135 171 214 258 304
#     4  10  19  35  56  79 104 135 171 214 260 306
#     4  10  20  36  54  77 106 138 172 212 256 306
#     4  10  20  36  54  77 106 138 172 212 256 306
#     4   8  18  35  54  75 104 135 171 214 258 304
#     4  10  20  36  54  77 106 138 172 212 256 306
#     4  10  20  36  54  77 106 138 172 212 256 306
#     4  10  19  35  56  79 104 135 171 214 260 306
#
# _framework density 17.659713
#
# number of rings (size 3 to 8) (size 9 to 14) (size 15 to 20)
#    0.000    2.500    0.000    3.750    0.000    2.000 
#    0.000   20.000    0.000    0.000    0.000    0.000 
#    0.000    0.000    0.000    0.000    0.000    0.000 
#
# Total GULP energy -178526.028998 kJ/mol
# GULP energy per Si atom -5578.938406 kJ/mol
# Density = 1.761952 g / cm^3
# Si number density = 17.659713 Si / 1000 Ang^3
#
#
#
# Elastic Constant Matrix: (Units=GPa)
#
#
# Indices 1 2 3 4 5 6 
#
# 1 202.6378 42.8915 111.7704 0.0000 0.0000 0.0000
# 2 42.8915 59.3315 39.4707 0.0000 0.0000 0.0000
# 3 111.7704 39.4707 205.4642 0.0000 0.0000 0.0000
# 4 0.0000 0.0000 0.0000 24.3174 0.0000 0.0000
# 5 0.0000 0.0000 0.0000 0.0000 4.0100 0.0000
# 6 0.0000 0.0000 0.0000 0.0000 0.0000 22.4639
#
#
#
# Elastic Compliance Matrix: (Units=1/GPa)
#
#
# Indices 1 2 3 4 5 6 
#
# 1 0.007521 -0.003113 -0.003493 0.000000 0.000000 0.000000
# 2 -0.003113 0.020613 -0.002266 0.000000 0.000000 0.000000
# 3 -0.003493 -0.002266 0.007203 0.000000 0.000000 0.000000
# 4 0.000000 0.000000 0.000000 0.041123 0.000000 0.000000
# 5 0.000000 0.000000 0.000000 0.000000 0.249377 0.000000
# 6 0.000000 0.000000 0.000000 0.000000 0.000000 0.044516
#
#
# Mechanical properties :
#
#
# Convention : Reuss Voigt Hill
#
# Bulk Modulus (GPa) = 56.84743 95.07764 75.96253
# Shear Modulus (GPa) = 12.69165 28.37831 20.53498
#
# Velocity S-wave (km/s) = 2.68373 4.01303 3.41371
# Velocity P-wave (km/s) = 6.47020 8.68494 7.65806
#
# Compressibility (1/GPa) = 0.01759094
#
# Stress axis : x y z
#
# Youngs Moduli (GPa) = 132.96971 48.51416 138.83846
#
# Poissons Ratio (x) = 0.15102 0.48497
# Poissons Ratio (y) = 0.41392 0.31466
# Poissons Ratio (z) = 0.46447 0.10995
#
# Static dielectric constant tensor:
#      x y z
#    x 1.569870 0.000000 0.000000 
#    y 0.000000 1.599860 0.000000 
#    z 0.000000 0.000000 1.598840 
# 
# From -- ./inp_files/4699.got.cif
#   From: 2010.05.17/outbox.cif.g08.bks.cpg/sg29_3_cif.got.tgz:4699.got - 2010.06.04 01:19:37.
