data_PCOD9340868
_publ_section_title
;
Structure prediction by ZEFSAII (Michael W. Deem and Ramdas Pophale) SiO2 
 PCOD9340868
Probable space group: P C A 21
;
_chemical_formula_sum "Si O2"
_cell_formula_units_Z 32
_cell_length_a 11.007130
_cell_length_b 6.830983
_cell_length_c 17.762560
_cell_angle_alpha 90.000000
_cell_angle_beta 90.000000
_cell_angle_gamma 90.000000
_cell_volume 1335.558323
_symmetry_space_group_name_H-M "P C A 21"
_symmetry_group_IT_number 29
_symmetry_cell_setting 'orthorhombic'
loop_
_space_group_symop_operation_xyz
x,y,z
-x,-y,1/2+z
1/2-x,y,1/2+z
1/2+x,-y,z
loop_
_atom_site_type_symbol
_atom_site_label
_atom_site_fract_x
_atom_site_fract_y
_atom_site_fract_z
Si Si1 0.515007 0.297717 0.463320
Si Si2 0.060054 0.148281 0.698285
Si Si3 0.817051 0.969313 0.905668
Si Si4 0.856201 0.663076 0.778346
Si Si5 0.893381 0.533467 0.321994
Si Si6 0.081012 0.318942 0.533963
Si Si7 0.369720 0.948875 0.512042
Si Si8 0.297931 0.026987 0.669402
O O1 0.419822 0.407157 0.408446
O O2 0.590944 0.457323 0.509395
O O3 0.453463 0.141578 0.518889
O O4 0.597904 0.157033 0.412393
O O5 0.076856 0.280015 0.770399
O O6 0.097246 0.266180 0.621568
O O7 0.165227 0.983999 0.703824
O O8 0.921136 0.085160 0.691372
O O9 0.828903 0.852186 0.829960
O O10 0.848995 0.813765 0.972522
O O11 0.684688 0.041611 0.929052
O O12 0.751150 0.506237 0.803407
O O13 0.831817 0.749026 0.694942
O O14 0.995149 0.607435 0.796940
O O15 0.942980 0.248557 0.520917
O O16 0.281145 0.972074 0.581949
#
# Coordination Sequence:
#
# PCOD9340868 Si02
#       8
#     4   4   4   4   4   4   4   4
#     4  11  23  40  66  96 133 174 216 277 336 389
#     4  10  22  42  66  95 133 177 224 273 340 396
#     4  11  21  41  66  94 130 174 222 270 335 394
#     4  11  24  43  65  95 138 176 227 277 331 404
#     4  11  24  42  63  97 135 178 225 278 331 400
#     4  10  22  40  63  98 132 166 223 276 326 401
#     4  10  22  40  64  94 130 174 221 270 334 393
#     4  10  22  42  65  89 133 175 220 279 323 405
#
# _framework density 23.960014000000001
#
# number of rings (size 3 to 8) (size 9 to 14) (size 15 to 20)
#    0.000    1.500    3.750    0.750    1.750    3.000 
#    0.000    1.250    0.000    0.000    0.000    0.000 
#    0.000    0.000    0.000    0.000    0.000    0.000 
#
# Total GULP energy -178473.392438 kJ/mol
# GULP energy per Si atom -5577.293514 kJ/mol
# Density = 2.390548 g / cm^3
# Si number density = 23.960014 Si / 1000 Ang^3
#
#
#
# Elastic Constant Matrix: (Units=GPa)
#
#
# Indices 1 2 3 4 5 6 
#
# 1 74.1988 16.8181 18.4665 0.0000 0.0000 0.0000
# 2 16.8181 37.5149 20.5122 0.0000 0.0000 0.0000
# 3 18.4665 20.5122 71.7326 0.0000 0.0000 0.0000
# 4 0.0000 0.0000 0.0000 28.8342 0.0000 0.0000
# 5 0.0000 0.0000 0.0000 0.0000 35.6821 0.0000
# 6 0.0000 0.0000 0.0000 0.0000 0.0000 28.8284
#
#
#
# Elastic Compliance Matrix: (Units=1/GPa)
#
#
# Indices 1 2 3 4 5 6 
#
# 1 0.015328 -0.005588 -0.002348 0.000000 0.000000 0.000000
# 2 -0.005588 0.033633 -0.008179 0.000000 0.000000 0.000000
# 3 -0.002348 -0.008179 0.016884 0.000000 0.000000 0.000000
# 4 0.000000 0.000000 0.000000 0.034681 0.000000 0.000000
# 5 0.000000 0.000000 0.000000 0.000000 0.028025 0.000000
# 6 0.000000 0.000000 0.000000 0.000000 0.000000 0.034688
#
#
# Mechanical properties :
#
#
# Convention : Reuss Voigt Hill
#
# Bulk Modulus (GPa) = 29.74828 32.78221 31.26524
# Shear Modulus (GPa) = 24.19257 27.17889 25.68573
#
# Velocity S-wave (km/s) = 3.18103 3.37166 3.27773
# Velocity P-wave (km/s) = 5.09262 5.37300 5.23469
#
# Compressibility (1/GPa) = 0.03361539
#
# Stress axis : x y z
#
# Youngs Moduli (GPa) = 65.23898 29.73255 59.22771
#
# Poissons Ratio (x) = 0.16614 0.13908
# Poissons Ratio (y) = 0.36454 0.48443
# Poissons Ratio (z) = 0.15319 0.24318
#
# Static dielectric constant tensor:
#      x y z
#    x 2.044530 0.000000 0.000000 
#    y 0.000000 1.920710 0.000000 
#    z 0.000000 0.000000 1.921890 
# 
# From -- ./inp_files/5548.got.cif
#   From: 2010.05.17/outbox.cif.g08.bks.cpg/sg29_3_cif.got.tgz:5548.got - 2010.06.04 01:19:37.
