data_PCOD9340875
_publ_section_title
;
Structure prediction by ZEFSAII (Michael W. Deem and Ramdas Pophale) SiO2 
 PCOD9340875
Probable space group: P C A 21
;
_chemical_formula_sum "Si O2"
_cell_formula_units_Z 28
_cell_length_a 9.123492
_cell_length_b 9.946799
_cell_length_c 10.633082
_cell_angle_alpha 90.000000
_cell_angle_beta 90.000000
_cell_angle_gamma 90.000000
_cell_volume 964.947312
_symmetry_space_group_name_H-M "P C A 21"
_symmetry_group_IT_number 29
_symmetry_cell_setting 'orthorhombic'
loop_
_space_group_symop_operation_xyz
x,y,z
-x,-y,1/2+z
1/2-x,y,1/2+z
1/2+x,-y,z
loop_
_atom_site_type_symbol
_atom_site_label
_atom_site_fract_x
_atom_site_fract_y
_atom_site_fract_z
Si Si1 0.564782 0.412026 0.822920
Si Si2 0.377734 0.465833 0.569748
Si Si3 0.459039 0.142673 0.359715
Si Si4 0.842166 0.278589 0.699128
Si Si5 0.148217 0.907054 0.568156
Si Si6 0.448149 0.148487 0.786031
Si Si7 0.730017 0.805905 0.587032
O O1 0.484775 0.449946 0.690862
O O2 0.727314 0.356145 0.790897
O O3 0.473543 0.279834 0.869009
O O4 0.561033 0.529258 0.927376
O O5 0.331387 0.620023 0.582831
O O6 0.249516 0.355759 0.586873
O O7 0.494510 0.246842 0.248519
O O8 0.620114 0.150982 0.431146
O O9 0.339002 0.164956 0.466373
O O10 0.469723 0.985403 0.326741
O O11 0.794027 0.135208 0.639959
O O12 0.033572 0.827866 0.654779
O O13 0.123093 0.066917 0.561179
O O14 0.285641 0.148811 0.728598
#
# Coordination Sequence:
#
# PCOD9340875 Si02
#       7
#     4   4   4   4   4   4   4
#     4  10  24  45  71  97 140 189 228 293 350 431
#     4  11  24  45  67  99 141 180 236 281 350 426
#     4  11  22  38  69  96 124 178 228 283 337 417
#     4  11  23  43  69  94 136 186 229 271 360 418
#     4  10  22  40  65  93 133 168 226 287 340 406
#     4   9  21  40  64  94 127 168 230 277 348 403
#     4  10  22  41  59  99 131 165 225 286 337 403
#
# _framework density 29.017126999999999
#
# number of rings (size 3 to 8) (size 9 to 14) (size 15 to 20)
#    0.000    1.714    1.429    2.571    6.000    1.143 
#   12.857    0.000    0.000    0.000    0.000    0.000 
#    0.000    0.000    0.000    0.000    0.000    0.000 
#
# Total GULP energy -156200.973215 kJ/mol
# GULP energy per Si atom -5578.606186 kJ/mol
# Density = 2.895108 g / cm^3
# Si number density = 29.017127 Si / 1000 Ang^3
#
#
#
# Elastic Constant Matrix: (Units=GPa)
#
#
# Indices 1 2 3 4 5 6 
#
# 1 23.4382 -14.9462 -13.9127 0.0000 0.0000 0.0000
# 2 -14.9462 151.8440 31.9955 0.0000 0.0000 0.0000
# 3 -13.9127 31.9955 76.3480 0.0000 0.0000 0.0000
# 4 0.0000 0.0000 0.0000 62.2004 0.0000 0.0000
# 5 0.0000 0.0000 0.0000 0.0000 43.1796 0.0000
# 6 0.0000 0.0000 0.0000 0.0000 0.0000 41.5075
#
#
#
# Elastic Compliance Matrix: (Units=1/GPa)
#
#
# Indices 1 2 3 4 5 6 
#
# 1 0.049255 0.003243 0.007616 0.000000 0.000000 0.000000
# 2 0.003243 0.007437 -0.002526 0.000000 0.000000 0.000000
# 3 0.007616 -0.002526 0.015544 0.000000 0.000000 0.000000
# 4 0.000000 0.000000 0.000000 0.016077 0.000000 0.000000
# 5 0.000000 0.000000 0.000000 0.000000 0.023159 0.000000
# 6 0.000000 0.000000 0.000000 0.000000 0.000000 0.024092
#
#
# Mechanical properties :
#
#
# Convention : Reuss Voigt Hill
#
# Bulk Modulus (GPa) = 11.24809 28.65594 19.95201
# Shear Modulus (GPa) = 33.66301 45.94372 39.80337
#
# Velocity S-wave (km/s) = 3.40973 3.98343 3.70769
# Velocity P-wave (km/s) = 4.40301 5.57260 5.02197
#
# Compressibility (1/GPa) = 0.08890399
#
# Stress axis : x y z
#
# Youngs Moduli (GPa) = 20.30267 134.46019 64.33233
#
# Poissons Ratio (x) = -0.43610 -0.48998
# Poissons Ratio (y) = -0.06585 0.16248
# Poissons Ratio (z) = -0.15463 0.33961
#
# Static dielectric constant tensor:
#      x y z
#    x 2.698800 0.000000 0.000000 
#    y 0.000000 2.227170 0.000000 
#    z 0.000000 0.000000 2.341580 
# 
# From -- ./inp_files/3136.got.cif
#   From: 2010.05.17/outbox.cif.g08.bks.cpg/sg29_2_cif.got.tgz:3136.got - 2010.06.04 01:19:37.
