data_PCOD9340468
_publ_section_title
;
Structure prediction by ZEFSAII (Michael W. Deem and Ramdas Pophale) SiO2 
 PCOD9340468
Probable space group: P C A 21
;
_chemical_formula_sum "Si O2"
_cell_formula_units_Z 28
_cell_length_a 14.096785
_cell_length_b 5.649771
_cell_length_c 17.641881
_cell_angle_alpha 90.000000
_cell_angle_beta 90.000000
_cell_angle_gamma 90.000000
_cell_volume 1405.063039
_symmetry_space_group_name_H-M "P C A 21"
_symmetry_group_IT_number 29
_symmetry_cell_setting 'orthorhombic'
loop_
_space_group_symop_operation_xyz
x,y,z
-x,-y,1/2+z
1/2-x,y,1/2+z
1/2+x,-y,z
loop_
_atom_site_type_symbol
_atom_site_label
_atom_site_fract_x
_atom_site_fract_y
_atom_site_fract_z
Si Si1 0.601005 0.763006 0.694960
Si Si2 0.122981 0.179955 0.517894
Si Si3 0.754706 0.536576 0.793056
Si Si4 0.131267 0.853808 0.824098
Si Si5 0.825399 0.788632 0.444736
Si Si6 0.533852 0.317290 0.458640
Si Si7 0.465877 0.511514 0.796278
O O1 0.605395 0.820179 0.607654
O O2 0.691637 0.609052 0.721365
O O3 0.506136 0.626276 0.720055
O O4 0.607118 0.977768 0.754049
O O5 0.235259 0.183469 0.498414
O O6 0.081133 0.431588 0.484996
O O7 0.079737 0.929638 0.487730
O O8 0.733215 0.260922 0.805620
O O9 0.712454 0.652453 0.869534
O O10 0.863475 0.599369 0.784843
O O11 0.047261 0.665490 0.823696
O O12 0.139299 0.968697 0.906275
O O13 0.921307 0.676396 0.477990
O O14 0.542161 0.309735 0.367013
#
# Coordination Sequence:
#
# PCOD9340468 Si02
#       7
#     4   4   4   4   4   4   4
#     4  10  25  43  62 100 137 179 228 293 344 419
#     4  12  29  45  69 104 148 182 228 299 359 401
#     4  10  21  39  70  94 128 179 232 282 343 415
#     4  10  20  41  68  95 136 173 240 285 337 419
#     4  11  23  41  69 102 134 180 235 286 346 413
#     4  12  25  44  72 102 137 186 236 286 347 421
#     4  11  21  41  74  97 132 183 241 281 342 418
#
# _framework density 19.92793
#
# number of rings (size 3 to 8) (size 9 to 14) (size 15 to 20)
#    0.000    1.143    5.714    1.714    4.000    3.429 
#    2.571    0.000    0.000    0.000    0.000    0.000 
#    0.000    0.000    0.000    0.000    0.000    0.000 
#
# Total GULP energy -156134.396187 kJ/mol
# GULP energy per Si atom -5576.228435 kJ/mol
# Density = 1.988257 g / cm^3
# Si number density = 19.927930 Si / 1000 Ang^3
#
#
#
# Elastic Constant Matrix: (Units=GPa)
#
#
# Indices 1 2 3 4 5 6 
#
# 1 127.0061 27.1923 10.4282 0.0000 0.0000 0.0000
# 2 27.1923 76.4923 12.6606 0.0000 0.0000 0.0000
# 3 10.4282 12.6606 62.3787 0.0000 0.0000 0.0000
# 4 0.0000 0.0000 0.0000 18.0613 0.0000 0.0000
# 5 0.0000 0.0000 0.0000 0.0000 20.5182 0.0000
# 6 0.0000 0.0000 0.0000 0.0000 0.0000 17.0976
#
#
#
# Elastic Compliance Matrix: (Units=1/GPa)
#
#
# Indices 1 2 3 4 5 6 
#
# 1 0.008565 -0.002905 -0.000842 0.000000 0.000000 0.000000
# 2 -0.002905 0.014513 -0.002460 0.000000 0.000000 0.000000
# 3 -0.000842 -0.002460 0.016671 0.000000 0.000000 0.000000
# 4 0.000000 0.000000 0.000000 0.055367 0.000000 0.000000
# 5 0.000000 0.000000 0.000000 0.000000 0.048737 0.000000
# 6 0.000000 0.000000 0.000000 0.000000 0.000000 0.058488
#
#
# Mechanical properties :
#
#
# Convention : Reuss Voigt Hill
#
# Bulk Modulus (GPa) = 36.58402 40.71547 38.64975
# Shear Modulus (GPa) = 22.33464 25.50849 23.92157
#
# Velocity S-wave (km/s) = 3.35142 3.58164 3.46844
# Velocity P-wave (km/s) = 5.77703 6.13025 5.95626
#
# Compressibility (1/GPa) = 0.02733434
#
# Stress axis : x y z
#
# Youngs Moduli (GPa) = 116.75671 68.90288 59.98373
#
# Poissons Ratio (x) = 0.20019 0.05052
# Poissons Ratio (y) = 0.33922 0.14756
# Poissons Ratio (z) = 0.09833 0.16950
#
# Static dielectric constant tensor:
#      x y z
#    x 1.733550 0.000000 0.000000 
#    y 0.000000 1.826200 0.000000 
#    z 0.000000 0.000000 1.656980 
# 
# From -- ./inp_files/5182.got.cif
#   From: 2010.05.17/outbox.cif.g08.bks.cpg/sg29_3_cif.got.tgz:5182.got - 2010.06.04 01:19:37.
