data_PCOD9340800
_publ_section_title
;
Structure prediction by ZEFSAII (Michael W. Deem and Ramdas Pophale) SiO2 
 PCOD9340800
Probable space group: P C A 21
;
_chemical_formula_sum "Si O2"
_cell_formula_units_Z 20
_cell_length_a 21.859610
_cell_length_b 7.296300
_cell_length_c 5.337528
_cell_angle_alpha 90.000000
_cell_angle_beta 90.000000
_cell_angle_gamma 90.000000
_cell_volume 851.305145
_symmetry_space_group_name_H-M "P C A 21"
_symmetry_group_IT_number 29
_symmetry_cell_setting 'orthorhombic'
loop_
_space_group_symop_operation_xyz
x,y,z
-x,-y,1/2+z
1/2-x,y,1/2+z
1/2+x,-y,z
loop_
_atom_site_type_symbol
_atom_site_label
_atom_site_fract_x
_atom_site_fract_y
_atom_site_fract_z
Si Si1 0.954290 0.335244 0.258630
Si Si2 0.907566 0.620313 0.878950
Si Si3 0.150040 0.690157 0.140555
Si Si4 0.215862 0.976777 0.890173
Si Si5 0.388201 0.975913 0.043904
O O1 0.917117 0.290656 0.511708
O O2 0.024140 0.393481 0.265601
O O3 0.947207 0.146318 0.103920
O O4 0.915899 0.499623 0.131024
O O5 0.853341 0.517648 0.732382
O O6 0.897807 0.833863 0.910856
O O7 0.150975 0.832606 0.374262
O O8 0.202283 0.759245 0.950651
O O9 0.255130 0.038984 0.650454
O O10 0.147758 0.027508 0.799331
#
# Coordination Sequence:
#
# PCOD9340800 Si02
#       5
#     4   4   4   4   4
#     4  10  22  37  59  94 140 183 218 273 342 401
#     4  11  22  40  61  98 142 180 229 273 335 427
#     4  10  22  42  65  97 130 179 226 280 341 405
#     4  11  22  46  74  95 135 180 232 299 356 395
#     4  10  24  39  67  98 133 180 231 279 344 412
#
# _framework density 23.49334
#
# number of rings (size 3 to 8) (size 9 to 14) (size 15 to 20)
#    0.000    1.600    4.000    0.000    2.800    3.200 
#    0.000    2.000    0.000    0.000    0.000    0.000 
#    0.000    0.000    0.000    0.000    0.000    0.000 
#
# Total GULP energy -111373.282850 kJ/mol
# GULP energy per Si atom -5568.664143 kJ/mol
# Density = 2.343987 g / cm^3
# Si number density = 23.493340 Si / 1000 Ang^3
#
#
#
# Elastic Constant Matrix: (Units=GPa)
#
#
# Indices 1 2 3 4 5 6 
#
# 1 27.6728 -7.7412 12.9073 0.0000 0.0000 0.0000
# 2 -7.7412 111.3791 24.6232 0.0000 0.0000 0.0000
# 3 12.9073 24.6232 91.2255 0.0000 0.0000 0.0000
# 4 0.0000 0.0000 0.0000 19.2359 0.0000 0.0000
# 5 0.0000 0.0000 0.0000 0.0000 32.0595 0.0000
# 6 0.0000 0.0000 0.0000 0.0000 0.0000 9.4752
#
#
#
# Elastic Compliance Matrix: (Units=1/GPa)
#
#
# Indices 1 2 3 4 5 6 
#
# 1 0.040579 0.004349 -0.006915 0.000000 0.000000 0.000000
# 2 0.004349 0.010014 -0.003318 0.000000 0.000000 0.000000
# 3 -0.006915 -0.003318 0.012836 0.000000 0.000000 0.000000
# 4 0.000000 0.000000 0.000000 0.051986 0.000000 0.000000
# 5 0.000000 0.000000 0.000000 0.000000 0.031192 0.000000
# 6 0.000000 0.000000 0.000000 0.000000 0.000000 0.105539
#
#
# Mechanical properties :
#
#
# Convention : Reuss Voigt Hill
#
# Bulk Modulus (GPa) = 19.35740 32.20622 25.78181
# Shear Modulus (GPa) = 17.78507 25.52000 21.65253
#
# Velocity S-wave (km/s) = 2.75440 3.29943 3.03916
# Velocity P-wave (km/s) = 4.28637 5.31539 4.82837
#
# Compressibility (1/GPa) = 0.05165982
#
# Stress axis : x y z
#
# Youngs Moduli (GPa) = 24.64354 99.85785 77.90617
#
# Poissons Ratio (x) = -0.43430 0.53874
# Poissons Ratio (y) = -0.10718 0.25852
# Poissons Ratio (z) = 0.17042 0.33136
#
# Static dielectric constant tensor:
#      x y z
#    x 1.977390 0.000000 0.000000 
#    y 0.000000 1.878700 0.000000 
#    z 0.000000 0.000000 2.068010 
# 
# From -- ./inp_files/616.got.cif
#   From: 2010.05.17/outbox.cif.g08.bks.cpg/sg29_1_cif.got.tgz:616.got - 2010.06.04 01:19:37.
