data_PCOD9340735
_publ_section_title
;
Structure prediction by ZEFSAII (Michael W. Deem and Ramdas Pophale) SiO2 
 PCOD9340735
Probable space group: P C A 21
;
_chemical_formula_sum "Si O2"
_cell_formula_units_Z 32
_cell_length_a 13.927760
_cell_length_b 5.032866
_cell_length_c 16.785172
_cell_angle_alpha 90.000000
_cell_angle_beta 90.000000
_cell_angle_gamma 90.000000
_cell_volume 1176.582644
_symmetry_space_group_name_H-M "P C A 21"
_symmetry_group_IT_number 29
_symmetry_cell_setting 'orthorhombic'
loop_
_space_group_symop_operation_xyz
x,y,z
-x,-y,1/2+z
1/2-x,y,1/2+z
1/2+x,-y,z
loop_
_atom_site_type_symbol
_atom_site_label
_atom_site_fract_x
_atom_site_fract_y
_atom_site_fract_z
Si Si1 0.418979 0.408638 0.956070
Si Si2 0.582814 0.603529 0.045455
Si Si3 0.743662 0.302142 0.974016
Si Si4 0.092731 0.578516 0.287464
Si Si5 0.270419 0.323584 0.681310
Si Si6 0.005598 0.941853 0.734090
Si Si7 0.412742 0.987069 0.398996
Si Si8 0.160655 0.835720 0.621702
O O1 0.419961 0.616371 0.881397
O O2 0.490250 0.178984 0.924523
O O3 0.473221 0.509946 0.035347
O O4 0.304184 0.424156 0.966799
O O5 0.649876 0.349460 0.027993
O O6 0.633415 0.696225 0.125744
O O7 0.597250 0.790770 0.967782
O O8 0.814579 0.126965 0.028586
O O9 0.689188 0.173463 0.900145
O O10 0.081051 0.849656 0.239395
O O11 0.191469 0.430615 0.265379
O O12 0.014909 0.359266 0.260714
O O13 0.196501 0.544196 0.647610
O O14 0.222995 0.041487 0.672832
O O15 0.070478 0.060938 0.806780
O O16 0.055485 0.923570 0.649071
#
# Coordination Sequence:
#
# PCOD9340735 Si02
#       8
#     4   4   4   4   4   4   4   4
#     4  10  23  41  67  98 133 176 239 281 339 416
#     4  10  21  43  64  93 138 177 219 292 342 398
#     4  10  23  41  66 100 131 178 233 279 345 412
#     4  11  24  44  65 100 134 176 229 278 343 415
#     4  11  24  43  66  96 137 176 222 279 347 405
#     4  11  24  43  68  96 137 178 225 282 347 406
#     4  10  21  43  67  93 137 180 225 296 343 398
#     4  11  24  44  65  98 135 175 224 275 342 416
#
# _framework density 27.197406999999998
#
# number of rings (size 3 to 8) (size 9 to 14) (size 15 to 20)
#    0.000    1.500    2.500    1.500    3.500    2.000 
#    0.000    0.000    0.000    0.000    0.000    0.000 
#    0.000    0.000    0.000    0.000    0.000    0.000 
#
# Total GULP energy -178657.740427 kJ/mol
# GULP energy per Si atom -5583.054388 kJ/mol
# Density = 2.713550 g / cm^3
# Si number density = 27.197407 Si / 1000 Ang^3
#
#
#
# Elastic Constant Matrix: (Units=GPa)
#
#
# Indices 1 2 3 4 5 6 
#
# 1 108.3127 12.4990 -4.4131 0.0000 0.0000 0.0000
# 2 12.4990 94.1308 21.2849 0.0000 0.0000 0.0000
# 3 -4.4131 21.2849 83.5461 0.0000 0.0000 0.0000
# 4 0.0000 0.0000 0.0000 34.6286 0.0000 0.0000
# 5 0.0000 0.0000 0.0000 0.0000 40.7700 0.0000
# 6 0.0000 0.0000 0.0000 0.0000 0.0000 26.8475
#
#
#
# Elastic Compliance Matrix: (Units=1/GPa)
#
#
# Indices 1 2 3 4 5 6 
#
# 1 0.009435 -0.001449 0.000868 0.000000 0.000000 0.000000
# 2 -0.001449 0.011495 -0.003005 0.000000 0.000000 0.000000
# 3 0.000868 -0.003005 0.012781 0.000000 0.000000 0.000000
# 4 0.000000 0.000000 0.000000 0.028878 0.000000 0.000000
# 5 0.000000 0.000000 0.000000 0.000000 0.024528 0.000000
# 6 0.000000 0.000000 0.000000 0.000000 0.000000 0.037247
#
#
# Mechanical properties :
#
#
# Convention : Reuss Voigt Hill
#
# Bulk Modulus (GPa) = 37.68165 38.30345 37.99255
# Shear Modulus (GPa) = 35.61661 37.55714 36.58688
#
# Velocity S-wave (km/s) = 3.62271 3.72009 3.67172
# Velocity P-wave (km/s) = 5.60211 5.70668 5.65464
#
# Compressibility (1/GPa) = 0.02653812
#
# Stress axis : x y z
#
# Youngs Moduli (GPa) = 105.98736 86.99089 78.24175
#
# Poissons Ratio (x) = 0.12605 -0.06788
# Poissons Ratio (y) = 0.15357 0.23513
# Poissons Ratio (z) = -0.09195 0.26143
#
# Static dielectric constant tensor:
#      x y z
#    x 2.248870 0.000000 0.000000 
#    y 0.000000 2.144230 0.000000 
#    z 0.000000 0.000000 2.168870 
# 
# From -- ./inp_files/5222.got.cif
#   From: 2010.05.17/outbox.cif.g08.bks.cpg/sg29_3_cif.got.tgz:5222.got - 2010.06.04 01:19:37.
