data_PCOD9340027
_publ_section_title
;
Structure prediction by ZEFSAII (Michael W. Deem and Ramdas Pophale) SiO2 
 PCOD9340027
Probable space group: P C A 21
;
_chemical_formula_sum "Si O2"
_cell_formula_units_Z 28
_cell_length_a 16.282496
_cell_length_b 9.516476
_cell_length_c 7.331440
_cell_angle_alpha 90.000000
_cell_angle_beta 90.000000
_cell_angle_gamma 90.000000
_cell_volume 1136.021162
_symmetry_space_group_name_H-M "P C A 21"
_symmetry_group_IT_number 29
_symmetry_cell_setting 'orthorhombic'
loop_
_space_group_symop_operation_xyz
x,y,z
-x,-y,1/2+z
1/2-x,y,1/2+z
1/2+x,-y,z
loop_
_atom_site_type_symbol
_atom_site_label
_atom_site_fract_x
_atom_site_fract_y
_atom_site_fract_z
Si Si1 0.128218 0.495291 0.096840
Si Si2 0.017386 0.618390 0.800895
Si Si3 0.595459 0.661040 0.764626
Si Si4 0.047129 0.816279 0.494162
Si Si5 0.192070 0.941276 0.948490
Si Si6 0.361537 0.074557 0.092887
Si Si7 0.806468 0.252973 0.762643
O O1 0.197868 0.596985 0.169222
O O2 0.076424 0.425271 0.259411
O O3 0.062771 0.601171 0.993735
O O4 0.150666 0.381537 0.941959
O O5 0.067119 0.492200 0.698939
O O6 0.028172 0.763939 0.697816
O O7 0.627643 0.759577 0.605343
O O8 0.519809 0.745459 0.861348
O O9 0.066951 0.982185 0.499980
O O10 0.132169 0.745436 0.431057
O O11 0.274574 0.026360 0.006872
O O12 0.157791 0.870021 0.129753
O O13 0.141226 0.032538 0.808275
O O14 0.221155 0.807271 0.830386
#
# Coordination Sequence:
#
# PCOD9340027 Si02
#       7
#     4   4   4   4   4   4   4
#     4   9  16  31  56  75 117 136 177 225 283 343
#     4   9  17  32  54  84 111 143 170 222 297 335
#     4   9  20  33  54  87 116 141 174 234 303 338
#     4  10  19  34  59  84 109 144 186 236 288 355
#     4   9  21  34  60  73 106 156 194 241 266 324
#     4  10  20  39  56  78 115 146 202 225 286 341
#     4  10  17  35  55  81 100 142 195 233 273 330
#
# _framework density 24.647427
#
# number of rings (size 3 to 8) (size 9 to 14) (size 15 to 20)
#    0.857    1.714    1.429    0.857    0.000    1.143 
#    2.571    1.429   15.714    0.000    0.000    0.000 
#    0.000    0.000    0.000    0.000    0.000    0.000 
#
# Total GULP energy -156050.416550 kJ/mol
# GULP energy per Si atom -5573.229163 kJ/mol
# Density = 2.459133 g / cm^3
# Si number density = 24.647427 Si / 1000 Ang^3
#
#
#
# Elastic Constant Matrix: (Units=GPa)
#
#
# Indices 1 2 3 4 5 6 
#
# 1 22.8496 18.6214 2.4586 0.0000 0.0000 0.0000
# 2 18.6214 102.6074 11.6918 0.0000 0.0000 0.0000
# 3 2.4586 11.6918 73.9248 0.0000 0.0000 0.0000
# 4 0.0000 0.0000 0.0000 39.2553 0.0000 0.0000
# 5 0.0000 0.0000 0.0000 0.0000 17.8555 0.0000
# 6 0.0000 0.0000 0.0000 0.0000 0.0000 17.2072
#
#
#
# Elastic Compliance Matrix: (Units=1/GPa)
#
#
# Indices 1 2 3 4 5 6 
#
# 1 0.051365 -0.009295 -0.000238 0.000000 0.000000 0.000000
# 2 -0.009295 0.011607 -0.001527 0.000000 0.000000 0.000000
# 3 -0.000238 -0.001527 0.013777 0.000000 0.000000 0.000000
# 4 0.000000 0.000000 0.000000 0.025474 0.000000 0.000000
# 5 0.000000 0.000000 0.000000 0.000000 0.056005 0.000000
# 6 0.000000 0.000000 0.000000 0.000000 0.000000 0.058115
#
#
# Mechanical properties :
#
#
# Convention : Reuss Voigt Hill
#
# Bulk Modulus (GPa) = 18.30525 29.43618 23.87072
# Shear Modulus (GPa) = 19.48014 25.97093 22.72553
#
# Velocity S-wave (km/s) = 2.81437 3.24959 3.03978
# Velocity P-wave (km/s) = 4.24310 5.10379 4.69321
#
# Compressibility (1/GPa) = 0.05462912
#
# Stress axis : x y z
#
# Youngs Moduli (GPa) = 19.46854 86.15749 72.58676
#
# Poissons Ratio (x) = 0.80081 0.01730
# Poissons Ratio (y) = 0.18095 0.11081
# Poissons Ratio (z) = 0.00464 0.13152
#
# Static dielectric constant tensor:
#      x y z
#    x 1.979850 0.000000 0.000000 
#    y 0.000000 2.002230 0.000000 
#    z 0.000000 0.000000 2.015160 
# 
# From -- ./inp_files/2231.got.cif
#   From: 2010.05.17/outbox.cif.g08.bks.cpg/sg29_2_cif.got.tgz:2231.got - 2010.06.04 01:19:37.
