data_PCOD9340717
_publ_section_title
;
Structure prediction by ZEFSAII (Michael W. Deem and Ramdas Pophale) SiO2 
 PCOD9340717
Probable space group: P C A 21
;
_chemical_formula_sum "Si O2"
_cell_formula_units_Z 32
_cell_length_a 18.507896
_cell_length_b 6.388020
_cell_length_c 13.077330
_cell_angle_alpha 90.000000
_cell_angle_beta 90.000000
_cell_angle_gamma 90.000000
_cell_volume 1546.117161
_symmetry_space_group_name_H-M "P C A 21"
_symmetry_group_IT_number 29
_symmetry_cell_setting 'orthorhombic'
loop_
_space_group_symop_operation_xyz
x,y,z
-x,-y,1/2+z
1/2-x,y,1/2+z
1/2+x,-y,z
loop_
_atom_site_type_symbol
_atom_site_label
_atom_site_fract_x
_atom_site_fract_y
_atom_site_fract_z
Si Si1 0.839438 0.017852 0.082270
Si Si2 0.449489 0.034831 0.256114
Si Si3 0.118779 0.364738 0.454650
Si Si4 0.242926 0.610567 0.994918
Si Si5 0.001267 0.622464 0.108720
Si Si6 0.113161 0.899723 0.971721
Si Si7 0.301063 0.222319 0.619022
Si Si8 0.425742 0.289146 0.744304
O O1 0.896476 0.063733 0.170504
O O2 0.794972 0.215187 0.043716
O O3 0.779127 0.864483 0.129676
O O4 0.873000 0.879297 0.989585
O O5 0.417588 0.008554 0.369575
O O6 0.523102 0.907238 0.252948
O O7 0.468556 0.259317 0.207886
O O8 0.198385 0.461639 0.440097
O O9 0.067958 0.454206 0.544309
O O10 0.074423 0.401963 0.352258
O O11 0.206335 0.456511 0.076774
O O12 0.176456 0.732450 0.942358
O O13 0.048703 0.433877 0.151572
O O14 0.050875 0.778690 0.038223
O O15 0.153310 0.073394 0.041966
O O16 0.344381 0.219209 0.723464
#
# Coordination Sequence:
#
# PCOD9340717 Si02
#       8
#     4   4   4   4   4   4   4   4
#     4   9  22  42  63  89 128 166 208 266 319 380
#     4  11  24  41  65  95 126 171 212 262 323 385
#     4  10  23  41  62  95 128 165 216 265 317 383
#     4  10  21  42  64  91 131 166 206 270 319 380
#     4  11  23  42  62  95 132 166 216 266 316 385
#     4  11  22  41  64  91 129 168 212 261 326 379
#     4  10  22  39  65  92 129 164 212 265 314 387
#     4  12  23  38  67  94 125 170 214 259 324 381
#
# _framework density 20.697008
#
# number of rings (size 3 to 8) (size 9 to 14) (size 15 to 20)
#    0.000    1.500    3.750    0.750    0.000    7.000 
#    0.000    0.000    0.000    0.000    0.000    0.000 
#    0.000    0.000    0.000    0.000    0.000    0.000 
#
# Total GULP energy -178465.277949 kJ/mol
# GULP energy per Si atom -5577.039936 kJ/mol
# Density = 2.064990 g / cm^3
# Si number density = 20.697008 Si / 1000 Ang^3
#
#
#
# Elastic Constant Matrix: (Units=GPa)
#
#
# Indices 1 2 3 4 5 6 
#
# 1 70.2710 -3.3664 11.9958 0.0000 0.0000 0.0000
# 2 -3.3664 24.7101 5.2750 0.0000 0.0000 0.0000
# 3 11.9958 5.2750 63.1647 0.0000 0.0000 0.0000
# 4 0.0000 0.0000 0.0000 15.2732 0.0000 0.0000
# 5 0.0000 0.0000 0.0000 0.0000 23.4227 0.0000
# 6 0.0000 0.0000 0.0000 0.0000 0.0000 33.8301
#
#
#
# Elastic Compliance Matrix: (Units=1/GPa)
#
#
# Indices 1 2 3 4 5 6 
#
# 1 0.014879 0.002678 -0.003049 0.000000 0.000000 0.000000
# 2 0.002678 0.041686 -0.003990 0.000000 0.000000 0.000000
# 3 -0.003049 -0.003990 0.016744 0.000000 0.000000 0.000000
# 4 0.000000 0.000000 0.000000 0.065474 0.000000 0.000000
# 5 0.000000 0.000000 0.000000 0.000000 0.042694 0.000000
# 6 0.000000 0.000000 0.000000 0.000000 0.000000 0.029559
#
#
# Mechanical properties :
#
#
# Convention : Reuss Voigt Hill
#
# Bulk Modulus (GPa) = 15.48303 20.66163 18.07233
# Shear Modulus (GPa) = 20.72213 24.12130 22.42172
#
# Velocity S-wave (km/s) = 3.16763 3.41757 3.29497
# Velocity P-wave (km/s) = 4.56898 5.05743 4.81940
#
# Compressibility (1/GPa) = 0.06458684
#
# Stress axis : x y z
#
# Youngs Moduli (GPa) = 67.20659 23.98893 59.72306
#
# Poissons Ratio (x) = -0.06424 0.18212
# Poissons Ratio (y) = -0.17999 0.23829
# Poissons Ratio (z) = 0.20494 0.09571
#
# Static dielectric constant tensor:
#      x y z
#    x 1.748900 0.000000 0.000000 
#    y 0.000000 1.761340 0.000000 
#    z 0.000000 0.000000 1.734860 
# 
# From -- ./inp_files/3805.got.cif
#   From: 2010.05.17/outbox.cif.g08.bks.cpg/sg29_2_cif.got.tgz:3805.got - 2010.06.04 01:19:37.
