data_PCOD9340176
_publ_section_title
;
Structure prediction by ZEFSAII (Michael W. Deem and Ramdas Pophale) SiO2 
 PCOD9340176
Probable space group: P C A 21
;
_chemical_formula_sum "Si O2"
_cell_formula_units_Z 28
_cell_length_a 8.434651
_cell_length_b 10.125367
_cell_length_c 11.597594
_cell_angle_alpha 90.000000
_cell_angle_beta 90.000000
_cell_angle_gamma 90.000000
_cell_volume 990.480186
_symmetry_space_group_name_H-M "P C A 21"
_symmetry_group_IT_number 29
_symmetry_cell_setting 'orthorhombic'
loop_
_space_group_symop_operation_xyz
x,y,z
-x,-y,1/2+z
1/2-x,y,1/2+z
1/2+x,-y,z
loop_
_atom_site_type_symbol
_atom_site_label
_atom_site_fract_x
_atom_site_fract_y
_atom_site_fract_z
Si Si1 0.607206 0.275363 0.306140
Si Si2 0.549886 0.546859 0.361615
Si Si3 0.309462 0.220844 0.144774
Si Si4 0.330987 0.785955 0.041131
Si Si5 0.368765 0.496942 0.122665
Si Si6 0.154909 0.957306 0.741565
Si Si7 0.012850 0.161608 0.427001
O O1 0.671298 0.423142 0.338809
O O2 0.474043 0.257880 0.210311
O O3 0.550526 0.236679 0.434454
O O4 0.734117 0.165094 0.275226
O O5 0.449842 0.508481 0.247694
O O6 0.531521 0.533256 0.502910
O O7 0.556276 0.705225 0.354859
O O8 0.246515 0.370745 0.128514
O O9 0.259651 0.095412 0.219897
O O10 0.349002 0.159681 0.020550
O O11 0.306237 0.644101 0.101151
O O12 0.406584 0.898070 0.120927
O O13 0.155026 0.823311 0.996028
O O14 0.024584 0.958108 0.841401
#
# Coordination Sequence:
#
# PCOD9340176 Si02
#       7
#     4   4   4   4   4   4   4
#     4   9  20  37  58  84 120 164 200 257 311 371
#     4   9  17  34  62  89 118 155 212 260 318 370
#     4  10  21  36  60  84 127 159 208 259 311 379
#     4  10  19  35  62  86 122 159 211 251 316 375
#     4   9  18  35  59  89 120 159 202 265 307 377
#     4  11  21  35  61  86 126 167 203 255 318 381
#     4  10  20  36  62  92 119 165 214 259 321 379
#
# _framework density 28.269117000000001
#
# number of rings (size 3 to 8) (size 9 to 14) (size 15 to 20)
#    0.000    2.286    2.857    0.000    2.000    0.000 
#    0.000    0.000   25.143    0.000    0.000    0.000 
#    0.000    0.000    0.000    0.000    0.000    0.000 
#
# Total GULP energy -155958.237514 kJ/mol
# GULP energy per Si atom -5569.937054 kJ/mol
# Density = 2.820477 g / cm^3
# Si number density = 28.269117 Si / 1000 Ang^3
#
#
#
# Elastic Constant Matrix: (Units=GPa)
#
#
# Indices 1 2 3 4 5 6 
#
# 1 46.0586 15.9075 37.7317 0.0000 0.0000 0.0000
# 2 15.9075 215.2322 55.2034 0.0000 0.0000 0.0000
# 3 37.7317 55.2034 146.2959 0.0000 0.0000 0.0000
# 4 0.0000 0.0000 0.0000 56.3149 0.0000 0.0000
# 5 0.0000 0.0000 0.0000 0.0000 20.5797 0.0000
# 6 0.0000 0.0000 0.0000 0.0000 0.0000 30.2341
#
#
#
# Elastic Compliance Matrix: (Units=1/GPa)
#
#
# Indices 1 2 3 4 5 6 
#
# 1 0.027539 -0.000237 -0.007013 0.000000 0.000000 0.000000
# 2 -0.000237 0.005146 -0.001881 0.000000 0.000000 0.000000
# 3 -0.007013 -0.001881 0.009354 0.000000 0.000000 0.000000
# 4 0.000000 0.000000 0.000000 0.017757 0.000000 0.000000
# 5 0.000000 0.000000 0.000000 0.000000 0.048592 0.000000
# 6 0.000000 0.000000 0.000000 0.000000 0.000000 0.033075
#
#
# Mechanical properties :
#
#
# Convention : Reuss Voigt Hill
#
# Bulk Modulus (GPa) = 42.05694 69.47464 55.76579
# Shear Modulus (GPa) = 29.82410 41.34202 35.58306
#
# Velocity S-wave (km/s) = 3.25161 3.82834 3.55170
# Velocity P-wave (km/s) = 5.38581 6.64614 6.04889
#
# Compressibility (1/GPa) = 0.02377729
#
# Stress axis : x y z
#
# Youngs Moduli (GPa) = 36.31272 194.32493 106.90628
#
# Poissons Ratio (x) = 0.04596 0.74977
# Poissons Ratio (y) = 0.00859 0.20107
# Poissons Ratio (z) = 0.25467 0.36549
#
# Static dielectric constant tensor:
#      x y z
#    x 2.293370 0.000000 0.000000 
#    y 0.000000 2.272170 0.000000 
#    z 0.000000 0.000000 2.365730 
# 
# From -- ./inp_files/3426.got.cif
#   From: 2010.05.17/outbox.cif.g08.bks.cpg/sg29_2_cif.got.tgz:3426.got - 2010.06.04 01:19:37.
