data_PCOD9340496
_publ_section_title
;
Structure prediction by ZEFSAII (Michael W. Deem and Ramdas Pophale) SiO2 
 PCOD9340496
Probable space group: P C A 21
;
_chemical_formula_sum "Si O2"
_cell_formula_units_Z 28
_cell_length_a 16.210610
_cell_length_b 6.845205
_cell_length_c 10.261312
_cell_angle_alpha 90.000000
_cell_angle_beta 90.000000
_cell_angle_gamma 90.000000
_cell_volume 1138.645959
_symmetry_space_group_name_H-M "P C A 21"
_symmetry_group_IT_number 29
_symmetry_cell_setting 'orthorhombic'
loop_
_space_group_symop_operation_xyz
x,y,z
-x,-y,1/2+z
1/2-x,y,1/2+z
1/2+x,-y,z
loop_
_atom_site_type_symbol
_atom_site_label
_atom_site_fract_x
_atom_site_fract_y
_atom_site_fract_z
Si Si1 0.949835 0.220810 0.371140
Si Si2 0.408919 0.121364 0.527767
Si Si3 0.664364 0.174553 0.229931
Si Si4 0.663124 0.197817 0.619387
Si Si5 0.946805 0.446060 0.613789
Si Si6 0.722233 0.876514 0.448692
Si Si7 0.903035 0.546020 0.958112
O O1 0.897638 0.206342 0.241600
O O2 0.903286 0.333061 0.489495
O O3 0.029187 0.358839 0.358870
O O4 0.966290 0.004721 0.430220
O O5 0.439801 0.328739 0.575387
O O6 0.319735 0.145370 0.461152
O O7 0.389509 0.985227 0.651077
O O8 0.745442 0.265482 0.161088
O O9 0.600668 0.355492 0.237077
O O10 0.702327 0.040988 0.342441
O O11 0.626538 0.331909 0.504021
O O12 0.681301 0.976195 0.575878
O O13 0.042983 0.392632 0.591071
O O14 0.677810 0.672157 0.430103
#
# Coordination Sequence:
#
# PCOD9340496 Si02
#       7
#     4   4   4   4   4   4   4
#     4   9  22  42  64  95 132 177 224 285 349 406
#     4  10  20  43  67  88 129 179 223 277 349 407
#     4  10  22  42  67  95 133 174 229 279 341 419
#     4  11  23  43  67  94 137 178 226 284 343 426
#     4   9  22  42  67  93 133 182 215 283 347 410
#     4  11  24  40  66 101 127 175 230 284 338 424
#     4  10  25  40  62 104 131 175 229 276 353 414
#
# _framework density 24.590612
#
# number of rings (size 3 to 8) (size 9 to 14) (size 15 to 20)
#    0.857    1.143    1.429    0.857    2.000    5.714 
#    2.571    0.000    0.000    0.000    0.000    0.000 
#    0.000    0.000    0.000    0.000    0.000    0.000 
#
# Total GULP energy -156130.431197 kJ/mol
# GULP energy per Si atom -5576.086828 kJ/mol
# Density = 2.453464 g / cm^3
# Si number density = 24.590612 Si / 1000 Ang^3
#
#
#
# Elastic Constant Matrix: (Units=GPa)
#
#
# Indices 1 2 3 4 5 6 
#
# 1 51.7194 43.3274 2.2214 0.0000 0.0000 0.0000
# 2 43.3274 111.9507 20.1811 0.0000 0.0000 0.0000
# 3 2.2214 20.1811 52.0532 0.0000 0.0000 0.0000
# 4 0.0000 0.0000 0.0000 -1.2297 0.0000 0.0000
# 5 0.0000 0.0000 0.0000 0.0000 31.0238 0.0000
# 6 0.0000 0.0000 0.0000 0.0000 0.0000 23.5025
#
#
#
# Elastic Compliance Matrix: (Units=1/GPa)
#
#
# Indices 1 2 3 4 5 6 
#
# 1 0.029150 -0.011888 0.003365 0.000000 0.000000 0.000000
# 2 -0.011888 0.014452 -0.005096 0.000000 0.000000 0.000000
# 3 0.003365 -0.005096 0.021043 0.000000 0.000000 0.000000
# 4 0.000000 0.000000 0.000000 -0.813194 0.000000 0.000000
# 5 0.000000 0.000000 0.000000 0.000000 0.032233 0.000000
# 6 0.000000 0.000000 0.000000 0.000000 0.000000 0.042549
#
#
# Mechanical properties :
#
#
# Convention : Reuss Voigt Hill
#
# Bulk Modulus (GPa) = 26.73278 38.57591 32.65435
# Shear Modulus (GPa) = -7.88569 20.65889 6.38660
#
# Velocity S-wave (km/s) = -1.79269 2.90161 1.61332
# Velocity P-wave (km/s) = 2.57094 5.19106 4.09615
#
# Compressibility (1/GPa) = 0.03740726
#
# Stress axis : x y z
#
# Youngs Moduli (GPa) = 34.30555 69.19403 47.52137
#
# Poissons Ratio (x) = 0.82260 -0.15991
# Poissons Ratio (y) = 0.40783 0.24216
# Poissons Ratio (z) = -0.11544 0.35260
#
# Static dielectric constant tensor:
#      x y z
#    x 1.921490 0.000000 0.000000 
#    y 0.000000 1.994410 0.000000 
#    z 0.000000 0.000000 2.169210 
# 
# From -- ./inp_files/3803.got.cif
#   From: 2010.05.17/outbox.cif.g08.bks.cpg/sg29_2_cif.got.tgz:3803.got - 2010.06.04 01:19:37.
