data_PCOD9340426
_publ_section_title
;
Structure prediction by ZEFSAII (Michael W. Deem and Ramdas Pophale) SiO2 
 PCOD9340426
Probable space group: P C A 21
;
_chemical_formula_sum "Si O2"
_cell_formula_units_Z 24
_cell_length_a 8.827555
_cell_length_b 12.989575
_cell_length_c 9.453688
_cell_angle_alpha 90.000000
_cell_angle_beta 90.000000
_cell_angle_gamma 90.000000
_cell_volume 1084.018363
_symmetry_space_group_name_H-M "P C A 21"
_symmetry_group_IT_number 29
_symmetry_cell_setting 'orthorhombic'
loop_
_space_group_symop_operation_xyz
x,y,z
-x,-y,1/2+z
1/2-x,y,1/2+z
1/2+x,-y,z
loop_
_atom_site_type_symbol
_atom_site_label
_atom_site_fract_x
_atom_site_fract_y
_atom_site_fract_z
Si Si1 0.580016 0.058076 0.689990
Si Si2 0.939605 0.722138 0.063386
Si Si3 0.165685 0.432820 0.355199
Si Si4 0.506357 0.360384 0.359276
Si Si5 0.377572 0.909591 0.507116
Si Si6 0.402025 0.257850 0.623635
O O1 0.721523 0.087197 0.591565
O O2 0.463442 0.153725 0.690428
O O3 0.497161 0.964992 0.610864
O O4 0.628374 0.038120 0.852289
O O5 0.992531 0.711999 0.224019
O O6 0.766129 0.762951 0.060085
O O7 0.058411 0.794669 0.986365
O O8 0.922184 0.610023 0.992816
O O9 0.344337 0.417797 0.373177
O O10 0.118009 0.353174 0.231585
O O11 0.127762 0.551183 0.333522
O O12 0.516138 0.294433 0.501101
#
# Coordination Sequence:
#
# PCOD9340426 Si02
#       6
#     4   4   4   4   4   4
#     4  12  27  46  71 100 134 171 219 273 333 399
#     4  10  22  41  65  93 131 174 220 269 329 390
#     4  10  20  40  57  94 127 174 219 272 326 384
#     4  10  22  34  65  90 131 172 219 268 326 388
#     4  12  27  46  71 100 134 171 219 273 333 399
#     4  10  22  41  65  93 131 174 220 269 329 390
#
# _framework density 22.139848000000001
#
# number of rings (size 3 to 8) (size 9 to 14) (size 15 to 20)
#    0.000    1.333    1.667    3.000    4.667    2.667 
#    0.000    0.000    0.000    0.000    0.000    0.000 
#    0.000    0.000    0.000    0.000    0.000    0.000 
#
# Total GULP energy -134194.764350 kJ/mol
# GULP energy per Si atom -5591.448515 kJ/mol
# Density = 2.208946 g / cm^3
# Si number density = 22.139848 Si / 1000 Ang^3
#
#
#
# Elastic Constant Matrix: (Units=GPa)
#
#
# Indices 1 2 3 4 5 6 
#
# 1 45.4033 3.9325 -9.7364 0.0000 0.0000 0.0000
# 2 3.9325 32.0714 -19.0253 0.0000 0.0000 0.0000
# 3 -9.7364 -19.0253 77.8950 0.0000 0.0000 0.0000
# 4 0.0000 0.0000 0.0000 21.6926 0.0000 0.0000
# 5 0.0000 0.0000 0.0000 0.0000 18.3139 0.0000
# 6 0.0000 0.0000 0.0000 0.0000 0.0000 31.7978
#
#
#
# Elastic Compliance Matrix: (Units=1/GPa)
#
#
# Indices 1 2 3 4 5 6 
#
# 1 0.022677 -0.001285 0.002521 0.000000 0.000000 0.000000
# 2 -0.001285 0.036536 0.008763 0.000000 0.000000 0.000000
# 3 0.002521 0.008763 0.015293 0.000000 0.000000 0.000000
# 4 0.000000 0.000000 0.000000 0.046099 0.000000 0.000000
# 5 0.000000 0.000000 0.000000 0.000000 0.054603 0.000000
# 6 0.000000 0.000000 0.000000 0.000000 0.000000 0.031449
#
#
# Mechanical properties :
#
#
# Convention : Reuss Voigt Hill
#
# Bulk Modulus (GPa) = 10.58169 11.74569 11.16369
# Shear Modulus (GPa) = 22.91882 26.37412 24.64647
#
# Velocity S-wave (km/s) = 3.22092 3.45519 3.34011
# Velocity P-wave (km/s) = 4.31535 4.60810 4.46413
#
# Compressibility (1/GPa) = 0.09450282
#
# Stress axis : x y z
#
# Youngs Moduli (GPa) = 44.09817 27.36995 65.38861
#
# Poissons Ratio (x) = 0.03518 -0.16481
# Poissons Ratio (y) = 0.05668 -0.57301
# Poissons Ratio (z) = -0.11115 -0.23985
#
# Static dielectric constant tensor:
#      x y z
#    x 1.802980 0.000000 0.000000 
#    y 0.000000 1.791480 0.000000 
#    z 0.000000 0.000000 1.839700 
# 
# From -- ./inp_files/1130.got.cif
#   From: 2010.05.17/outbox.cif.g08.bks.cpg/sg29_1_cif.got.tgz:1130.got - 2010.06.04 01:19:37.
