data_PCOD9340095
_publ_section_title
;
Structure prediction by ZEFSAII (Michael W. Deem and Ramdas Pophale) SiO2 
 PCOD9340095
Probable space group: P C A 21
;
_chemical_formula_sum "Si O2"
_cell_formula_units_Z 32
_cell_length_a 7.043339
_cell_length_b 13.095725
_cell_length_c 12.806500
_cell_angle_alpha 90.000000
_cell_angle_beta 90.000000
_cell_angle_gamma 90.000000
_cell_volume 1181.241217
_symmetry_space_group_name_H-M "P C A 21"
_symmetry_group_IT_number 29
_symmetry_cell_setting 'orthorhombic'
loop_
_space_group_symop_operation_xyz
x,y,z
-x,-y,1/2+z
1/2-x,y,1/2+z
1/2+x,-y,z
loop_
_atom_site_type_symbol
_atom_site_label
_atom_site_fract_x
_atom_site_fract_y
_atom_site_fract_z
Si Si1 0.435179 0.361225 0.575040
Si Si2 0.168075 0.220523 0.243753
Si Si3 0.803931 0.078933 0.204494
Si Si4 0.507943 0.070197 0.047508
Si Si5 0.945882 0.385222 0.851032
Si Si6 0.623861 0.400475 0.119866
Si Si7 0.276481 0.070165 0.386204
Si Si8 0.490086 0.623494 0.395693
O O1 0.323688 0.270620 0.631040
O O2 0.441081 0.344151 0.450899
O O3 0.365143 0.475338 0.605830
O O4 0.657689 0.362438 0.612583
O O5 0.983417 0.146505 0.235093
O O6 0.116903 0.312201 0.319439
O O7 0.330770 0.156012 0.302093
O O8 0.879784 0.985409 0.133574
O O9 0.660307 0.128344 0.119564
O O10 0.722893 0.026855 0.310468
O O11 0.592909 0.978265 0.975223
O O12 0.387563 0.122846 0.956896
O O13 0.975748 0.370345 0.728188
O O14 0.728038 0.353996 0.867403
O O15 0.963200 0.506422 0.870128
O O16 0.506067 0.364356 0.019630
#
# Coordination Sequence:
#
# PCOD9340095 Si02
#       8
#     4   4   4   4   4   4   4   4
#     4  10  22  35  65  91 124 177 215 283 326 414
#     4  12  22  40  66  98 138 167 244 278 338 413
#     4  11  22  43  70  93 134 181 216 293 347 417
#     4  10  22  42  71  95 123 183 229 258 371 420
#     4  10  18  39  61  87 130 171 223 264 365 392
#     4  10  18  39  61  86 131 170 220 265 361 390
#     4  11  22  43  71  97 133 181 215 291 351 413
#     4  10  22  35  65  93 125 180 218 288 329 423
#
# _framework density 27.090147999999999
#
# number of rings (size 3 to 8) (size 9 to 14) (size 15 to 20)
#    0.000    1.500    5.000    0.000    0.000    2.000 
#    0.000    5.000    8.250    0.000    0.000    0.000 
#    0.000    0.000    0.000    0.000    0.000    0.000 
#
# Total GULP energy -179046.539917 kJ/mol
# GULP energy per Si atom -5595.204372 kJ/mol
# Density = 2.702849 g / cm^3
# Si number density = 27.090148 Si / 1000 Ang^3
#
#
#
# Elastic Constant Matrix: (Units=GPa)
#
#
# Indices 1 2 3 4 5 6 
#
# 1 55.3233 7.0057 46.7376 0.0000 0.0000 0.0000
# 2 7.0057 35.9094 34.2729 0.0000 0.0000 0.0000
# 3 46.7376 34.2729 257.0127 0.0000 0.0000 0.0000
# 4 0.0000 0.0000 0.0000 57.2123 0.0000 0.0000
# 5 0.0000 0.0000 0.0000 0.0000 67.3765 0.0000
# 6 0.0000 0.0000 0.0000 0.0000 0.0000 27.7867
#
#
#
# Elastic Compliance Matrix: (Units=1/GPa)
#
#
# Indices 1 2 3 4 5 6 
#
# 1 0.021365 -0.000527 -0.003815 0.000000 0.000000 0.000000
# 2 -0.000527 0.031922 -0.004161 0.000000 0.000000 0.000000
# 3 -0.003815 -0.004161 0.005139 0.000000 0.000000 0.000000
# 4 0.000000 0.000000 0.000000 0.017479 0.000000 0.000000
# 5 0.000000 0.000000 0.000000 0.000000 0.014842 0.000000
# 6 0.000000 0.000000 0.000000 0.000000 0.000000 0.035988
#
#
# Mechanical properties :
#
#
# Convention : Reuss Voigt Hill
#
# Bulk Modulus (GPa) = 24.14253 58.25309 41.19781
# Shear Modulus (GPa) = 31.73618 47.82373 39.77995
#
# Velocity S-wave (km/s) = 3.42644 4.20617 3.83617
# Velocity P-wave (km/s) = 4.95835 6.71858 5.90443
#
# Compressibility (1/GPa) = 0.04142068
#
# Stress axis : x y z
#
# Youngs Moduli (GPa) = 46.80498 31.32632 194.57223
#
# Poissons Ratio (x) = 0.01651 0.74229
# Poissons Ratio (y) = 0.02467 0.80961
# Poissons Ratio (z) = 0.17856 0.13035
#
# Static dielectric constant tensor:
#      x y z
#    x 2.230180 0.000000 0.000000 
#    y 0.000000 2.090850 0.000000 
#    z 0.000000 0.000000 2.038110 
# 
# From -- ./inp_files/2961.got.cif
#   From: 2010.05.17/outbox.cif.g08.bks.cpg/sg29_2_cif.got.tgz:2961.got - 2010.06.04 01:19:37.
