data_PCOD9340478
_publ_section_title
;
Structure prediction by ZEFSAII (Michael W. Deem and Ramdas Pophale) SiO2 
 PCOD9340478
Probable space group: P C A 21
;
_chemical_formula_sum "Si O2"
_cell_formula_units_Z 24
_cell_length_a 11.165220
_cell_length_b 7.671695
_cell_length_c 12.203776
_cell_angle_alpha 90.000000
_cell_angle_beta 90.000000
_cell_angle_gamma 90.000000
_cell_volume 1045.328620
_symmetry_space_group_name_H-M "P C A 21"
_symmetry_group_IT_number 29
_symmetry_cell_setting 'orthorhombic'
loop_
_space_group_symop_operation_xyz
x,y,z
-x,-y,1/2+z
1/2-x,y,1/2+z
1/2+x,-y,z
loop_
_atom_site_type_symbol
_atom_site_label
_atom_site_fract_x
_atom_site_fract_y
_atom_site_fract_z
Si Si1 0.163702 0.900741 0.267900
Si Si2 0.073746 0.258117 0.355598
Si Si3 0.686553 0.743230 0.000822
Si Si4 0.564775 0.105797 0.040683
Si Si5 0.494048 0.630216 0.849392
Si Si6 0.347369 0.143049 0.185849
O O1 0.136974 0.827545 0.146199
O O2 0.122904 0.756580 0.354681
O O3 0.085177 0.076746 0.290106
O O4 0.293181 0.985335 0.255981
O O5 0.200758 0.280262 0.419362
O O6 0.967778 0.231966 0.443228
O O7 0.043921 0.443290 0.303633
O O8 0.745050 0.745017 0.122421
O O9 0.632648 0.937870 0.996975
O O10 0.574378 0.627878 0.960006
O O11 0.433839 0.065096 0.092563
O O12 0.578371 0.730358 0.763220
#
# Coordination Sequence:
#
# PCOD9340478 Si02
#       6
#     4   4   4   4   4   4
#     4  10  20  42  66  96 131 174 222 275 328 399
#     4  11  22  41  66  98 133 174 223 273 334 405
#     4  10  20  42  64  94 137 170 218 279 326 392
#     4   9  20  41  68  90 131 177 210 281 334 389
#     4  11  22  41  68  98 135 178 220 278 336 398
#     4   9  20  41  68  96 131 173 227 272 334 403
#
# _framework density 22.959288000000001
#
# number of rings (size 3 to 8) (size 9 to 14) (size 15 to 20)
#    0.000    2.000    3.333    0.000    0.000    0.000 
#   27.000    0.000    3.667    0.000    0.000    0.000 
#    0.000    0.000    0.000    0.000    0.000    0.000 
#
# Total GULP energy -133758.433430 kJ/mol
# GULP energy per Si atom -5573.268060 kJ/mol
# Density = 2.290703 g / cm^3
# Si number density = 22.959288 Si / 1000 Ang^3
#
#
#
# Elastic Constant Matrix: (Units=GPa)
#
#
# Indices 1 2 3 4 5 6 
#
# 1 61.4431 25.5070 11.3297 0.0000 0.0000 0.0000
# 2 25.5070 83.7897 2.9344 0.0000 0.0000 0.0000
# 3 11.3297 2.9344 47.4536 0.0000 0.0000 0.0000
# 4 0.0000 0.0000 0.0000 17.8269 0.0000 0.0000
# 5 0.0000 0.0000 0.0000 0.0000 42.4712 0.0000
# 6 0.0000 0.0000 0.0000 0.0000 0.0000 18.3952
#
#
#
# Elastic Compliance Matrix: (Units=1/GPa)
#
#
# Indices 1 2 3 4 5 6 
#
# 1 0.019464 -0.005775 -0.004290 0.000000 0.000000 0.000000
# 2 -0.005775 0.013674 0.000533 0.000000 0.000000 0.000000
# 3 -0.004290 0.000533 0.022064 0.000000 0.000000 0.000000
# 4 0.000000 0.000000 0.000000 0.056095 0.000000 0.000000
# 5 0.000000 0.000000 0.000000 0.000000 0.023545 0.000000
# 6 0.000000 0.000000 0.000000 0.000000 0.000000 0.054362
#
#
# Mechanical properties :
#
#
# Convention : Reuss Voigt Hill
#
# Bulk Modulus (GPa) = 27.67096 30.24761 28.95929
# Shear Modulus (GPa) = 22.69493 25.93301 24.31397
#
# Velocity S-wave (km/s) = 3.14743 3.36448 3.25776
# Velocity P-wave (km/s) = 5.02860 5.31940 5.17604
#
# Compressibility (1/GPa) = 0.03613897
#
# Stress axis : x y z
#
# Youngs Moduli (GPa) = 51.37815 73.13194 45.32173
#
# Poissons Ratio (x) = 0.42232 0.19442
# Poissons Ratio (y) = 0.29670 -0.02417
# Poissons Ratio (z) = 0.22041 -0.03899
#
# Static dielectric constant tensor:
#      x y z
#    x 1.965630 0.000000 0.000000 
#    y 0.000000 1.822080 0.000000 
#    z 0.000000 0.000000 1.949000 
# 
# From -- ./inp_files/4454.got.cif
#   From: 2010.05.17/outbox.cif.g08.bks.cpg/sg29_3_cif.got.tgz:4454.got - 2010.06.04 01:19:37.
