data_PCOD9340284
_publ_section_title
;
Structure prediction by ZEFSAII (Michael W. Deem and Ramdas Pophale) SiO2 
 PCOD9340284
Probable space group: P C A 21
;
_chemical_formula_sum "Si O2"
_cell_formula_units_Z 32
_cell_length_a 16.155714
_cell_length_b 10.890090
_cell_length_c 8.884389
_cell_angle_alpha 90.000000
_cell_angle_beta 90.000000
_cell_angle_gamma 90.000000
_cell_volume 1563.094342
_symmetry_space_group_name_H-M "P C A 21"
_symmetry_group_IT_number 29
_symmetry_cell_setting 'orthorhombic'
loop_
_space_group_symop_operation_xyz
x,y,z
-x,-y,1/2+z
1/2-x,y,1/2+z
1/2+x,-y,z
loop_
_atom_site_type_symbol
_atom_site_label
_atom_site_fract_x
_atom_site_fract_y
_atom_site_fract_z
Si Si1 0.225739 0.854905 0.632850
Si Si2 0.520474 0.386022 0.549656
Si Si3 0.152729 0.938011 0.345879
Si Si4 0.960395 0.895232 0.020428
Si Si5 0.355707 0.542353 0.559907
Si Si6 0.809886 0.428012 0.208250
Si Si7 0.461823 0.728486 0.735739
Si Si8 0.543303 0.124790 0.709061
O O1 0.216213 0.866384 0.454511
O O2 0.300151 0.938576 0.689497
O O3 0.219039 0.712816 0.678840
O O4 0.139860 0.905921 0.697615
O O5 0.434845 0.454214 0.583245
O O6 0.605885 0.448003 0.610420
O O7 0.521649 0.366599 0.369526
O O8 0.522966 0.253299 0.630084
O O9 0.076639 0.845636 0.322180
O O10 0.121873 0.058746 0.431903
O O11 0.019158 0.866734 0.881116
O O12 0.963125 0.780848 0.134869
O O13 0.994535 0.012145 0.114545
O O14 0.272623 0.503053 0.649722
O O15 0.331652 0.553452 0.383610
O O16 0.393065 0.670202 0.625489
#
# Coordination Sequence:
#
# PCOD9340284 Si02
#       8
#     4   4   4   4   4   4   4   4
#     4  10  20  34  57  91 121 147 201 268 320 351
#     4  11  23  43  62  97 132 166 224 277 326 397
#     4  11  21  35  59  91 124 152 194 265 317 375
#     4  11  21  37  62  90 122 168 202 253 330 379
#     4  12  25  38  69  94 128 176 210 282 335 396
#     4  11  21  40  62  98 129 164 223 279 334 384
#     4  12  21  38  63  94 126 166 213 265 329 390
#     4  10  20  37  62  91 124 161 207 269 313 386
#
# _framework density 20.472214999999998
#
# number of rings (size 3 to 8) (size 9 to 14) (size 15 to 20)
#    0.000    1.000    6.250    3.750    1.750    0.000 
#    0.000    1.250    0.000   19.500    0.000    0.000 
#    0.000    0.000    0.000    0.000    0.000    0.000 
#
# Total GULP energy -178320.141524 kJ/mol
# GULP energy per Si atom -5572.504423 kJ/mol
# Density = 2.042562 g / cm^3
# Si number density = 20.472215 Si / 1000 Ang^3
#
#
#
# Elastic Constant Matrix: (Units=GPa)
#
#
# Indices 1 2 3 4 5 6 
#
# 1 111.3639 37.0651 31.1937 0.0000 0.0000 0.0000
# 2 37.0651 30.5118 19.8357 0.0000 0.0000 0.0000
# 3 31.1937 19.8357 83.5187 0.0000 0.0000 0.0000
# 4 0.0000 0.0000 0.0000 24.8863 0.0000 0.0000
# 5 0.0000 0.0000 0.0000 0.0000 27.5816 0.0000
# 6 0.0000 0.0000 0.0000 0.0000 0.0000 19.5994
#
#
#
# Elastic Compliance Matrix: (Units=1/GPa)
#
#
# Indices 1 2 3 4 5 6 
#
# 1 0.015238 -0.017515 -0.001531 0.000000 0.000000 0.000000
# 2 -0.017515 0.058892 -0.007445 0.000000 0.000000 0.000000
# 3 -0.001531 -0.007445 0.014314 0.000000 0.000000 0.000000
# 4 0.000000 0.000000 0.000000 0.040183 0.000000 0.000000
# 5 0.000000 0.000000 0.000000 0.000000 0.036256 0.000000
# 6 0.000000 0.000000 0.000000 0.000000 0.000000 0.051022
#
#
# Mechanical properties :
#
#
# Convention : Reuss Voigt Hill
#
# Bulk Modulus (GPa) = 28.20097 44.62037 36.41067
# Shear Modulus (GPa) = 17.81214 23.56679 20.68946
#
# Velocity S-wave (km/s) = 2.95289 3.39656 3.18246
# Velocity P-wave (km/s) = 5.04293 6.10123 5.59715
#
# Compressibility (1/GPa) = 0.03545977
#
# Stress axis : x y z
#
# Youngs Moduli (GPa) = 65.62464 16.98036 69.86408
#
# Poissons Ratio (x) = 0.29742 0.10699
# Poissons Ratio (y) = 1.14945 0.52013
# Poissons Ratio (z) = 0.10050 0.12642
#
# Static dielectric constant tensor:
#      x y z
#    x 1.826870 0.000000 0.000000 
#    y 0.000000 1.769690 0.000000 
#    z 0.000000 0.000000 1.774180 
# 
# From -- ./inp_files/1897.got.cif
#   From: 2010.05.17/outbox.cif.g08.bks.cpg/sg29_1_cif.got.tgz:1897.got - 2010.06.04 01:19:37.
