data_PCOD9340767
_publ_section_title
;
Structure prediction by ZEFSAII (Michael W. Deem and Ramdas Pophale) SiO2 
 PCOD9340767
Probable space group: P C A 21
;
_chemical_formula_sum "Si O2"
_cell_formula_units_Z 32
_cell_length_a 14.320664
_cell_length_b 6.994724
_cell_length_c 14.294597
_cell_angle_alpha 90.000000
_cell_angle_beta 90.000000
_cell_angle_gamma 90.000000
_cell_volume 1431.876805
_symmetry_space_group_name_H-M "P C A 21"
_symmetry_group_IT_number 29
_symmetry_cell_setting 'orthorhombic'
loop_
_space_group_symop_operation_xyz
x,y,z
-x,-y,1/2+z
1/2-x,y,1/2+z
1/2+x,-y,z
loop_
_atom_site_type_symbol
_atom_site_label
_atom_site_fract_x
_atom_site_fract_y
_atom_site_fract_z
Si Si1 0.998254 0.583499 0.245310
Si Si2 0.120804 0.383093 0.571330
Si Si3 0.788757 0.272620 0.003194
Si Si4 0.425399 0.967054 0.116146
Si Si5 0.626626 0.141775 0.139292
Si Si6 0.594826 0.954235 0.825412
Si Si7 0.529446 0.737870 0.396272
Si Si8 0.800224 0.001666 0.836617
O O1 0.020306 0.408970 0.311515
O O2 0.083144 0.662330 0.182201
O O3 0.967120 0.766510 0.307883
O O4 0.916090 0.540988 0.170844
O O5 0.204217 0.502600 0.525661
O O6 0.040511 0.377856 0.491899
O O7 0.702424 0.183529 0.060122
O O8 0.884681 0.194137 0.050239
O O9 0.791541 0.197394 0.897221
O O10 0.535032 0.019744 0.108942
O O11 0.407468 0.936099 0.225521
O O12 0.366257 0.158374 0.091338
O O13 0.674290 0.042118 0.229181
O O14 0.552634 0.106974 0.896308
O O15 0.700358 0.901938 0.845881
O O16 0.620780 0.866970 0.379433
#
# Coordination Sequence:
#
# PCOD9340767 Si02
#       8
#     4   4   4   4   4   4   4   4
#     4  10  24  45  68 101 133 184 229 274 350 411
#     4  10  24  40  67  98 133 177 223 282 334 407
#     4  12  24  43  67  98 139 179 223 294 335 402
#     4  10  21  45  66  96 135 175 228 270 348 409
#     4  10  23  44  67  99 131 179 227 276 344 412
#     4  10  23  43  67  99 133 178 225 279 335 416
#     4  12  23  46  69  99 142 180 225 286 347 402
#     4  12  24  40  73 100 132 184 226 283 345 407
#
# _framework density 22.348292000000001
#
# number of rings (size 3 to 8) (size 9 to 14) (size 15 to 20)
#    0.000    1.500    5.000    1.500    3.500    2.000 
#    2.250    0.000    0.000    0.000    0.000    0.000 
#    0.000    0.000    0.000    0.000    0.000    0.000 
#
# Total GULP energy -178775.529283 kJ/mol
# GULP energy per Si atom -5586.735290 kJ/mol
# Density = 2.229743 g / cm^3
# Si number density = 22.348292 Si / 1000 Ang^3
#
#
#
# Elastic Constant Matrix: (Units=GPa)
#
#
# Indices 1 2 3 4 5 6 
#
# 1 94.0493 24.6771 9.5408 0.0000 0.0000 0.0000
# 2 24.6771 52.5031 13.8941 0.0000 0.0000 0.0000
# 3 9.5408 13.8941 72.5014 0.0000 0.0000 0.0000
# 4 0.0000 0.0000 0.0000 32.9281 0.0000 0.0000
# 5 0.0000 0.0000 0.0000 0.0000 26.2956 0.0000
# 6 0.0000 0.0000 0.0000 0.0000 0.0000 18.0077
#
#
#
# Elastic Compliance Matrix: (Units=1/GPa)
#
#
# Indices 1 2 3 4 5 6 
#
# 1 0.012148 -0.005569 -0.000531 0.000000 0.000000 0.000000
# 2 -0.005569 0.022617 -0.003601 0.000000 0.000000 0.000000
# 3 -0.000531 -0.003601 0.014553 0.000000 0.000000 0.000000
# 4 0.000000 0.000000 0.000000 0.030369 0.000000 0.000000
# 5 0.000000 0.000000 0.000000 0.000000 0.038029 0.000000
# 6 0.000000 0.000000 0.000000 0.000000 0.000000 0.055532
#
#
# Mechanical properties :
#
#
# Convention : Reuss Voigt Hill
#
# Bulk Modulus (GPa) = 33.42896 35.03088 34.22992
# Shear Modulus (GPa) = 24.67635 26.84239 25.75937
#
# Velocity S-wave (km/s) = 3.32651 3.46944 3.39873
# Velocity P-wave (km/s) = 5.45389 5.63545 5.54541
#
# Compressibility (1/GPa) = 0.02991418
#
# Stress axis : x y z
#
# Youngs Moduli (GPa) = 82.31907 44.21435 68.71460
#
# Poissons Ratio (x) = 0.24623 0.03651
# Poissons Ratio (y) = 0.45844 0.24747
# Poissons Ratio (z) = 0.04374 0.15924
#
# Static dielectric constant tensor:
#      x y z
#    x 1.832250 0.000000 0.000000 
#    y 0.000000 1.835960 0.000000 
#    z 0.000000 0.000000 1.845510 
# 
# From -- ./inp_files/3471.got.cif
#   From: 2010.05.17/outbox.cif.g08.bks.cpg/sg29_2_cif.got.tgz:3471.got - 2010.06.04 01:19:37.
