data_PCOD9340447
_publ_section_title
;
Structure prediction by ZEFSAII (Michael W. Deem and Ramdas Pophale) SiO2 
 PCOD9340447
Probable space group: P C A 21
;
_chemical_formula_sum "Si O2"
_cell_formula_units_Z 20
_cell_length_a 16.282774
_cell_length_b 6.239810
_cell_length_c 8.531007
_cell_angle_alpha 90.000000
_cell_angle_beta 90.000000
_cell_angle_gamma 90.000000
_cell_volume 866.762391
_symmetry_space_group_name_H-M "P C A 21"
_symmetry_group_IT_number 29
_symmetry_cell_setting 'orthorhombic'
loop_
_space_group_symop_operation_xyz
x,y,z
-x,-y,1/2+z
1/2-x,y,1/2+z
1/2+x,-y,z
loop_
_atom_site_type_symbol
_atom_site_label
_atom_site_fract_x
_atom_site_fract_y
_atom_site_fract_z
Si Si1 0.359780 0.128224 0.796110
Si Si2 0.736085 0.080820 0.578934
Si Si3 0.471442 0.439616 0.957826
Si Si4 0.369636 0.801185 0.346758
Si Si5 0.511519 0.823536 0.778287
O O1 0.285164 0.103212 0.675148
O O2 0.437594 0.987448 0.737880
O O3 0.396240 0.354623 0.851095
O O4 0.324143 0.020636 0.952829
O O5 0.684632 0.232597 0.693043
O O6 0.807021 0.207015 0.489554
O O7 0.554719 0.349918 0.879716
O O8 0.480902 0.691425 0.930569
O O9 0.470783 0.330208 0.129100
O O10 0.409136 0.037444 0.322735
#
# Coordination Sequence:
#
# PCOD9340447 Si02
#       5
#     4   4   4   4   4
#     4  10  22  42  64  86 122 160 204 248 304 352
#     4  10  20  40  66  86 120 162 196 254 306 356
#     4  11  24  40  63  91 121 163 205 247 294 360
#     4  10  22  42  64  86 122 160 204 248 304 352
#     4  11  24  40  63  91 121 163 205 247 294 360
#
# _framework density 23.074373999999999
#
# number of rings (size 3 to 8) (size 9 to 14) (size 15 to 20)
#    0.000    1.600    4.000    0.000    5.600    0.000 
#    0.000   12.000    0.000    0.000    0.000    0.000 
#    0.000    0.000    0.000    0.000    0.000    0.000 
#
# Total GULP energy -111797.963224 kJ/mol
# GULP energy per Si atom -5589.898161 kJ/mol
# Density = 2.302186 g / cm^3
# Si number density = 23.074374 Si / 1000 Ang^3
#
#
#
# Elastic Constant Matrix: (Units=GPa)
#
#
# Indices 1 2 3 4 5 6 
#
# 1 68.3985 -4.6806 18.3152 0.0000 0.0000 0.0000
# 2 -4.6806 36.9117 4.9153 0.0000 0.0000 0.0000
# 3 18.3152 4.9153 87.9606 0.0000 0.0000 0.0000
# 4 0.0000 0.0000 0.0000 18.8948 0.0000 0.0000
# 5 0.0000 0.0000 0.0000 0.0000 45.8401 0.0000
# 6 0.0000 0.0000 0.0000 0.0000 0.0000 7.2524
#
#
#
# Elastic Compliance Matrix: (Units=1/GPa)
#
#
# Indices 1 2 3 4 5 6 
#
# 1 0.015699 0.002444 -0.003406 0.000000 0.000000 0.000000
# 2 0.002444 0.027675 -0.002055 0.000000 0.000000 0.000000
# 3 -0.003406 -0.002055 0.012193 0.000000 0.000000 0.000000
# 4 0.000000 0.000000 0.000000 0.052925 0.000000 0.000000
# 5 0.000000 0.000000 0.000000 0.000000 0.021815 0.000000
# 6 0.000000 0.000000 0.000000 0.000000 0.000000 0.137886
#
#
# Mechanical properties :
#
#
# Convention : Reuss Voigt Hill
#
# Bulk Modulus (GPa) = 20.18815 25.59670 22.89242
# Shear Modulus (GPa) = 17.19763 26.04551 21.62157
#
# Velocity S-wave (km/s) = 2.73300 3.36335 3.06443
# Velocity P-wave (km/s) = 4.32750 5.11860 4.73958
#
# Compressibility (1/GPa) = 0.04953402
#
# Stress axis : x y z
#
# Youngs Moduli (GPa) = 63.69678 36.13322 82.01636
#
# Poissons Ratio (x) = -0.08832 0.27931
# Poissons Ratio (y) = -0.15569 0.16858
# Poissons Ratio (z) = 0.21692 0.07427
#
# Static dielectric constant tensor:
#      x y z
#    x 1.847310 0.000000 0.000000 
#    y 0.000000 1.880490 0.000000 
#    z 0.000000 0.000000 1.910390 
# 
# From -- ./inp_files/1929.got.cif
#   From: 2010.05.17/outbox.cif.g08.bks.cpg/sg29_1_cif.got.tgz:1929.got - 2010.06.04 01:19:37.
