data_PCOD9340495
_publ_section_title
;
Structure prediction by ZEFSAII (Michael W. Deem and Ramdas Pophale) SiO2 
 PCOD9340495
Probable space group: P C A 21
;
_chemical_formula_sum "Si O2"
_cell_formula_units_Z 32
_cell_length_a 13.610158
_cell_length_b 12.270078
_cell_length_c 8.399184
_cell_angle_alpha 90.000000
_cell_angle_beta 90.000000
_cell_angle_gamma 90.000000
_cell_volume 1402.644412
_symmetry_space_group_name_H-M "P C A 21"
_symmetry_group_IT_number 29
_symmetry_cell_setting 'orthorhombic'
loop_
_space_group_symop_operation_xyz
x,y,z
-x,-y,1/2+z
1/2-x,y,1/2+z
1/2+x,-y,z
loop_
_atom_site_type_symbol
_atom_site_label
_atom_site_fract_x
_atom_site_fract_y
_atom_site_fract_z
Si Si1 0.767893 0.387082 0.447880
Si Si2 0.102828 0.778143 0.457370
Si Si3 0.042606 0.633139 0.751111
Si Si4 0.144843 0.494306 0.233309
Si Si5 0.926750 0.011364 0.137474
Si Si6 0.781699 0.742239 0.644018
Si Si7 0.938808 0.846452 0.851402
Si Si8 0.891101 0.816956 0.321407
O O1 0.707364 0.276367 0.417701
O O2 0.854062 0.399669 0.321000
O O3 0.820958 0.409761 0.615146
O O4 0.688258 0.479616 0.405859
O O5 0.057811 0.691408 0.582509
O O6 0.127192 0.892198 0.543679
O O7 0.009396 0.797487 0.339558
O O8 0.969957 0.531318 0.741461
O O9 0.998022 0.732394 0.856391
O O10 0.190193 0.382770 0.168229
O O11 0.017592 0.075935 0.212807
O O12 0.877412 0.945201 0.281588
O O13 0.948126 0.918029 0.008719
O O14 0.832813 0.810847 0.786999
O O15 0.836503 0.781120 0.483803
O O16 0.666088 0.756712 0.676692
#
# Coordination Sequence:
#
# PCOD9340495 Si02
#       8
#     4   4   4   4   4   4   4   4
#     4  12  26  46  73 111 141 201 246 304 390 433
#     4  11  24  49  67 104 154 182 248 312 361 457
#     4  10  24  47  68 102 153 180 243 315 359 454
#     4  11  25  43  74 101 145 190 246 306 372 443
#     4  11  21  43  71  98 146 205 232 306 384 445
#     4  11  23  43  67 109 139 186 252 310 357 459
#     4  10  20  43  67 100 144 186 246 296 376 440
#     4  12  23  44  73 103 148 190 245 309 377 449
#
# _framework density 22.814049000000001
#
# number of rings (size 3 to 8) (size 9 to 14) (size 15 to 20)
#    0.000    1.000    6.250    1.500    1.750    2.000 
#   11.250    0.000    0.000    0.000    0.000    0.000 
#    0.000    0.000    0.000    0.000    0.000    0.000 
#
# Total GULP energy -178564.895143 kJ/mol
# GULP energy per Si atom -5580.152973 kJ/mol
# Density = 2.276212 g / cm^3
# Si number density = 22.814049 Si / 1000 Ang^3
#
#
#
# Elastic Constant Matrix: (Units=GPa)
#
#
# Indices 1 2 3 4 5 6 
#
# 1 100.5354 28.3033 11.3833 0.0000 0.0000 0.0000
# 2 28.3033 68.8172 22.3290 0.0000 0.0000 0.0000
# 3 11.3833 22.3290 55.2351 0.0000 0.0000 0.0000
# 4 0.0000 0.0000 0.0000 24.8702 0.0000 0.0000
# 5 0.0000 0.0000 0.0000 0.0000 33.4724 0.0000
# 6 0.0000 0.0000 0.0000 0.0000 0.0000 28.2585
#
#
#
# Elastic Compliance Matrix: (Units=1/GPa)
#
#
# Indices 1 2 3 4 5 6 
#
# 1 0.011262 -0.004464 -0.000516 0.000000 0.000000 0.000000
# 2 -0.004464 0.018495 -0.006557 0.000000 0.000000 0.000000
# 3 -0.000516 -0.006557 0.020861 0.000000 0.000000 0.000000
# 4 0.000000 0.000000 0.000000 0.040209 0.000000 0.000000
# 5 0.000000 0.000000 0.000000 0.000000 0.029875 0.000000
# 6 0.000000 0.000000 0.000000 0.000000 0.000000 0.035388
#
#
# Mechanical properties :
#
#
# Convention : Reuss Voigt Hill
#
# Bulk Modulus (GPa) = 36.30576 38.73545 37.52060
# Shear Modulus (GPa) = 26.54698 28.15837 27.35267
#
# Velocity S-wave (km/s) = 3.41489 3.51701 3.46633
# Velocity P-wave (km/s) = 5.61222 5.78862 5.70110
#
# Compressibility (1/GPa) = 0.02754384
#
# Stress axis : x y z
#
# Youngs Moduli (GPa) = 88.79396 54.06939 47.93564
#
# Poissons Ratio (x) = 0.24139 0.02475
# Poissons Ratio (y) = 0.39641 0.31429
# Poissons Ratio (z) = 0.04584 0.35451
#
# Static dielectric constant tensor:
#      x y z
#    x 1.898350 0.000000 0.000000 
#    y 0.000000 1.841140 0.000000 
#    z 0.000000 0.000000 1.952050 
# 
# From -- ./inp_files/1816.got.cif
#   From: 2010.05.17/outbox.cif.g08.bks.cpg/sg29_1_cif.got.tgz:1816.got - 2010.06.04 01:19:37.
