data_PCOD9340766
_publ_section_title
;
Structure prediction by ZEFSAII (Michael W. Deem and Ramdas Pophale) SiO2 
 PCOD9340766
Probable space group: P C A 21
;
_chemical_formula_sum "Si O2"
_cell_formula_units_Z 32
_cell_length_a 10.701096
_cell_length_b 5.244525
_cell_length_c 22.536167
_cell_angle_alpha 90.000000
_cell_angle_beta 90.000000
_cell_angle_gamma 90.000000
_cell_volume 1264.778494
_symmetry_space_group_name_H-M "P C A 21"
_symmetry_group_IT_number 29
_symmetry_cell_setting 'orthorhombic'
loop_
_space_group_symop_operation_xyz
x,y,z
-x,-y,1/2+z
1/2-x,y,1/2+z
1/2+x,-y,z
loop_
_atom_site_type_symbol
_atom_site_label
_atom_site_fract_x
_atom_site_fract_y
_atom_site_fract_z
Si Si1 0.184993 0.927189 0.764190
Si Si2 0.555109 0.606210 0.535294
Si Si3 0.162555 0.104126 0.633487
Si Si4 0.075921 0.101663 0.150826
Si Si5 0.561190 0.043069 0.945307
Si Si6 0.814072 0.535887 0.477919
Si Si7 0.062704 0.929733 0.326025
Si Si8 0.118555 0.593564 0.229782
O O1 0.177504 0.092892 0.704322
O O2 0.299573 0.022244 0.805795
O O3 0.054021 0.926441 0.796195
O O4 0.234665 0.651541 0.742073
O O5 0.605658 0.655931 0.600541
O O6 0.558699 0.107738 0.621262
O O7 0.521342 0.875783 0.502338
O O8 0.672357 0.495568 0.498545
O O9 0.302457 0.070174 0.610027
O O10 0.919534 0.159238 0.689999
O O11 0.089848 0.344209 0.193377
O O12 0.080620 0.479003 0.030360
O O13 0.637420 0.308314 0.934933
O O14 0.466275 0.954383 0.894505
O O15 0.659871 0.815726 0.952658
O O16 0.058931 0.649639 0.294430
#
# Coordination Sequence:
#
# PCOD9340766 Si02
#       8
#     4   4   4   4   4   4   4   4
#     4   9  20  44  68 112 142 201 239 312 376 459
#     4  10  27  49  77 113 150 204 258 318 386 454
#     4  11  23  48  74 105 155 194 252 310 376 460
#     4  11  24  46  68 109 141 201 240 309 373 454
#     4  10  26  48  77 111 148 201 255 320 375 462
#     4  10  26  48  75 112 152 196 263 311 389 449
#     4  10  21  44  75 109 153 196 251 312 383 456
#     4   9  23  43  68 101 151 179 254 290 376 444
#
# _framework density 25.300874
#
# number of rings (size 3 to 8) (size 9 to 14) (size 15 to 20)
#    1.500    0.500    1.250    0.000    5.250    4.000 
#    4.500    0.000    0.000    0.000    0.000    0.000 
#    0.000    0.000    0.000    0.000    0.000    0.000 
#
# Total GULP energy -178449.329866 kJ/mol
# GULP energy per Si atom -5576.541558 kJ/mol
# Density = 2.524329 g / cm^3
# Si number density = 25.300874 Si / 1000 Ang^3
#
#
#
# Elastic Constant Matrix: (Units=GPa)
#
#
# Indices 1 2 3 4 5 6 
#
# 1 157.2792 47.5937 19.4624 0.0000 0.0000 0.0000
# 2 47.5937 121.2439 15.9770 0.0000 0.0000 0.0000
# 3 19.4624 15.9770 58.7270 0.0000 0.0000 0.0000
# 4 0.0000 0.0000 0.0000 23.9863 0.0000 0.0000
# 5 0.0000 0.0000 0.0000 0.0000 31.6348 0.0000
# 6 0.0000 0.0000 0.0000 0.0000 0.0000 22.5708
#
#
#
# Elastic Compliance Matrix: (Units=1/GPa)
#
#
# Indices 1 2 3 4 5 6 
#
# 1 0.007379 -0.002670 -0.001719 0.000000 0.000000 0.000000
# 2 -0.002670 0.009521 -0.001705 0.000000 0.000000 0.000000
# 3 -0.001719 -0.001705 0.018062 0.000000 0.000000 0.000000
# 4 0.000000 0.000000 0.000000 0.041690 0.000000 0.000000
# 5 0.000000 0.000000 0.000000 0.000000 0.031611 0.000000
# 6 0.000000 0.000000 0.000000 0.000000 0.000000 0.044305
#
#
# Mechanical properties :
#
#
# Convention : Reuss Voigt Hill
#
# Bulk Modulus (GPa) = 43.91268 55.92403 49.91836
# Shear Modulus (GPa) = 29.01132 32.58619 30.79875
#
# Velocity S-wave (km/s) = 3.38990 3.59269 3.49277
# Velocity P-wave (km/s) = 5.71977 6.27387 6.00322
#
# Compressibility (1/GPa) = 0.02277246
#
# Stress axis : x y z
#
# Youngs Moduli (GPa) = 135.52354 105.03494 55.36620
#
# Poissons Ratio (x) = 0.28044 0.09517
# Poissons Ratio (y) = 0.36185 0.09442
# Poissons Ratio (z) = 0.23296 0.17911
#
# Static dielectric constant tensor:
#      x y z
#    x 2.102120 0.000000 0.000000 
#    y 0.000000 2.041620 0.000000 
#    z 0.000000 0.000000 2.054040 
# 
# From -- ./inp_files/5726.got.cif
#   From: 2010.05.17/outbox.cif.g08.bks.cpg/sg29_3_cif.got.tgz:5726.got - 2010.06.04 01:19:37.
