data_PCOD9340805
_publ_section_title
;
Structure prediction by ZEFSAII (Michael W. Deem and Ramdas Pophale) SiO2 
 PCOD9340805
Probable space group: P C A 21
;
_chemical_formula_sum "Si O2"
_cell_formula_units_Z 24
_cell_length_a 5.242304
_cell_length_b 7.682654
_cell_length_c 25.226161
_cell_angle_alpha 90.000000
_cell_angle_beta 90.000000
_cell_angle_gamma 90.000000
_cell_volume 1015.978786
_symmetry_space_group_name_H-M "P C A 21"
_symmetry_group_IT_number 29
_symmetry_cell_setting 'orthorhombic'
loop_
_space_group_symop_operation_xyz
x,y,z
-x,-y,1/2+z
1/2-x,y,1/2+z
1/2+x,-y,z
loop_
_atom_site_type_symbol
_atom_site_label
_atom_site_fract_x
_atom_site_fract_y
_atom_site_fract_z
Si Si1 0.088290 0.054369 0.103520
Si Si2 0.095630 0.590935 0.055952
Si Si3 0.243443 0.880960 0.474406
Si Si4 0.756480 0.268601 0.161808
Si Si5 0.725258 0.376707 0.874230
Si Si6 0.726118 0.125561 0.772484
O O1 0.020329 0.235176 0.129929
O O2 0.632288 0.078118 0.152164
O O3 0.353299 0.039438 0.074809
O O4 0.304345 0.444329 0.040864
O O5 0.106560 0.613526 0.120253
O O6 0.215980 0.754924 0.025401
O O7 0.271090 0.744095 0.426210
O O8 0.468202 0.025141 0.470619
O O9 0.779379 0.269277 0.224188
O O10 0.473921 0.498621 0.872924
O O11 0.726505 0.241523 0.825260
O O12 0.477662 0.998754 0.770106
#
# Coordination Sequence:
#
# PCOD9340805 Si02
#       6
#     4   4   4   4   4   4
#     4   8  16  30  54  84 110 160 206 272 292 342
#     4  12  29  44  66 101 146 180 215 279 352 411
#     4  12  26  47  79 102 126 173 237 282 328 407
#     4  10  22  37  66  89 138 172 230 264 332 370
#     4  12  26  47  70  99 144 176 213 279 358 410
#     4  12  23  41  69 101 134 177 239 282 322 390
#
# _framework density 23.622540000000001
#
# number of rings (size 3 to 8) (size 9 to 14) (size 15 to 20)
#    1.000    0.000    1.667    5.000    4.667    1.333 
#    0.000    0.000    0.000    0.000    0.000    0.000 
#    0.000    0.000    0.000    0.000    0.000    0.000 
#
# Total GULP energy -133794.869776 kJ/mol
# GULP energy per Si atom -5574.786241 kJ/mol
# Density = 2.356877 g / cm^3
# Si number density = 23.622540 Si / 1000 Ang^3
#
#
#
# Elastic Constant Matrix: (Units=GPa)
#
#
# Indices 1 2 3 4 5 6 
#
# 1 169.8830 32.5074 26.1108 0.0000 0.0000 0.0000
# 2 32.5074 98.2840 52.3209 0.0000 0.0000 0.0000
# 3 26.1108 52.3209 137.3631 0.0000 0.0000 0.0000
# 4 0.0000 0.0000 0.0000 42.4358 0.0000 0.0000
# 5 0.0000 0.0000 0.0000 0.0000 21.6019 0.0000
# 6 0.0000 0.0000 0.0000 0.0000 0.0000 55.2750
#
#
#
# Elastic Compliance Matrix: (Units=1/GPa)
#
#
# Indices 1 2 3 4 5 6 
#
# 1 0.006312 -0.001818 -0.000508 0.000000 0.000000 0.000000
# 2 -0.001818 0.013286 -0.004715 0.000000 0.000000 0.000000
# 3 -0.000508 -0.004715 0.009172 0.000000 0.000000 0.000000
# 4 0.000000 0.000000 0.000000 0.023565 0.000000 0.000000
# 5 0.000000 0.000000 0.000000 0.000000 0.046292 0.000000
# 6 0.000000 0.000000 0.000000 0.000000 0.000000 0.018091
#
#
# Mechanical properties :
#
#
# Convention : Reuss Voigt Hill
#
# Bulk Modulus (GPa) = 68.07298 69.71203 68.89251
# Shear Modulus (GPa) = 36.84711 43.50195 40.17453
#
# Velocity S-wave (km/s) = 3.95375 4.29598 4.12841
# Velocity P-wave (km/s) = 7.05141 7.36085 7.20779
#
# Compressibility (1/GPa) = 0.01469012
#
# Stress axis : x y z
#
# Youngs Moduli (GPa) = 158.42317 75.26864 109.02314
#
# Poissons Ratio (x) = 0.13681 0.05534
# Poissons Ratio (y) = 0.28794 0.51404
# Poissons Ratio (z) = 0.08041 0.35489
#
# Static dielectric constant tensor:
#      x y z
#    x 2.062880 0.000000 0.000000 
#    y 0.000000 1.929320 0.000000 
#    z 0.000000 0.000000 1.982300 
# 
# From -- ./inp_files/5629.got.cif
#   From: 2010.05.17/outbox.cif.g08.bks.cpg/sg29_3_cif.got.tgz:5629.got - 2010.06.04 01:19:37.
