data_PCOD9340458
_publ_section_title
;
Structure prediction by ZEFSAII (Michael W. Deem and Ramdas Pophale) SiO2 
 PCOD9340458
Probable space group: P C A 21
;
_chemical_formula_sum "Si O2"
_cell_formula_units_Z 32
_cell_length_a 21.765425
_cell_length_b 5.007748
_cell_length_c 12.728644
_cell_angle_alpha 90.000000
_cell_angle_beta 90.000000
_cell_angle_gamma 90.000000
_cell_volume 1387.368271
_symmetry_space_group_name_H-M "P C A 21"
_symmetry_group_IT_number 29
_symmetry_cell_setting 'orthorhombic'
loop_
_space_group_symop_operation_xyz
x,y,z
-x,-y,1/2+z
1/2-x,y,1/2+z
1/2+x,-y,z
loop_
_atom_site_type_symbol
_atom_site_label
_atom_site_fract_x
_atom_site_fract_y
_atom_site_fract_z
Si Si1 0.770699 0.086789 0.202240
Si Si2 0.535016 0.606236 0.875482
Si Si3 0.607764 0.326522 0.331736
Si Si4 0.643414 0.832911 0.200772
Si Si5 0.598583 0.108309 0.985840
Si Si6 0.372068 0.271801 0.222104
Si Si7 0.790200 0.418706 0.388291
Si Si8 0.190872 0.521283 0.526277
O O1 0.717813 0.863634 0.189880
O O2 0.843419 0.024576 0.225049
O O3 0.750704 0.247759 0.305576
O O4 0.775596 0.256128 0.096955
O O5 0.462754 0.626601 0.863287
O O6 0.555701 0.364194 0.952765
O O7 0.562190 0.617321 0.755491
O O8 0.567632 0.872185 0.919367
O O9 0.626010 0.534471 0.237588
O O10 0.646119 0.375226 0.436943
O O11 0.619557 0.027139 0.292686
O O12 0.610856 0.963319 0.098077
O O13 0.664690 0.225446 0.951868
O O14 0.330375 0.402580 0.312210
O O15 0.348833 0.354552 0.107660
O O16 0.747624 0.600838 0.461391
#
# Coordination Sequence:
#
# PCOD9340458 Si02
#       8
#     4   4   4   4   4   4   4   4
#     4  11  22  40  67 104 137 180 228 294 353 430
#     4  11  25  49  71  98 142 192 242 287 345 427
#     4  12  28  48  67 106 145 190 236 300 348 422
#     4  12  26  44  73 105 142 179 240 298 365 419
#     4  11  23  45  76 100 134 190 239 284 355 422
#     4  10  24  39  69  99 137 186 234 286 355 425
#     4  10  20  41  63 100 137 175 225 292 349 425
#     4  11  24  40  68 102 142 178 230 293 362 420
#
# _framework density 23.065255000000001
#
# number of rings (size 3 to 8) (size 9 to 14) (size 15 to 20)
#    0.000    1.000    3.750    2.250    3.500    5.000 
#    2.250    0.000    0.000    0.000    0.000    0.000 
#    0.000    0.000    0.000    0.000    0.000    0.000 
#
# Total GULP energy -178474.112486 kJ/mol
# GULP energy per Si atom -5577.316015 kJ/mol
# Density = 2.301276 g / cm^3
# Si number density = 23.065255 Si / 1000 Ang^3
#
#
#
# Elastic Constant Matrix: (Units=GPa)
#
#
# Indices 1 2 3 4 5 6 
#
# 1 100.8170 -1.5963 31.0838 0.0000 0.0000 0.0000
# 2 -1.5963 61.7045 -3.0786 0.0000 0.0000 0.0000
# 3 31.0838 -3.0786 100.0371 0.0000 0.0000 0.0000
# 4 0.0000 0.0000 0.0000 16.8255 0.0000 0.0000
# 5 0.0000 0.0000 0.0000 0.0000 23.4808 0.0000
# 6 0.0000 0.0000 0.0000 0.0000 0.0000 18.1139
#
#
#
# Elastic Compliance Matrix: (Units=1/GPa)
#
#
# Indices 1 2 3 4 5 6 
#
# 1 0.010971 0.000114 -0.003405 0.000000 0.000000 0.000000
# 2 0.000114 0.016232 0.000464 0.000000 0.000000 0.000000
# 3 -0.003405 0.000464 0.011069 0.000000 0.000000 0.000000
# 4 0.000000 0.000000 0.000000 0.059434 0.000000 0.000000
# 5 0.000000 0.000000 0.000000 0.000000 0.042588 0.000000
# 6 0.000000 0.000000 0.000000 0.000000 0.000000 0.055206
#
#
# Mechanical properties :
#
#
# Convention : Reuss Voigt Hill
#
# Bulk Modulus (GPa) = 30.65864 35.04181 32.85023
# Shear Modulus (GPa) = 23.58193 27.42734 25.50463
#
# Velocity S-wave (km/s) = 3.20097 3.45210 3.32890
# Velocity P-wave (km/s) = 5.19448 5.57806 5.38968
#
# Compressibility (1/GPa) = 0.03261723
#
# Stress axis : x y z
#
# Youngs Moduli (GPa) = 91.15187 61.60523 90.34485
#
# Poissons Ratio (x) = -0.00702 0.30766
# Poissons Ratio (y) = -0.01038 -0.04193
# Poissons Ratio (z) = 0.31040 -0.02859
#
# Static dielectric constant tensor:
#      x y z
#    x 1.910820 0.000000 0.000000 
#    y 0.000000 1.940170 0.000000 
#    z 0.000000 0.000000 1.932610 
# 
# From -- ./inp_files/3961.got.cif
#   From: 2010.05.17/outbox.cif.g08.bks.cpg/sg29_2_cif.got.tgz:3961.got - 2010.06.04 01:19:37.
