data_PCOD9340933
_publ_section_title
;
Structure prediction by ZEFSAII (Michael W. Deem and Ramdas Pophale) SiO2 
 PCOD9340933
Probable space group: P C A 21
;
_chemical_formula_sum "Si O2"
_cell_formula_units_Z 20
_cell_length_a 10.885312
_cell_length_b 7.739751
_cell_length_c 9.678345
_cell_angle_alpha 90.000000
_cell_angle_beta 90.000000
_cell_angle_gamma 90.000000
_cell_volume 815.396738
_symmetry_space_group_name_H-M "P C A 21"
_symmetry_group_IT_number 29
_symmetry_cell_setting 'orthorhombic'
loop_
_space_group_symop_operation_xyz
x,y,z
-x,-y,1/2+z
1/2-x,y,1/2+z
1/2+x,-y,z
loop_
_atom_site_type_symbol
_atom_site_label
_atom_site_fract_x
_atom_site_fract_y
_atom_site_fract_z
Si Si1 0.727807 0.484440 0.677700
Si Si2 0.277806 0.925354 0.517733
Si Si3 0.535340 0.326011 0.876249
Si Si4 0.281323 0.152563 0.781973
Si Si5 0.621526 0.368985 0.418807
O O1 0.616865 0.373763 0.742863
O O2 0.715508 0.683190 0.715480
O O3 0.722092 0.468195 0.514135
O O4 0.842762 0.402247 0.759605
O O5 0.388586 0.798664 0.476728
O O6 0.151495 0.824788 0.469715
O O7 0.280744 0.995951 0.672297
O O8 0.287042 0.088753 0.417754
O O9 0.415297 0.222478 0.825304
O O10 0.496792 0.511699 0.941522
#
# Coordination Sequence:
#
# PCOD9340933 Si02
#       5
#     4   4   4   4   4
#     4  10  22  42  64  91 127 169 209 251 311 383
#     4  11  24  43  65  96 129 162 210 269 314 362
#     4  10  24  40  66  94 126 172 210 250 316 386
#     4  11  24  43  65  96 129 162 210 269 314 362
#     4  10  22  42  64  91 127 169 209 251 311 383
#
# _framework density 24.527936
#
# number of rings (size 3 to 8) (size 9 to 14) (size 15 to 20)
#    0.000    1.600    0.000    4.800    0.000   16.000 
#    0.000    0.000    0.000    0.000    0.000    0.000 
#    0.000    0.000    0.000    0.000    0.000    0.000 
#
# Total GULP energy -111734.226986 kJ/mol
# GULP energy per Si atom -5586.711349 kJ/mol
# Density = 2.447211 g / cm^3
# Si number density = 24.527936 Si / 1000 Ang^3
#
#
#
# Elastic Constant Matrix: (Units=GPa)
#
#
# Indices 1 2 3 4 5 6 
#
# 1 48.5507 4.1624 2.5617 0.0000 0.0000 0.0000
# 2 4.1624 109.4522 14.6719 0.0000 0.0000 0.0000
# 3 2.5617 14.6719 91.2028 0.0000 0.0000 0.0000
# 4 0.0000 0.0000 0.0000 60.2804 0.0000 0.0000
# 5 0.0000 0.0000 0.0000 0.0000 17.4143 0.0000
# 6 0.0000 0.0000 0.0000 0.0000 0.0000 57.6085
#
#
#
# Elastic Compliance Matrix: (Units=1/GPa)
#
#
# Indices 1 2 3 4 5 6 
#
# 1 0.020684 -0.000724 -0.000464 0.000000 0.000000 0.000000
# 2 -0.000724 0.009363 -0.001486 0.000000 0.000000 0.000000
# 3 -0.000464 -0.001486 0.011217 0.000000 0.000000 0.000000
# 4 0.000000 0.000000 0.000000 0.016589 0.000000 0.000000
# 5 0.000000 0.000000 0.000000 0.000000 0.057424 0.000000
# 6 0.000000 0.000000 0.000000 0.000000 0.000000 0.017359
#
#
# Mechanical properties :
#
#
# Convention : Reuss Voigt Hill
#
# Bulk Modulus (GPa) = 27.84426 32.44420 30.14423
# Shear Modulus (GPa) = 33.34315 42.24796 37.79556
#
# Velocity S-wave (km/s) = 3.69100 4.15473 3.92971
# Velocity P-wave (km/s) = 5.43519 6.02262 5.73643
#
# Compressibility (1/GPa) = 0.03591404
#
# Stress axis : x y z
#
# Youngs Moduli (GPa) = 48.34745 106.80177 89.15310
#
# Poissons Ratio (x) = 0.07736 0.04141
# Poissons Ratio (y) = 0.03502 0.13247
# Poissons Ratio (z) = 0.02245 0.15870
#
# Static dielectric constant tensor:
#      x y z
#    x 2.011400 0.000000 0.000000 
#    y 0.000000 1.977020 0.000000 
#    z 0.000000 0.000000 1.939330 
# 
# From -- ./inp_files/1344.got.cif
#   From: 2010.05.17/outbox.cif.g08.bks.cpg/sg29_1_cif.got.tgz:1344.got - 2010.06.04 01:19:37.
