data_PCOD9340450
_publ_section_title
;
Structure prediction by ZEFSAII (Michael W. Deem and Ramdas Pophale) SiO2 
 PCOD9340450
Probable space group: P C A 21
;
_chemical_formula_sum "Si O2"
_cell_formula_units_Z 32
_cell_length_a 9.821194
_cell_length_b 6.515188
_cell_length_c 22.092965
_cell_angle_alpha 90.000000
_cell_angle_beta 90.000000
_cell_angle_gamma 90.000000
_cell_volume 1413.660901
_symmetry_space_group_name_H-M "P C A 21"
_symmetry_group_IT_number 29
_symmetry_cell_setting 'orthorhombic'
loop_
_space_group_symop_operation_xyz
x,y,z
-x,-y,1/2+z
1/2-x,y,1/2+z
1/2+x,-y,z
loop_
_atom_site_type_symbol
_atom_site_label
_atom_site_fract_x
_atom_site_fract_y
_atom_site_fract_z
Si Si1 0.141617 0.328306 0.062110
Si Si2 0.059309 0.974046 0.606290
Si Si3 0.291009 0.980567 0.985265
Si Si4 0.872889 0.424181 0.449181
Si Si5 0.351748 0.797610 0.215601
Si Si6 0.653263 0.892992 0.255714
Si Si7 0.657651 0.637963 0.663620
Si Si8 0.144254 0.289060 0.387970
O O1 0.258283 0.429287 0.103559
O O2 0.202951 0.153489 0.018877
O O3 0.076655 0.481816 0.013669
O O4 0.054521 0.199729 0.110072
O O5 0.046381 0.203958 0.633744
O O6 0.094277 0.956336 0.536010
O O7 0.178994 0.883612 0.648021
O O8 0.205081 0.782255 0.968574
O O9 0.351460 0.076799 0.925106
O O10 0.764135 0.568358 0.414777
O O11 0.000280 0.388846 0.405537
O O12 0.493599 0.899635 0.238004
O O13 0.380841 0.558390 0.203874
O O14 0.227430 0.882568 0.256096
O O15 0.745208 0.764777 0.208735
O O16 0.660870 0.771834 0.318754
#
# Coordination Sequence:
#
# PCOD9340450 Si02
#       8
#     4   4   4   4   4   4   4   4
#     4  10  20  40  67 107 142 180 236 290 362 440
#     4  10  20  40  67 104 144 175 232 286 363 433
#     4  10  22  40  66 101 140 188 232 291 354 427
#     4  11  24  45  72 104 144 191 241 301 367 439
#     4  11  25  48  72 103 140 186 239 300 372 426
#     4  11  27  48  69 102 137 186 247 302 357 436
#     4  10  23  42  69 106 139 187 230 296 367 441
#     4  11  27  45  68 103 140 189 245 296 364 430
#
# _framework density 22.636261999999999
#
# number of rings (size 3 to 8) (size 9 to 14) (size 15 to 20)
#    0.000    1.500    1.250    2.250    3.500    6.000 
#    2.250    0.000    0.000    0.000    0.000    0.000 
#    0.000    0.000    0.000    0.000    0.000    0.000 
#
# Total GULP energy -178443.769866 kJ/mol
# GULP energy per Si atom -5576.367808 kJ/mol
# Density = 2.258474 g / cm^3
# Si number density = 22.636262 Si / 1000 Ang^3
#
#
#
# Elastic Constant Matrix: (Units=GPa)
#
#
# Indices 1 2 3 4 5 6 
#
# 1 99.9949 49.0534 36.3502 0.0000 0.0000 0.0000
# 2 49.0534 93.7433 29.6953 0.0000 0.0000 0.0000
# 3 36.3502 29.6953 129.4059 0.0000 0.0000 0.0000
# 4 0.0000 0.0000 0.0000 34.9158 0.0000 0.0000
# 5 0.0000 0.0000 0.0000 0.0000 26.4239 0.0000
# 6 0.0000 0.0000 0.0000 0.0000 0.0000 24.4204
#
#
#
# Elastic Compliance Matrix: (Units=1/GPa)
#
#
# Indices 1 2 3 4 5 6 
#
# 1 0.014141 -0.006623 -0.002452 0.000000 0.000000 0.000000
# 2 -0.006623 0.014605 -0.001491 0.000000 0.000000 0.000000
# 3 -0.002452 -0.001491 0.008759 0.000000 0.000000 0.000000
# 4 0.000000 0.000000 0.000000 0.028640 0.000000 0.000000
# 5 0.000000 0.000000 0.000000 0.000000 0.037845 0.000000
# 6 0.000000 0.000000 0.000000 0.000000 0.000000 0.040949
#
#
# Mechanical properties :
#
#
# Convention : Reuss Voigt Hill
#
# Bulk Modulus (GPa) = 61.07925 61.48243 61.28084
# Shear Modulus (GPa) = 29.14960 31.02172 30.08566
#
# Velocity S-wave (km/s) = 3.59240 3.70597 3.64963
# Velocity P-wave (km/s) = 6.65196 6.74776 6.70003
#
# Compressibility (1/GPa) = 0.01637217
#
# Stress axis : x y z
#
# Youngs Moduli (GPa) = 70.71731 68.46852 114.17208
#
# Poissons Ratio (x) = 0.45344 0.28000
# Poissons Ratio (y) = 0.46834 0.17026
# Poissons Ratio (z) = 0.17343 0.10210
#
# Static dielectric constant tensor:
#      x y z
#    x 1.937800 0.000000 0.000000 
#    y 0.000000 1.916740 0.000000 
#    z 0.000000 0.000000 1.860810 
# 
# From -- ./inp_files/5586.got.cif
#   From: 2010.05.17/outbox.cif.g08.bks.cpg/sg29_3_cif.got.tgz:5586.got - 2010.06.04 01:19:37.
