data_PCOD9340273
_publ_section_title
;
Structure prediction by ZEFSAII (Michael W. Deem and Ramdas Pophale) SiO2 
 PCOD9340273
Probable space group: P C A 21
;
_chemical_formula_sum "Si O2"
_cell_formula_units_Z 32
_cell_length_a 20.536626
_cell_length_b 10.245797
_cell_length_c 8.782945
_cell_angle_alpha 90.000000
_cell_angle_beta 90.000000
_cell_angle_gamma 90.000000
_cell_volume 1848.055477
_symmetry_space_group_name_H-M "P C A 21"
_symmetry_group_IT_number 29
_symmetry_cell_setting 'orthorhombic'
loop_
_space_group_symop_operation_xyz
x,y,z
-x,-y,1/2+z
1/2-x,y,1/2+z
1/2+x,-y,z
loop_
_atom_site_type_symbol
_atom_site_label
_atom_site_fract_x
_atom_site_fract_y
_atom_site_fract_z
Si Si1 0.820831 0.154639 0.482870
Si Si2 0.425681 0.360411 0.483953
Si Si3 0.679168 0.154638 0.617653
Si Si4 0.923516 0.355709 0.618138
Si Si5 0.179591 0.146537 0.616894
Si Si6 0.925682 0.639589 0.116571
Si Si7 0.179592 0.146537 0.983629
Si Si8 0.076483 0.644291 0.482386
O O1 0.750000 0.188434 0.550261
O O2 0.818405 0.162162 0.300262
O O3 0.875425 0.250897 0.545707
O O4 0.834547 0.003704 0.527256
O O5 0.408476 0.499077 0.557848
O O6 0.422359 0.373403 0.300262
O O7 0.376324 0.246861 0.532110
O O8 0.500775 0.329370 0.523345
O O9 0.624574 0.250896 0.554817
O O10 0.665452 0.003704 0.573268
O O11 0.917723 0.352484 0.800262
O O12 0.999225 0.329370 0.577179
O O13 0.123675 0.246861 0.568414
O O14 0.183379 0.150555 0.800261
O O15 0.249999 0.182066 0.550260
O O16 0.908476 0.500923 0.042676
#
# Coordination Sequence:
#
# PCOD9340273 Si02
#       8
#     4   4   4   4   4   4   4   4
#     4  10  20  35  54  76 103 134 169 210 256 305
#     4   9  19  36  54  74 104 138 172 212 256 303
#     4  10  20  35  54  76 103 134 169 210 256 305
#     4  10  20  34  53  77 104 136 173 211 254 304
#     4   9  19  35  54  76 102 133 169 210 255 303
#     4   9  19  36  54  74 104 138 172 212 256 303
#     4   9  19  35  54  76 102 133 169 210 255 303
#     4  10  20  34  53  77 104 136 173 211 254 304
#
# _framework density 17.315496
#
# number of rings (size 3 to 8) (size 9 to 14) (size 15 to 20)
#    0.000    2.500    0.000    1.500    0.000    5.000 
#    0.000    2.500    0.000    0.000    0.000    0.000 
#    0.000    0.000    0.000    0.000    0.000    0.000 
#
# Total GULP energy -178547.679538 kJ/mol
# GULP energy per Si atom -5579.614986 kJ/mol
# Density = 1.727609 g / cm^3
# Si number density = 17.315496 Si / 1000 Ang^3
#
#
#
# Elastic Constant Matrix: (Units=GPa)
#
#
# Indices 1 2 3 4 5 6 
#
# 1 143.1920 127.7682 46.4036 0.0000 0.0000 0.0000
# 2 127.7682 136.4156 45.6489 0.0000 0.0000 0.0000
# 3 46.4036 45.6489 33.3429 0.0000 0.0000 0.0000
# 4 0.0000 0.0000 0.0000 86.1604 0.0000 0.0000
# 5 0.0000 0.0000 0.0000 0.0000 30.9626 0.0000
# 6 0.0000 0.0000 0.0000 0.0000 0.0000 44.7595
#
#
#
# Elastic Compliance Matrix: (Units=1/GPa)
#
#
# Indices 1 2 3 4 5 6 
#
# 1 0.043886 -0.038139 -0.008862 0.000000 0.000000 0.000000
# 2 -0.038139 0.046672 -0.010820 0.000000 0.000000 0.000000
# 3 -0.008862 -0.010820 0.057138 0.000000 0.000000 0.000000
# 4 0.000000 0.000000 0.000000 0.011606 0.000000 0.000000
# 5 0.000000 0.000000 0.000000 0.000000 0.032297 0.000000
# 6 0.000000 0.000000 0.000000 0.000000 0.000000 0.022342
#
#
# Mechanical properties :
#
#
# Convention : Reuss Voigt Hill
#
# Bulk Modulus (GPa) = 31.19618 83.62132 57.40875
# Shear Modulus (GPa) = 14.69433 38.58512 26.63973
#
# Velocity S-wave (km/s) = 2.91627 4.72567 3.92661
# Velocity P-wave (km/s) = 5.42171 8.84158 7.33378
#
# Compressibility (1/GPa) = 0.03205520
#
# Stress axis : x y z
#
# Youngs Moduli (GPa) = 22.78629 21.42602 17.50149
#
# Poissons Ratio (x) = 0.81716 0.15510
# Poissons Ratio (y) = 0.86904 0.18937
# Poissons Ratio (z) = 0.20193 0.23183
#
# Static dielectric constant tensor:
#      x y z
#    x 1.564660 0.000000 0.000000 
#    y 0.000000 1.567400 0.000000 
#    z 0.000000 0.000000 1.580550 
# 
# From -- ./inp_files/2267.got.cif
#   From: 2010.05.17/outbox.cif.g08.bks.cpg/sg29_2_cif.got.tgz:2267.got - 2010.06.04 01:19:37.
