data_PCOD9340780
_publ_section_title
;
Structure prediction by ZEFSAII (Michael W. Deem and Ramdas Pophale) SiO2 
 PCOD9340780
Probable space group: P C A 21
;
_chemical_formula_sum "Si O2"
_cell_formula_units_Z 28
_cell_length_a 9.798041
_cell_length_b 12.370490
_cell_length_c 10.764941
_cell_angle_alpha 90.000000
_cell_angle_beta 90.000000
_cell_angle_gamma 90.000000
_cell_volume 1304.781556
_symmetry_space_group_name_H-M "P C A 21"
_symmetry_group_IT_number 29
_symmetry_cell_setting 'orthorhombic'
loop_
_space_group_symop_operation_xyz
x,y,z
-x,-y,1/2+z
1/2-x,y,1/2+z
1/2+x,-y,z
loop_
_atom_site_type_symbol
_atom_site_label
_atom_site_fract_x
_atom_site_fract_y
_atom_site_fract_z
Si Si1 0.094315 0.100997 0.549250
Si Si2 0.294999 0.647479 0.445117
Si Si3 0.504747 0.708781 0.927757
Si Si4 0.481109 0.336670 0.145757
Si Si5 0.232967 0.408005 0.456294
Si Si6 0.410981 0.104875 0.570257
Si Si7 0.044258 0.238380 0.315509
O O1 0.057939 0.211632 0.620267
O O2 0.252261 0.076617 0.571004
O O3 0.067778 0.136506 0.407024
O O4 0.001417 0.000833 0.584819
O O5 0.151767 0.705633 0.467792
O O6 0.379275 0.640567 0.573230
O O7 0.257121 0.526611 0.404058
O O8 0.398315 0.708033 0.351006
O O9 0.508837 0.655704 0.791654
O O10 0.621180 0.639586 0.996380
O O11 0.554731 0.831773 0.942579
O O12 0.367312 0.407391 0.075093
O O13 0.158591 0.326637 0.358597
O O14 0.443100 0.191685 0.678462
#
# Coordination Sequence:
#
# PCOD9340780 Si02
#       7
#     4   4   4   4   4   4   4
#     4  10  25  43  67  98 132 188 235 286 359 419
#     4  10  24  44  68 102 134 184 232 287 352 425
#     4  12  24  40  69 100 132 183 233 285 353 429
#     4  10  24  46  63  99 148 167 236 300 339 430
#     4  10  21  47  69  96 139 183 228 283 366 416
#     4  12  26  43  71  98 138 189 236 294 368 411
#     4  10  24  47  67 103 149 174 236 309 343 432
#
# _framework density 21.459530000000001
#
# number of rings (size 3 to 8) (size 9 to 14) (size 15 to 20)
#    0.000    1.714    2.857    2.571    8.000    1.143 
#    5.143    0.000    0.000    0.000    0.000    0.000 
#    0.000    0.000    0.000    0.000    0.000    0.000 
#
# Total GULP energy -156425.753819 kJ/mol
# GULP energy per Si atom -5586.634065 kJ/mol
# Density = 2.141069 g / cm^3
# Si number density = 21.459530 Si / 1000 Ang^3
#
#
#
# Elastic Constant Matrix: (Units=GPa)
#
#
# Indices 1 2 3 4 5 6 
#
# 1 178.9499 57.5733 27.3977 0.0000 0.0000 0.0000
# 2 57.5733 96.0034 -0.3638 0.0000 0.0000 0.0000
# 3 27.3977 -0.3638 66.5395 0.0000 0.0000 0.0000
# 4 0.0000 0.0000 0.0000 11.0904 0.0000 0.0000
# 5 0.0000 0.0000 0.0000 0.0000 5.7410 0.0000
# 6 0.0000 0.0000 0.0000 0.0000 0.0000 36.1933
#
#
#
# Elastic Compliance Matrix: (Units=1/GPa)
#
#
# Indices 1 2 3 4 5 6 
#
# 1 0.007521 -0.004522 -0.003121 0.000000 0.000000 0.000000
# 2 -0.004522 0.013136 0.001934 0.000000 0.000000 0.000000
# 3 -0.003121 0.001934 0.016325 0.000000 0.000000 0.000000
# 4 0.000000 0.000000 0.000000 0.090168 0.000000 0.000000
# 5 0.000000 0.000000 0.000000 0.000000 0.174184 0.000000
# 6 0.000000 0.000000 0.000000 0.000000 0.000000 0.027629
#
#
# Mechanical properties :
#
#
# Convention : Reuss Voigt Hill
#
# Bulk Modulus (GPa) = 39.12151 56.74524 47.93338
# Shear Modulus (GPa) = 14.33062 27.73065 21.03063
#
# Velocity S-wave (km/s) = 2.58698 3.59866 3.13391
# Velocity P-wave (km/s) = 5.21471 6.61570 5.95654
#
# Compressibility (1/GPa) = 0.02556139
#
# Stress axis : x y z
#
# Youngs Moduli (GPa) = 132.96153 76.12920 61.25755
#
# Poissons Ratio (x) = 0.34427 0.19121
# Poissons Ratio (y) = 0.60127 -0.11846
# Poissons Ratio (z) = 0.41504 -0.14722
#
# Static dielectric constant tensor:
#      x y z
#    x 1.779470 0.000000 0.000000 
#    y 0.000000 1.769420 0.000000 
#    z 0.000000 0.000000 1.836610 
# 
# From -- ./inp_files/2891.got.cif
#   From: 2010.05.17/outbox.cif.g08.bks.cpg/sg29_2_cif.got.tgz:2891.got - 2010.06.04 01:19:37.
