data_PCOD9340398
_publ_section_title
;
Structure prediction by ZEFSAII (Michael W. Deem and Ramdas Pophale) SiO2 
 PCOD9340398
Probable space group: P C A 21
;
_chemical_formula_sum "Si O2"
_cell_formula_units_Z 32
_cell_length_a 8.505654
_cell_length_b 13.879454
_cell_length_c 11.039737
_cell_angle_alpha 90.000000
_cell_angle_beta 90.000000
_cell_angle_gamma 90.000000
_cell_volume 1303.283273
_symmetry_space_group_name_H-M "P C A 21"
_symmetry_group_IT_number 29
_symmetry_cell_setting 'orthorhombic'
loop_
_space_group_symop_operation_xyz
x,y,z
-x,-y,1/2+z
1/2-x,y,1/2+z
1/2+x,-y,z
loop_
_atom_site_type_symbol
_atom_site_label
_atom_site_fract_x
_atom_site_fract_y
_atom_site_fract_z
Si Si1 0.619993 0.115220 0.244540
Si Si2 0.682967 0.585092 0.838333
Si Si3 0.582358 0.254104 0.777945
Si Si4 0.289139 0.608300 0.454546
Si Si5 0.573303 0.494572 0.168790
Si Si6 0.010463 0.319380 0.031601
Si Si7 0.177948 0.041653 0.871672
Si Si8 0.469715 0.125862 0.984718
O O1 0.759830 0.191982 0.259766
O O2 0.465007 0.110236 0.329825
O O3 0.537133 0.138845 0.117398
O O4 0.710320 0.011125 0.269020
O O5 0.517318 0.555535 0.778736
O O6 0.796419 0.568658 0.723853
O O7 0.748023 0.502682 0.926615
O O8 0.644364 0.673373 0.929129
O O9 0.486988 0.254860 0.651622
O O10 0.623685 0.359359 0.830596
O O11 0.485933 0.212366 0.890390
O O12 0.377192 0.594088 0.581944
O O13 0.159212 0.691075 0.469906
O O14 0.485167 0.570885 0.082939
O O15 0.293228 0.088536 0.969476
O O16 0.086243 0.954278 0.931735
#
# Coordination Sequence:
#
# PCOD9340398 Si02
#       8
#     4   4   4   4   4   4   4   4
#     4  10  20  39  67  99 133 181 213 272 327 391
#     4  11  22  39  66  90 117 161 225 280 329 394
#     4  11  23  40  61  93 135 177 220 262 347 404
#     4  11  21  37  63  88 124 163 213 276 329 400
#     4  11  21  40  64  92 116 160 225 279 332 387
#     4  11  23  39  62  90 125 164 217 276 330 401
#     4   9  20  38  67 103 129 164 234 264 314 393
#     4  10  20  38  66  95 135 172 215 273 322 392
#
# _framework density 24.553374999999999
#
# number of rings (size 3 to 8) (size 9 to 14) (size 15 to 20)
#    0.000    1.500    3.750    1.500    0.000    0.000 
#    0.000    6.250    0.000    0.000    0.000    0.000 
#    0.000    0.000    0.000    0.000    0.000    0.000 
#
# Total GULP energy -178301.292730 kJ/mol
# GULP energy per Si atom -5571.915398 kJ/mol
# Density = 2.449749 g / cm^3
# Si number density = 24.553375 Si / 1000 Ang^3
#
#
#
# Elastic Constant Matrix: (Units=GPa)
#
#
# Indices 1 2 3 4 5 6 
#
# 1 103.3181 14.3586 31.0965 0.0000 0.0000 0.0000
# 2 14.3586 45.6375 9.9298 0.0000 0.0000 0.0000
# 3 31.0965 9.9298 98.4953 0.0000 0.0000 0.0000
# 4 0.0000 0.0000 0.0000 22.0636 0.0000 0.0000
# 5 0.0000 0.0000 0.0000 0.0000 40.1531 0.0000
# 6 0.0000 0.0000 0.0000 0.0000 0.0000 14.0902
#
#
#
# Elastic Compliance Matrix: (Units=1/GPa)
#
#
# Indices 1 2 3 4 5 6 
#
# 1 0.011028 -0.002773 -0.003202 0.000000 0.000000 0.000000
# 2 -0.002773 0.023100 -0.001453 0.000000 0.000000 0.000000
# 3 -0.003202 -0.001453 0.011310 0.000000 0.000000 0.000000
# 4 0.000000 0.000000 0.000000 0.045324 0.000000 0.000000
# 5 0.000000 0.000000 0.000000 0.000000 0.024905 0.000000
# 6 0.000000 0.000000 0.000000 0.000000 0.000000 0.070971
#
#
# Mechanical properties :
#
#
# Convention : Reuss Voigt Hill
#
# Bulk Modulus (GPa) = 32.69928 39.80230 36.25079
# Shear Modulus (GPa) = 23.61955 28.06579 25.84267
#
# Velocity S-wave (km/s) = 3.10493 3.38457 3.24776
# Velocity P-wave (km/s) = 5.11865 5.61422 5.37216
#
# Compressibility (1/GPa) = 0.03058172
#
# Stress axis : x y z
#
# Youngs Moduli (GPa) = 90.67836 43.28918 88.41521
#
# Poissons Ratio (x) = 0.12004 0.28312
# Poissons Ratio (y) = 0.25144 0.12850
# Poissons Ratio (z) = 0.29037 0.06292
#
# Static dielectric constant tensor:
#      x y z
#    x 2.087390 0.000000 0.000000 
#    y 0.000000 2.083110 0.000000 
#    z 0.000000 0.000000 2.016300 
# 
# From -- ./inp_files/2979.got.cif
#   From: 2010.05.17/outbox.cif.g08.bks.cpg/sg29_2_cif.got.tgz:2979.got - 2010.06.04 01:19:37.
