data_PCOD9340490
_publ_section_title
;
Structure prediction by ZEFSAII (Michael W. Deem and Ramdas Pophale) SiO2 
 PCOD9340490
Probable space group: P C A 21
;
_chemical_formula_sum "Si O2"
_cell_formula_units_Z 32
_cell_length_a 12.813778
_cell_length_b 4.946000
_cell_length_c 22.384634
_cell_angle_alpha 90.000000
_cell_angle_beta 90.000000
_cell_angle_gamma 90.000000
_cell_volume 1418.669740
_symmetry_space_group_name_H-M "P C A 21"
_symmetry_group_IT_number 29
_symmetry_cell_setting 'orthorhombic'
loop_
_space_group_symop_operation_xyz
x,y,z
-x,-y,1/2+z
1/2-x,y,1/2+z
1/2+x,-y,z
loop_
_atom_site_type_symbol
_atom_site_label
_atom_site_fract_x
_atom_site_fract_y
_atom_site_fract_z
Si Si1 0.202933 0.949558 0.759690
Si Si2 0.927685 0.578042 0.282419
Si Si3 0.108576 0.731104 0.201945
Si Si4 0.210534 0.193323 0.147853
Si Si5 0.981808 0.718991 0.947466
Si Si6 0.412252 0.769896 0.881653
Si Si7 0.298358 0.151162 0.018051
Si Si8 0.275180 0.654201 0.448450
O O1 0.121484 0.715589 0.774430
O O2 0.322924 0.847284 0.758752
O O3 0.167100 0.214529 0.794649
O O4 0.202755 0.054027 0.690607
O O5 0.014480 0.633189 0.332440
O O6 0.994436 0.653167 0.223421
O O7 0.170536 0.471015 0.177256
O O8 0.117325 0.973216 0.154305
O O9 0.254621 0.225637 0.082321
O O10 0.949995 0.408780 0.938362
O O11 0.104787 0.728451 0.944040
O O12 0.937053 0.918675 0.895717
O O13 0.921766 0.810225 0.007207
O O14 0.288137 0.720739 0.887587
O O15 0.243713 0.347607 0.969068
O O16 0.269595 0.848012 0.000166
#
# Coordination Sequence:
#
# PCOD9340490 Si02
#       8
#     4   4   4   4   4   4   4   4
#     4  10  22  40  58  86 127 154 208 249 291 359
#     4  12  22  39  62  88 117 169 199 247 305 361
#     4  10  22  40  58  85 128 155 205 249 293 356
#     4  10  20  43  58  86 127 159 188 267 293 346
#     4  10  21  42  59  89 118 152 198 252 294 367
#     4  10  23  37  61  86 121 150 198 250 299 349
#     4  10  21  39  63  86 122 151 199 244 302 356
#     4  10  21  40  61  90 116 154 197 248 299 366
#
# _framework density 22.556342999999998
#
# number of rings (size 3 to 8) (size 9 to 14) (size 15 to 20)
#    0.750    1.000    1.250    3.000    0.000    2.000 
#    6.750    0.000    0.000    0.000    0.000    0.000 
#    0.000    0.000    0.000    0.000    0.000    0.000 
#
# Total GULP energy -178439.994186 kJ/mol
# GULP energy per Si atom -5576.249818 kJ/mol
# Density = 2.250500 g / cm^3
# Si number density = 22.556343 Si / 1000 Ang^3
#
#
#
# Elastic Constant Matrix: (Units=GPa)
#
#
# Indices 1 2 3 4 5 6 
#
# 1 85.0744 6.6647 -4.1950 0.0000 0.0000 0.0000
# 2 6.6647 111.9981 0.8360 0.0000 0.0000 0.0000
# 3 -4.1950 0.8360 17.5528 0.0000 0.0000 0.0000
# 4 0.0000 0.0000 0.0000 18.1757 0.0000 0.0000
# 5 0.0000 0.0000 0.0000 0.0000 17.3487 0.0000
# 6 0.0000 0.0000 0.0000 0.0000 0.0000 18.7322
#
#
#
# Elastic Compliance Matrix: (Units=1/GPa)
#
#
# Indices 1 2 3 4 5 6 
#
# 1 0.011954 -0.000733 0.002892 0.000000 0.000000 0.000000
# 2 -0.000733 0.008977 -0.000603 0.000000 0.000000 0.000000
# 3 0.002892 -0.000603 0.057691 0.000000 0.000000 0.000000
# 4 0.000000 0.000000 0.000000 0.055019 0.000000 0.000000
# 5 0.000000 0.000000 0.000000 0.000000 0.057641 0.000000
# 6 0.000000 0.000000 0.000000 0.000000 0.000000 0.053384
#
#
# Mechanical properties :
#
#
# Convention : Reuss Voigt Hill
#
# Bulk Modulus (GPa) = 12.23470 24.58186 18.40828
# Shear Modulus (GPa) = 18.60132 24.93930 21.77031
#
# Velocity S-wave (km/s) = 2.87481 3.32873 3.11006
# Velocity P-wave (km/s) = 4.05650 5.06908 4.59079
#
# Compressibility (1/GPa) = 0.08173471
#
# Stress axis : x y z
#
# Youngs Moduli (GPa) = 83.65088 111.39782 17.33376
#
# Poissons Ratio (x) = 0.08165 -0.05013
# Poissons Ratio (y) = 0.06131 0.01045
# Poissons Ratio (z) = -0.24192 0.06714
#
# Static dielectric constant tensor:
#      x y z
#    x 1.919030 0.000000 0.000000 
#    y 0.000000 1.800270 0.000000 
#    z 0.000000 0.000000 1.934230 
# 
# From -- ./inp_files/5713.got.cif
#   From: 2010.05.17/outbox.cif.g08.bks.cpg/sg29_3_cif.got.tgz:5713.got - 2010.06.04 01:19:37.
