data_PCOD9340604
_publ_section_title
;
Structure prediction by ZEFSAII (Michael W. Deem and Ramdas Pophale) SiO2 
 PCOD9340604
Probable space group: P C A 21
;
_chemical_formula_sum "Si O2"
_cell_formula_units_Z 32
_cell_length_a 9.634508
_cell_length_b 8.611226
_cell_length_c 19.847108
_cell_angle_alpha 90.000000
_cell_angle_beta 90.000000
_cell_angle_gamma 90.000000
_cell_volume 1646.613842
_symmetry_space_group_name_H-M "P C A 21"
_symmetry_group_IT_number 29
_symmetry_cell_setting 'orthorhombic'
loop_
_space_group_symop_operation_xyz
x,y,z
-x,-y,1/2+z
1/2-x,y,1/2+z
1/2+x,-y,z
loop_
_atom_site_type_symbol
_atom_site_label
_atom_site_fract_x
_atom_site_fract_y
_atom_site_fract_z
Si Si1 0.444572 0.329988 0.774630
Si Si2 0.147560 0.185051 0.561874
Si Si3 0.787092 0.337813 0.920908
Si Si4 0.097130 0.685409 0.135586
Si Si5 0.225556 0.650066 0.272513
Si Si6 0.336051 0.823621 0.055070
Si Si7 0.910158 0.684719 0.627010
Si Si8 0.456452 0.339702 0.925340
O O1 0.608549 0.368247 0.764699
O O2 0.350086 0.483798 0.776491
O O3 0.401340 0.251479 0.703930
O O4 0.432565 0.264520 0.850751
O O5 0.305237 0.231163 0.576852
O O6 0.097416 0.242276 0.488725
O O7 0.060661 0.273244 0.619863
O O8 0.129204 0.001616 0.567310
O O9 0.801447 0.274405 0.845054
O O10 0.622213 0.368256 0.931306
O O11 0.873610 0.497275 0.927240
O O12 0.841487 0.221148 0.977087
O O13 0.155800 0.730972 0.208578
O O14 0.183513 0.780820 0.080892
O O15 0.117569 0.500247 0.127627
O O16 0.437679 0.715325 0.098157
#
# Coordination Sequence:
#
# PCOD9340604 Si02
#       8
#     4   4   4   4   4   4   4   4
#     4   9  19  36  61  91 119 151 199 259 298 349
#     4  12  26  39  58  92 126 163 196 250 303 357
#     4  10  21  39  64  91 119 157 202 252 298 360
#     4  11  21  41  64  90 116 155 206 249 298 357
#     4   9  19  35  62  92 119 149 200 258 302 346
#     4  12  24  41  58  89 128 157 197 247 306 355
#     4  11  23  39  66  91 117 156 207 247 297 358
#     4  10  21  40  63  90 120 156 205 248 300 358
#
# _framework density 19.433821999999999
#
# number of rings (size 3 to 8) (size 9 to 14) (size 15 to 20)
#    0.000    1.500    2.500    3.000    7.000    0.000 
#    0.000    2.500    0.000    0.000    0.000    0.000 
#    0.000    0.000    0.000    0.000    0.000    0.000 
#
# Total GULP energy -178492.728069 kJ/mol
# GULP energy per Si atom -5577.897752 kJ/mol
# Density = 1.938959 g / cm^3
# Si number density = 19.433822 Si / 1000 Ang^3
#
#
#
# Elastic Constant Matrix: (Units=GPa)
#
#
# Indices 1 2 3 4 5 6 
#
# 1 36.9150 -1.0934 12.0229 0.0000 0.0000 0.0000
# 2 -1.0934 50.6648 30.8323 0.0000 0.0000 0.0000
# 3 12.0229 30.8323 123.4248 0.0000 0.0000 0.0000
# 4 0.0000 0.0000 0.0000 -5.7723 0.0000 0.0000
# 5 0.0000 0.0000 0.0000 0.0000 33.7723 0.0000
# 6 0.0000 0.0000 0.0000 0.0000 0.0000 16.8958
#
#
#
# Elastic Compliance Matrix: (Units=1/GPa)
#
#
# Indices 1 2 3 4 5 6 
#
# 1 0.028286 0.002697 -0.003429 0.000000 0.000000 0.000000
# 2 0.002697 0.023533 -0.006141 0.000000 0.000000 0.000000
# 3 -0.003429 -0.006141 0.009970 0.000000 0.000000 0.000000
# 4 0.000000 0.000000 0.000000 -0.173242 0.000000 0.000000
# 5 0.000000 0.000000 0.000000 0.000000 0.029610 0.000000
# 6 0.000000 0.000000 0.000000 0.000000 0.000000 0.059186
#
#
# Mechanical properties :
#
#
# Convention : Reuss Voigt Hill
#
# Bulk Modulus (GPa) = 20.81479 32.72537 26.77008
# Shear Modulus (GPa) = 703.75838 20.26203 362.01021
#
# Velocity S-wave (km/s) = 19.05038 3.23246 13.66319
# Velocity P-wave (km/s) = 22.24012 5.55047 16.20850
#
# Compressibility (1/GPa) = 0.04804275
#
# Stress axis : x y z
#
# Youngs Moduli (GPa) = 35.35314 42.49317 100.29771
#
# Poissons Ratio (x) = -0.11461 0.34394
# Poissons Ratio (y) = -0.09536 0.61598
# Poissons Ratio (z) = 0.12123 0.26097
#
# Static dielectric constant tensor:
#      x y z
#    x 1.648990 0.000000 0.000000 
#    y 0.000000 1.620190 0.000000 
#    z 0.000000 0.000000 1.734120 
# 
# From -- ./inp_files/5414.got.cif
#   From: 2010.05.17/outbox.cif.g08.bks.cpg/sg29_3_cif.got.tgz:5414.got - 2010.06.04 01:19:37.
