data_PCOD9340454
_publ_section_title
;
Structure prediction by ZEFSAII (Michael W. Deem and Ramdas Pophale) SiO2 
 PCOD9340454
Probable space group: P C A 21
;
_chemical_formula_sum "Si O2"
_cell_formula_units_Z 32
_cell_length_a 18.616867
_cell_length_b 7.535214
_cell_length_c 11.511785
_cell_angle_alpha 90.000000
_cell_angle_beta 90.000000
_cell_angle_gamma 90.000000
_cell_volume 1614.897108
_symmetry_space_group_name_H-M "P C A 21"
_symmetry_group_IT_number 29
_symmetry_cell_setting 'orthorhombic'
loop_
_space_group_symop_operation_xyz
x,y,z
-x,-y,1/2+z
1/2-x,y,1/2+z
1/2+x,-y,z
loop_
_atom_site_type_symbol
_atom_site_label
_atom_site_fract_x
_atom_site_fract_y
_atom_site_fract_z
Si Si1 0.861031 0.991611 0.840420
Si Si2 0.525597 0.999997 0.149954
Si Si3 0.057683 0.716955 0.491780
Si Si4 0.212855 0.141592 0.556386
Si Si5 0.661337 0.500000 0.649954
Si Si6 0.861031 0.008386 0.459487
Si Si7 0.942319 0.716954 0.308127
Si Si8 0.287146 0.858408 0.243522
O O1 0.895377 0.150293 0.914082
O O2 0.791446 0.069122 0.775415
O O3 0.921222 0.927147 0.750650
O O4 0.832776 0.856776 0.937717
O O5 0.480259 0.158312 0.209747
O O6 0.480258 0.841683 0.090162
O O7 0.578777 0.072848 0.049257
O O8 0.108430 0.572895 0.550369
O O9 0.000001 0.641542 0.399953
O O10 0.209445 0.334953 0.610737
O O11 0.291446 0.069124 0.524493
O O12 0.182544 0.999999 0.649953
O O13 0.608427 0.572893 0.749534
O O14 0.709445 0.334954 0.689173
O O15 0.895376 0.849701 0.385824
O O16 0.832777 0.143221 0.362191
#
# Coordination Sequence:
#
# PCOD9340454 Si02
#       8
#     4   4   4   4   4   4   4   4
#     4  10  21  41  66  92 125 167 214 256 319 376
#     4  10  20  40  70  90 122 172 214 256 314 384
#     4  10  22  38  59  92 127 164 211 257 312 383
#     4  11  22  41  67  93 126 166 210 264 320 376
#     4  12  24  40  64  94 132 162 212 268 320 374
#     4  10  21  41  66  92 125 167 214 256 319 376
#     4  10  22  38  59  92 127 164 211 257 312 383
#     4  11  22  41  67  93 126 166 210 264 320 376
#
# _framework density 19.815505000000002
#
# number of rings (size 3 to 8) (size 9 to 14) (size 15 to 20)
#    0.000    1.500    3.750    1.500    0.000    3.000 
#    0.000    5.000    0.000    0.000    0.000    0.000 
#    0.000    0.000    0.000    0.000    0.000    0.000 
#
# Total GULP energy -178646.834665 kJ/mol
# GULP energy per Si atom -5582.713583 kJ/mol
# Density = 1.977040 g / cm^3
# Si number density = 19.815505 Si / 1000 Ang^3
#
#
#
# Elastic Constant Matrix: (Units=GPa)
#
#
# Indices 1 2 3 4 5 6 
#
# 1 31.4252 -6.5332 25.1506 0.0000 0.0000 0.0000
# 2 -6.5332 75.1326 32.9959 0.0000 0.0000 0.0000
# 3 25.1506 32.9959 110.7419 0.0000 0.0000 0.0000
# 4 0.0000 0.0000 0.0000 8.9403 0.0000 0.0000
# 5 0.0000 0.0000 0.0000 0.0000 64.7834 0.0000
# 6 0.0000 0.0000 0.0000 0.0000 0.0000 -3.8423
#
#
#
# Elastic Compliance Matrix: (Units=1/GPa)
#
#
# Indices 1 2 3 4 5 6 
#
# 1 0.044053 0.009463 -0.012824 0.000000 0.000000 0.000000
# 2 0.009463 0.017346 -0.007317 0.000000 0.000000 0.000000
# 3 -0.012824 -0.007317 0.014123 0.000000 0.000000 0.000000
# 4 0.000000 0.000000 0.000000 0.111853 0.000000 0.000000
# 5 0.000000 0.000000 0.000000 0.000000 0.015436 0.000000
# 6 0.000000 0.000000 0.000000 0.000000 0.000000 -0.260261
#
#
# Mechanical properties :
#
#
# Convention : Reuss Voigt Hill
#
# Bulk Modulus (GPa) = 18.46261 35.61405 27.03833
# Shear Modulus (GPa) = -277.19423 25.02204 -126.08609
#
# Velocity S-wave (km/s) = -11.84024 3.55738 -7.98550
# Velocity P-wave (km/s) = 13.32607 5.90636 8.44687
#
# Compressibility (1/GPa) = 0.05416351
#
# Stress axis : x y z
#
# Youngs Moduli (GPa) = 22.70015 57.64944 70.80764
#
# Poissons Ratio (x) = -0.54551 0.90805
# Poissons Ratio (y) = -0.21480 0.51813
# Poissons Ratio (z) = 0.29111 0.42185
#
# Static dielectric constant tensor:
#      x y z
#    x 1.729400 0.000000 0.000000 
#    y 0.000000 1.631930 0.000000 
#    z 0.000000 0.000000 1.738770 
# 
# From -- ./inp_files/3831.got.cif
#   From: 2010.05.17/outbox.cif.g08.bks.cpg/sg29_2_cif.got.tgz:3831.got - 2010.06.04 01:19:37.
