data_PCOD9340437
_publ_section_title
;
Structure prediction by ZEFSAII (Michael W. Deem and Ramdas Pophale) SiO2 
 PCOD9340437
Probable space group: P C A 21
;
_chemical_formula_sum "Si O2"
_cell_formula_units_Z 32
_cell_length_a 14.144589
_cell_length_b 8.767438
_cell_length_c 13.159575
_cell_angle_alpha 90.000000
_cell_angle_beta 90.000000
_cell_angle_gamma 90.000000
_cell_volume 1631.942676
_symmetry_space_group_name_H-M "P C A 21"
_symmetry_group_IT_number 29
_symmetry_cell_setting 'orthorhombic'
loop_
_space_group_symop_operation_xyz
x,y,z
-x,-y,1/2+z
1/2-x,y,1/2+z
1/2+x,-y,z
loop_
_atom_site_type_symbol
_atom_site_label
_atom_site_fract_x
_atom_site_fract_y
_atom_site_fract_z
Si Si1 0.137411 0.890945 0.316300
Si Si2 0.175536 0.073650 0.826412
Si Si3 0.908557 0.485229 0.480799
Si Si4 0.519366 0.580507 0.299595
Si Si5 0.321726 0.590894 0.693116
Si Si6 0.837243 0.579295 0.278234
Si Si7 0.982518 0.826031 0.480594
Si Si8 0.519525 0.092914 0.704431
O O1 0.173046 0.754527 0.244950
O O2 0.073385 0.824069 0.407140
O O3 0.227078 0.989966 0.351608
O O4 0.065910 0.997678 0.253621
O O5 0.190601 0.245013 0.784257
O O6 0.103623 0.092809 0.920974
O O7 0.117248 0.978034 0.743368
O O8 0.993475 0.403194 0.418819
O O9 0.868517 0.411986 0.582179
O O10 0.829333 0.504756 0.391653
O O11 0.946377 0.655083 0.503585
O O12 0.621630 0.526847 0.266470
O O13 0.449876 0.442561 0.263125
O O14 0.490030 0.734964 0.244935
O O15 0.217422 0.520033 0.696138
O O16 0.009106 0.907724 0.584135
#
# Coordination Sequence:
#
# PCOD9340437 Si02
#       8
#     4   4   4   4   4   4   4   4
#     4  11  24  40  62  98 130 170 208 271 321 386
#     4  10  22  42  62  91 136 160 212 271 317 392
#     4   9  21  41  64  91 121 167 215 262 307 377
#     4  10  20  40  63  90 123 157 215 263 307 380
#     4  12  20  41  67  87 129 170 210 261 319 378
#     4   9  22  43  60  93 125 164 215 266 303 382
#     4  10  21  43  64  90 131 169 214 263 328 381
#     4  11  22  40  66  94 123 171 207 269 328 378
#
# _framework density 19.608532
#
# number of rings (size 3 to 8) (size 9 to 14) (size 15 to 20)
#    0.750    1.000    2.500    2.250    0.000    3.000 
#    9.000    0.000    0.000    0.000    0.000    0.000 
#    0.000    0.000    0.000    0.000    0.000    0.000 
#
# Total GULP energy -178468.243228 kJ/mol
# GULP energy per Si atom -5577.132601 kJ/mol
# Density = 1.956390 g / cm^3
# Si number density = 19.608532 Si / 1000 Ang^3
#
#
#
# Elastic Constant Matrix: (Units=GPa)
#
#
# Indices 1 2 3 4 5 6 
#
# 1 56.4825 1.3481 -2.0916 0.0000 0.0000 0.0000
# 2 1.3481 63.3319 5.3787 0.0000 0.0000 0.0000
# 3 -2.0916 5.3787 72.4583 0.0000 0.0000 0.0000
# 4 0.0000 0.0000 0.0000 16.4113 0.0000 0.0000
# 5 0.0000 0.0000 0.0000 0.0000 19.7462 0.0000
# 6 0.0000 0.0000 0.0000 0.0000 0.0000 23.2606
#
#
#
# Elastic Compliance Matrix: (Units=1/GPa)
#
#
# Indices 1 2 3 4 5 6 
#
# 1 0.017735 -0.000424 0.000543 0.000000 0.000000 0.000000
# 2 -0.000424 0.015900 -0.001193 0.000000 0.000000 0.000000
# 3 0.000543 -0.001193 0.013905 0.000000 0.000000 0.000000
# 4 0.000000 0.000000 0.000000 0.060934 0.000000 0.000000
# 5 0.000000 0.000000 0.000000 0.000000 0.050643 0.000000
# 6 0.000000 0.000000 0.000000 0.000000 0.000000 0.042991
#
#
# Mechanical properties :
#
#
# Convention : Reuss Voigt Hill
#
# Bulk Modulus (GPa) = 22.02904 22.39368 22.21136
# Shear Modulus (GPa) = 22.79101 24.39279 23.59190
#
# Velocity S-wave (km/s) = 3.41295 3.53085 3.47240
# Velocity P-wave (km/s) = 5.17589 5.29789 5.23725
#
# Compressibility (1/GPa) = 0.04539462
#
# Stress axis : x y z
#
# Youngs Moduli (GPa) = 56.38622 62.89255 71.91525
#
# Poissons Ratio (x) = 0.02664 -0.03908
# Poissons Ratio (y) = 0.02389 0.08576
# Poissons Ratio (z) = -0.03064 0.07500
#
# Static dielectric constant tensor:
#      x y z
#    x 1.675020 0.000000 0.000000 
#    y 0.000000 1.675290 0.000000 
#    z 0.000000 0.000000 1.695460 
# 
# From -- ./inp_files/3516.got.cif
#   From: 2010.05.17/outbox.cif.g08.bks.cpg/sg29_2_cif.got.tgz:3516.got - 2010.06.04 01:19:37.
