data_PCOD9340103
_publ_section_title
;
Structure prediction by ZEFSAII (Michael W. Deem and Ramdas Pophale) SiO2 
 PCOD9340103
Probable space group: P C A 21
;
_chemical_formula_sum "Si O2"
_cell_formula_units_Z 32
_cell_length_a 13.633893
_cell_length_b 20.894487
_cell_length_c 5.026701
_cell_angle_alpha 90.000000
_cell_angle_beta 90.000000
_cell_angle_gamma 90.000000
_cell_volume 1431.972400
_symmetry_space_group_name_H-M "P C A 21"
_symmetry_group_IT_number 29
_symmetry_cell_setting 'orthorhombic'
loop_
_space_group_symop_operation_xyz
x,y,z
-x,-y,1/2+z
1/2-x,y,1/2+z
1/2+x,-y,z
loop_
_atom_site_type_symbol
_atom_site_label
_atom_site_fract_x
_atom_site_fract_y
_atom_site_fract_z
Si Si1 0.910138 0.165194 0.198440
Si Si2 0.412372 0.234972 0.911234
Si Si3 0.682838 0.640343 0.180117
Si Si4 0.177481 0.494475 0.283436
Si Si5 0.499624 0.957636 0.401977
Si Si6 0.690164 0.883236 0.605391
Si Si7 0.608004 0.237513 0.195145
Si Si8 0.812650 0.372033 0.887993
O O1 0.855161 0.211708 0.408948
O O2 0.023333 0.190519 0.213112
O O3 0.917917 0.093269 0.303191
O O4 0.877341 0.180105 0.903014
O O5 0.376407 0.297217 0.761138
O O6 0.329901 0.191907 0.048401
O O7 0.493365 0.249725 0.134250
O O8 0.777371 0.640896 0.379353
O O9 0.625740 0.573907 0.246319
O O10 0.244028 0.493553 0.545630
O O11 0.127259 0.564185 0.301096
O O12 0.590980 0.919136 0.526690
O O13 0.467070 0.003362 0.641960
O O14 0.723460 0.899310 0.900122
O O15 0.645347 0.303465 0.313258
O O16 0.715863 0.375319 0.697798
#
# Coordination Sequence:
#
# PCOD9340103 Si02
#       8
#     4   4   4   4   4   4   4   4
#     4   9  21  35  56  81 111 140 185 222 268 338
#     4   9  22  32  57  80 119 150 182 223 290 337
#     4  10  19  30  50  76 110 149 187 226 278 334
#     4   8  16  30  48  72 101 140 187 232 277 334
#     4  11  22  39  65  87 112 162 196 217 280 351
#     4  11  23  37  60  92 121 145 194 238 271 328
#     4  10  20  35  56  79 116 141 189 231 288 338
#     4  10  19  34  58  79 102 143 198 247 288 330
#
# _framework density 22.346798
#
# number of rings (size 3 to 8) (size 9 to 14) (size 15 to 20)
#    0.750    1.500    0.000    3.000    5.250    0.000 
#    0.000    0.000    2.750   15.000    0.000    0.000 
#    0.000    0.000    0.000    0.000    0.000    0.000 
#
# Total GULP energy -178409.441853 kJ/mol
# GULP energy per Si atom -5575.295058 kJ/mol
# Density = 2.229594 g / cm^3
# Si number density = 22.346798 Si / 1000 Ang^3
#
#
#
# Elastic Constant Matrix: (Units=GPa)
#
#
# Indices 1 2 3 4 5 6 
#
# 1 24.2341 2.1746 -6.3090 0.0000 0.0000 0.0000
# 2 2.1746 103.6113 -7.8120 0.0000 0.0000 0.0000
# 3 -6.3090 -7.8120 76.4025 0.0000 0.0000 0.0000
# 4 0.0000 0.0000 0.0000 26.0283 0.0000 0.0000
# 5 0.0000 0.0000 0.0000 0.0000 15.1321 0.0000
# 6 0.0000 0.0000 0.0000 0.0000 0.0000 14.0143
#
#
#
# Elastic Compliance Matrix: (Units=1/GPa)
#
#
# Indices 1 2 3 4 5 6 
#
# 1 0.042211 -0.000628 0.003421 0.000000 0.000000 0.000000
# 2 -0.000628 0.009736 0.000944 0.000000 0.000000 0.000000
# 3 0.003421 0.000944 0.013468 0.000000 0.000000 0.000000
# 4 0.000000 0.000000 0.000000 0.038420 0.000000 0.000000
# 5 0.000000 0.000000 0.000000 0.000000 0.066085 0.000000
# 6 0.000000 0.000000 0.000000 0.000000 0.000000 0.071356
#
#
# Mechanical properties :
#
#
# Convention : Reuss Voigt Hill
#
# Bulk Modulus (GPa) = 13.71954 20.03945 16.87949
# Shear Modulus (GPa) = 19.37257 25.44789 22.41023
#
# Velocity S-wave (km/s) = 2.94752 3.37823 3.17020
# Velocity P-wave (km/s) = 4.21148 4.91971 4.57930
#
# Compressibility (1/GPa) = 0.07288876
#
# Stress axis : x y z
#
# Youngs Moduli (GPa) = 23.69036 102.71384 74.25237
#
# Poissons Ratio (x) = 0.06450 -0.25405
# Poissons Ratio (y) = 0.01488 -0.07007
# Poissons Ratio (z) = -0.08105 -0.09692
#
# Static dielectric constant tensor:
#      x y z
#    x 1.843560 0.000000 0.000000 
#    y 0.000000 1.916600 0.000000 
#    z 0.000000 0.000000 1.803420 
# 
# From -- ./inp_files/129.got.cif
#   From: 2010.05.17/outbox.cif.g08.bks.cpg/sg29_1_cif.got.tgz:129.got - 2010.06.04 01:19:37.
