data_PCOD9340790
_publ_section_title
;
Structure prediction by ZEFSAII (Michael W. Deem and Ramdas Pophale) SiO2 
 PCOD9340790
Probable space group: P C A 21
;
_chemical_formula_sum "Si O2"
_cell_formula_units_Z 20
_cell_length_a 9.387800
_cell_length_b 14.893875
_cell_length_c 5.119978
_cell_angle_alpha 90.000000
_cell_angle_beta 90.000000
_cell_angle_gamma 90.000000
_cell_volume 715.879009
_symmetry_space_group_name_H-M "P C A 21"
_symmetry_group_IT_number 29
_symmetry_cell_setting 'orthorhombic'
loop_
_space_group_symop_operation_xyz
x,y,z
-x,-y,1/2+z
1/2-x,y,1/2+z
1/2+x,-y,z
loop_
_atom_site_type_symbol
_atom_site_label
_atom_site_fract_x
_atom_site_fract_y
_atom_site_fract_z
Si Si1 0.505283 0.160159 0.769160
Si Si2 0.347299 0.676600 0.522107
Si Si3 0.151811 0.291520 0.931466
Si Si4 0.652267 0.511957 0.902879
Si Si5 0.917231 0.998556 0.000158
O O1 0.452458 0.213277 0.517194
O O2 0.624285 0.085832 0.672624
O O3 0.561656 0.235785 0.959602
O O4 0.373673 0.098520 0.883264
O O5 0.425451 0.581556 0.464601
O O6 0.222300 0.678849 0.305232
O O7 0.583523 0.608982 0.948233
O O8 0.272856 0.286912 0.154268
O O9 0.720562 0.508874 0.617035
O O10 0.027735 0.962863 0.223531
#
# Coordination Sequence:
#
# PCOD9340790 Si02
#       5
#     4   4   4   4   4
#     4  10  22  40  62  80 122 152 198 240 296 344
#     4  10  22  36  61  86 114 154 192 234 292 348
#     4  10  22  36  61  86 114 154 192 234 292 348
#     4   8  16  36  52  80 116 136 178 240 272 326
#     4   8  20  36  58  78 118 150 184 260 290 314
#
# _framework density 27.937684000000001
#
# number of rings (size 3 to 8) (size 9 to 14) (size 15 to 20)
#    1.200    1.600    0.000    0.000    5.600    0.000 
#    0.000   18.000    0.000    0.000    0.000    0.000 
#    0.000    0.000    0.000    0.000    0.000    0.000 
#
# Total GULP energy -111480.081264 kJ/mol
# GULP energy per Si atom -5574.004063 kJ/mol
# Density = 2.787410 g / cm^3
# Si number density = 27.937684 Si / 1000 Ang^3
#
#
#
# Elastic Constant Matrix: (Units=GPa)
#
#
# Indices 1 2 3 4 5 6 
#
# 1 58.3949 39.6308 53.6519 0.0000 0.0000 0.0000
# 2 39.6308 251.0094 2.7969 0.0000 0.0000 0.0000
# 3 53.6519 2.7969 157.6230 0.0000 0.0000 0.0000
# 4 0.0000 0.0000 0.0000 47.3900 0.0000 0.0000
# 5 0.0000 0.0000 0.0000 0.0000 49.0220 0.0000
# 6 0.0000 0.0000 0.0000 0.0000 0.0000 84.6938
#
#
#
# Elastic Compliance Matrix: (Units=1/GPa)
#
#
# Indices 1 2 3 4 5 6 
#
# 1 0.029264 -0.004510 -0.009881 0.000000 0.000000 0.000000
# 2 -0.004510 0.004680 0.001452 0.000000 0.000000 0.000000
# 3 -0.009881 0.001452 0.009682 0.000000 0.000000 0.000000
# 4 0.000000 0.000000 0.000000 0.021102 0.000000 0.000000
# 5 0.000000 0.000000 0.000000 0.000000 0.020399 0.000000
# 6 0.000000 0.000000 0.000000 0.000000 0.000000 0.011807
#
#
# Mechanical properties :
#
#
# Convention : Reuss Voigt Hill
#
# Bulk Modulus (GPa) = 56.34546 73.24296 64.79421
# Shear Modulus (GPa) = 38.84173 60.95099 49.89636
#
# Velocity S-wave (km/s) = 3.73272 4.67591 4.23068
# Velocity P-wave (km/s) = 6.22813 7.44484 6.86350
#
# Compressibility (1/GPa) = 0.01774766
#
# Stress axis : x y z
#
# Youngs Moduli (GPa) = 34.17150 213.68227 103.28690
#
# Poissons Ratio (x) = 0.96377 1.02057
# Poissons Ratio (y) = 0.15412 -0.14999
# Poissons Ratio (z) = 0.33765 -0.31031
#
# Static dielectric constant tensor:
#      x y z
#    x 2.398710 0.000000 0.000000 
#    y 0.000000 2.213760 0.000000 
#    z 0.000000 0.000000 2.122310 
# 
# From -- ./inp_files/86.got.cif
#   From: 2010.05.17/outbox.cif.g08.bks.cpg/sg29_1_cif.got.tgz:86.got - 2010.06.04 01:19:37.
