data_PCOD9340214
_publ_section_title
;
Structure prediction by ZEFSAII (Michael W. Deem and Ramdas Pophale) SiO2 
 PCOD9340214
Probable space group: P C A 21
;
_chemical_formula_sum "Si O2"
_cell_formula_units_Z 32
_cell_length_a 16.456664
_cell_length_b 5.575259
_cell_length_c 13.889086
_cell_angle_alpha 90.000000
_cell_angle_beta 90.000000
_cell_angle_gamma 90.000000
_cell_volume 1274.325919
_symmetry_space_group_name_H-M "P C A 21"
_symmetry_group_IT_number 29
_symmetry_cell_setting 'orthorhombic'
loop_
_space_group_symop_operation_xyz
x,y,z
-x,-y,1/2+z
1/2-x,y,1/2+z
1/2+x,-y,z
loop_
_atom_site_type_symbol
_atom_site_label
_atom_site_fract_x
_atom_site_fract_y
_atom_site_fract_z
Si Si1 0.829084 0.113443 0.862800
Si Si2 0.984150 0.462076 0.548060
Si Si3 0.284083 0.172914 0.241954
Si Si4 0.517458 0.952348 0.260081
Si Si5 0.834786 0.467121 0.691473
Si Si6 0.239480 0.898313 0.564680
Si Si7 0.924576 0.960943 0.535892
Si Si8 0.570864 0.543382 0.731965
O O1 0.743540 0.997825 0.826948
O O2 0.908220 0.957967 0.835499
O O3 0.841236 0.341661 0.794173
O O4 0.816226 0.157229 0.974249
O O5 0.917779 0.462953 0.634715
O O6 0.962641 0.712180 0.495417
O O7 0.064641 0.465255 0.614152
O O8 0.964306 0.209477 0.496888
O O9 0.198015 0.271962 0.206939
O O10 0.312732 0.037112 0.146169
O O11 0.337629 0.402500 0.265282
O O12 0.549042 0.960132 0.148947
O O13 0.465167 0.708181 0.268426
O O14 0.469653 0.205242 0.267433
O O15 0.772805 0.329523 0.622268
O O16 0.325965 0.021591 0.531051
#
# Coordination Sequence:
#
# PCOD9340214 Si02
#       8
#     4   4   4   4   4   4   4   4
#     4  11  22  38  67  89 124 171 219 265 318 382
#     4   9  15  32  57  79 111 163 197 236 299 378
#     4  11  22  39  64  95 126 162 211 277 322 369
#     4  10  19  39  62  87 118 177 208 244 320 399
#     4  10  19  38  60  89 120 164 211 261 316 382
#     4  10  21  36  61  96 122 158 219 277 308 375
#     4   9  15  32  56  82 108 150 202 245 293 362
#     4  10  21  34  65  89 123 163 207 257 320 381
#
# _framework density 25.111314
#
# number of rings (size 3 to 8) (size 9 to 14) (size 15 to 20)
#    0.000    2.000    6.250    0.750    3.500    1.000 
#    0.000    0.000   13.750    0.000    0.000    0.000 
#    0.000    0.000    0.000    0.000    0.000    0.000 
#
# Total GULP energy -178627.880958 kJ/mol
# GULP energy per Si atom -5582.121280 kJ/mol
# Density = 2.505416 g / cm^3
# Si number density = 25.111314 Si / 1000 Ang^3
#
#
#
# Elastic Constant Matrix: (Units=GPa)
#
#
# Indices 1 2 3 4 5 6 
#
# 1 49.1990 12.1470 13.7206 0.0000 0.0000 0.0000
# 2 12.1470 144.2247 25.8551 0.0000 0.0000 0.0000
# 3 13.7206 25.8551 108.6633 0.0000 0.0000 0.0000
# 4 0.0000 0.0000 0.0000 -18.9659 0.0000 0.0000
# 5 0.0000 0.0000 0.0000 0.0000 16.5185 0.0000
# 6 0.0000 0.0000 0.0000 0.0000 0.0000 35.4662
#
#
#
# Elastic Compliance Matrix: (Units=1/GPa)
#
#
# Indices 1 2 3 4 5 6 
#
# 1 0.021324 -0.001372 -0.002366 0.000000 0.000000 0.000000
# 2 -0.001372 0.007331 -0.001571 0.000000 0.000000 0.000000
# 3 -0.002366 -0.001571 0.009875 0.000000 0.000000 0.000000
# 4 0.000000 0.000000 0.000000 -0.052726 0.000000 0.000000
# 5 0.000000 0.000000 0.000000 0.000000 0.060538 0.000000
# 6 0.000000 0.000000 0.000000 0.000000 0.000000 0.028196
#
#
# Mechanical properties :
#
#
# Convention : Reuss Voigt Hill
#
# Bulk Modulus (GPa) = 35.82648 45.05913 40.44281
# Shear Modulus (GPa) = 52.93242 23.29473 38.11357
#
# Velocity S-wave (km/s) = 4.59618 3.04905 3.90010
# Velocity P-wave (km/s) = 6.51648 5.51166 6.03502
#
# Compressibility (1/GPa) = 0.02791231
#
# Stress axis : x y z
#
# Youngs Moduli (GPa) = 46.89509 136.41066 101.26253
#
# Poissons Ratio (x) = 0.18713 0.23960
# Poissons Ratio (y) = 0.06433 0.15909
# Poissons Ratio (z) = 0.11096 0.21431
#
# Static dielectric constant tensor:
#      x y z
#    x 2.106240 0.000000 0.000000 
#    y 0.000000 2.052300 0.000000 
#    z 0.000000 0.000000 2.018880 
# 
# From -- ./inp_files/4859.got.cif
#   From: 2010.05.17/outbox.cif.g08.bks.cpg/sg29_3_cif.got.tgz:4859.got - 2010.06.04 01:19:37.
