data_PCOD9340676
_publ_section_title
;
Structure prediction by ZEFSAII (Michael W. Deem and Ramdas Pophale) SiO2 
 PCOD9340676
Probable space group: P C A 21
;
_chemical_formula_sum "Si O2"
_cell_formula_units_Z 32
_cell_length_a 13.348741
_cell_length_b 5.812356
_cell_length_c 15.344725
_cell_angle_alpha 90.000000
_cell_angle_beta 90.000000
_cell_angle_gamma 90.000000
_cell_volume 1190.560920
_symmetry_space_group_name_H-M "P C A 21"
_symmetry_group_IT_number 29
_symmetry_cell_setting 'orthorhombic'
loop_
_space_group_symop_operation_xyz
x,y,z
-x,-y,1/2+z
1/2-x,y,1/2+z
1/2+x,-y,z
loop_
_atom_site_type_symbol
_atom_site_label
_atom_site_fract_x
_atom_site_fract_y
_atom_site_fract_z
Si Si1 0.881195 0.398399 0.977210
Si Si2 0.912451 0.025153 0.082747
Si Si3 0.866090 0.101555 0.529841
Si Si4 0.910771 0.593352 0.797853
Si Si5 0.873024 0.295468 0.252019
Si Si6 0.881005 0.600374 0.508018
Si Si7 0.227629 0.366002 0.637191
Si Si8 0.829941 0.099121 0.735767
O O1 0.862187 0.539367 0.891328
O O2 0.820206 0.509643 0.054124
O O3 0.000374 0.400275 0.995493
O O4 0.861536 0.128256 0.995225
O O5 0.838608 0.856428 0.130673
O O6 0.015251 0.911804 0.053110
O O7 0.925109 0.209911 0.161024
O O8 0.848033 0.342642 0.480472
O O9 0.822463 0.111742 0.629188
O O10 0.845435 0.858449 0.480944
O O11 0.896408 0.328239 0.758587
O O12 0.030905 0.635980 0.807459
O O13 0.870501 0.845732 0.764064
O O14 0.804246 0.512667 0.225131
O O15 0.781568 0.128068 0.277536
O O16 0.843556 0.618783 0.609270
#
# Coordination Sequence:
#
# PCOD9340676 Si02
#       8
#     4   4   4   4   4   4   4   4
#     4  10  26  45  64  98 141 190 230 287 356 432
#     4  10  21  40  73 100 140 183 242 299 362 422
#     4  11  20  41  66 104 133 171 226 300 355 407
#     4  12  29  47  70 102 153 194 235 294 366 447
#     4  11  25  42  73 111 139 190 244 303 370 433
#     4  11  23  39  70 100 134 173 232 295 352 415
#     4  11  22  40  73 102 137 179 241 305 354 420
#     4  12  26  44  73 105 147 186 244 299 367 436
#
# _framework density 26.878084999999999
#
# number of rings (size 3 to 8) (size 9 to 14) (size 15 to 20)
#    0.000    1.000    3.750    2.250    7.000    1.000 
#    0.000    1.250    0.000    0.000    0.000    0.000 
#    0.000    0.000    0.000    0.000    0.000    0.000 
#
# Total GULP energy -178203.330168 kJ/mol
# GULP energy per Si atom -5568.854068 kJ/mol
# Density = 2.681691 g / cm^3
# Si number density = 26.878085 Si / 1000 Ang^3
#
#
#
# Elastic Constant Matrix: (Units=GPa)
#
#
# Indices 1 2 3 4 5 6 
#
# 1 69.1426 31.4783 19.1559 0.0000 0.0000 0.0000
# 2 31.4783 188.3057 41.7233 0.0000 0.0000 0.0000
# 3 19.1559 41.7233 67.8200 0.0000 0.0000 0.0000
# 4 0.0000 0.0000 0.0000 22.3699 0.0000 0.0000
# 5 0.0000 0.0000 0.0000 0.0000 28.4470 0.0000
# 6 0.0000 0.0000 0.0000 0.0000 0.0000 34.5607
#
#
#
# Elastic Compliance Matrix: (Units=1/GPa)
#
#
# Indices 1 2 3 4 5 6 
#
# 1 0.016301 -0.001974 -0.003390 0.000000 0.000000 0.000000
# 2 -0.001974 0.006388 -0.003372 0.000000 0.000000 0.000000
# 3 -0.003390 -0.003372 0.017777 0.000000 0.000000 0.000000
# 4 0.000000 0.000000 0.000000 0.044703 0.000000 0.000000
# 5 0.000000 0.000000 0.000000 0.000000 0.035153 0.000000
# 6 0.000000 0.000000 0.000000 0.000000 0.000000 0.028935
#
#
# Mechanical properties :
#
#
# Convention : Reuss Voigt Hill
#
# Bulk Modulus (GPa) = 43.49049 56.66479 50.07764
# Shear Modulus (GPa) = 28.67103 32.60293 30.63698
#
# Velocity S-wave (km/s) = 3.26959 3.48658 3.37983
# Velocity P-wave (km/s) = 5.51991 6.11034 5.82261
#
# Compressibility (1/GPa) = 0.02299353
#
# Stress axis : x y z
#
# Youngs Moduli (GPa) = 61.34731 156.55194 56.25250
#
# Poissons Ratio (x) = 0.30900 0.19069
# Poissons Ratio (y) = 0.12109 0.18970
# Poissons Ratio (z) = 0.20796 0.52793
#
# Static dielectric constant tensor:
#      x y z
#    x 2.182680 0.000000 0.000000 
#    y 0.000000 2.371780 0.000000 
#    z 0.000000 0.000000 2.130390 
# 
# From -- ./inp_files/5228.got.cif
#   From: 2010.05.17/outbox.cif.g08.bks.cpg/sg29_3_cif.got.tgz:5228.got - 2010.06.04 01:19:37.
