data_PCOD9340631
_publ_section_title
;
Structure prediction by ZEFSAII (Michael W. Deem and Ramdas Pophale) SiO2 
 PCOD9340631
Probable space group: P C A 21
;
_chemical_formula_sum "Si O2"
_cell_formula_units_Z 32
_cell_length_a 9.067815
_cell_length_b 11.075208
_cell_length_c 17.337252
_cell_angle_alpha 90.000000
_cell_angle_beta 90.000000
_cell_angle_gamma 90.000000
_cell_volume 1741.144456
_symmetry_space_group_name_H-M "P C A 21"
_symmetry_group_IT_number 29
_symmetry_cell_setting 'orthorhombic'
loop_
_space_group_symop_operation_xyz
x,y,z
-x,-y,1/2+z
1/2-x,y,1/2+z
1/2+x,-y,z
loop_
_atom_site_type_symbol
_atom_site_label
_atom_site_fract_x
_atom_site_fract_y
_atom_site_fract_z
Si Si1 0.499475 0.414112 0.260700
Si Si2 0.461344 0.853755 0.709794
Si Si3 0.213508 0.996369 0.793007
Si Si4 0.695932 0.620489 0.022783
Si Si5 0.694274 0.597882 0.347906
Si Si6 0.455866 0.490729 0.090808
Si Si7 0.447873 0.223053 0.045194
Si Si8 0.460304 0.151961 0.872812
O O1 0.561263 0.282633 0.239600
O O2 0.596833 0.483691 0.323384
O O3 0.334038 0.396185 0.291698
O O4 0.491268 0.489287 0.180965
O O5 0.320101 0.933010 0.731196
O O6 0.498100 0.847237 0.619496
O O7 0.602943 0.908766 0.753581
O O8 0.106863 0.899076 0.833241
O O9 0.324236 0.063213 0.852040
O O10 0.528019 0.599665 0.044198
O O11 0.781621 0.522767 0.076312
O O12 0.771263 0.747622 0.045215
O O13 0.740749 0.595209 0.934776
O O14 0.591517 0.716403 0.343490
O O15 0.506590 0.361727 0.053132
O O16 0.484648 0.164493 0.964124
#
# Coordination Sequence:
#
# PCOD9340631 Si02
#       8
#     4   4   4   4   4   4   4   4
#     4  11  22  34  57  85 117 146 189 238 283 347
#     4  10  21  40  57  84 114 149 194 236 287 337
#     4  10  22  38  63  81 113 154 193 243 283 339
#     4   9  18  34  52  76 114 151 183 224 279 341
#     4  11  22  35  57  87 117 149 186 236 289 344
#     4   9  18  33  52  76 111 153 182 223 283 336
#     4   8  20  35  59  77 115 145 189 241 278 340
#     4  10  21  41  59  86 113 151 196 237 290 340
#
# _framework density 18.378715
#
# number of rings (size 3 to 8) (size 9 to 14) (size 15 to 20)
#    0.750    1.500    1.250    1.500    1.750    1.000 
#    0.000    0.000    0.000    0.000    0.000    0.000 
#    0.000    0.000    0.000    0.000    0.000    0.000 
#
# Total GULP energy -178234.745403 kJ/mol
# GULP energy per Si atom -5569.835794 kJ/mol
# Density = 1.833688 g / cm^3
# Si number density = 18.378715 Si / 1000 Ang^3
#
#
#
# Elastic Constant Matrix: (Units=GPa)
#
#
# Indices 1 2 3 4 5 6 
#
# 1 53.0691 12.7961 26.7359 0.0000 0.0000 0.0000
# 2 12.7961 50.4593 33.5876 0.0000 0.0000 0.0000
# 3 26.7359 33.5876 103.0152 0.0000 0.0000 0.0000
# 4 0.0000 0.0000 0.0000 19.4890 0.0000 0.0000
# 5 0.0000 0.0000 0.0000 0.0000 18.7292 0.0000
# 6 0.0000 0.0000 0.0000 0.0000 0.0000 12.7389
#
#
#
# Elastic Compliance Matrix: (Units=1/GPa)
#
#
# Indices 1 2 3 4 5 6 
#
# 1 0.021877 -0.002259 -0.004941 0.000000 0.000000 0.000000
# 2 -0.002259 0.025544 -0.007742 0.000000 0.000000 0.000000
# 3 -0.004941 -0.007742 0.013514 0.000000 0.000000 0.000000
# 4 0.000000 0.000000 0.000000 0.051311 0.000000 0.000000
# 5 0.000000 0.000000 0.000000 0.000000 0.053392 0.000000
# 6 0.000000 0.000000 0.000000 0.000000 0.000000 0.078500
#
#
# Mechanical properties :
#
#
# Convention : Reuss Voigt Hill
#
# Bulk Modulus (GPa) = 32.20529 39.19807 35.70168
# Shear Modulus (GPa) = 17.58243 19.08637 18.33440
#
# Velocity S-wave (km/s) = 3.09637 3.22608 3.16189
# Velocity P-wave (km/s) = 5.50859 5.93726 5.72694
#
# Compressibility (1/GPa) = 0.03105080
#
# Stress axis : x y z
#
# Youngs Moduli (GPa) = 45.70911 39.14761 73.99645
#
# Poissons Ratio (x) = 0.08842 0.36565
# Poissons Ratio (y) = 0.10324 0.57291
# Poissons Ratio (z) = 0.22587 0.30310
#
# Static dielectric constant tensor:
#      x y z
#    x 1.637540 0.000000 0.000000 
#    y 0.000000 1.626500 0.000000 
#    z 0.000000 0.000000 1.620990 
# 
# From -- ./inp_files/4336.got.cif
#   From: 2010.05.17/outbox.cif.g08.bks.cpg/sg29_3_cif.got.tgz:4336.got - 2010.06.04 01:19:37.
