data_PCOD9340600
_publ_section_title
;
Structure prediction by ZEFSAII (Michael W. Deem and Ramdas Pophale) SiO2 
 PCOD9340600
Probable space group: P C A 21
;
_chemical_formula_sum "Si O2"
_cell_formula_units_Z 28
_cell_length_a 10.070723
_cell_length_b 5.260761
_cell_length_c 19.978648
_cell_angle_alpha 90.000000
_cell_angle_beta 90.000000
_cell_angle_gamma 90.000000
_cell_volume 1058.462114
_symmetry_space_group_name_H-M "P C A 21"
_symmetry_group_IT_number 29
_symmetry_cell_setting 'orthorhombic'
loop_
_space_group_symop_operation_xyz
x,y,z
-x,-y,1/2+z
1/2-x,y,1/2+z
1/2+x,-y,z
loop_
_atom_site_type_symbol
_atom_site_label
_atom_site_fract_x
_atom_site_fract_y
_atom_site_fract_z
Si Si1 0.359268 0.929955 0.108800
Si Si2 0.297301 0.978532 0.479990
Si Si3 0.754779 0.538408 0.775197
Si Si4 0.036119 0.201347 0.408983
Si Si5 0.548457 0.584807 0.653530
Si Si6 0.839433 0.050607 0.731201
Si Si7 0.552936 0.707974 0.886271
O O1 0.462725 0.697248 0.120109
O O2 0.278019 0.972094 0.176761
O O3 0.416323 0.212104 0.095314
O O4 0.251283 0.882418 0.051439
O O5 0.394749 0.768279 0.448330
O O6 0.397085 0.212438 0.460933
O O7 0.160808 0.074244 0.445763
O O8 0.661144 0.534032 0.709078
O O9 0.788087 0.244672 0.787000
O O10 0.670205 0.634338 0.837206
O O11 0.861267 0.760242 0.755247
O O12 0.055802 0.487456 0.385894
O O13 0.995926 0.979578 0.357879
O O14 0.443604 0.760516 0.694170
#
# Coordination Sequence:
#
# PCOD9340600 Si02
#       7
#     4   4   4   4   4   4   4
#     4  10  23  39  60  90 126 165 221 264 339 391
#     4  10  26  44  67  97 136 178 227 281 339 413
#     4  10  21  40  61  95 125 167 214 271 332 401
#     4  10  25  42  66  96 132 173 228 273 344 399
#     4  10  22  38  62  90 128 164 217 266 338 398
#     4  10  21  39  63  92 126 168 214 274 332 398
#     4  10  24  40  67  96 135 173 231 275 344 406
#
# _framework density 26.453476999999999
#
# number of rings (size 3 to 8) (size 9 to 14) (size 15 to 20)
#    0.857    1.143    0.000    1.714    6.000    2.286 
#    0.000    0.000    0.000    0.000    0.000    0.000 
#    0.000    0.000    0.000    0.000    0.000    0.000 
#
# Total GULP energy -155931.459287 kJ/mol
# GULP energy per Si atom -5568.980689 kJ/mol
# Density = 2.639327 g / cm^3
# Si number density = 26.453477 Si / 1000 Ang^3
#
#
#
# Elastic Constant Matrix: (Units=GPa)
#
#
# Indices 1 2 3 4 5 6 
#
# 1 65.9506 11.7546 2.5625 0.0000 0.0000 0.0000
# 2 11.7546 131.6166 14.5949 0.0000 0.0000 0.0000
# 3 2.5625 14.5949 46.5578 0.0000 0.0000 0.0000
# 4 0.0000 0.0000 0.0000 23.9052 0.0000 0.0000
# 5 0.0000 0.0000 0.0000 0.0000 29.3006 0.0000
# 6 0.0000 0.0000 0.0000 0.0000 0.0000 26.3311
#
#
#
# Elastic Compliance Matrix: (Units=1/GPa)
#
#
# Indices 1 2 3 4 5 6 
#
# 1 0.015417 -0.001329 -0.000432 0.000000 0.000000 0.000000
# 2 -0.001329 0.007986 -0.002430 0.000000 0.000000 0.000000
# 3 -0.000432 -0.002430 0.022264 0.000000 0.000000 0.000000
# 4 0.000000 0.000000 0.000000 0.041832 0.000000 0.000000
# 5 0.000000 0.000000 0.000000 0.000000 0.034129 0.000000
# 6 0.000000 0.000000 0.000000 0.000000 0.000000 0.037978
#
#
# Mechanical properties :
#
#
# Convention : Reuss Voigt Hill
#
# Bulk Modulus (GPa) = 26.82081 33.54988 30.18534
# Shear Modulus (GPa) = 27.71371 30.25491 28.98431
#
# Velocity S-wave (km/s) = 3.24024 3.38554 3.31368
# Velocity P-wave (km/s) = 4.91525 5.29080 5.10648
#
# Compressibility (1/GPa) = 0.03728448
#
# Stress axis : x y z
#
# Youngs Moduli (GPa) = 64.86551 125.21903 44.91497
#
# Poissons Ratio (x) = 0.16641 0.01940
# Poissons Ratio (y) = 0.08620 0.10916
# Poissons Ratio (z) = 0.02802 0.30432
#
# Static dielectric constant tensor:
#      x y z
#    x 2.242840 0.000000 0.000000 
#    y 0.000000 2.242400 0.000000 
#    z 0.000000 0.000000 2.134820 
# 
# From -- ./inp_files/5465.got.cif
#   From: 2010.05.17/outbox.cif.g08.bks.cpg/sg29_3_cif.got.tgz:5465.got - 2010.06.04 01:19:37.
