data_PCOD9340473
_publ_section_title
;
Structure prediction by ZEFSAII (Michael W. Deem and Ramdas Pophale) SiO2 
 PCOD9340473
Probable space group: P C A 21
;
_chemical_formula_sum "Si O2"
_cell_formula_units_Z 24
_cell_length_a 25.991899
_cell_length_b 6.394197
_cell_length_c 5.761832
_cell_angle_alpha 90.000000
_cell_angle_beta 90.000000
_cell_angle_gamma 90.000000
_cell_volume 957.601052
_symmetry_space_group_name_H-M "P C A 21"
_symmetry_group_IT_number 29
_symmetry_cell_setting 'orthorhombic'
loop_
_space_group_symop_operation_xyz
x,y,z
-x,-y,1/2+z
1/2-x,y,1/2+z
1/2+x,-y,z
loop_
_atom_site_type_symbol
_atom_site_label
_atom_site_fract_x
_atom_site_fract_y
_atom_site_fract_z
Si Si1 0.614454 0.229442 0.912090
Si Si2 0.256344 0.506778 0.898527
Si Si3 0.834837 0.830224 0.357030
Si Si4 0.637396 0.595363 0.247319
Si Si5 0.984620 0.100373 0.670446
Si Si6 0.068995 0.420218 0.628720
O O1 0.579929 0.347510 0.719437
O O2 0.656950 0.074359 0.805261
O O3 0.640151 0.418163 0.051639
O O4 0.573897 0.127003 0.089201
O O5 0.254039 0.614385 0.645459
O O6 0.218964 0.301008 0.856389
O O7 0.316252 0.447380 0.919969
O O8 0.848706 0.811574 0.629336
O O9 0.885160 0.726448 0.234442
O O10 0.581899 0.588385 0.358125
O O11 0.015344 0.319412 0.691628
O O12 0.009163 0.999192 0.429718
#
# Coordination Sequence:
#
# PCOD9340473 Si02
#       6
#     4   4   4   4   4   4
#     4  11  26  43  71 106 144 189 244 297 359 430
#     4  10  20  41  72  96 134 186 229 286 362 419
#     4  10  21  46  67  99 139 190 231 296 357 429
#     4  10  23  42  71  99 142 187 236 304 356 427
#     4  12  28  47  74 105 148 197 242 292 365 432
#     4  11  24  43  71  99 147 183 240 297 355 421
#
# _framework density 25.062626000000002
#
# number of rings (size 3 to 8) (size 9 to 14) (size 15 to 20)
#    0.000    1.333    3.333    1.000    7.000    1.333 
#    0.000   10.000    0.000    0.000    0.000    0.000 
#    0.000    0.000    0.000    0.000    0.000    0.000 
#
# Total GULP energy -133648.633183 kJ/mol
# GULP energy per Si atom -5568.693049 kJ/mol
# Density = 2.500558 g / cm^3
# Si number density = 25.062626 Si / 1000 Ang^3
#
#
#
# Elastic Constant Matrix: (Units=GPa)
#
#
# Indices 1 2 3 4 5 6 
#
# 1 93.2327 11.5751 -8.0479 0.0000 0.0000 0.0000
# 2 11.5751 57.0887 6.1458 0.0000 0.0000 0.0000
# 3 -8.0479 6.1458 106.4138 0.0000 0.0000 0.0000
# 4 0.0000 0.0000 0.0000 17.2161 0.0000 0.0000
# 5 0.0000 0.0000 0.0000 0.0000 40.8825 0.0000
# 6 0.0000 0.0000 0.0000 0.0000 0.0000 41.6950
#
#
#
# Elastic Compliance Matrix: (Units=1/GPa)
#
#
# Indices 1 2 3 4 5 6 
#
# 1 0.011103 -0.002356 0.000976 0.000000 0.000000 0.000000
# 2 -0.002356 0.018126 -0.001225 0.000000 0.000000 0.000000
# 3 0.000976 -0.001225 0.009542 0.000000 0.000000 0.000000
# 4 0.000000 0.000000 0.000000 0.058085 0.000000 0.000000
# 5 0.000000 0.000000 0.000000 0.000000 0.024460 0.000000
# 6 0.000000 0.000000 0.000000 0.000000 0.000000 0.023984
#
#
# Mechanical properties :
#
#
# Convention : Reuss Voigt Hill
#
# Bulk Modulus (GPa) = 29.79762 30.67566 30.23664
# Shear Modulus (GPa) = 30.92198 36.42953 33.67576
#
# Velocity S-wave (km/s) = 3.51634 3.81667 3.66958
# Velocity P-wave (km/s) = 5.32929 5.62928 5.48134
#
# Compressibility (1/GPa) = 0.03355972
#
# Stress axis : x y z
#
# Youngs Moduli (GPa) = 90.06893 55.16871 104.80172
#
# Poissons Ratio (x) = 0.12999 -0.10226
# Poissons Ratio (y) = 0.21222 0.12839
# Poissons Ratio (z) = -0.08789 0.06758
#
# Static dielectric constant tensor:
#      x y z
#    x 1.954810 0.000000 0.000000 
#    y 0.000000 2.051450 0.000000 
#    z 0.000000 0.000000 2.111340 
# 
# From -- ./inp_files/850.got.cif
#   From: 2010.05.17/outbox.cif.g08.bks.cpg/sg29_1_cif.got.tgz:850.got - 2010.06.04 01:19:37.
