data_PCOD9340155
_publ_section_title
;
Structure prediction by ZEFSAII (Michael W. Deem and Ramdas Pophale) SiO2 
 PCOD9340155
Probable space group: P C A 21
;
_chemical_formula_sum "Si O2"
_cell_formula_units_Z 32
_cell_length_a 18.557020
_cell_length_b 12.831567
_cell_length_c 5.344118
_cell_angle_alpha 90.000000
_cell_angle_beta 90.000000
_cell_angle_gamma 90.000000
_cell_volume 1272.518107
_symmetry_space_group_name_H-M "P C A 21"
_symmetry_group_IT_number 29
_symmetry_cell_setting 'orthorhombic'
loop_
_space_group_symop_operation_xyz
x,y,z
-x,-y,1/2+z
1/2-x,y,1/2+z
1/2+x,-y,z
loop_
_atom_site_type_symbol
_atom_site_label
_atom_site_fract_x
_atom_site_fract_y
_atom_site_fract_z
Si Si1 0.141834 0.455510 0.466620
Si Si2 0.280345 0.995828 0.244468
Si Si3 0.573816 0.623486 0.958818
Si Si4 0.064757 0.896864 0.378264
Si Si5 0.294188 0.750299 0.338263
Si Si6 0.596249 0.325354 0.503083
Si Si7 0.580975 0.965847 0.883267
Si Si8 0.272888 0.281902 0.448687
O O1 0.094071 0.450236 0.721897
O O2 0.144939 0.578491 0.412848
O O3 0.217535 0.387911 0.477554
O O4 0.094834 0.413409 0.236916
O O5 0.216781 0.006320 0.446492
O O6 0.300914 0.875807 0.316657
O O7 0.161131 0.071889 0.861319
O O8 0.488769 0.649381 0.968506
O O9 0.642602 0.699842 0.914295
O O10 0.105995 0.788327 0.374996
O O11 0.071980 0.962142 0.635195
O O12 0.076767 0.966252 0.134263
O O13 0.978675 0.877667 0.376329
O O14 0.256040 0.723564 0.597906
O O15 0.372062 0.699183 0.281590
O O16 0.260952 0.228215 0.710961
#
# Coordination Sequence:
#
# PCOD9340155 Si02
#       8
#     4   4   4   4   4   4   4   4
#     4  10  22  38  58  84 117 159 200 249 309 365
#     4  10  19  34  60  82 115 160 197 232 288 365
#     4  10  22  39  59  85 117 160 203 250 308 360
#     4  10  23  36  61  86 119 155 196 247 302 360
#     4  10  24  37  53  85 125 158 194 245 308 360
#     4  12  24  39  62  91 123 155 208 260 299 363
#     4  10  20  41  58  85 121 160 193 237 304 361
#     4   8  16  34  57  76 107 151 195 234 292 360
#
# _framework density 25.146988
#
# number of rings (size 3 to 8) (size 9 to 14) (size 15 to 20)
#    0.000    2.000    1.250    1.500    3.500    7.000 
#    0.000    0.000    0.000    4.500    0.000    0.000 
#    0.000    0.000    0.000    0.000    0.000    0.000 
#
# Total GULP energy -178263.372936 kJ/mol
# GULP energy per Si atom -5570.730404 kJ/mol
# Density = 2.508975 g / cm^3
# Si number density = 25.146988 Si / 1000 Ang^3
#
#
#
# Elastic Constant Matrix: (Units=GPa)
#
#
# Indices 1 2 3 4 5 6 
#
# 1 122.7368 31.6351 34.6255 0.0000 0.0000 0.0000
# 2 31.6351 90.7373 9.5522 0.0000 0.0000 0.0000
# 3 34.6255 9.5522 114.0215 0.0000 0.0000 0.0000
# 4 0.0000 0.0000 0.0000 20.8451 0.0000 0.0000
# 5 0.0000 0.0000 0.0000 0.0000 -16.0752 0.0000
# 6 0.0000 0.0000 0.0000 0.0000 0.0000 34.8977
#
#
#
# Elastic Compliance Matrix: (Units=1/GPa)
#
#
# Indices 1 2 3 4 5 6 
#
# 1 0.009705 -0.003101 -0.002687 0.000000 0.000000 0.000000
# 2 -0.003101 0.012110 -0.000073 0.000000 0.000000 0.000000
# 3 -0.002687 -0.000073 0.009592 0.000000 0.000000 0.000000
# 4 0.000000 0.000000 0.000000 0.047973 0.000000 0.000000
# 5 0.000000 0.000000 0.000000 0.000000 -0.062208 0.000000
# 6 0.000000 0.000000 0.000000 0.000000 0.000000 0.028655
#
#
# Mechanical properties :
#
#
# Convention : Reuss Voigt Hill
#
# Bulk Modulus (GPa) = 50.79999 53.23568 52.01784
# Shear Modulus (GPa) = 77.98975 24.71235 51.35105
#
# Velocity S-wave (km/s) = 5.57502 3.13823 4.52379
# Velocity P-wave (km/s) = 7.85406 5.86064 6.92941
#
# Compressibility (1/GPa) = 0.01968504
#
# Stress axis : x y z
#
# Youngs Moduli (GPa) = 103.04142 82.57962 104.24847
#
# Poissons Ratio (x) = 0.25605 0.28015
# Poissons Ratio (y) = 0.31949 0.00760
# Poissons Ratio (z) = 0.27691 0.00602
#
# Static dielectric constant tensor:
#      x y z
#    x 2.120380 0.000000 0.000000 
#    y 0.000000 2.081930 0.000000 
#    z 0.000000 0.000000 2.031010 
# 
# From -- ./inp_files/430.got.cif
#   From: 2010.05.17/outbox.cif.g08.bks.cpg/sg29_1_cif.got.tgz:430.got - 2010.06.04 01:19:37.
