data_PCOD9340432
_publ_section_title
;
Structure prediction by ZEFSAII (Michael W. Deem and Ramdas Pophale) SiO2 
 PCOD9340432
Probable space group: P C A 21
;
_chemical_formula_sum "Si O2"
_cell_formula_units_Z 32
_cell_length_a 8.795938
_cell_length_b 11.769958
_cell_length_c 14.611796
_cell_angle_alpha 90.000000
_cell_angle_beta 90.000000
_cell_angle_gamma 90.000000
_cell_volume 1512.727398
_symmetry_space_group_name_H-M "P C A 21"
_symmetry_group_IT_number 29
_symmetry_cell_setting 'orthorhombic'
loop_
_space_group_symop_operation_xyz
x,y,z
-x,-y,1/2+z
1/2-x,y,1/2+z
1/2+x,-y,z
loop_
_atom_site_type_symbol
_atom_site_label
_atom_site_fract_x
_atom_site_fract_y
_atom_site_fract_z
Si Si1 0.914172 0.493697 0.970500
Si Si2 0.378911 0.955854 0.907211
Si Si3 0.734680 0.663420 0.720691
Si Si4 0.459038 0.542639 0.182983
Si Si5 0.171293 0.148725 0.863902
Si Si6 0.398927 0.845966 0.469473
Si Si7 0.183929 0.263757 0.532385
Si Si8 0.168913 0.630981 0.858451
O O1 0.815480 0.607122 0.994490
O O2 0.825815 0.403607 0.907663
O O3 0.052499 0.544803 0.911119
O O4 0.949959 0.444573 0.072500
O O5 0.491746 0.870880 0.855229
O O6 0.271664 0.892080 0.980621
O O7 0.266049 0.032941 0.845538
O O8 0.497822 0.044599 0.949978
O O9 0.586127 0.586822 0.704932
O O10 0.725959 0.744968 0.805690
O O11 0.753025 0.740234 0.631768
O O12 0.876765 0.579015 0.719016
O O13 0.346224 0.612905 0.249926
O O14 0.220740 0.183478 0.966093
O O15 0.506028 0.773840 0.536950
O O16 0.381053 0.758205 0.384840
#
# Coordination Sequence:
#
# PCOD9340432 Si02
#       8
#     4   4   4   4   4   4   4   4
#     4  10  21  35  55  85 121 155 196 242 292 363
#     4   9  19  37  62  85 109 148 198 256 300 342
#     4  11  23  38  60  89 124 161 198 244 302 365
#     4  11  22  37  57  88 127 162 198 246 299 368
#     4  10  20  40  62  85 118 155 199 250 304 355
#     4   9  19  36  59  82 110 148 195 242 297 351
#     4   9  19  37  57  83 117 155 192 239 296 357
#     4  11  21  36  58  85 118 160 198 239 300 367
#
# _framework density 21.153845
#
# number of rings (size 3 to 8) (size 9 to 14) (size 15 to 20)
#    0.000    2.000    0.000    5.250    0.000    4.000 
#    0.000    5.000    0.000    4.500    0.000    0.000 
#    0.000    0.000    0.000    0.000    0.000    0.000 
#
# Total GULP energy -178340.593504 kJ/mol
# GULP energy per Si atom -5573.143547 kJ/mol
# Density = 2.110570 g / cm^3
# Si number density = 21.153845 Si / 1000 Ang^3
#
#
#
# Elastic Constant Matrix: (Units=GPa)
#
#
# Indices 1 2 3 4 5 6 
#
# 1 114.1836 38.7860 25.6975 0.0000 0.0000 0.0000
# 2 38.7860 66.1724 34.9692 0.0000 0.0000 0.0000
# 3 25.6975 34.9692 73.9895 0.0000 0.0000 0.0000
# 4 0.0000 0.0000 0.0000 0.0381 0.0000 0.0000
# 5 0.0000 0.0000 0.0000 0.0000 21.3764 0.0000
# 6 0.0000 0.0000 0.0000 0.0000 0.0000 37.8579
#
#
#
# Elastic Compliance Matrix: (Units=1/GPa)
#
#
# Indices 1 2 3 4 5 6 
#
# 1 0.010994 -0.005899 -0.001030 0.000000 0.000000 0.000000
# 2 -0.005899 0.023309 -0.008967 0.000000 0.000000 0.000000
# 3 -0.001030 -0.008967 0.018111 0.000000 0.000000 0.000000
# 4 0.000000 0.000000 0.000000 26.214973 0.000000 0.000000
# 5 0.000000 0.000000 0.000000 0.000000 0.046781 0.000000
# 6 0.000000 0.000000 0.000000 0.000000 0.000000 0.026415
#
#
# Mechanical properties :
#
#
# Convention : Reuss Voigt Hill
#
# Bulk Modulus (GPa) = 48.49625 50.36123 49.42874
# Shear Modulus (GPa) = 0.18954 22.18066 11.18510
#
# Velocity S-wave (km/s) = 0.29966 3.24163 2.30195
# Velocity P-wave (km/s) = 4.80573 6.15384 5.52108
#
# Compressibility (1/GPa) = 0.02062015
#
# Stress axis : x y z
#
# Youngs Moduli (GPa) = 90.96242 42.90233 55.21403
#
# Poissons Ratio (x) = 0.25310 0.05687
# Poissons Ratio (y) = 0.53662 0.49512
# Poissons Ratio (z) = 0.09369 0.38472
#
# Static dielectric constant tensor:
#      x y z
#    x 1.864240 0.000000 0.000000 
#    y 0.000000 1.822710 0.000000 
#    z 0.000000 0.000000 1.757320 
# 
# From -- ./inp_files/4283.got.cif
#   From: 2010.05.17/outbox.cif.g08.bks.cpg/sg29_3_cif.got.tgz:4283.got - 2010.06.04 01:19:37.
