data_PCOD9340569
_publ_section_title
;
Structure prediction by ZEFSAII (Michael W. Deem and Ramdas Pophale) SiO2 
 PCOD9340569
Probable space group: P C A 21
;
_chemical_formula_sum "Si O2"
_cell_formula_units_Z 28
_cell_length_a 28.270375
_cell_length_b 5.098366
_cell_length_c 9.047609
_cell_angle_alpha 90.000000
_cell_angle_beta 90.000000
_cell_angle_gamma 90.000000
_cell_volume 1304.056483
_symmetry_space_group_name_H-M "P C A 21"
_symmetry_group_IT_number 29
_symmetry_cell_setting 'orthorhombic'
loop_
_space_group_symop_operation_xyz
x,y,z
-x,-y,1/2+z
1/2-x,y,1/2+z
1/2+x,-y,z
loop_
_atom_site_type_symbol
_atom_site_label
_atom_site_fract_x
_atom_site_fract_y
_atom_site_fract_z
Si Si1 0.762467 0.781761 0.287940
Si Si2 0.192529 0.958773 0.526490
Si Si3 0.877909 0.714295 0.844077
Si Si4 0.962861 0.265071 0.555433
Si Si5 0.017085 0.245971 0.255658
Si Si6 0.730683 0.429803 0.036050
Si Si7 0.359660 0.789279 0.661105
O O1 0.729491 0.928597 0.404228
O O2 0.730888 0.642364 0.165037
O O3 0.785839 0.555161 0.384029
O O4 0.797186 0.959545 0.194579
O O5 0.145630 0.116762 0.476945
O O6 0.214535 0.663926 0.525139
O O7 0.934464 0.707461 0.848875
O O8 0.861005 0.420052 0.799443
O O9 0.867319 0.913263 0.709856
O O10 0.985462 0.517002 0.637846
O O11 0.905736 0.290284 0.567565
O O12 0.978118 0.237001 0.384908
O O13 0.977902 0.016820 0.657406
O O14 0.691367 0.224876 0.085676
#
# Coordination Sequence:
#
# PCOD9340569 Si02
#       7
#     4   4   4   4   4   4   4
#     4  10  22  34  54  78 110 150 196 246 294 338
#     4  11  21  37  55  81 114 156 201 244 297 349
#     4  10  21  38  61  86 117 161 202 241 301 375
#     4  10  21  40  65  93 123 161 204 252 316 373
#     4  10  21  40  65  93 123 161 204 252 316 373
#     4  11  21  37  55  81 114 156 201 244 297 349
#     4  10  21  38  61  86 117 161 202 241 301 375
#
# _framework density 21.471461999999999
#
# number of rings (size 3 to 8) (size 9 to 14) (size 15 to 20)
#    0.000    1.714    1.429    3.429    4.000    0.000 
#    2.571    2.857    0.000    0.000    0.000    0.000 
#    0.000    0.000    0.000    0.000    0.000    0.000 
#
# Total GULP energy -155985.782271 kJ/mol
# GULP energy per Si atom -5570.920795 kJ/mol
# Density = 2.142259 g / cm^3
# Si number density = 21.471462 Si / 1000 Ang^3
#
#
#
# Elastic Constant Matrix: (Units=GPa)
#
#
# Indices 1 2 3 4 5 6 
#
# 1 38.8995 -2.4766 -5.3162 0.0000 0.0000 0.0000
# 2 -2.4766 85.6627 12.2104 0.0000 0.0000 0.0000
# 3 -5.3162 12.2104 65.4721 0.0000 0.0000 0.0000
# 4 0.0000 0.0000 0.0000 27.6456 0.0000 0.0000
# 5 0.0000 0.0000 0.0000 0.0000 40.5581 0.0000
# 6 0.0000 0.0000 0.0000 0.0000 0.0000 20.0076
#
#
#
# Elastic Compliance Matrix: (Units=1/GPa)
#
#
# Indices 1 2 3 4 5 6 
#
# 1 0.026014 0.000463 0.002026 0.000000 0.000000 0.000000
# 2 0.000463 0.012001 -0.002200 0.000000 0.000000 0.000000
# 3 0.002026 -0.002200 0.015849 0.000000 0.000000 0.000000
# 4 0.000000 0.000000 0.000000 0.036172 0.000000 0.000000
# 5 0.000000 0.000000 0.000000 0.000000 0.024656 0.000000
# 6 0.000000 0.000000 0.000000 0.000000 0.000000 0.049981
#
#
# Mechanical properties :
#
#
# Convention : Reuss Voigt Hill
#
# Bulk Modulus (GPa) = 18.36874 22.09660 20.23267
# Shear Modulus (GPa) = 27.43613 30.01671 28.72642
#
# Velocity S-wave (km/s) = 3.57850 3.74302 3.66168
# Velocity P-wave (km/s) = 5.06436 5.38458 5.22693
#
# Compressibility (1/GPa) = 0.05444031
#
# Stress axis : x y z
#
# Youngs Moduli (GPa) = 38.44135 83.32810 63.09719
#
# Poissons Ratio (x) = -0.03861 -0.12782
# Poissons Ratio (y) = -0.01781 0.13884
# Poissons Ratio (z) = -0.07788 0.18336
#
# Static dielectric constant tensor:
#      x y z
#    x 1.823520 0.000000 0.000000 
#    y 0.000000 1.871240 0.000000 
#    z 0.000000 0.000000 1.780050 
# 
# From -- ./inp_files/2507.got.cif
#   From: 2010.05.17/outbox.cif.g08.bks.cpg/sg29_2_cif.got.tgz:2507.got - 2010.06.04 01:19:37.
