data_PCOD9340004
_publ_section_title
;
Structure prediction by ZEFSAII (Michael W. Deem and Ramdas Pophale) SiO2 
 PCOD9340004
Probable space group: P C A 21
;
_chemical_formula_sum "Si O2"
_cell_formula_units_Z 28
_cell_length_a 28.852814
_cell_length_b 10.364242
_cell_length_c 5.360843
_cell_angle_alpha 90.000000
_cell_angle_beta 90.000000
_cell_angle_gamma 90.000000
_cell_volume 1603.093339
_symmetry_space_group_name_H-M "P C A 21"
_symmetry_group_IT_number 29
_symmetry_cell_setting 'orthorhombic'
loop_
_space_group_symop_operation_xyz
x,y,z
-x,-y,1/2+z
1/2-x,y,1/2+z
1/2+x,-y,z
loop_
_atom_site_type_symbol
_atom_site_label
_atom_site_fract_x
_atom_site_fract_y
_atom_site_fract_z
Si Si1 0.621850 0.019637 0.708640
Si Si2 0.962326 0.386152 0.823575
Si Si3 0.872926 0.852762 0.713534
Si Si4 0.052304 0.750950 0.815405
Si Si5 0.226829 0.930073 0.705556
Si Si6 0.459493 0.321499 0.647810
Si Si7 0.766036 0.777074 0.733191
O O1 0.582158 0.123861 0.759625
O O2 0.672245 0.084764 0.671449
O O3 0.613647 0.934144 0.460860
O O4 0.626424 0.937146 0.961749
O O5 0.941401 0.310713 0.587783
O O6 0.961210 0.537517 0.771623
O O7 0.938523 0.348417 0.086075
O O8 0.015855 0.342925 0.878002
O O9 0.909427 0.739253 0.664621
O O10 0.820370 0.804894 0.751356
O O11 0.996890 0.770968 0.784539
O O12 0.254631 0.878326 0.467862
O O13 0.238583 0.084688 0.716577
O O14 0.753169 0.708670 0.477043
#
# Coordination Sequence:
#
# PCOD9340004 Si02
#       7
#     4   4   4   4   4   4   4
#     4  12  22  34  51  87 122 141 177 216 284 351
#     4  10  20  42  59  73 102 141 200 226 261 307
#     4  12  23  31  57  86 113 144 182 219 286 334
#     4  10  22  37  57  77 110 148 176 228 269 316
#     4  10  16  31  52  70 109 150 178 211 251 327
#     4  10  23  38  62  76 106 143 194 234 266 314
#     4  10  16  33  48  73 112 141 177 216 257 333
#
# _framework density 17.466232000000002
#
# number of rings (size 3 to 8) (size 9 to 14) (size 15 to 20)
#    0.857    0.571    7.143    0.857    2.000    1.143 
#    0.000    0.000    0.000    0.000    0.000    6.000 
#    0.000    0.000    0.000    0.000    0.000    0.000 
#
# Total GULP energy -155869.614893 kJ/mol
# GULP energy per Si atom -5566.771960 kJ/mol
# Density = 1.742648 g / cm^3
# Si number density = 17.466232 Si / 1000 Ang^3
#
#
#
# Elastic Constant Matrix: (Units=GPa)
#
#
# Indices 1 2 3 4 5 6 
#
# 1 89.5008 46.5333 19.9996 0.0000 0.0000 0.0000
# 2 46.5333 39.2557 32.2079 0.0000 0.0000 0.0000
# 3 19.9996 32.2079 155.1123 0.0000 0.0000 0.0000
# 4 0.0000 0.0000 0.0000 12.7708 0.0000 0.0000
# 5 0.0000 0.0000 0.0000 0.0000 19.6982 0.0000
# 6 0.0000 0.0000 0.0000 0.0000 0.0000 -5.8852
#
#
#
# Elastic Compliance Matrix: (Units=1/GPa)
#
#
# Indices 1 2 3 4 5 6 
#
# 1 0.031474 -0.040957 0.004446 0.000000 0.000000 0.000000
# 2 -0.040957 0.084002 -0.012161 0.000000 0.000000 0.000000
# 3 0.004446 -0.012161 0.008399 0.000000 0.000000 0.000000
# 4 0.000000 0.000000 0.000000 0.078304 0.000000 0.000000
# 5 0.000000 0.000000 0.000000 0.000000 0.050766 0.000000
# 6 0.000000 0.000000 0.000000 0.000000 0.000000 -0.169919
#
#
# Mechanical properties :
#
#
# Convention : Reuss Voigt Hill
#
# Bulk Modulus (GPa) = 37.69248 53.48338 45.58793
# Shear Modulus (GPa) = 26.42535 17.65863 22.04199
#
# Velocity S-wave (km/s) = 3.89387 3.18310 3.55629
# Velocity P-wave (km/s) = 6.46864 6.64808 6.55898
#
# Compressibility (1/GPa) = 0.02653049
#
# Stress axis : x y z
#
# Youngs Moduli (GPa) = 31.77258 11.90454 119.06317
#
# Poissons Ratio (x) = 0.48757 -0.52938
# Poissons Ratio (y) = 1.30129 1.44799
# Poissons Ratio (z) = -0.14127 0.14478
#
# Static dielectric constant tensor:
#      x y z
#    x 1.598660 0.000000 0.000000 
#    y 0.000000 1.562470 0.000000 
#    z 0.000000 0.000000 1.687830 
# 
# From -- ./inp_files/885.got.cif
#   From: 2010.05.17/outbox.cif.g08.bks.cpg/sg29_1_cif.got.tgz:885.got - 2010.06.04 01:19:37.
