data_PCOD9340375
_publ_section_title
;
Structure prediction by ZEFSAII (Michael W. Deem and Ramdas Pophale) SiO2 
 PCOD9340375
Probable space group: P C A 21
;
_chemical_formula_sum "Si O2"
_cell_formula_units_Z 32
_cell_length_a 15.616636
_cell_length_b 8.203530
_cell_length_c 11.351769
_cell_angle_alpha 90.000000
_cell_angle_beta 90.000000
_cell_angle_gamma 90.000000
_cell_volume 1454.292630
_symmetry_space_group_name_H-M "P C A 21"
_symmetry_group_IT_number 29
_symmetry_cell_setting 'orthorhombic'
loop_
_space_group_symop_operation_xyz
x,y,z
-x,-y,1/2+z
1/2-x,y,1/2+z
1/2+x,-y,z
loop_
_atom_site_type_symbol
_atom_site_label
_atom_site_fract_x
_atom_site_fract_y
_atom_site_fract_z
Si Si1 0.064850 0.883460 0.678400
Si Si2 0.111310 0.543122 0.275066
Si Si3 0.848244 0.183657 0.957457
Si Si4 0.147768 0.337879 0.949452
Si Si5 0.233263 0.550156 0.600028
Si Si6 0.931298 0.505300 0.225176
Si Si7 0.111773 0.196016 0.198874
Si Si8 0.772607 0.954183 0.301528
O O1 0.081665 0.905875 0.538472
O O2 0.066384 0.690434 0.711113
O O3 0.967381 0.927701 0.714128
O O4 0.142644 0.967553 0.745798
O O5 0.112268 0.666032 0.383787
O O6 0.198991 0.566598 0.204687
O O7 0.108109 0.346499 0.292217
O O8 0.025175 0.575399 0.198916
O O9 0.787696 0.075034 0.876664
O O10 0.790193 0.271709 0.055469
O O11 0.089605 0.434781 0.856798
O O12 0.191898 0.188581 0.883773
O O13 0.221347 0.458169 0.994208
O O14 0.102631 0.274968 0.068704
O O15 0.149782 0.452191 0.644065
O O16 0.205492 0.118770 0.207346
#
# Coordination Sequence:
#
# PCOD9340375 Si02
#       8
#     4   4   4   4   4   4   4   4
#     4  10  23  41  60  87 120 153 196 245 290 345
#     4  10  21  39  64  89 114 150 198 248 294 342
#     4  11  21  38  62  87 118 158 193 238 293 347
#     4  11  21  38  62  87 118 158 193 238 293 347
#     4  10  20  38  60  90 120 150 194 246 292 346
#     4  10  21  39  64  89 114 150 198 248 294 342
#     4  10  23  41  60  87 120 153 196 245 290 345
#     4  12  24  40  58  86 124 162 194 234 288 352
#
# _framework density 22.003826
#
# number of rings (size 3 to 8) (size 9 to 14) (size 15 to 20)
#    0.000    1.500    0.000    6.750    0.000    3.000 
#    0.000    1.250    0.000    0.000    0.000    0.000 
#    0.000    0.000    0.000    0.000    0.000    0.000 
#
# Total GULP energy -178653.127246 kJ/mol
# GULP energy per Si atom -5582.910226 kJ/mol
# Density = 2.195374 g / cm^3
# Si number density = 22.003826 Si / 1000 Ang^3
#
#
#
# Elastic Constant Matrix: (Units=GPa)
#
#
# Indices 1 2 3 4 5 6 
#
# 1 106.3810 0.1733 7.3606 0.0000 0.0000 0.0000
# 2 0.1733 15.7699 7.3718 0.0000 0.0000 0.0000
# 3 7.3606 7.3718 54.7792 0.0000 0.0000 0.0000
# 4 0.0000 0.0000 0.0000 17.5230 0.0000 0.0000
# 5 0.0000 0.0000 0.0000 0.0000 21.3911 0.0000
# 6 0.0000 0.0000 0.0000 0.0000 0.0000 18.9894
#
#
#
# Elastic Compliance Matrix: (Units=1/GPa)
#
#
# Indices 1 2 3 4 5 6 
#
# 1 0.009492 0.000525 -0.001346 0.000000 0.000000 0.000000
# 2 0.000525 0.067698 -0.009181 0.000000 0.000000 0.000000
# 3 -0.001346 -0.009181 0.019671 0.000000 0.000000 0.000000
# 4 0.000000 0.000000 0.000000 0.057068 0.000000 0.000000
# 5 0.000000 0.000000 0.000000 0.000000 0.046748 0.000000
# 6 0.000000 0.000000 0.000000 0.000000 0.000000 0.052661
#
#
# Mechanical properties :
#
#
# Convention : Reuss Voigt Hill
#
# Bulk Modulus (GPa) = 13.01103 22.97127 17.99115
# Shear Modulus (GPa) = 16.72451 22.38235 19.55343
#
# Velocity S-wave (km/s) = 2.75993 3.19282 2.98424
# Velocity P-wave (km/s) = 4.01026 4.90454 4.47977
#
# Compressibility (1/GPa) = 0.07685788
#
# Stress axis : x y z
#
# Youngs Moduli (GPa) = 105.34682 14.77147 50.83502
#
# Poissons Ratio (x) = -0.00775 0.06843
# Poissons Ratio (y) = -0.05530 0.46671
# Poissons Ratio (z) = 0.14181 0.13562
#
# Static dielectric constant tensor:
#      x y z
#    x 1.899880 0.000000 0.000000 
#    y 0.000000 1.824680 0.000000 
#    z 0.000000 0.000000 1.824690 
# 
# From -- ./inp_files/3520.got.cif
#   From: 2010.05.17/outbox.cif.g08.bks.cpg/sg29_2_cif.got.tgz:3520.got - 2010.06.04 01:19:37.
