data_PCOD9340081
_publ_section_title
;
Structure prediction by ZEFSAII (Michael W. Deem and Ramdas Pophale) SiO2 
 PCOD9340081
Probable space group: P C A 21
;
_chemical_formula_sum "Si O2"
_cell_formula_units_Z 20
_cell_length_a 15.248289
_cell_length_b 10.764089
_cell_length_c 5.227870
_cell_angle_alpha 90.000000
_cell_angle_beta 90.000000
_cell_angle_gamma 90.000000
_cell_volume 858.070900
_symmetry_space_group_name_H-M "P C A 21"
_symmetry_group_IT_number 29
_symmetry_cell_setting 'orthorhombic'
loop_
_space_group_symop_operation_xyz
x,y,z
-x,-y,1/2+z
1/2-x,y,1/2+z
1/2+x,-y,z
loop_
_atom_site_type_symbol
_atom_site_label
_atom_site_fract_x
_atom_site_fract_y
_atom_site_fract_z
Si Si1 0.308908 0.996835 0.775760
Si Si2 0.307045 0.715937 0.823679
Si Si3 0.021321 0.577371 0.157450
Si Si4 0.723857 0.604554 0.120254
Si Si5 0.384470 0.244095 0.938998
O O1 0.267457 0.010340 0.492666
O O2 0.378462 0.103842 0.847199
O O3 0.344195 0.857117 0.798520
O O4 0.231095 0.709799 0.609090
O O5 0.264933 0.465942 0.359447
O O6 0.116835 0.619531 0.251726
O O7 0.019820 0.502956 0.888605
O O8 0.964469 0.701072 0.095601
O O9 0.794713 0.718048 0.089779
O O10 0.632621 0.665608 0.193718
#
# Coordination Sequence:
#
# PCOD9340081 Si02
#       5
#     4   4   4   4   4
#     4  10  18  36  70 100 132 169 215 282 348 431
#     4  10  23  49  69  97 139 188 230 275 369 439
#     4  12  29  47  66 100 143 190 246 300 329 409
#     4   8  16  30  56  92 123 157 199 270 338 397
#     4  10  20  38  65  99 135 162 232 279 360 384
#
# _framework density 23.308098000000001
#
# number of rings (size 3 to 8) (size 9 to 14) (size 15 to 20)
#    1.200    0.800    2.000    1.200    2.800    0.000 
#   10.800    8.000    0.000    0.000    0.000    0.000 
#    0.000    0.000    0.000    0.000    0.000    0.000 
#
# Total GULP energy -111629.984630 kJ/mol
# GULP energy per Si atom -5581.499232 kJ/mol
# Density = 2.325505 g / cm^3
# Si number density = 23.308098 Si / 1000 Ang^3
#
#
#
# Elastic Constant Matrix: (Units=GPa)
#
#
# Indices 1 2 3 4 5 6 
#
# 1 85.9066 26.8761 12.8831 0.0000 0.0000 0.0000
# 2 26.8761 139.4478 25.8631 0.0000 0.0000 0.0000
# 3 12.8831 25.8631 143.4920 0.0000 0.0000 0.0000
# 4 0.0000 0.0000 0.0000 36.2410 0.0000 0.0000
# 5 0.0000 0.0000 0.0000 0.0000 33.7852 0.0000
# 6 0.0000 0.0000 0.0000 0.0000 0.0000 33.9437
#
#
#
# Elastic Compliance Matrix: (Units=1/GPa)
#
#
# Indices 1 2 3 4 5 6 
#
# 1 0.012457 -0.002269 -0.000709 0.000000 0.000000 0.000000
# 2 -0.002269 0.007833 -0.001208 0.000000 0.000000 0.000000
# 3 -0.000709 -0.001208 0.007250 0.000000 0.000000 0.000000
# 4 0.000000 0.000000 0.000000 0.027593 0.000000 0.000000
# 5 0.000000 0.000000 0.000000 0.000000 0.029599 0.000000
# 6 0.000000 0.000000 0.000000 0.000000 0.000000 0.029461
#
#
# Mechanical properties :
#
#
# Convention : Reuss Voigt Hill
#
# Bulk Modulus (GPa) = 52.17427 55.56568 53.86998
# Shear Modulus (GPa) = 38.77336 41.00890 39.89113
#
# Velocity S-wave (km/s) = 4.08305 4.19910 4.14148
# Velocity P-wave (km/s) = 6.68293 6.88486 6.78465
#
# Compressibility (1/GPa) = 0.01916654
#
# Stress axis : x y z
#
# Youngs Moduli (GPa) = 80.27686 127.67235 137.92242
#
# Poissons Ratio (x) = 0.28972 0.09784
# Poissons Ratio (y) = 0.18217 0.16661
# Poissons Ratio (z) = 0.05695 0.15423
#
# Static dielectric constant tensor:
#      x y z
#    x 1.856710 0.000000 0.000000 
#    y 0.000000 1.941430 0.000000 
#    z 0.000000 0.000000 1.957580 
# 
# From -- ./inp_files/371.got.cif
#   From: 2010.05.17/outbox.cif.g08.bks.cpg/sg29_1_cif.got.tgz:371.got - 2010.06.04 01:19:37.
