data_PCOD9340383
_publ_section_title
;
Structure prediction by ZEFSAII (Michael W. Deem and Ramdas Pophale) SiO2 
 PCOD9340383
Probable space group: P C A 21
;
_chemical_formula_sum "Si O2"
_cell_formula_units_Z 28
_cell_length_a 14.423572
_cell_length_b 15.568922
_cell_length_c 5.334932
_cell_angle_alpha 90.000000
_cell_angle_beta 90.000000
_cell_angle_gamma 90.000000
_cell_volume 1198.009489
_symmetry_space_group_name_H-M "P C A 21"
_symmetry_group_IT_number 29
_symmetry_cell_setting 'orthorhombic'
loop_
_space_group_symop_operation_xyz
x,y,z
-x,-y,1/2+z
1/2-x,y,1/2+z
1/2+x,-y,z
loop_
_atom_site_type_symbol
_atom_site_label
_atom_site_fract_x
_atom_site_fract_y
_atom_site_fract_z
Si Si1 0.935203 0.225106 0.982500
Si Si2 0.301361 0.363416 0.472769
Si Si3 0.755833 0.346130 0.944486
Si Si4 0.052567 0.710480 0.985240
Si Si5 0.479610 0.456502 0.255620
Si Si6 0.693505 0.842173 0.950918
Si Si7 0.994595 0.945405 0.570317
O O1 0.978256 0.225651 0.704235
O O2 0.925048 0.127382 0.065630
O O3 0.843443 0.283199 0.946122
O O4 0.988451 0.270634 0.213197
O O5 0.279105 0.379957 0.764812
O O6 0.385347 0.419314 0.367515
O O7 0.320231 0.261094 0.451960
O O8 0.750677 0.399965 0.194708
O O9 0.663541 0.287401 0.945030
O O10 0.030615 0.618526 0.100584
O O11 0.533618 0.478947 0.517330
O O12 0.734782 0.863042 0.676815
O O13 0.599725 0.892919 0.013875
O O14 0.990926 0.989873 0.840010
#
# Coordination Sequence:
#
# PCOD9340383 Si02
#       7
#     4   4   4   4   4   4   4
#     4  10  20  38  62  86 117 162 213 254 300 381
#     4  10  22  43  69  93 124 173 231 279 320 388
#     4   8  16  32  54  82 110 144 200 246 288 350
#     4  10  20  38  62  86 117 162 213 254 300 381
#     4  12  25  41  63  98 137 169 207 270 347 403
#     4  10  22  43  69  93 124 173 231 279 320 388
#     4  12  25  41  63  98 137 169 207 270 347 403
#
# _framework density 23.372104
#
# number of rings (size 3 to 8) (size 9 to 14) (size 15 to 20)
#    0.000    1.714    0.000    4.286    0.000    3.429 
#    0.000   25.714    0.000    0.000    0.000    0.000 
#    0.000    0.000    0.000    0.000    0.000    0.000 
#
# Total GULP energy -156211.034594 kJ/mol
# GULP energy per Si atom -5578.965521 kJ/mol
# Density = 2.331891 g / cm^3
# Si number density = 23.372104 Si / 1000 Ang^3
#
#
#
# Elastic Constant Matrix: (Units=GPa)
#
#
# Indices 1 2 3 4 5 6 
#
# 1 64.9340 10.2124 8.6686 0.0000 0.0000 0.0000
# 2 10.2124 56.8371 0.5781 0.0000 0.0000 0.0000
# 3 8.6686 0.5781 170.2152 0.0000 0.0000 0.0000
# 4 0.0000 0.0000 0.0000 21.9244 0.0000 0.0000
# 5 0.0000 0.0000 0.0000 0.0000 31.6670 0.0000
# 6 0.0000 0.0000 0.0000 0.0000 0.0000 24.6626
#
#
#
# Elastic Compliance Matrix: (Units=1/GPa)
#
#
# Indices 1 2 3 4 5 6 
#
# 1 0.015957 -0.002859 -0.000803 0.000000 0.000000 0.000000
# 2 -0.002859 0.018107 0.000084 0.000000 0.000000 0.000000
# 3 -0.000803 0.000084 0.005916 0.000000 0.000000 0.000000
# 4 0.000000 0.000000 0.000000 0.045611 0.000000 0.000000
# 5 0.000000 0.000000 0.000000 0.000000 0.031579 0.000000
# 6 0.000000 0.000000 0.000000 0.000000 0.000000 0.040547
#
#
# Mechanical properties :
#
#
# Convention : Reuss Voigt Hill
#
# Bulk Modulus (GPa) = 30.46554 36.76716 33.61635
# Shear Modulus (GPa) = 28.43920 33.81927 31.12924
#
# Velocity S-wave (km/s) = 3.49205 3.80806 3.65348
# Velocity P-wave (km/s) = 5.41503 5.92457 5.67552
#
# Compressibility (1/GPa) = 0.03282397
#
# Stress axis : x y z
#
# Youngs Moduli (GPa) = 62.66806 55.22736 169.04682
#
# Poissons Ratio (x) = 0.15789 0.13573
# Poissons Ratio (y) = 0.17917 -0.01422
# Poissons Ratio (z) = 0.05032 -0.00464
#
# Static dielectric constant tensor:
#      x y z
#    x 1.934240 0.000000 0.000000 
#    y 0.000000 1.986110 0.000000 
#    z 0.000000 0.000000 2.012360 
# 
# From -- ./inp_files/241.got.cif
#   From: 2010.05.17/outbox.cif.g08.bks.cpg/sg29_1_cif.got.tgz:241.got - 2010.06.04 01:19:37.
