data_PCOD9340146
_publ_section_title
;
Structure prediction by ZEFSAII (Michael W. Deem and Ramdas Pophale) SiO2 
 PCOD9340146
Probable space group: P C A 21
;
_chemical_formula_sum "Si O2"
_cell_formula_units_Z 28
_cell_length_a 16.270203
_cell_length_b 8.103101
_cell_length_c 8.962380
_cell_angle_alpha 90.000000
_cell_angle_beta 90.000000
_cell_angle_gamma 90.000000
_cell_volume 1181.592097
_symmetry_space_group_name_H-M "P C A 21"
_symmetry_group_IT_number 29
_symmetry_cell_setting 'orthorhombic'
loop_
_space_group_symop_operation_xyz
x,y,z
-x,-y,1/2+z
1/2-x,y,1/2+z
1/2+x,-y,z
loop_
_atom_site_type_symbol
_atom_site_label
_atom_site_fract_x
_atom_site_fract_y
_atom_site_fract_z
Si Si1 0.824994 0.230896 0.527980
Si Si2 0.626654 0.520932 0.547055
Si Si3 0.759846 0.433835 0.777995
Si Si4 0.749206 0.918139 0.684193
Si Si5 0.638274 0.836547 0.435639
Si Si6 0.420187 0.999365 0.347386
Si Si7 0.956313 0.159901 0.040552
O O1 0.774453 0.093274 0.616654
O O2 0.906062 0.141009 0.472260
O O3 0.821488 0.378832 0.645770
O O4 0.779434 0.287470 0.377613
O O5 0.682255 0.518391 0.696615
O O6 0.686503 0.519998 0.403191
O O7 0.581149 0.692771 0.507203
O O8 0.579213 0.345406 0.546633
O O9 0.718004 0.819890 0.542007
O O10 0.826311 0.840648 0.769287
O O11 0.668736 0.942765 0.787457
O O12 0.603344 0.020395 0.466915
O O13 0.466146 0.146592 0.431194
O O14 0.466439 0.913007 0.208070
#
# Coordination Sequence:
#
# PCOD9340146 Si02
#       7
#     4   4   4   4   4   4   4
#     4  11  17  36  66  96 121 163 218 268 323 380
#     4  11  22  41  63  97 133 168 220 275 329 391
#     4  10  19  33  63  95 122 161 215 278 325 372
#     4  11  20  38  67 100 124 170 224 282 317 387
#     4  11  23  40  67  96 133 169 223 274 328 387
#     4  11  23  40  65  97 129 174 220 259 329 388
#     4  11  26  42  63  95 132 181 210 264 331 405
#
# _framework density 23.696842
#
# number of rings (size 3 to 8) (size 9 to 14) (size 15 to 20)
#    0.000    1.143    4.286    4.286    4.000    0.000 
#    0.000    2.857    0.000    0.000    0.000    0.000 
#    0.000    0.000    0.000    0.000    0.000    0.000 
#
# Total GULP energy -156174.746755 kJ/mol
# GULP energy per Si atom -5577.669527 kJ/mol
# Density = 2.364291 g / cm^3
# Si number density = 23.696842 Si / 1000 Ang^3
#
#
#
# Elastic Constant Matrix: (Units=GPa)
#
#
# Indices 1 2 3 4 5 6 
#
# 1 48.3153 2.5080 30.1954 0.0000 0.0000 0.0000
# 2 2.5080 62.6586 11.8726 0.0000 0.0000 0.0000
# 3 30.1954 11.8726 113.7988 0.0000 0.0000 0.0000
# 4 0.0000 0.0000 0.0000 31.9145 0.0000 0.0000
# 5 0.0000 0.0000 0.0000 0.0000 28.7227 0.0000
# 6 0.0000 0.0000 0.0000 0.0000 0.0000 15.6115
#
#
#
# Elastic Compliance Matrix: (Units=1/GPa)
#
#
# Indices 1 2 3 4 5 6 
#
# 1 0.024816 0.000259 -0.006612 0.000000 0.000000 0.000000
# 2 0.000259 0.016284 -0.001768 0.000000 0.000000 0.000000
# 3 -0.006612 -0.001768 0.010726 0.000000 0.000000 0.000000
# 4 0.000000 0.000000 0.000000 0.031334 0.000000 0.000000
# 5 0.000000 0.000000 0.000000 0.000000 0.034816 0.000000
# 6 0.000000 0.000000 0.000000 0.000000 0.000000 0.064055
#
#
# Mechanical properties :
#
#
# Convention : Reuss Voigt Hill
#
# Bulk Modulus (GPa) = 28.10074 34.88054 31.49064
# Shear Modulus (GPa) = 23.79440 27.26283 25.52862
#
# Velocity S-wave (km/s) = 3.17222 3.39556 3.28579
# Velocity P-wave (km/s) = 5.03006 5.48858 5.26431
#
# Compressibility (1/GPa) = 0.03558625
#
# Stress axis : x y z
#
# Youngs Moduli (GPa) = 40.29653 61.40967 93.22926
#
# Poissons Ratio (x) = -0.01594 0.61641
# Poissons Ratio (y) = -0.01046 0.16481
# Poissons Ratio (z) = 0.26643 0.10856
#
# Static dielectric constant tensor:
#      x y z
#    x 1.972210 0.000000 0.000000 
#    y 0.000000 2.180400 0.000000 
#    z 0.000000 0.000000 1.895890 
# 
# From -- ./inp_files/2129.got.cif
#   From: 2010.05.17/outbox.cif.g08.bks.cpg/sg29_2_cif.got.tgz:2129.got - 2010.06.04 01:19:37.
