data_PCOD9340232
_publ_section_title
;
Structure prediction by ZEFSAII (Michael W. Deem and Ramdas Pophale) SiO2 
 PCOD9340232
Probable space group: P C A 21
;
_chemical_formula_sum "Si O2"
_cell_formula_units_Z 32
_cell_length_a 17.179959
_cell_length_b 8.173677
_cell_length_c 10.229709
_cell_angle_alpha 90.000000
_cell_angle_beta 90.000000
_cell_angle_gamma 90.000000
_cell_volume 1436.490884
_symmetry_space_group_name_H-M "P C A 21"
_symmetry_group_IT_number 29
_symmetry_cell_setting 'orthorhombic'
loop_
_space_group_symop_operation_xyz
x,y,z
-x,-y,1/2+z
1/2-x,y,1/2+z
1/2+x,-y,z
loop_
_atom_site_type_symbol
_atom_site_label
_atom_site_fract_x
_atom_site_fract_y
_atom_site_fract_z
Si Si1 0.270485 0.087076 0.820830
Si Si2 0.339131 0.735975 0.848367
Si Si3 0.469389 0.341658 0.987041
Si Si4 0.931349 0.312317 0.109233
Si Si5 0.222451 0.581098 0.689781
Si Si6 0.910084 0.703387 0.703996
Si Si7 0.319108 0.216855 0.094378
Si Si8 0.626340 0.363566 0.085588
O O1 0.342027 0.173058 0.742234
O O2 0.198416 0.113525 0.723850
O O3 0.289133 0.898337 0.836759
O O4 0.269749 0.165051 0.966048
O O5 0.278477 0.586788 0.816732
O O6 0.395859 0.721544 0.723339
O O7 0.388792 0.741519 0.977632
O O8 0.438195 0.375302 0.841743
O O9 0.459863 0.503027 0.075953
O O10 0.408909 0.212601 0.047854
O O11 0.561065 0.305415 0.986350
O O12 0.859000 0.327908 0.208127
O O13 0.009918 0.220882 0.148164
O O14 0.201918 0.402036 0.637646
O O15 0.280741 0.668034 0.584224
O O16 0.879691 0.559938 0.608640
#
# Coordination Sequence:
#
# PCOD9340232 Si02
#       8
#     4   4   4   4   4   4   4   4
#     4  11  23  42  61  91 130 169 204 269 322 392
#     4  10  22  39  60  87 130 156 203 263 318 378
#     4   9  18  37  62  89 117 155 216 266 292 375
#     4  10  20  36  62  91 114 166 201 258 315 369
#     4   9  20  37  63  87 120 155 214 261 308 369
#     4  10  19  39  59  84 123 159 210 248 314 376
#     4  10  22  41  64  89 123 167 215 263 319 379
#     4   9  18  37  59  84 121 153 205 258 312 352
#
# _framework density 22.276509000000001
#
# number of rings (size 3 to 8) (size 9 to 14) (size 15 to 20)
#    0.750    1.500    2.500    0.000    5.250    1.000 
#   11.250    0.000    0.000    0.000    0.000    0.000 
#    0.000    0.000    0.000    0.000    0.000    0.000 
#
# Total GULP energy -178202.829002 kJ/mol
# GULP energy per Si atom -5568.838406 kJ/mol
# Density = 2.222581 g / cm^3
# Si number density = 22.276509 Si / 1000 Ang^3
#
#
#
# Elastic Constant Matrix: (Units=GPa)
#
#
# Indices 1 2 3 4 5 6 
#
# 1 68.4161 5.2676 17.0058 0.0000 0.0000 0.0000
# 2 5.2676 44.9032 12.7434 0.0000 0.0000 0.0000
# 3 17.0058 12.7434 62.6410 0.0000 0.0000 0.0000
# 4 0.0000 0.0000 0.0000 8.7478 0.0000 0.0000
# 5 0.0000 0.0000 0.0000 0.0000 45.1074 0.0000
# 6 0.0000 0.0000 0.0000 0.0000 0.0000 9.6645
#
#
#
# Elastic Compliance Matrix: (Units=1/GPa)
#
#
# Indices 1 2 3 4 5 6 
#
# 1 0.015693 -0.000671 -0.004124 0.000000 0.000000 0.000000
# 2 -0.000671 0.023663 -0.004632 0.000000 0.000000 0.000000
# 3 -0.004124 -0.004632 0.018026 0.000000 0.000000 0.000000
# 4 0.000000 0.000000 0.000000 0.114315 0.000000 0.000000
# 5 0.000000 0.000000 0.000000 0.000000 0.022169 0.000000
# 6 0.000000 0.000000 0.000000 0.000000 0.000000 0.103471
#
#
# Mechanical properties :
#
#
# Convention : Reuss Voigt Hill
#
# Bulk Modulus (GPa) = 25.95423 27.33268 26.64345
# Shear Modulus (GPa) = 15.19600 22.10017 18.64808
#
# Velocity S-wave (km/s) = 2.61464 3.15315 2.89644
# Velocity P-wave (km/s) = 4.55975 5.05498 4.81374
#
# Compressibility (1/GPa) = 0.03852937
#
# Stress axis : x y z
#
# Youngs Moduli (GPa) = 63.72209 42.25954 55.47587
#
# Poissons Ratio (x) = 0.02834 0.22878
# Poissons Ratio (y) = 0.04273 0.25696
# Poissons Ratio (z) = 0.26279 0.19574
#
# Static dielectric constant tensor:
#      x y z
#    x 1.916910 0.000000 0.000000 
#    y 0.000000 1.831550 0.000000 
#    z 0.000000 0.000000 1.915170 
# 
# From -- ./inp_files/3705.got.cif
#   From: 2010.05.17/outbox.cif.g08.bks.cpg/sg29_2_cif.got.tgz:3705.got - 2010.06.04 01:19:37.
