data_PCOD9340368
_publ_section_title
;
Structure prediction by ZEFSAII (Michael W. Deem and Ramdas Pophale) SiO2 
 PCOD9340368
Probable space group: P C A 21
;
_chemical_formula_sum "Si O2"
_cell_formula_units_Z 28
_cell_length_a 11.381503
_cell_length_b 9.667272
_cell_length_c 11.724401
_cell_angle_alpha 90.000000
_cell_angle_beta 90.000000
_cell_angle_gamma 90.000000
_cell_volume 1290.013393
_symmetry_space_group_name_H-M "P C A 21"
_symmetry_group_IT_number 29
_symmetry_cell_setting 'orthorhombic'
loop_
_space_group_symop_operation_xyz
x,y,z
-x,-y,1/2+z
1/2-x,y,1/2+z
1/2+x,-y,z
loop_
_atom_site_type_symbol
_atom_site_label
_atom_site_fract_x
_atom_site_fract_y
_atom_site_fract_z
Si Si1 0.878664 0.837296 0.304500
Si Si2 0.461155 0.565246 0.127396
Si Si3 0.074442 0.867333 0.881962
Si Si4 0.081334 0.897058 0.136445
Si Si5 0.528932 0.417906 0.365742
Si Si6 0.371977 0.190096 0.712858
Si Si7 0.252178 0.677189 0.248629
O O1 0.959990 0.729086 0.373123
O O2 0.756828 0.774350 0.259499
O O3 0.956682 0.886358 0.197743
O O4 0.863207 0.983495 0.368089
O O5 0.478433 0.475071 0.243840
O O6 0.554751 0.689377 0.150933
O O7 0.324542 0.609813 0.144367
O O8 0.479722 0.518566 0.994651
O O9 0.149478 0.748727 0.824167
O O10 0.949161 0.861774 0.820435
O O11 0.063417 0.838607 0.012786
O O12 0.171305 0.799518 0.201666
O O13 0.130111 0.052710 0.135882
O O14 0.666309 0.409571 0.330200
#
# Coordination Sequence:
#
# PCOD9340368 Si02
#       7
#     4   4   4   4   4   4   4
#     4  10  22  41  61  98 130 164 214 265 325 390
#     4  11  26  45  68  96 131 177 227 274 325 389
#     4  10  20  37  65  95 130 168 204 258 329 392
#     4  10  20  37  65  95 130 168 204 258 329 392
#     4  11  26  45  68  96 131 177 227 274 325 389
#     4  10  22  41  61  98 130 164 214 265 325 390
#     4  10  22  44  66  94 132 166 218 264 332 390
#
# _framework density 21.705200999999999
#
# number of rings (size 3 to 8) (size 9 to 14) (size 15 to 20)
#    0.000    1.714    1.429    1.714    2.000    8.000 
#    0.000    0.000    0.000    0.000    0.000    0.000 
#    0.000    0.000    0.000    0.000    0.000    0.000 
#
# Total GULP energy -156050.316501 kJ/mol
# GULP energy per Si atom -5573.225589 kJ/mol
# Density = 2.165580 g / cm^3
# Si number density = 21.705201 Si / 1000 Ang^3
#
#
#
# Elastic Constant Matrix: (Units=GPa)
#
#
# Indices 1 2 3 4 5 6 
#
# 1 106.3038 -5.7949 8.1859 0.0000 0.0000 0.0000
# 2 -5.7949 28.5668 -3.5803 0.0000 0.0000 0.0000
# 3 8.1859 -3.5803 107.5790 0.0000 0.0000 0.0000
# 4 0.0000 0.0000 0.0000 10.6499 0.0000 0.0000
# 5 0.0000 0.0000 0.0000 0.0000 12.2605 0.0000
# 6 0.0000 0.0000 0.0000 0.0000 0.0000 20.7091
#
#
#
# Elastic Compliance Matrix: (Units=1/GPa)
#
#
# Indices 1 2 3 4 5 6 
#
# 1 0.009559 0.001856 -0.000666 0.000000 0.000000 0.000000
# 2 0.001856 0.035513 0.001041 0.000000 0.000000 0.000000
# 3 -0.000666 0.001041 0.009381 0.000000 0.000000 0.000000
# 4 0.000000 0.000000 0.000000 0.093897 0.000000 0.000000
# 5 0.000000 0.000000 0.000000 0.000000 0.081563 0.000000
# 6 0.000000 0.000000 0.000000 0.000000 0.000000 0.048288
#
#
# Mechanical properties :
#
#
# Convention : Reuss Voigt Hill
#
# Bulk Modulus (GPa) = 16.97378 26.67454 21.82416
# Shear Modulus (GPa) = 17.04288 24.96650 21.00469
#
# Velocity S-wave (km/s) = 2.80518 3.39522 3.11420
# Velocity P-wave (km/s) = 4.28126 5.26176 4.79663
#
# Compressibility (1/GPa) = 0.05891440
#
# Stress axis : x y z
#
# Youngs Moduli (GPa) = 104.60887 28.15903 106.60099
#
# Poissons Ratio (x) = -0.05226 0.07096
# Poissons Ratio (y) = -0.19413 -0.11094
# Poissons Ratio (z) = 0.06963 -0.02930
#
# Static dielectric constant tensor:
#      x y z
#    x 1.794650 0.000000 0.000000 
#    y 0.000000 1.893150 0.000000 
#    z 0.000000 0.000000 1.811310 
# 
# From -- ./inp_files/3179.got.cif
#   From: 2010.05.17/outbox.cif.g08.bks.cpg/sg29_2_cif.got.tgz:3179.got - 2010.06.04 01:19:37.
