data_PCOD9340587
_publ_section_title
;
Structure prediction by ZEFSAII (Michael W. Deem and Ramdas Pophale) SiO2 
 PCOD9340587
Probable space group: P C A 21
;
_chemical_formula_sum "Si O2"
_cell_formula_units_Z 28
_cell_length_a 5.020413
_cell_length_b 15.738788
_cell_length_c 14.112095
_cell_angle_alpha 90.000000
_cell_angle_beta 90.000000
_cell_angle_gamma 90.000000
_cell_volume 1115.070233
_symmetry_space_group_name_H-M "P C A 21"
_symmetry_group_IT_number 29
_symmetry_cell_setting 'orthorhombic'
loop_
_space_group_symop_operation_xyz
x,y,z
-x,-y,1/2+z
1/2-x,y,1/2+z
1/2+x,-y,z
loop_
_atom_site_type_symbol
_atom_site_label
_atom_site_fract_x
_atom_site_fract_y
_atom_site_fract_z
Si Si1 0.661998 0.944142 0.053490
Si Si2 0.377674 0.358765 0.608605
Si Si3 0.747445 0.547835 0.433222
Si Si4 0.108967 0.747646 0.064345
Si Si5 0.895008 0.168523 0.895284
Si Si6 0.875145 0.145300 0.221359
Si Si7 0.204425 0.300370 0.307853
O O1 0.581229 0.906845 0.156923
O O2 0.961310 0.976072 0.044777
O O3 0.586336 0.881528 0.967557
O O4 0.283773 0.437475 0.545504
O O5 0.680925 0.329495 0.586497
O O6 0.293210 0.363947 0.717640
O O7 0.193154 0.280658 0.573591
O O8 0.545338 0.474884 0.402697
O O9 0.138166 0.364355 0.392119
O O10 0.170243 0.816579 0.145243
O O11 0.776059 0.107997 0.812765
O O12 0.679094 0.210624 0.964744
O O13 0.041235 0.246861 0.842520
O O14 0.015406 0.226723 0.268860
#
# Coordination Sequence:
#
# PCOD9340587 Si02
#       7
#     4   4   4   4   4   4   4
#     4  11  29  49  69 107 154 186 228 293 367 432
#     4  11  22  42  67  95 139 175 230 289 351 416
#     4  12  28  45  68 102 148 190 228 302 371 417
#     4  10  21  38  67 101 131 171 231 296 335 406
#     4  11  23  42  75 102 134 189 240 294 347 420
#     4  10  24  42  74 105 139 186 242 292 350 417
#     4  11  25  44  76 106 137 187 261 290 343 436
#
# _framework density 25.110527999999999
#
# number of rings (size 3 to 8) (size 9 to 14) (size 15 to 20)
#    0.000    1.143    2.857    1.714    6.000    4.571 
#    0.000    0.000    0.000    0.000    0.000    0.000 
#    0.000    0.000    0.000    0.000    0.000    0.000 
#
# Total GULP energy -156628.456807 kJ/mol
# GULP energy per Si atom -5593.873457 kJ/mol
# Density = 2.505338 g / cm^3
# Si number density = 25.110528 Si / 1000 Ang^3
#
#
#
# Elastic Constant Matrix: (Units=GPa)
#
#
# Indices 1 2 3 4 5 6 
#
# 1 73.1324 20.7467 5.5804 0.0000 0.0000 0.0000
# 2 20.7467 45.3136 5.3168 0.0000 0.0000 0.0000
# 3 5.5804 5.3168 146.6064 0.0000 0.0000 0.0000
# 4 0.0000 0.0000 0.0000 27.0794 0.0000 0.0000
# 5 0.0000 0.0000 0.0000 0.0000 22.6756 0.0000
# 6 0.0000 0.0000 0.0000 0.0000 0.0000 44.7922
#
#
#
# Elastic Compliance Matrix: (Units=1/GPa)
#
#
# Indices 1 2 3 4 5 6 
#
# 1 0.015732 -0.007163 -0.000339 0.000000 0.000000 0.000000
# 2 -0.007163 0.025424 -0.000649 0.000000 0.000000 0.000000
# 3 -0.000339 -0.000649 0.006857 0.000000 0.000000 0.000000
# 4 0.000000 0.000000 0.000000 0.036928 0.000000 0.000000
# 5 0.000000 0.000000 0.000000 0.000000 0.044100 0.000000
# 6 0.000000 0.000000 0.000000 0.000000 0.000000 0.022325
#
#
# Mechanical properties :
#
#
# Convention : Reuss Voigt Hill
#
# Bulk Modulus (GPa) = 31.53521 36.48225 34.00873
# Shear Modulus (GPa) = 28.05199 34.46998 31.26099
#
# Velocity S-wave (km/s) = 3.34599 3.70906 3.53219
# Velocity P-wave (km/s) = 5.24532 5.73611 5.49620
#
# Compressibility (1/GPa) = 0.03171059
#
# Stress axis : x y z
#
# Youngs Moduli (GPa) = 63.56575 39.33265 145.82699
#
# Poissons Ratio (x) = 0.28174 0.04944
# Poissons Ratio (y) = 0.45532 0.09470
# Poissons Ratio (z) = 0.02155 0.02554
#
# Static dielectric constant tensor:
#      x y z
#    x 1.981670 0.000000 0.000000 
#    y 0.000000 1.986330 0.000000 
#    z 0.000000 0.000000 2.048210 
# 
# From -- ./inp_files/4096.got.cif
#   From: 2010.05.17/outbox.cif.g08.bks.cpg/sg29_3_cif.got.tgz:4096.got - 2010.06.04 01:19:37.
