data_PCOD9340351
_publ_section_title
;
Structure prediction by ZEFSAII (Michael W. Deem and Ramdas Pophale) SiO2 
 PCOD9340351
Probable space group: P C A 21
;
_chemical_formula_sum "Si O2"
_cell_formula_units_Z 24
_cell_length_a 8.051216
_cell_length_b 9.082047
_cell_length_c 15.259251
_cell_angle_alpha 90.000000
_cell_angle_beta 90.000000
_cell_angle_gamma 90.000000
_cell_volume 1115.779660
_symmetry_space_group_name_H-M "P C A 21"
_symmetry_group_IT_number 29
_symmetry_cell_setting 'orthorhombic'
loop_
_space_group_symop_operation_xyz
x,y,z
-x,-y,1/2+z
1/2-x,y,1/2+z
1/2+x,-y,z
loop_
_atom_site_type_symbol
_atom_site_label
_atom_site_fract_x
_atom_site_fract_y
_atom_site_fract_z
Si Si1 0.277059 0.271626 0.614920
Si Si2 0.245440 0.776323 0.258497
Si Si3 0.251993 0.773949 0.460478
Si Si4 0.379161 0.084070 0.261835
Si Si5 0.395523 0.067726 0.465054
Si Si6 0.634414 0.426810 0.610198
O O1 0.242245 0.179609 0.702245
O O2 0.289515 0.160076 0.534024
O O3 0.450021 0.360707 0.615063
O O4 0.139156 0.398076 0.607064
O O5 0.276320 0.731784 0.359310
O O6 0.272856 0.640660 0.194518
O O7 0.061981 0.847119 0.252446
O O8 0.366207 0.913056 0.234164
O O9 0.226873 0.638816 0.525003
O O10 0.080318 0.867046 0.466420
O O11 0.388296 0.894816 0.487262
O O12 0.333042 0.084825 0.364896
#
# Coordination Sequence:
#
# PCOD9340351 Si02
#       6
#     4   4   4   4   4   4
#     4  11  23  38  55  80 112 148 184 224 273 326
#     4  10  20  37  59  84 111 143 182 226 271 322
#     4   9  20  37  58  82 109 141 181 224 271 322
#     4  10  20  37  59  84 111 143 182 226 271 322
#     4   9  20  37  58  82 109 141 181 224 271 322
#     4  11  23  38  55  80 112 148 184 224 273 326
#
# _framework density 21.509622
#
# number of rings (size 3 to 8) (size 9 to 14) (size 15 to 20)
#    0.000    2.000    0.000    3.000    0.000    8.000 
#    0.000    3.333    0.000    0.000    0.000    0.000 
#    0.000    0.000    0.000    0.000    0.000    0.000 
#
# Total GULP energy -134221.826210 kJ/mol
# GULP energy per Si atom -5592.576092 kJ/mol
# Density = 2.146067 g / cm^3
# Si number density = 21.509622 Si / 1000 Ang^3
#
#
#
# Elastic Constant Matrix: (Units=GPa)
#
#
# Indices 1 2 3 4 5 6 
#
# 1 45.7937 4.8622 18.4520 0.0000 0.0000 0.0000
# 2 4.8622 35.4811 17.1328 0.0000 0.0000 0.0000
# 3 18.4520 17.1328 40.9110 0.0000 0.0000 0.0000
# 4 0.0000 0.0000 0.0000 7.0203 0.0000 0.0000
# 5 0.0000 0.0000 0.0000 0.0000 22.7594 0.0000
# 6 0.0000 0.0000 0.0000 0.0000 0.0000 34.9569
#
#
#
# Elastic Compliance Matrix: (Units=1/GPa)
#
#
# Indices 1 2 3 4 5 6 
#
# 1 0.026895 0.002722 -0.013271 0.000000 0.000000 0.000000
# 2 0.002722 0.035603 -0.016138 0.000000 0.000000 0.000000
# 3 -0.013271 -0.016138 0.037187 0.000000 0.000000 0.000000
# 4 0.000000 0.000000 0.000000 0.142445 0.000000 0.000000
# 5 0.000000 0.000000 0.000000 0.000000 0.043938 0.000000
# 6 0.000000 0.000000 0.000000 0.000000 0.000000 0.028607
#
#
# Mechanical properties :
#
#
# Convention : Reuss Voigt Hill
#
# Bulk Modulus (GPa) = 21.59206 22.56443 22.07825
# Shear Modulus (GPa) = 13.03831 18.39655 15.71743
#
# Velocity S-wave (km/s) = 2.46471 2.92767 2.70611
# Velocity P-wave (km/s) = 4.26143 4.68418 4.47780
#
# Compressibility (1/GPa) = 0.04631332
#
# Stress axis : x y z
#
# Youngs Moduli (GPa) = 37.18130 28.08715 26.89108
#
# Poissons Ratio (x) = -0.07646 0.35686
# Poissons Ratio (y) = -0.10122 0.43397
# Poissons Ratio (z) = 0.49342 0.45327
#
# Static dielectric constant tensor:
#      x y z
#    x 1.832510 0.000000 0.000000 
#    y 0.000000 1.736080 0.000000 
#    z 0.000000 0.000000 1.750020 
# 
# From -- ./inp_files/4180.got.cif
#   From: 2010.05.17/outbox.cif.g08.bks.cpg/sg29_3_cif.got.tgz:4180.got - 2010.06.04 01:19:37.
