data_PCOD9340903
_publ_section_title
;
Structure prediction by ZEFSAII (Michael W. Deem and Ramdas Pophale) SiO2 
 PCOD9340903
Probable space group: P C A 21
;
_chemical_formula_sum "Si O2"
_cell_formula_units_Z 20
_cell_length_a 15.924497
_cell_length_b 4.997454
_cell_length_c 10.619343
_cell_angle_alpha 90.000000
_cell_angle_beta 90.000000
_cell_angle_gamma 90.000000
_cell_volume 845.107931
_symmetry_space_group_name_H-M "P C A 21"
_symmetry_group_IT_number 29
_symmetry_cell_setting 'orthorhombic'
loop_
_space_group_symop_operation_xyz
x,y,z
-x,-y,1/2+z
1/2-x,y,1/2+z
1/2+x,-y,z
loop_
_atom_site_type_symbol
_atom_site_label
_atom_site_fract_x
_atom_site_fract_y
_atom_site_fract_z
Si Si1 0.045042 0.013282 0.338680
Si Si2 0.934008 0.518975 0.318322
Si Si3 0.287191 0.087220 0.727588
Si Si4 0.756279 0.407257 0.386870
Si Si5 0.849676 0.726357 0.063465
O O1 0.115618 0.004332 0.228775
O O2 0.092541 0.126674 0.461758
O O3 0.974715 0.228881 0.302979
O O4 0.003609 0.727965 0.364346
O O5 0.852608 0.492345 0.407489
O O6 0.900699 0.636030 0.185911
O O7 0.279493 0.388299 0.780536
O O8 0.228953 0.089624 0.606087
O O9 0.246154 0.885444 0.828292
O O10 0.694759 0.469859 0.500813
#
# Coordination Sequence:
#
# PCOD9340903 Si02
#       5
#     4   4   4   4   4
#     4  11  24  42  65 100 131 166 225 281 331 400
#     4  11  24  42  65 100 131 166 225 281 331 400
#     4  10  22  41  65  93 127 175 224 266 334 420
#     4  10  22  41  65  93 127 175 224 266 334 420
#     4  10  24  44  68  92 140 186 216 280 346 398
#
# _framework density 23.665617000000001
#
# number of rings (size 3 to 8) (size 9 to 14) (size 15 to 20)
#    0.000    1.600    0.000    4.800    0.000   17.600 
#    0.000    0.000    0.000    0.000    0.000    0.000 
#    0.000    0.000    0.000    0.000    0.000    0.000 
#
# Total GULP energy -111923.414258 kJ/mol
# GULP energy per Si atom -5596.170713 kJ/mol
# Density = 2.361175 g / cm^3
# Si number density = 23.665617 Si / 1000 Ang^3
#
#
#
# Elastic Constant Matrix: (Units=GPa)
#
#
# Indices 1 2 3 4 5 6 
#
# 1 117.1985 8.8926 7.2464 0.0000 0.0000 0.0000
# 2 8.8926 76.4650 21.3055 0.0000 0.0000 0.0000
# 3 7.2464 21.3055 59.5005 0.0000 0.0000 0.0000
# 4 0.0000 0.0000 0.0000 24.6310 0.0000 0.0000
# 5 0.0000 0.0000 0.0000 0.0000 38.1938 0.0000
# 6 0.0000 0.0000 0.0000 0.0000 0.0000 39.3003
#
#
#
# Elastic Compliance Matrix: (Units=1/GPa)
#
#
# Indices 1 2 3 4 5 6 
#
# 1 0.008640 -0.000790 -0.000769 0.000000 0.000000 0.000000
# 2 -0.000790 0.014600 -0.005131 0.000000 0.000000 0.000000
# 3 -0.000769 -0.005131 0.018738 0.000000 0.000000 0.000000
# 4 0.000000 0.000000 0.000000 0.040599 0.000000 0.000000
# 5 0.000000 0.000000 0.000000 0.000000 0.026182 0.000000
# 6 0.000000 0.000000 0.000000 0.000000 0.000000 0.025445
#
#
# Mechanical properties :
#
#
# Convention : Reuss Voigt Hill
#
# Bulk Modulus (GPa) = 34.97102 36.45032 35.71067
# Shear Modulus (GPa) = 31.82325 34.80633 33.31479
#
# Velocity S-wave (km/s) = 3.67100 3.83920 3.75604
# Velocity P-wave (km/s) = 5.72517 5.92354 5.82520
#
# Compressibility (1/GPa) = 0.02859511
#
# Stress axis : x y z
#
# Youngs Moduli (GPa) = 115.73982 68.49507 53.36841
#
# Poissons Ratio (x) = 0.05414 0.04105
# Poissons Ratio (y) = 0.09149 0.27386
# Poissons Ratio (z) = 0.08903 0.35148
#
# Static dielectric constant tensor:
#      x y z
#    x 1.913610 0.000000 0.000000 
#    y 0.000000 1.866150 0.000000 
#    z 0.000000 0.000000 1.934430 
# 
# From -- ./inp_files/3279.got.cif
#   From: 2010.05.17/outbox.cif.g08.bks.cpg/sg29_2_cif.got.tgz:3279.got - 2010.06.04 01:19:37.
