data_PCOD9340595
_publ_section_title
;
Structure prediction by ZEFSAII (Michael W. Deem and Ramdas Pophale) SiO2 
 PCOD9340595
Probable space group: P C A 21
;
_chemical_formula_sum "Si O2"
_cell_formula_units_Z 32
_cell_length_a 7.446846
_cell_length_b 19.270355
_cell_length_c 8.897567
_cell_angle_alpha 90.000000
_cell_angle_beta 90.000000
_cell_angle_gamma 90.000000
_cell_volume 1276.830814
_symmetry_space_group_name_H-M "P C A 21"
_symmetry_group_IT_number 29
_symmetry_cell_setting 'orthorhombic'
loop_
_space_group_symop_operation_xyz
x,y,z
-x,-y,1/2+z
1/2-x,y,1/2+z
1/2+x,-y,z
loop_
_atom_site_type_symbol
_atom_site_label
_atom_site_fract_x
_atom_site_fract_y
_atom_site_fract_z
Si Si1 0.166716 0.485691 0.714030
Si Si2 0.629263 0.430784 0.421611
Si Si3 0.642561 0.218245 0.117377
Si Si4 0.849920 0.712256 0.938753
Si Si5 0.994996 0.193056 0.939595
Si Si6 0.593409 0.634106 0.140631
Si Si7 0.533837 0.071690 0.016011
Si Si8 0.376533 0.952684 0.847616
O O1 0.201484 0.554412 0.816858
O O2 0.130852 0.506925 0.543096
O O3 0.351107 0.440852 0.706796
O O4 0.030031 0.436725 0.801483
O O5 0.582622 0.368022 0.534162
O O6 0.536805 0.275067 0.023268
O O7 0.849756 0.204588 0.073486
O O8 0.523976 0.150295 0.069593
O O9 0.605943 0.225233 0.293677
O O10 0.691590 0.771566 0.948173
O O11 0.895033 0.691114 0.769290
O O12 0.753958 0.650124 0.025713
O O13 0.003382 0.109640 0.909238
O O14 0.679807 0.075228 0.882982
O O15 0.386836 0.023009 0.942530
O O16 0.593375 0.035586 0.172234
#
# Coordination Sequence:
#
# PCOD9340595 Si02
#       8
#     4   4   4   4   4   4   4   4
#     4  12  23  44  71  99 138 175 221 280 348 402
#     4  12  23  44  70 102 138 179 220 279 345 404
#     4  10  24  45  69  95 137 182 235 287 349 413
#     4  12  25  48  67 100 141 184 231 284 343 413
#     4  10  24  45  69  98 134 186 233 287 352 411
#     4  12  25  44  72 100 135 177 228 278 331 419
#     4  10  21  39  62  96 130 173 223 290 346 415
#     4  10  21  39  62  96 133 170 229 285 348 417
#
# _framework density 25.062052000000001
#
# number of rings (size 3 to 8) (size 9 to 14) (size 15 to 20)
#    0.000    1.000    5.000    0.750    3.500    1.000 
#    2.250    0.000    0.000    0.000    0.000    0.000 
#    0.000    0.000    0.000    0.000    0.000    0.000 
#
# Total GULP energy -178637.817294 kJ/mol
# GULP energy per Si atom -5582.431790 kJ/mol
# Density = 2.500501 g / cm^3
# Si number density = 25.062052 Si / 1000 Ang^3
#
#
#
# Elastic Constant Matrix: (Units=GPa)
#
#
# Indices 1 2 3 4 5 6 
#
# 1 75.5123 10.5406 25.4881 0.0000 0.0000 0.0000
# 2 10.5406 49.6097 2.8788 0.0000 0.0000 0.0000
# 3 25.4881 2.8788 117.4453 0.0000 0.0000 0.0000
# 4 0.0000 0.0000 0.0000 37.1369 0.0000 0.0000
# 5 0.0000 0.0000 0.0000 0.0000 41.3360 0.0000
# 6 0.0000 0.0000 0.0000 0.0000 0.0000 31.8262
#
#
#
# Elastic Compliance Matrix: (Units=1/GPa)
#
#
# Indices 1 2 3 4 5 6 
#
# 1 0.014707 -0.002944 -0.003120 0.000000 0.000000 0.000000
# 2 -0.002944 0.020775 0.000130 0.000000 0.000000 0.000000
# 3 -0.003120 0.000130 0.009188 0.000000 0.000000 0.000000
# 4 0.000000 0.000000 0.000000 0.026927 0.000000 0.000000
# 5 0.000000 0.000000 0.000000 0.000000 0.024192 0.000000
# 6 0.000000 0.000000 0.000000 0.000000 0.000000 0.031421
#
#
# Mechanical properties :
#
#
# Convention : Reuss Voigt Hill
#
# Bulk Modulus (GPa) = 30.48486 35.59804 33.04145
# Shear Modulus (GPa) = 33.33065 35.63715 34.48390
#
# Velocity S-wave (km/s) = 3.65077 3.77498 3.71339
# Velocity P-wave (km/s) = 5.47366 5.76501 5.62123
#
# Compressibility (1/GPa) = 0.03280317
#
# Stress axis : x y z
#
# Youngs Moduli (GPa) = 67.99609 48.13418 108.83257
#
# Poissons Ratio (x) = 0.14169 0.33951
# Poissons Ratio (y) = 0.20016 -0.01411
# Poissons Ratio (z) = 0.21212 -0.00624
#
# Static dielectric constant tensor:
#      x y z
#    x 2.035870 0.000000 0.000000 
#    y 0.000000 2.170030 0.000000 
#    z 0.000000 0.000000 1.925850 
# 
# From -- ./inp_files/1268.got.cif
#   From: 2010.05.17/outbox.cif.g08.bks.cpg/sg29_1_cif.got.tgz:1268.got - 2010.06.04 01:19:37.
