data_PCOD9340114
_publ_section_title
;
Structure prediction by ZEFSAII (Michael W. Deem and Ramdas Pophale) SiO2 
 PCOD9340114
Probable space group: P C A 21
;
_chemical_formula_sum "Si O2"
_cell_formula_units_Z 32
_cell_length_a 5.311744
_cell_length_b 17.608274
_cell_length_c 13.424220
_cell_angle_alpha 90.000000
_cell_angle_beta 90.000000
_cell_angle_gamma 90.000000
_cell_volume 1255.575939
_symmetry_space_group_name_H-M "P C A 21"
_symmetry_group_IT_number 29
_symmetry_cell_setting 'orthorhombic'
loop_
_space_group_symop_operation_xyz
x,y,z
-x,-y,1/2+z
1/2-x,y,1/2+z
1/2+x,-y,z
loop_
_atom_site_type_symbol
_atom_site_label
_atom_site_fract_x
_atom_site_fract_y
_atom_site_fract_z
Si Si1 0.891355 0.619919 0.031270
Si Si2 0.455374 0.334927 0.818043
Si Si3 0.026731 0.143470 0.173703
Si Si4 0.170447 0.464516 0.713263
Si Si5 0.032260 0.898489 0.185115
Si Si6 0.529770 0.971589 0.346416
Si Si7 0.888999 0.283336 0.056509
Si Si8 0.452425 0.758082 0.840647
O O1 0.875897 0.543593 0.094997
O O2 0.615532 0.658531 0.034684
O O3 0.119262 0.675229 0.071356
O O4 0.960055 0.612085 0.916282
O O5 0.318500 0.386925 0.736880
O O6 0.737246 0.302577 0.808013
O O7 0.240089 0.271490 0.838336
O O8 0.285986 0.119198 0.124671
O O9 0.040099 0.110126 0.289007
O O10 0.787744 0.102901 0.126230
O O11 0.981712 0.231066 0.147675
O O12 0.382532 0.524528 0.748935
O O13 0.056830 0.828796 0.265201
O O14 0.012414 0.972992 0.249677
O O15 0.275873 0.996981 0.400664
O O16 0.878562 0.231035 0.956683
#
# Coordination Sequence:
#
# PCOD9340114 Si02
#       8
#     4   4   4   4   4   4   4   4
#     4  10  23  41  61  88 125 155 194 252 299 350
#     4  10  23  41  61  88 125 155 194 252 299 350
#     4  10  19  31  54  82 110 151 195 244 293 351
#     4  12  26  42  64  92 120 160 202 234 288 372
#     4  10  19  31  54  82 110 151 195 244 293 351
#     4   8  16  30  46  72 112 144 190 238 282 350
#     4  10  21  37  57  86 117 153 196 247 306 352
#     4  10  21  37  57  86 117 153 196 247 306 352
#
# _framework density 25.486312999999999
#
# number of rings (size 3 to 8) (size 9 to 14) (size 15 to 20)
#    0.000    2.000    0.000    3.000    5.250    1.000 
#    0.000    0.000    0.000   13.500    0.000    0.000 
#    0.000    0.000    0.000    0.000    0.000    0.000 
#
# Total GULP energy -178383.597400 kJ/mol
# GULP energy per Si atom -5574.487419 kJ/mol
# Density = 2.542830 g / cm^3
# Si number density = 25.486313 Si / 1000 Ang^3
#
#
#
# Elastic Constant Matrix: (Units=GPa)
#
#
# Indices 1 2 3 4 5 6 
#
# 1 214.5932 20.2079 1.0126 0.0000 0.0000 0.0000
# 2 20.2079 56.5634 12.9722 0.0000 0.0000 0.0000
# 3 1.0126 12.9722 66.4650 0.0000 0.0000 0.0000
# 4 0.0000 0.0000 0.0000 23.3247 0.0000 0.0000
# 5 0.0000 0.0000 0.0000 0.0000 16.3047 0.0000
# 6 0.0000 0.0000 0.0000 0.0000 0.0000 44.6008
#
#
#
# Elastic Compliance Matrix: (Units=1/GPa)
#
#
# Indices 1 2 3 4 5 6 
#
# 1 0.004827 -0.001788 0.000275 0.000000 0.000000 0.000000
# 2 -0.001788 0.019170 -0.003714 0.000000 0.000000 0.000000
# 3 0.000275 -0.003714 0.015766 0.000000 0.000000 0.000000
# 4 0.000000 0.000000 0.000000 0.042873 0.000000 0.000000
# 5 0.000000 0.000000 0.000000 0.000000 0.061332 0.000000
# 6 0.000000 0.000000 0.000000 0.000000 0.000000 0.022421
#
#
# Mechanical properties :
#
#
# Convention : Reuss Voigt Hill
#
# Bulk Modulus (GPa) = 34.11800 45.11188 39.61494
# Shear Modulus (GPa) = 26.79356 37.07463 31.93410
#
# Velocity S-wave (km/s) = 3.24588 3.81818 3.54360
# Velocity P-wave (km/s) = 5.24056 6.09728 5.68508
#
# Compressibility (1/GPa) = 0.02931004
#
# Stress axis : x y z
#
# Youngs Moduli (GPa) = 207.16703 52.16556 63.42671
#
# Poissons Ratio (x) = 0.09325 -0.01747
# Poissons Ratio (y) = 0.37034 0.23558
# Poissons Ratio (z) = -0.05705 0.19375
#
# Static dielectric constant tensor:
#      x y z
#    x 2.157800 0.000000 0.000000 
#    y 0.000000 2.067690 0.000000 
#    z 0.000000 0.000000 2.030440 
# 
# From -- ./inp_files/4150.got.cif
#   From: 2010.05.17/outbox.cif.g08.bks.cpg/sg29_3_cif.got.tgz:4150.got - 2010.06.04 01:19:37.
