data_PCOD9340773
_publ_section_title
;
Structure prediction by ZEFSAII (Michael W. Deem and Ramdas Pophale) SiO2 
 PCOD9340773
Probable space group: P C A 21
;
_chemical_formula_sum "Si O2"
_cell_formula_units_Z 32
_cell_length_a 8.308887
_cell_length_b 13.946289
_cell_length_c 11.455373
_cell_angle_alpha 90.000000
_cell_angle_beta 90.000000
_cell_angle_gamma 90.000000
_cell_volume 1327.427309
_symmetry_space_group_name_H-M "P C A 21"
_symmetry_group_IT_number 29
_symmetry_cell_setting 'orthorhombic'
loop_
_space_group_symop_operation_xyz
x,y,z
-x,-y,1/2+z
1/2-x,y,1/2+z
1/2+x,-y,z
loop_
_atom_site_type_symbol
_atom_site_label
_atom_site_fract_x
_atom_site_fract_y
_atom_site_fract_z
Si Si1 0.564611 0.928451 0.945340
Si Si2 0.931319 0.867125 0.909428
Si Si3 0.388308 0.784498 0.790585
Si Si4 0.550818 0.193737 0.662551
Si Si5 0.137495 0.646985 0.507312
Si Si6 0.614415 0.612805 0.709991
Si Si7 0.978869 0.331134 0.504758
Si Si8 0.918035 0.531075 0.835931
O O1 0.749537 0.896188 0.939280
O O2 0.471102 0.880659 0.836498
O O3 0.543473 0.041617 0.932925
O O4 0.486576 0.885227 0.063450
O O5 0.991526 0.779770 0.988146
O O6 0.945276 0.830315 0.776006
O O7 0.235410 0.806011 0.709326
O O8 0.333117 0.727137 0.906568
O O9 0.525707 0.712277 0.742768
O O10 0.524703 0.297844 0.600143
O O11 0.312670 0.638368 0.565496
O O12 0.091602 0.551385 0.436870
O O13 0.633767 0.625997 0.572133
O O14 0.758129 0.584235 0.794127
O O15 0.495113 0.523743 0.728282
O O16 0.968457 0.385613 0.382504
#
# Coordination Sequence:
#
# PCOD9340773 Si02
#       8
#     4   4   4   4   4   4   4   4
#     4  11  28  48  75 112 147 193 257 316 391 474
#     4  12  28  49  72 112 149 198 254 326 378 478
#     4  10  21  45  73 106 144 192 249 312 375 457
#     4  11  24  48  81 102 149 205 248 321 392 456
#     4  10  22  44  72 105 143 199 249 307 381 454
#     4  11  25  41  70 104 149 196 238 310 380 442
#     4  12  25  43  72 104 147 188 258 308 371 459
#     4  11  25  44  67 109 148 193 249 306 372 460
#
# _framework density 24.106780000000001
#
# number of rings (size 3 to 8) (size 9 to 14) (size 15 to 20)
#    0.000    1.000    3.750    1.500    3.500    6.000 
#    0.000    0.000    0.000    0.000    0.000    0.000 
#    0.000    0.000    0.000    0.000    0.000    0.000 
#
# Total GULP energy -178914.774449 kJ/mol
# GULP energy per Si atom -5591.086702 kJ/mol
# Density = 2.405191 g / cm^3
# Si number density = 24.106780 Si / 1000 Ang^3
#
#
#
# Elastic Constant Matrix: (Units=GPa)
#
#
# Indices 1 2 3 4 5 6 
#
# 1 58.3481 14.5604 -5.7904 0.0000 0.0000 0.0000
# 2 14.5604 135.3939 8.6227 0.0000 0.0000 0.0000
# 3 -5.7904 8.6227 54.3043 0.0000 0.0000 0.0000
# 4 0.0000 0.0000 0.0000 27.8525 0.0000 0.0000
# 5 0.0000 0.0000 0.0000 0.0000 40.4058 0.0000
# 6 0.0000 0.0000 0.0000 0.0000 0.0000 30.4993
#
#
#
# Elastic Compliance Matrix: (Units=1/GPa)
#
#
# Indices 1 2 3 4 5 6 
#
# 1 0.017875 -0.002065 0.002234 0.000000 0.000000 0.000000
# 2 -0.002065 0.007700 -0.001443 0.000000 0.000000 0.000000
# 3 0.002234 -0.001443 0.018882 0.000000 0.000000 0.000000
# 4 0.000000 0.000000 0.000000 0.035903 0.000000 0.000000
# 5 0.000000 0.000000 0.000000 0.000000 0.024749 0.000000
# 6 0.000000 0.000000 0.000000 0.000000 0.000000 0.032788
#
#
# Mechanical properties :
#
#
# Convention : Reuss Voigt Hill
#
# Bulk Modulus (GPa) = 23.86051 31.42572 27.64312
# Shear Modulus (GPa) = 32.38044 35.12844 33.75444
#
# Velocity S-wave (km/s) = 3.66896 3.82147 3.74599
# Velocity P-wave (km/s) = 5.27898 5.70402 5.49561
#
# Compressibility (1/GPa) = 0.04191025
#
# Stress axis : x y z
#
# Youngs Moduli (GPa) = 55.94277 129.87404 52.96040
#
# Poissons Ratio (x) = 0.26814 -0.11831
# Poissons Ratio (y) = 0.11550 0.07641
# Poissons Ratio (z) = -0.12497 0.18738
#
# Static dielectric constant tensor:
#      x y z
#    x 1.966620 0.000000 0.000000 
#    y 0.000000 1.881410 0.000000 
#    z 0.000000 0.000000 2.029060 
# 
# From -- ./inp_files/2960.got.cif
#   From: 2010.05.17/outbox.cif.g08.bks.cpg/sg29_2_cif.got.tgz:2960.got - 2010.06.04 01:19:37.
