data_PCOD9340224
_publ_section_title
;
Structure prediction by ZEFSAII (Michael W. Deem and Ramdas Pophale) SiO2 
 PCOD9340224
Probable space group: P C A 21
;
_chemical_formula_sum "Si O2"
_cell_formula_units_Z 28
_cell_length_a 5.419768
_cell_length_b 13.690818
_cell_length_c 15.246688
_cell_angle_alpha 90.000000
_cell_angle_beta 90.000000
_cell_angle_gamma 90.000000
_cell_volume 1131.320370
_symmetry_space_group_name_H-M "P C A 21"
_symmetry_group_IT_number 29
_symmetry_cell_setting 'orthorhombic'
loop_
_space_group_symop_operation_xyz
x,y,z
-x,-y,1/2+z
1/2-x,y,1/2+z
1/2+x,-y,z
loop_
_atom_site_type_symbol
_atom_site_label
_atom_site_fract_x
_atom_site_fract_y
_atom_site_fract_z
Si Si1 0.312892 0.944942 0.772280
Si Si2 0.814231 0.975849 0.961865
Si Si3 0.700900 0.516919 0.557963
Si Si4 0.211948 0.236303 0.456759
Si Si5 0.825760 0.283055 0.725201
Si Si6 0.824630 0.714832 0.624815
Si Si7 0.791051 0.350002 0.909668
O O1 0.297369 0.830889 0.749084
O O2 0.567460 0.996731 0.742430
O O3 0.319397 0.951369 0.878305
O O4 0.814544 0.870431 0.914828
O O5 0.567256 0.005152 0.011749
O O6 0.443846 0.516836 0.607377
O O7 0.763122 0.630281 0.552556
O O8 0.694124 0.449527 0.469962
O O9 0.264686 0.199442 0.557750
O O10 0.458905 0.287276 0.419582
O O11 0.951873 0.291480 0.440701
O O12 0.604961 0.297362 0.654174
O O13 0.767201 0.357200 0.804927
O O14 0.111019 0.293742 0.695876
#
# Coordination Sequence:
#
# PCOD9340224 Si02
#       7
#     4   4   4   4   4   4   4
#     4  10  19  38  64  96 141 181 227 290 349 405
#     4  10  20  36  62 101 131 177 239 289 327 398
#     4  12  23  47  74 101 138 194 236 287 361 428
#     4  12  23  43  76 101 140 193 238 284 353 439
#     4  12  26  44  71 113 143 190 234 303 370 422
#     4  12  26  46  70 105 151 189 227 297 377 426
#     4  12  23  44  77 103 134 184 249 290 349 424
#
# _framework density 24.749841
#
# number of rings (size 3 to 8) (size 9 to 14) (size 15 to 20)
#    0.000    0.571    2.857    7.714    0.000    0.000 
#    0.000    8.571    0.000    0.000    0.000    0.000 
#    0.000    0.000    0.000    0.000    0.000    0.000 
#
# Total GULP energy -156092.760262 kJ/mol
# GULP energy per Si atom -5574.741438 kJ/mol
# Density = 2.469351 g / cm^3
# Si number density = 24.749841 Si / 1000 Ang^3
#
#
#
# Elastic Constant Matrix: (Units=GPa)
#
#
# Indices 1 2 3 4 5 6 
#
# 1 195.1864 16.7824 20.4936 0.0000 0.0000 0.0000
# 2 16.7824 71.9091 13.7537 0.0000 0.0000 0.0000
# 3 20.4936 13.7537 44.8071 0.0000 0.0000 0.0000
# 4 0.0000 0.0000 0.0000 19.5756 0.0000 0.0000
# 5 0.0000 0.0000 0.0000 0.0000 33.0391 0.0000
# 6 0.0000 0.0000 0.0000 0.0000 0.0000 47.6595
#
#
#
# Elastic Compliance Matrix: (Units=1/GPa)
#
#
# Indices 1 2 3 4 5 6 
#
# 1 0.005429 -0.000842 -0.002225 0.000000 0.000000 0.000000
# 2 -0.000842 0.014904 -0.004190 0.000000 0.000000 0.000000
# 3 -0.002225 -0.004190 0.024622 0.000000 0.000000 0.000000
# 4 0.000000 0.000000 0.000000 0.051084 0.000000 0.000000
# 5 0.000000 0.000000 0.000000 0.000000 0.030267 0.000000
# 6 0.000000 0.000000 0.000000 0.000000 0.000000 0.020982
#
#
# Mechanical properties :
#
#
# Convention : Reuss Voigt Hill
#
# Bulk Modulus (GPa) = 32.84907 45.99577 39.42242
# Shear Modulus (GPa) = 29.07842 37.44637 33.26240
#
# Velocity S-wave (km/s) = 3.43139 3.89394 3.66996
# Velocity P-wave (km/s) = 5.38521 6.23231 5.82418
#
# Compressibility (1/GPa) = 0.03044226
#
# Stress axis : x y z
#
# Youngs Moduli (GPa) = 184.18686 67.09498 40.61472
#
# Poissons Ratio (x) = 0.05646 0.09036
# Poissons Ratio (y) = 0.15501 0.17018
# Poissons Ratio (z) = 0.40979 0.28113
#
# Static dielectric constant tensor:
#      x y z
#    x 2.093770 0.000000 0.000000 
#    y 0.000000 2.706690 0.000000 
#    z 0.000000 0.000000 2.085810 
# 
# From -- ./inp_files/4069.got.cif
#   From: 2010.05.17/outbox.cif.g08.bks.cpg/sg29_3_cif.got.tgz:4069.got - 2010.06.04 01:19:37.
