data_PCOD9340307
_publ_section_title
;
Structure prediction by ZEFSAII (Michael W. Deem and Ramdas Pophale) SiO2 
 PCOD9340307
Probable space group: P C A 21
;
_chemical_formula_sum "Si O2"
_cell_formula_units_Z 32
_cell_length_a 19.768968
_cell_length_b 5.443677
_cell_length_c 11.906023
_cell_angle_alpha 90.000000
_cell_angle_beta 90.000000
_cell_angle_gamma 90.000000
_cell_volume 1281.277100
_symmetry_space_group_name_H-M "P C A 21"
_symmetry_group_IT_number 29
_symmetry_cell_setting 'orthorhombic'
loop_
_space_group_symop_operation_xyz
x,y,z
-x,-y,1/2+z
1/2-x,y,1/2+z
1/2+x,-y,z
loop_
_atom_site_type_symbol
_atom_site_label
_atom_site_fract_x
_atom_site_fract_y
_atom_site_fract_z
Si Si1 0.635946 0.319675 0.367770
Si Si2 0.925673 0.634100 0.376369
Si Si3 0.039188 0.323072 0.318769
Si Si4 0.758539 0.445790 0.205049
Si Si5 0.823411 0.261774 0.494131
Si Si6 0.466387 0.927837 0.997247
Si Si7 0.183002 0.034279 0.786027
Si Si8 0.567148 0.054113 0.160112
O O1 0.599795 0.573203 0.395043
O O2 0.705366 0.375421 0.305327
O O3 0.611024 0.148672 0.470498
O O4 0.588341 0.224906 0.264023
O O5 0.973375 0.481122 0.293300
O O6 0.865269 0.466499 0.424975
O O7 0.980198 0.705164 0.473338
O O8 0.890205 0.859766 0.315370
O O9 0.012644 0.105955 0.396172
O O10 0.075204 0.218026 0.209444
O O11 0.725031 0.398657 0.083092
O O12 0.779954 0.728972 0.228978
O O13 0.811894 0.219424 0.216553
O O14 0.879271 0.115738 0.565456
O O15 0.791373 0.058954 0.410028
O O16 0.491819 0.055281 0.110158
#
# Coordination Sequence:
#
# PCOD9340307 Si02
#       8
#     4   4   4   4   4   4   4   4
#     4   9  23  37  61  93 133 176 219 292 341 424
#     4  11  21  42  71 100 137 181 237 295 362 432
#     4  10  21  38  62 103 136 171 224 293 351 431
#     4  11  28  43  72 104 139 190 251 296 358 432
#     4  11  24  44  73 104 137 195 246 297 369 442
#     4  10  20  36  65  95 135 171 222 280 357 423
#     4  12  25  45  71 103 144 188 245 311 349 428
#     4  10  20  35  65  98 129 174 230 274 355 434
#
# _framework density 24.975083000000001
#
# number of rings (size 3 to 8) (size 9 to 14) (size 15 to 20)
#    0.000    1.500    3.750    0.000   10.500    0.000 
#    0.000    2.500    0.000    0.000    0.000    0.000 
#    0.000    0.000    0.000    0.000    0.000    0.000 
#
# Total GULP energy -178259.119385 kJ/mol
# GULP energy per Si atom -5570.597481 kJ/mol
# Density = 2.491824 g / cm^3
# Si number density = 24.975083 Si / 1000 Ang^3
#
#
#
# Elastic Constant Matrix: (Units=GPa)
#
#
# Indices 1 2 3 4 5 6 
#
# 1 39.5764 32.2891 9.9858 0.0000 0.0000 0.0000
# 2 32.2891 109.2955 31.6365 0.0000 0.0000 0.0000
# 3 9.9858 31.6365 56.9235 0.0000 0.0000 0.0000
# 4 0.0000 0.0000 0.0000 27.8987 0.0000 0.0000
# 5 0.0000 0.0000 0.0000 0.0000 42.3206 0.0000
# 6 0.0000 0.0000 0.0000 0.0000 0.0000 47.8799
#
#
#
# Elastic Compliance Matrix: (Units=1/GPa)
#
#
# Indices 1 2 3 4 5 6 
#
# 1 0.033302 -0.009709 -0.000446 0.000000 0.000000 0.000000
# 2 -0.009709 0.013734 -0.005930 0.000000 0.000000 0.000000
# 3 -0.000446 -0.005930 0.020941 0.000000 0.000000 0.000000
# 4 0.000000 0.000000 0.000000 0.035844 0.000000 0.000000
# 5 0.000000 0.000000 0.000000 0.000000 0.023629 0.000000
# 6 0.000000 0.000000 0.000000 0.000000 0.000000 0.020886
#
#
# Mechanical properties :
#
#
# Convention : Reuss Voigt Hill
#
# Bulk Modulus (GPa) = 27.92724 39.29091 33.60908
# Shear Modulus (GPa) = 25.98190 32.41210 29.19700
#
# Velocity S-wave (km/s) = 3.22889 3.60638 3.42284
# Velocity P-wave (km/s) = 5.01072 5.75391 5.39512
#
# Compressibility (1/GPa) = 0.03580733
#
# Stress axis : x y z
#
# Youngs Moduli (GPa) = 30.02865 72.81000 47.75241
#
# Poissons Ratio (x) = 0.70693 0.02129
# Poissons Ratio (y) = 0.29155 0.28317
# Poissons Ratio (z) = 0.01339 0.43176
#
# Static dielectric constant tensor:
#      x y z
#    x 2.024240 0.000000 0.000000 
#    y 0.000000 2.219510 0.000000 
#    z 0.000000 0.000000 2.025210 
# 
# From -- ./inp_files/3964.got.cif
#   From: 2010.05.17/outbox.cif.g08.bks.cpg/sg29_2_cif.got.tgz:3964.got - 2010.06.04 01:19:37.
