data_PCOD9340126
_publ_section_title
;
Structure prediction by ZEFSAII (Michael W. Deem and Ramdas Pophale) SiO2 
 PCOD9340126
Probable space group: P C A 21
;
_chemical_formula_sum "Si O2"
_cell_formula_units_Z 28
_cell_length_a 14.279104
_cell_length_b 5.107760
_cell_length_c 14.866934
_cell_angle_alpha 90.000000
_cell_angle_beta 90.000000
_cell_angle_gamma 90.000000
_cell_volume 1084.308477
_symmetry_space_group_name_H-M "P C A 21"
_symmetry_group_IT_number 29
_symmetry_cell_setting 'orthorhombic'
loop_
_space_group_symop_operation_xyz
x,y,z
-x,-y,1/2+z
1/2-x,y,1/2+z
1/2+x,-y,z
loop_
_atom_site_type_symbol
_atom_site_label
_atom_site_fract_x
_atom_site_fract_y
_atom_site_fract_z
Si Si1 0.113128 0.945450 0.038400
Si Si2 0.928317 0.749465 0.101880
Si Si3 0.308796 0.289677 0.932255
Si Si4 0.063644 0.446044 0.979829
Si Si5 0.798783 0.319123 0.701381
Si Si6 0.302278 0.180938 0.261267
Si Si7 0.089791 0.789998 0.363622
O O1 0.181473 0.788946 0.103195
O O2 0.008635 0.962760 0.081264
O O3 0.101562 0.735080 0.957516
O O4 0.137652 0.242401 0.019702
O O5 0.894721 0.751459 0.204135
O O6 0.837792 0.770702 0.035971
O O7 0.987742 0.510523 0.058884
O O8 0.219791 0.236781 0.865942
O O9 0.337435 0.591257 0.913659
O O10 0.384172 0.088044 0.885519
O O11 0.009364 0.299551 0.901181
O O12 0.771175 0.618031 0.713985
O O13 0.891413 0.264936 0.759762
O O14 0.721634 0.122206 0.742776
#
# Coordination Sequence:
#
# PCOD9340126 Si02
#       7
#     4   4   4   4   4   4   4
#     4  10  19  32  53  76 101 131 172 212 251 307
#     4   9  20  32  59  73 103 136 177 211 253 303
#     4   9  17  31  51  76  98 133 180 202 243 314
#     4   9  17  30  54  74  94 129 179 204 244 300
#     4  10  21  33  51  77 107 129 170 216 264 300
#     4  10  21  33  55  77 106 136 170 216 261 301
#     4   9  15  31  49  75  91 132 172 213 230 305
#
# _framework density 25.82291
#
# number of rings (size 3 to 8) (size 9 to 14) (size 15 to 20)
#    0.857    1.714    1.429    0.857    2.000    0.000 
#    0.000    0.000    6.286    0.000    0.000    0.000 
#    0.000    0.000    0.000    0.000    0.000    0.000 
#
# Total GULP energy -156029.792949 kJ/mol
# GULP energy per Si atom -5572.492605 kJ/mol
# Density = 2.576414 g / cm^3
# Si number density = 25.822910 Si / 1000 Ang^3
#
#
#
# Elastic Constant Matrix: (Units=GPa)
#
#
# Indices 1 2 3 4 5 6 
#
# 1 67.4204 -6.2290 30.4366 0.0000 0.0000 0.0000
# 2 -6.2290 91.0475 -8.2389 0.0000 0.0000 0.0000
# 3 30.4366 -8.2389 73.2319 0.0000 0.0000 0.0000
# 4 0.0000 0.0000 0.0000 15.9165 0.0000 0.0000
# 5 0.0000 0.0000 0.0000 0.0000 42.0873 0.0000
# 6 0.0000 0.0000 0.0000 0.0000 0.0000 -8.0235
#
#
#
# Elastic Compliance Matrix: (Units=1/GPa)
#
#
# Indices 1 2 3 4 5 6 
#
# 1 0.018287 0.000569 -0.007536 0.000000 0.000000 0.000000
# 2 0.000569 0.011114 0.001014 0.000000 0.000000 0.000000
# 3 -0.007536 0.001014 0.016902 0.000000 0.000000 0.000000
# 4 0.000000 0.000000 0.000000 0.062828 0.000000 0.000000
# 5 0.000000 0.000000 0.000000 0.000000 0.023760 0.000000
# 6 0.000000 0.000000 0.000000 0.000000 0.000000 -0.124634
#
#
# Mechanical properties :
#
#
# Convention : Reuss Voigt Hill
#
# Bulk Modulus (GPa) = 29.07337 29.29301 29.18319
# Shear Modulus (GPa) = 158.08196 24.37814 91.23005
#
# Velocity S-wave (km/s) = 7.83266 3.07587 5.95028
# Velocity P-wave (km/s) = 9.64801 4.89725 7.65072
#
# Compressibility (1/GPa) = 0.03439574
#
# Stress axis : x y z
#
# Youngs Moduli (GPa) = 54.68306 89.97698 59.16592
#
# Poissons Ratio (x) = -0.05121 0.44590
# Poissons Ratio (y) = -0.03112 -0.05998
# Poissons Ratio (z) = 0.41212 -0.09122
#
# Static dielectric constant tensor:
#      x y z
#    x 2.202360 0.000000 0.000000 
#    y 0.000000 1.996350 0.000000 
#    z 0.000000 0.000000 2.042340 
# 
# From -- ./inp_files/4752.got.cif
#   From: 2010.05.17/outbox.cif.g08.bks.cpg/sg29_3_cif.got.tgz:4752.got - 2010.06.04 01:19:37.
