data_PCOD9340116
_publ_section_title
;
Structure prediction by ZEFSAII (Michael W. Deem and Ramdas Pophale) SiO2 
 PCOD9340116
Probable space group: P C A 21
;
_chemical_formula_sum "Si O2"
_cell_formula_units_Z 32
_cell_length_a 24.338190
_cell_length_b 12.981889
_cell_length_c 5.314797
_cell_angle_alpha 90.000000
_cell_angle_beta 90.000000
_cell_angle_gamma 90.000000
_cell_volume 1679.240306
_symmetry_space_group_name_H-M "P C A 21"
_symmetry_group_IT_number 29
_symmetry_cell_setting 'orthorhombic'
loop_
_space_group_symop_operation_xyz
x,y,z
-x,-y,1/2+z
1/2-x,y,1/2+z
1/2+x,-y,z
loop_
_atom_site_type_symbol
_atom_site_label
_atom_site_fract_x
_atom_site_fract_y
_atom_site_fract_z
Si Si1 0.072260 0.004279 0.002250
Si Si2 0.049143 0.904345 0.494599
Si Si3 0.607744 0.627160 0.995965
Si Si4 0.267765 0.387301 0.427580
Si Si5 0.898535 0.815747 0.831829
Si Si6 0.721689 0.844378 0.491867
Si Si7 0.486785 0.256487 0.190428
Si Si8 0.471573 0.541623 0.474809
O O1 0.083753 0.939283 0.252907
O O2 0.098842 0.114862 0.077058
O O3 0.080208 0.936892 0.750574
O O4 0.007711 0.031735 0.002061
O O5 0.024580 0.794049 0.406610
O O6 0.668286 0.632464 0.886179
O O7 0.607391 0.696910 0.246993
O O8 0.587504 0.510250 0.020027
O O9 0.562215 0.681150 0.822606
O O10 0.240244 0.442252 0.193516
O O11 0.237661 0.277462 0.476265
O O12 0.843942 0.850205 0.977506
O O13 0.953821 0.821210 0.001794
O O14 0.750765 0.887895 0.242361
O O15 0.521629 0.337837 0.029042
O O16 0.492182 0.515217 0.193327
#
# Coordination Sequence:
#
# PCOD9340116 Si02
#       8
#     4   4   4   4   4   4   4   4
#     4  10  21  32  46  74  94 131 176 218 254 320
#     4  10  20  34  47  67 101 128 178 223 255 297
#     4  11  21  32  52  75 112 147 182 221 269 327
#     4  10  19  32  47  71 103 140 175 216 266 327
#     4  12  20  32  55  74 108 150 183 217 286 329
#     4  10  20  31  46  74 104 137 174 218 262 344
#     4  11  21  34  55  74 106 157 186 226 277 317
#     4  10  22  35  48  77 108 140 194 225 259 323
#
# _framework density 19.056236999999999
#
# number of rings (size 3 to 8) (size 9 to 14) (size 15 to 20)
#    0.000    1.500    5.000    3.750    0.000    0.000 
#    0.000    0.000    0.000    0.000    0.000    0.000 
#    0.000    6.000    0.000    0.000    0.000    8.125 
#
# Total GULP energy -178244.006326 kJ/mol
# GULP energy per Si atom -5570.125198 kJ/mol
# Density = 1.901286 g / cm^3
# Si number density = 19.056237 Si / 1000 Ang^3
#
#
#
# Elastic Constant Matrix: (Units=GPa)
#
#
# Indices 1 2 3 4 5 6 
#
# 1 45.8576 36.6183 0.3793 0.0000 0.0000 0.0000
# 2 36.6183 49.8018 13.6639 0.0000 0.0000 0.0000
# 3 0.3793 13.6639 110.4434 0.0000 0.0000 0.0000
# 4 0.0000 0.0000 0.0000 22.4817 0.0000 0.0000
# 5 0.0000 0.0000 0.0000 0.0000 23.0387 0.0000
# 6 0.0000 0.0000 0.0000 0.0000 0.0000 6.7733
#
#
#
# Elastic Compliance Matrix: (Units=1/GPa)
#
#
# Indices 1 2 3 4 5 6 
#
# 1 0.055381 -0.042097 0.005018 0.000000 0.000000 0.000000
# 2 -0.042097 0.052785 -0.006386 0.000000 0.000000 0.000000
# 3 0.005018 -0.006386 0.009827 0.000000 0.000000 0.000000
# 4 0.000000 0.000000 0.000000 0.044481 0.000000 0.000000
# 5 0.000000 0.000000 0.000000 0.000000 0.043405 0.000000
# 6 0.000000 0.000000 0.000000 0.000000 0.000000 0.147639
#
#
# Mechanical properties :
#
#
# Convention : Reuss Voigt Hill
#
# Bulk Modulus (GPa) = 32.19289 34.15841 33.17565
# Shear Modulus (GPa) = 11.09133 20.82148 15.95640
#
# Velocity S-wave (km/s) = 2.41515 3.30909 2.89681
# Velocity P-wave (km/s) = 4.97067 5.70649 5.35124
#
# Compressibility (1/GPa) = 0.03106276
#
# Stress axis : x y z
#
# Youngs Moduli (GPa) = 18.05680 18.94478 101.75805
#
# Poissons Ratio (x) = 0.79752 -0.51062
# Poissons Ratio (y) = 0.76014 0.64982
# Poissons Ratio (z) = -0.09061 0.12098
#
# Static dielectric constant tensor:
#      x y z
#    x 1.655870 0.000000 0.000000 
#    y 0.000000 1.732010 0.000000 
#    z 0.000000 0.000000 1.835390 
# 
# From -- ./inp_files/708.got.cif
#   From: 2010.05.17/outbox.cif.g08.bks.cpg/sg29_1_cif.got.tgz:708.got - 2010.06.04 01:19:37.
