data_PCOD9340503
_publ_section_title
;
Structure prediction by ZEFSAII (Michael W. Deem and Ramdas Pophale) SiO2 
 PCOD9340503
Probable space group: P C A 21
;
_chemical_formula_sum "Si O2"
_cell_formula_units_Z 32
_cell_length_a 31.406461
_cell_length_b 5.234530
_cell_length_c 9.094508
_cell_angle_alpha 90.000000
_cell_angle_beta 90.000000
_cell_angle_gamma 90.000000
_cell_volume 1495.119493
_symmetry_space_group_name_H-M "P C A 21"
_symmetry_group_IT_number 29
_symmetry_cell_setting 'orthorhombic'
loop_
_space_group_symop_operation_xyz
x,y,z
-x,-y,1/2+z
1/2-x,y,1/2+z
1/2+x,-y,z
loop_
_atom_site_type_symbol
_atom_site_label
_atom_site_fract_x
_atom_site_fract_y
_atom_site_fract_z
Si Si1 0.755287 0.339361 0.649920
Si Si2 0.481819 0.755362 0.252744
Si Si3 0.814323 0.619436 0.270138
Si Si4 0.188200 0.988865 0.528274
Si Si5 0.884228 0.250055 0.205120
Si Si6 0.970016 0.739588 0.446503
Si Si7 0.689201 0.841436 0.202450
Si Si8 0.126392 0.113902 0.976455
O O1 0.721000 0.401587 0.781279
O O2 0.786839 0.581305 0.654346
O O3 0.719274 0.258313 0.528060
O O4 0.784788 0.093242 0.656302
O O5 0.434152 0.737299 0.185123
O O6 0.512938 0.753801 0.113102
O O7 0.485787 0.512601 0.361246
O O8 0.483672 0.012488 0.350869
O O9 0.796099 0.828470 0.159780
O O10 0.858219 0.511632 0.203143
O O11 0.831256 0.749890 0.414544
O O12 0.189020 0.141838 0.378844
O O13 0.141098 0.912194 0.583529
O O14 0.877153 0.132206 0.369756
O O15 0.918348 0.744200 0.454284
O O16 0.640938 0.894361 0.144521
#
# Coordination Sequence:
#
# PCOD9340503 Si02
#       8
#     4   4   4   4   4   4   4   4
#     4  11  26  41  61  92 131 174 223 276 343 397
#     4  11  23  45  73 107 140 184 227 289 340 431
#     4  10  20  44  66  88 129 176 222 263 329 414
#     4  10  24  44  62  96 129 170 229 281 333 411
#     4   9  21  42  71  91 132 179 223 257 347 410
#     4  11  24  45  72 107 144 179 237 277 359 416
#     4  12  28  40  66  95 133 169 228 290 339 383
#     4  10  24  43  67  98 132 179 221 279 338 408
#
# _framework density 21.40297
#
# number of rings (size 3 to 8) (size 9 to 14) (size 15 to 20)
#    0.000    1.500    2.500    0.750    8.750    1.000 
#    2.250    0.000    0.000    0.000    0.000    0.000 
#    0.000    0.000    0.000    0.000    0.000    0.000 
#
# Total GULP energy -178362.874310 kJ/mol
# GULP energy per Si atom -5573.839822 kJ/mol
# Density = 2.135426 g / cm^3
# Si number density = 21.402970 Si / 1000 Ang^3
#
#
#
# Elastic Constant Matrix: (Units=GPa)
#
#
# Indices 1 2 3 4 5 6 
#
# 1 68.4456 33.9706 46.9876 0.0000 0.0000 0.0000
# 2 33.9706 126.4744 41.1730 0.0000 0.0000 0.0000
# 3 46.9876 41.1730 96.4434 0.0000 0.0000 0.0000
# 4 0.0000 0.0000 0.0000 11.5617 0.0000 0.0000
# 5 0.0000 0.0000 0.0000 0.0000 6.4512 0.0000
# 6 0.0000 0.0000 0.0000 0.0000 0.0000-5929.5614
#
#
#
# Elastic Compliance Matrix: (Units=1/GPa)
#
#
# Indices 1 2 3 4 5 6 
#
# 1 0.022844 -0.002918 -0.009884 0.000000 0.000000 0.000000
# 2 -0.002918 0.009556 -0.002658 0.000000 0.000000 0.000000
# 3 -0.009884 -0.002658 0.016319 0.000000 0.000000 0.000000
# 4 0.000000 0.000000 0.000000 0.086492 0.000000 0.000000
# 5 0.000000 0.000000 0.000000 0.000000 0.155010 0.000000
# 6 0.000000 0.000000 0.000000 0.000000 0.000000 -0.000169
#
#
# Mechanical properties :
#
#
# Convention : Reuss Voigt Hill
#
# Bulk Modulus (GPa) = 56.18307 59.51397 57.84852
# Shear Modulus (GPa) = 15.29501 -1171.02753 -577.86626
#
# Velocity S-wave (km/s) = 2.67614 -23.41625 -16.44930
# Velocity P-wave (km/s) = 5.98799 26.51844 18.26707
#
# Compressibility (1/GPa) = 0.01779895
#
# Stress axis : x y z
#
# Youngs Moduli (GPa) = 43.77610 104.64898 61.27918
#
# Poissons Ratio (x) = 0.30538 0.60566
# Poissons Ratio (y) = 0.12774 0.16287
# Poissons Ratio (z) = 0.43267 0.27813
#
# Static dielectric constant tensor:
#      x y z
#    x 1.749390 0.000000 0.000000 
#    y 0.000000 1.830490 0.000000 
#    z 0.000000 0.000000 1.841760 
# 
# From -- ./inp_files/2622.got.cif
#   From: 2010.05.17/outbox.cif.g08.bks.cpg/sg29_2_cif.got.tgz:2622.got - 2010.06.04 01:19:37.
