data_PCOD9340184
_publ_section_title
;
Structure prediction by ZEFSAII (Michael W. Deem and Ramdas Pophale) SiO2 
 PCOD9340184
Probable space group: P C A 21
;
_chemical_formula_sum "Si O2"
_cell_formula_units_Z 32
_cell_length_a 13.087862
_cell_length_b 20.354861
_cell_length_c 5.170609
_cell_angle_alpha 90.000000
_cell_angle_beta 90.000000
_cell_angle_gamma 90.000000
_cell_volume 1377.458572
_symmetry_space_group_name_H-M "P C A 21"
_symmetry_group_IT_number 29
_symmetry_cell_setting 'orthorhombic'
loop_
_space_group_symop_operation_xyz
x,y,z
-x,-y,1/2+z
1/2-x,y,1/2+z
1/2+x,-y,z
loop_
_atom_site_type_symbol
_atom_site_label
_atom_site_fract_x
_atom_site_fract_y
_atom_site_fract_z
Si Si1 0.194082 0.788856 0.882820
Si Si2 0.180620 0.275046 0.897837
Si Si3 0.310627 0.407126 0.254563
Si Si4 0.723468 0.068208 0.414138
Si Si5 0.181568 0.134435 0.789602
Si Si6 0.176486 0.653339 0.019812
Si Si7 0.556337 0.479089 0.954673
Si Si8 0.499663 0.041908 0.448841
O O1 0.210233 0.777549 0.579631
O O2 0.197878 0.868952 0.911056
O O3 0.128085 0.727211 0.983619
O O4 0.273935 0.275164 0.686808
O O5 0.123493 0.343176 0.837582
O O6 0.129328 0.205964 0.838483
O O7 0.216471 0.401590 0.455389
O O8 0.356370 0.476490 0.326407
O O9 0.752054 0.027928 0.662658
O O10 0.604424 0.083262 0.421668
O O11 0.227668 0.131118 0.502259
O O12 0.096568 0.081959 0.854148
O O13 0.260820 0.647134 0.788382
O O14 0.095054 0.594950 0.991676
O O15 0.470359 0.489449 0.733732
O O16 0.489602 0.017561 0.743022
#
# Coordination Sequence:
#
# PCOD9340184 Si02
#       8
#     4   4   4   4   4   4   4   4
#     4   8  16  32  57  82 106 146 195 240 287 343
#     4   8  16  32  57  82 104 136 186 233 278 338
#     4  10  19  36  59  78 102 146 190 224 275 342
#     4  10  21  40  62  86 121 160 201 250 300 357
#     4  10  21  40  63  88 119 156 195 245 298 354
#     4  10  19  36  59  80 107 152 198 233 281 353
#     4  12  24  36  51  82 120 148 184 241 293 338
#     4  12  26  40  60  92 123 158 203 244 300 371
#
# _framework density 23.231188
#
# number of rings (size 3 to 8) (size 9 to 14) (size 15 to 20)
#    0.000    2.000    0.000    3.750    0.000    3.000 
#    0.000    7.500    0.000    0.000    0.000    0.000 
#    0.000    0.000    0.000    0.000    0.000    0.000 
#
# Total GULP energy -178168.847036 kJ/mol
# GULP energy per Si atom -5567.776470 kJ/mol
# Density = 2.317831 g / cm^3
# Si number density = 23.231188 Si / 1000 Ang^3
#
#
#
# Elastic Constant Matrix: (Units=GPa)
#
#
# Indices 1 2 3 4 5 6 
#
# 1 34.2871 24.5052 16.5764 0.0000 0.0000 0.0000
# 2 24.5052 102.6688 -0.0854 0.0000 0.0000 0.0000
# 3 16.5764 -0.0854 141.1441 0.0000 0.0000 0.0000
# 4 0.0000 0.0000 0.0000 32.3554 0.0000 0.0000
# 5 0.0000 0.0000 0.0000 0.0000 24.1901 0.0000
# 6 0.0000 0.0000 0.0000 0.0000 0.0000 17.0952
#
#
#
# Elastic Compliance Matrix: (Units=1/GPa)
#
#
# Indices 1 2 3 4 5 6 
#
# 1 0.037755 -0.009015 -0.004440 0.000000 0.000000 0.000000
# 2 -0.009015 0.011893 0.001066 0.000000 0.000000 0.000000
# 3 -0.004440 0.001066 0.007607 0.000000 0.000000 0.000000
# 4 0.000000 0.000000 0.000000 0.030907 0.000000 0.000000
# 5 0.000000 0.000000 0.000000 0.000000 0.041339 0.000000
# 6 0.000000 0.000000 0.000000 0.000000 0.000000 0.058496
#
#
# Mechanical properties :
#
#
# Convention : Reuss Voigt Hill
#
# Bulk Modulus (GPa) = 30.79071 40.01026 35.40048
# Shear Modulus (GPa) = 22.36139 30.53506 26.44823
#
# Velocity S-wave (km/s) = 3.10588 3.62940 3.37780
# Velocity P-wave (km/s) = 5.11320 5.90114 5.52124
#
# Compressibility (1/GPa) = 0.03247733
#
# Stress axis : x y z
#
# Youngs Moduli (GPa) = 26.48656 84.08531 131.45801
#
# Poissons Ratio (x) = 0.75804 0.58361
# Poissons Ratio (y) = 0.23878 -0.14013
# Poissons Ratio (z) = 0.11759 -0.08963
#
# Static dielectric constant tensor:
#      x y z
#    x 1.897930 0.000000 0.000000 
#    y 0.000000 2.007990 0.000000 
#    z 0.000000 0.000000 1.933320 
# 
# From -- ./inp_files/115.got.cif
#   From: 2010.05.17/outbox.cif.g08.bks.cpg/sg29_1_cif.got.tgz:115.got - 2010.06.04 01:19:37.
