data_PCOD9340798
_publ_section_title
;
Structure prediction by ZEFSAII (Michael W. Deem and Ramdas Pophale) SiO2 
 PCOD9340798
Probable space group: P C A 21
;
_chemical_formula_sum "Si O2"
_cell_formula_units_Z 28
_cell_length_a 23.876007
_cell_length_b 6.590277
_cell_length_c 8.447896
_cell_angle_alpha 90.000000
_cell_angle_beta 90.000000
_cell_angle_gamma 90.000000
_cell_volume 1329.272210
_symmetry_space_group_name_H-M "P C A 21"
_symmetry_group_IT_number 29
_symmetry_cell_setting 'orthorhombic'
loop_
_space_group_symop_operation_xyz
x,y,z
-x,-y,1/2+z
1/2-x,y,1/2+z
1/2+x,-y,z
loop_
_atom_site_type_symbol
_atom_site_label
_atom_site_fract_x
_atom_site_fract_y
_atom_site_fract_z
Si Si1 0.326244 0.397896 0.860300
Si Si2 0.112042 0.093253 0.121639
Si Si3 0.696483 0.187484 0.236203
Si Si4 0.004455 0.782857 0.745033
Si Si5 0.202644 0.039451 0.561887
Si Si6 0.094888 0.120875 0.772014
Si Si7 0.056891 0.453768 0.524268
O O1 0.352778 0.239367 0.736734
O O2 0.295515 0.574131 0.763678
O O3 0.380943 0.487492 0.951444
O O4 0.290001 0.264134 0.984138
O O5 0.049102 0.091545 0.185012
O O6 0.141552 0.874319 0.136074
O O7 0.113038 0.184539 0.946747
O O8 0.746435 0.063433 0.154025
O O9 0.689703 0.102363 0.412957
O O10 0.052666 0.935073 0.797265
O O11 0.028581 0.649269 0.601226
O O12 0.981687 0.642447 0.887199
O O13 0.149382 0.053057 0.675283
O O14 0.065542 0.291530 0.665509
#
# Coordination Sequence:
#
# PCOD9340798 Si02
#       7
#     4   4   4   4   4   4   4
#     4   9  22  42  62  88 124 160 202 260 312 373
#     4  10  23  38  60  90 121 160 207 250 302 374
#     4  11  22  42  64  87 122 162 200 254 316 364
#     4  11  22  38  60  89 123 162 207 256 307 368
#     4  10  23  41  63  93 120 156 212 253 303 379
#     4  11  22  40  62  88 123 161 201 255 307 364
#     4  10  22  37  57  87 123 161 205 254 313 374
#
# _framework density 21.064157999999999
#
# number of rings (size 3 to 8) (size 9 to 14) (size 15 to 20)
#    0.000    1.714    0.000    4.286    0.000    9.143 
#    0.000    5.714    0.000    0.000    0.000    0.000 
#    0.000    0.000    0.000    0.000    0.000    0.000 
#
# Total GULP energy -156456.981031 kJ/mol
# GULP energy per Si atom -5587.749323 kJ/mol
# Density = 2.101622 g / cm^3
# Si number density = 21.064158 Si / 1000 Ang^3
#
#
#
# Elastic Constant Matrix: (Units=GPa)
#
#
# Indices 1 2 3 4 5 6 
#
# 1 80.1697 53.6273 33.4671 0.0000 0.0000 0.0000
# 2 53.6273 77.6678 3.2297 0.0000 0.0000 0.0000
# 3 33.4671 3.2297 82.3454 0.0000 0.0000 0.0000
# 4 0.0000 0.0000 0.0000 26.0309 0.0000 0.0000
# 5 0.0000 0.0000 0.0000 0.0000 25.8620 0.0000
# 6 0.0000 0.0000 0.0000 0.0000 0.0000 -3.4399
#
#
#
# Elastic Compliance Matrix: (Units=1/GPa)
#
#
# Indices 1 2 3 4 5 6 
#
# 1 0.031977 -0.021574 -0.012150 0.000000 0.000000 0.000000
# 2 -0.021574 0.027452 0.007691 0.000000 0.000000 0.000000
# 3 -0.012150 0.007691 0.016780 0.000000 0.000000 0.000000
# 4 0.000000 0.000000 0.000000 0.038416 0.000000 0.000000
# 5 0.000000 0.000000 0.000000 0.000000 0.038667 0.000000
# 6 0.000000 0.000000 0.000000 0.000000 0.000000 -0.290705
#
#
# Mechanical properties :
#
#
# Convention : Reuss Voigt Hill
#
# Bulk Modulus (GPa) = 41.41812 46.75901 44.08857
# Shear Modulus (GPa) = -64.68258 19.68117 -22.50070
#
# Velocity S-wave (km/s) = -5.54744 3.06002 -3.27188
# Velocity P-wave (km/s) = 4.61807 5.89335 2.58892
#
# Compressibility (1/GPa) = 0.02414402
#
# Stress axis : x y z
#
# Youngs Moduli (GPa) = 31.27268 36.42772 59.59358
#
# Poissons Ratio (x) = 0.78589 0.72406
# Poissons Ratio (y) = 0.67467 -0.45836
# Poissons Ratio (z) = 0.37996 -0.28018
#
# Static dielectric constant tensor:
#      x y z
#    x 1.783190 0.000000 0.000000 
#    y 0.000000 1.777640 0.000000 
#    z 0.000000 0.000000 1.744260 
# 
# From -- ./inp_files/2410.got.cif
#   From: 2010.05.17/outbox.cif.g08.bks.cpg/sg29_2_cif.got.tgz:2410.got - 2010.06.04 01:19:37.
