data_PCOD9340879
_publ_section_title
;
Structure prediction by ZEFSAII (Michael W. Deem and Ramdas Pophale) SiO2 
 PCOD9340879
Probable space group: P C A 21
;
_chemical_formula_sum "Si O2"
_cell_formula_units_Z 32
_cell_length_a 22.280091
_cell_length_b 5.996856
_cell_length_c 10.723954
_cell_angle_alpha 90.000000
_cell_angle_beta 90.000000
_cell_angle_gamma 90.000000
_cell_volume 1432.832828
_symmetry_space_group_name_H-M "P C A 21"
_symmetry_group_IT_number 29
_symmetry_cell_setting 'orthorhombic'
loop_
_space_group_symop_operation_xyz
x,y,z
-x,-y,1/2+z
1/2-x,y,1/2+z
1/2+x,-y,z
loop_
_atom_site_type_symbol
_atom_site_label
_atom_site_fract_x
_atom_site_fract_y
_atom_site_fract_z
Si Si1 0.221776 0.585870 0.109140
Si Si2 0.546058 0.576933 0.092231
Si Si3 0.109090 0.831699 0.165171
Si Si4 0.911447 0.459954 0.053427
Si Si5 0.145063 0.209297 0.972835
Si Si6 0.603291 0.810192 0.334007
Si Si7 0.313177 0.915327 0.990097
Si Si8 0.178834 0.274891 0.707132
O O1 0.169731 0.694496 0.193947
O O2 0.188738 0.396419 0.029155
O O3 0.255307 0.756937 0.014413
O O4 0.268773 0.457720 0.196343
O O5 0.559775 0.315883 0.096920
O O6 0.476511 0.627603 0.090918
O O7 0.579185 0.679775 0.973084
O O8 0.583340 0.664681 0.213378
O O9 0.078467 0.953517 0.282078
O O10 0.136240 0.005903 0.066129
O O11 0.868046 0.260568 0.007516
O O12 0.879698 0.584432 0.168221
O O13 0.916188 0.654125 0.947780
O O14 0.169930 0.157426 0.838312
O O15 0.669267 0.911992 0.376299
O O16 0.310384 0.085888 0.105145
#
# Coordination Sequence:
#
# PCOD9340879 Si02
#       8
#     4   4   4   4   4   4   4   4
#     4  10  22  42  64  96 132 168 208 274 332 392
#     4  10  23  43  64  96 133 171 216 272 327 383
#     4  10  22  43  63  97 128 169 216 268 329 386
#     4  10  23  43  64  96 133 171 216 272 327 383
#     4  10  23  42  64  97 128 168 219 260 329 400
#     4  10  22  40  66  92 124 170 222 260 322 398
#     4  10  22  43  63  97 128 169 216 268 329 386
#     4  10  23  42  64  97 128 168 219 260 329 400
#
# _framework density 22.333380999999999
#
# number of rings (size 3 to 8) (size 9 to 14) (size 15 to 20)
#    0.000    2.000    0.000    1.500    3.500    8.000 
#   27.000    0.000    0.000    0.000    0.000    0.000 
#    0.000    0.000    0.000    0.000    0.000    0.000 
#
# Total GULP energy -178170.967172 kJ/mol
# GULP energy per Si atom -5567.842724 kJ/mol
# Density = 2.228255 g / cm^3
# Si number density = 22.333381 Si / 1000 Ang^3
#
#
#
# Elastic Constant Matrix: (Units=GPa)
#
#
# Indices 1 2 3 4 5 6 
#
# 1 73.6149 16.5477 2.7023 0.0000 0.0000 0.0000
# 2 16.5477 67.9667 9.6505 0.0000 0.0000 0.0000
# 3 2.7023 9.6505 45.9565 0.0000 0.0000 0.0000
# 4 0.0000 0.0000 0.0000 27.5430 0.0000 0.0000
# 5 0.0000 0.0000 0.0000 0.0000 5.7136 0.0000
# 6 0.0000 0.0000 0.0000 0.0000 0.0000 12.9825
#
#
#
# Elastic Compliance Matrix: (Units=1/GPa)
#
#
# Indices 1 2 3 4 5 6 
#
# 1 0.014371 -0.003483 -0.000114 0.000000 0.000000 0.000000
# 2 -0.003483 0.016009 -0.003157 0.000000 0.000000 0.000000
# 3 -0.000114 -0.003157 0.022429 0.000000 0.000000 0.000000
# 4 0.000000 0.000000 0.000000 0.036307 0.000000 0.000000
# 5 0.000000 0.000000 0.000000 0.000000 0.175020 0.000000
# 6 0.000000 0.000000 0.000000 0.000000 0.000000 0.077027
#
#
# Mechanical properties :
#
#
# Convention : Reuss Voigt Hill
#
# Bulk Modulus (GPa) = 25.44344 27.25992 26.35168
# Shear Modulus (GPa) = 13.59540 19.82367 16.70953
#
# Velocity S-wave (km/s) = 2.46996 2.98254 2.73827
# Velocity P-wave (km/s) = 4.42171 4.90847 4.67144
#
# Compressibility (1/GPa) = 0.03930286
#
# Stress axis : x y z
#
# Youngs Moduli (GPa) = 69.58323 62.46371 44.58442
#
# Poissons Ratio (x) = 0.21755 0.00507
# Poissons Ratio (y) = 0.24235 0.14075
# Poissons Ratio (z) = 0.00791 0.19720
#
# Static dielectric constant tensor:
#      x y z
#    x 1.829760 0.000000 0.000000 
#    y 0.000000 1.880830 0.000000 
#    z 0.000000 0.000000 1.855740 
# 
# From -- ./inp_files/3900.got.cif
#   From: 2010.05.17/outbox.cif.g08.bks.cpg/sg29_2_cif.got.tgz:3900.got - 2010.06.04 01:19:37.
