data_PCOD9340064
_publ_section_title
;
Structure prediction by ZEFSAII (Michael W. Deem and Ramdas Pophale) SiO2 
 PCOD9340064
Probable space group: P C A 21
;
_chemical_formula_sum "Si O2"
_cell_formula_units_Z 20
_cell_length_a 5.254384
_cell_length_b 6.932386
_cell_length_c 24.349880
_cell_angle_alpha 90.000000
_cell_angle_beta 90.000000
_cell_angle_gamma 90.000000
_cell_volume 886.954559
_symmetry_space_group_name_H-M "P C A 21"
_symmetry_group_IT_number 29
_symmetry_cell_setting 'orthorhombic'
loop_
_space_group_symop_operation_xyz
x,y,z
-x,-y,1/2+z
1/2-x,y,1/2+z
1/2+x,-y,z
loop_
_atom_site_type_symbol
_atom_site_label
_atom_site_fract_x
_atom_site_fract_y
_atom_site_fract_z
Si Si1 0.532430 0.131978 0.807100
Si Si2 0.887014 0.265947 0.961648
Si Si3 0.949328 0.621354 0.577644
Si Si4 0.950915 0.127307 0.183983
Si Si5 0.611677 0.704019 0.417287
O O1 0.520981 0.214162 0.745197
O O2 0.490556 0.285744 0.855419
O O3 0.301082 0.978414 0.812172
O O4 0.111863 0.200382 0.921654
O O5 0.850139 0.491107 0.942605
O O6 0.602338 0.192279 0.953997
O O7 0.985858 0.255206 0.023501
O O8 0.159279 0.450588 0.574675
O O9 0.000370 0.728970 0.634295
O O10 0.670191 0.035771 0.179806
#
# Coordination Sequence:
#
# PCOD9340064 Si02
#       5
#     4   4   4   4   4
#     4  10  21  39  59  81 118 156 193 240 291 354
#     4  10  19  35  58  78 119 145 183 243 294 333
#     4  12  21  40  65  88 123 160 202 254 301 353
#     4  10  23  43  62  87 124 162 201 251 305 357
#     4  10  18  35  56  82 108 155 181 232 295 341
#
# _framework density 22.54907
#
# number of rings (size 3 to 8) (size 9 to 14) (size 15 to 20)
#    0.000    1.600    4.000    2.400    0.000    0.000 
#    7.200    6.000    0.000    0.000    0.000    0.000 
#    0.000    0.000    0.000    0.000    0.000    0.000 
#
# Total GULP energy -111677.383288 kJ/mol
# GULP energy per Si atom -5583.869164 kJ/mol
# Density = 2.249775 g / cm^3
# Si number density = 22.549070 Si / 1000 Ang^3
#
#
#
# Elastic Constant Matrix: (Units=GPa)
#
#
# Indices 1 2 3 4 5 6 
#
# 1 114.7894 -18.5954 -15.6779 0.0000 0.0000 0.0000
# 2 -18.5954 33.9670 5.7575 0.0000 0.0000 0.0000
# 3 -15.6779 5.7575 152.3892 0.0000 0.0000 0.0000
# 4 0.0000 0.0000 0.0000 38.6309 0.0000 0.0000
# 5 0.0000 0.0000 0.0000 0.0000 37.3380 0.0000
# 6 0.0000 0.0000 0.0000 0.0000 0.0000 -5.3532
#
#
#
# Elastic Compliance Matrix: (Units=1/GPa)
#
#
# Indices 1 2 3 4 5 6 
#
# 1 0.009655 0.005150 0.000799 0.000000 0.000000 0.000000
# 2 0.005150 0.032377 -0.000693 0.000000 0.000000 0.000000
# 3 0.000799 -0.000693 0.006671 0.000000 0.000000 0.000000
# 4 0.000000 0.000000 0.000000 0.025886 0.000000 0.000000
# 5 0.000000 0.000000 0.000000 0.000000 0.026782 0.000000
# 6 0.000000 0.000000 0.000000 0.000000 0.000000 -0.186803
#
#
# Mechanical properties :
#
#
# Convention : Reuss Voigt Hill
#
# Bulk Modulus (GPa) = 16.88784 27.12377 22.00581
# Shear Modulus (GPa) = -65.61234 36.10056 -14.75589
#
# Velocity S-wave (km/s) = -5.40007 4.00556 -2.56088
# Velocity P-wave (km/s) = 5.60137 5.78339 1.01790
#
# Compressibility (1/GPa) = 0.05921419
#
# Stress axis : x y z
#
# Youngs Moduli (GPa) = 103.57304 30.88575 149.91344
#
# Poissons Ratio (x) = -0.15907 -0.11974
# Poissons Ratio (y) = -0.53343 0.10395
# Poissons Ratio (z) = -0.08273 0.02142
#
# Static dielectric constant tensor:
#      x y z
#    x 1.900690 0.000000 0.000000 
#    y 0.000000 2.333780 0.000000 
#    z 0.000000 0.000000 1.820660 
# 
# From -- ./inp_files/4874.got.cif
#   From: 2010.05.17/outbox.cif.g08.bks.cpg/sg29_3_cif.got.tgz:4874.got - 2010.06.04 01:19:37.
