data_PCOD9340852
_publ_section_title
;
Structure prediction by ZEFSAII (Michael W. Deem and Ramdas Pophale) SiO2 
 PCOD9340852
Probable space group: P C A 21
;
_chemical_formula_sum "Si O2"
_cell_formula_units_Z 28
_cell_length_a 13.061455
_cell_length_b 5.161469
_cell_length_c 16.545767
_cell_angle_alpha 90.000000
_cell_angle_beta 90.000000
_cell_angle_gamma 90.000000
_cell_volume 1115.454310
_symmetry_space_group_name_H-M "P C A 21"
_symmetry_group_IT_number 29
_symmetry_cell_setting 'orthorhombic'
loop_
_space_group_symop_operation_xyz
x,y,z
-x,-y,1/2+z
1/2-x,y,1/2+z
1/2+x,-y,z
loop_
_atom_site_type_symbol
_atom_site_label
_atom_site_fract_x
_atom_site_fract_y
_atom_site_fract_z
Si Si1 0.913452 0.763460 0.238080
Si Si2 0.134930 0.261237 0.999125
Si Si3 0.095784 0.900890 0.502180
Si Si4 0.980160 0.730739 0.776681
Si Si5 0.260079 0.957096 0.137883
Si Si6 0.828034 0.602280 0.918060
Si Si7 0.410437 0.583206 0.638808
O O1 0.931532 0.489246 0.280510
O O2 0.986287 0.735656 0.158218
O O3 0.968823 0.992362 0.287036
O O4 0.804629 0.853104 0.205659
O O5 0.113161 0.529108 0.046375
O O6 0.023794 0.143596 0.987860
O O7 0.198186 0.095877 0.065541
O O8 0.209057 0.316242 0.924063
O O9 0.141431 0.836209 0.591132
O O10 0.154304 0.693861 0.444614
O O11 0.120194 0.197859 0.481462
O O12 0.890139 0.662708 0.837688
O O13 0.931083 0.681267 0.688193
O O14 0.185850 0.739624 0.173347
#
# Coordination Sequence:
#
# PCOD9340852 Si02
#       7
#     4   4   4   4   4   4   4
#     4  10  24  41  69  95 140 173 230 277 349 397
#     4  11  25  42  70 106 133 179 232 287 341 408
#     4  11  25  41  70  99 137 176 230 285 343 411
#     4  10  23  46  66  96 141 184 226 288 332 422
#     4  11  22  40  67 105 131 178 221 294 342 401
#     4  11  25  47  69  96 143 187 227 282 348 410
#     4  10  22  39  71  97 139 169 234 283 343 395
#
# _framework density 25.101882
#
# number of rings (size 3 to 8) (size 9 to 14) (size 15 to 20)
#    0.857    0.571    1.429    3.429    8.000    0.000 
#    2.571    2.857    0.000    0.000    0.000    0.000 
#    0.000    0.000    0.000    0.000    0.000    0.000 
#
# Total GULP energy -156558.823243 kJ/mol
# GULP energy per Si atom -5591.386544 kJ/mol
# Density = 2.504475 g / cm^3
# Si number density = 25.101882 Si / 1000 Ang^3
#
#
#
# Elastic Constant Matrix: (Units=GPa)
#
#
# Indices 1 2 3 4 5 6 
#
# 1 97.7369 -12.4447 6.9961 0.0000 0.0000 0.0000
# 2 -12.4447 72.5223 0.0816 0.0000 0.0000 0.0000
# 3 6.9961 0.0816 29.2695 0.0000 0.0000 0.0000
# 4 0.0000 0.0000 0.0000 23.8336 0.0000 0.0000
# 5 0.0000 0.0000 0.0000 0.0000 31.2406 0.0000
# 6 0.0000 0.0000 0.0000 0.0000 0.0000 43.4845
#
#
#
# Elastic Compliance Matrix: (Units=1/GPa)
#
#
# Indices 1 2 3 4 5 6 
#
# 1 0.010647 0.001830 -0.002550 0.000000 0.000000 0.000000
# 2 0.001830 0.014103 -0.000477 0.000000 0.000000 0.000000
# 3 -0.002550 -0.000477 0.034776 0.000000 0.000000 0.000000
# 4 0.000000 0.000000 0.000000 0.041957 0.000000 0.000000
# 5 0.000000 0.000000 0.000000 0.000000 0.032010 0.000000
# 6 0.000000 0.000000 0.000000 0.000000 0.000000 0.022997
#
#
# Mechanical properties :
#
#
# Convention : Reuss Voigt Hill
#
# Bulk Modulus (GPa) = 17.50304 20.97719 19.24012
# Shear Modulus (GPa) = 28.10121 33.37145 30.73633
#
# Velocity S-wave (km/s) = 3.34950 3.65010 3.50303
# Velocity P-wave (km/s) = 4.68474 5.11266 4.90337
#
# Compressibility (1/GPa) = 0.05713292
#
# Stress axis : x y z
#
# Youngs Moduli (GPa) = 93.92249 70.90484 28.75543
#
# Poissons Ratio (x) = -0.12975 0.07333
# Poissons Ratio (y) = -0.17187 0.01371
# Poissons Ratio (z) = 0.23950 0.03380
#
# Static dielectric constant tensor:
#      x y z
#    x 2.022990 0.000000 0.000000 
#    y 0.000000 1.991730 0.000000 
#    z 0.000000 0.000000 2.036520 
# 
# From -- ./inp_files/5460.got.cif
#   From: 2010.05.17/outbox.cif.g08.bks.cpg/sg29_3_cif.got.tgz:5460.got - 2010.06.04 01:19:37.
