data_PCOD9340107
_publ_section_title
;
Structure prediction by ZEFSAII (Michael W. Deem and Ramdas Pophale) SiO2 
 PCOD9340107
Probable space group: P C A 21
;
_chemical_formula_sum "Si O2"
_cell_formula_units_Z 32
_cell_length_a 6.568429
_cell_length_b 21.429791
_cell_length_c 7.646638
_cell_angle_alpha 90.000000
_cell_angle_beta 90.000000
_cell_angle_gamma 90.000000
_cell_volume 1076.341229
_symmetry_space_group_name_H-M "P C A 21"
_symmetry_group_IT_number 29
_symmetry_cell_setting 'orthorhombic'
loop_
_space_group_symop_operation_xyz
x,y,z
-x,-y,1/2+z
1/2-x,y,1/2+z
1/2+x,-y,z
loop_
_atom_site_type_symbol
_atom_site_label
_atom_site_fract_x
_atom_site_fract_y
_atom_site_fract_z
Si Si1 0.959636 0.672634 0.367140
Si Si2 0.441457 0.921340 0.119872
Si Si3 0.359890 0.446884 0.213231
Si Si4 0.988536 0.295863 0.460011
Si Si5 0.941457 0.421340 0.338166
Si Si6 0.859890 0.946884 0.244807
Si Si7 0.511464 0.204137 0.498027
Si Si8 0.959636 0.827366 0.090898
O O1 0.971471 0.597371 0.355053
O O2 0.007904 0.690320 0.166384
O O3 0.719115 0.690390 0.395299
O O4 0.056194 0.721794 0.507033
O O5 0.530203 0.940598 0.929709
O O6 0.361264 0.851055 0.092456
O O7 0.634519 0.918270 0.248741
O O8 0.325278 0.981885 0.188008
O O9 0.134518 0.418270 0.209297
O O10 0.469797 0.440598 0.028330
O O11 0.325278 0.518115 0.270031
O O12 0.861264 0.351055 0.365582
O O13 0.943806 0.221794 0.451005
O O14 0.971471 0.902629 0.102985
O O15 0.280885 0.190390 0.562738
O O16 0.507904 0.190320 0.291654
#
# Coordination Sequence:
#
# PCOD9340107 Si02
#       8
#     4   4   4   4   4   4   4   4
#     4   8  14  25  42  64  88 114 146 185 226 266
#     4  10  19  31  48  70  96 124 154 189 229 274
#     4  10  19  31  48  70  96 124 154 189 229 274
#     4   8  14  25  42  64  88 114 146 185 226 266
#     4  10  19  31  48  70  96 124 154 189 229 274
#     4  10  19  31  48  70  96 124 154 189 229 274
#     4   8  14  25  42  64  88 114 146 185 226 266
#     4   8  14  25  42  64  88 114 146 185 226 266
#
# _framework density 29.730350000000001
#
# number of rings (size 3 to 8) (size 9 to 14) (size 15 to 20)
#    0.000    3.000    0.000    1.500    0.000    2.000 
#    0.000    0.000    0.000    1.500    0.000    0.000 
#    0.000    0.000    0.000    0.000    0.000    0.000 
#
# Total GULP energy -179075.753292 kJ/mol
# GULP energy per Si atom -5596.117290 kJ/mol
# Density = 2.966268 g / cm^3
# Si number density = 29.730350 Si / 1000 Ang^3
#
#
#
# Elastic Constant Matrix: (Units=GPa)
#
#
# Indices 1 2 3 4 5 6 
#
# 1 53.3073 21.0215 34.1341 0.0000 0.0000 0.0000
# 2 21.0215 181.2640 62.1441 0.0000 0.0000 0.0000
# 3 34.1341 62.1441 172.4076 0.0000 0.0000 0.0000
# 4 0.0000 0.0000 0.0000 30.2800 0.0000 0.0000
# 5 0.0000 0.0000 0.0000 0.0000 38.9015 0.0000
# 6 0.0000 0.0000 0.0000 0.0000 0.0000 68.4186
#
#
#
# Elastic Compliance Matrix: (Units=1/GPa)
#
#
# Indices 1 2 3 4 5 6 
#
# 1 0.021706 -0.001191 -0.003868 0.000000 0.000000 0.000000
# 2 -0.001191 0.006360 -0.002057 0.000000 0.000000 0.000000
# 3 -0.003868 -0.002057 0.007307 0.000000 0.000000 0.000000
# 4 0.000000 0.000000 0.000000 0.033025 0.000000 0.000000
# 5 0.000000 0.000000 0.000000 0.000000 0.025706 0.000000
# 6 0.000000 0.000000 0.000000 0.000000 0.000000 0.014616
#
#
# Mechanical properties :
#
#
# Convention : Reuss Voigt Hill
#
# Bulk Modulus (GPa) = 47.30054 71.28649 59.29352
# Shear Modulus (GPa) = 38.46186 46.83195 42.64690
#
# Velocity S-wave (km/s) = 3.60069 3.97321 3.79153
# Velocity P-wave (km/s) = 5.76464 6.71404 6.25737
#
# Compressibility (1/GPa) = 0.02114141
#
# Stress axis : x y z
#
# Youngs Moduli (GPa) = 46.07085 157.23150 136.84871
#
# Poissons Ratio (x) = 0.18728 0.52934
# Poissons Ratio (y) = 0.05488 0.28145
# Poissons Ratio (z) = 0.17820 0.32337
#
# Static dielectric constant tensor:
#      x y z
#    x 2.489190 0.000000 0.000000 
#    y 0.000000 2.430440 0.000000 
#    z 0.000000 0.000000 2.149860 
# 
# From -- ./inp_files/1614.got.cif
#   From: 2010.05.17/outbox.cif.g08.bks.cpg/sg29_1_cif.got.tgz:1614.got - 2010.06.04 01:19:37.
