data_PCOD9340793
_publ_section_title
;
Structure prediction by ZEFSAII (Michael W. Deem and Ramdas Pophale) SiO2 
 PCOD9340793
Probable space group: P C A 21
;
_chemical_formula_sum "Si O2"
_cell_formula_units_Z 28
_cell_length_a 9.206368
_cell_length_b 7.936034
_cell_length_c 16.704525
_cell_angle_alpha 90.000000
_cell_angle_beta 90.000000
_cell_angle_gamma 90.000000
_cell_volume 1220.466832
_symmetry_space_group_name_H-M "P C A 21"
_symmetry_group_IT_number 29
_symmetry_cell_setting 'orthorhombic'
loop_
_space_group_symop_operation_xyz
x,y,z
-x,-y,1/2+z
1/2-x,y,1/2+z
1/2+x,-y,z
loop_
_atom_site_type_symbol
_atom_site_label
_atom_site_fract_x
_atom_site_fract_y
_atom_site_fract_z
Si Si1 0.111672 0.452332 0.008100
Si Si2 0.669515 0.092783 0.046796
Si Si3 0.037266 0.884465 0.453563
Si Si4 0.020571 0.398663 0.274556
Si Si5 0.698976 0.777933 0.150699
Si Si6 0.987987 0.649235 0.127196
Si Si7 0.729164 0.350966 0.367962
O O1 0.178685 0.382923 0.091314
O O2 0.969906 0.548876 0.042984
O O3 0.202226 0.574692 0.950552
O O4 0.064557 0.280590 0.963947
O O5 0.632686 0.252292 0.101450
O O6 0.639010 0.935485 0.104000
O O7 0.834941 0.097640 0.018997
O O8 0.564349 0.048350 0.969879
O O9 0.137023 0.821766 0.378754
O O10 0.120655 0.256844 0.233778
O O11 0.985472 0.525035 0.201608
O O12 0.118820 0.506501 0.335430
O O13 0.869499 0.336483 0.311173
O O14 0.871572 0.789324 0.151387
#
# Coordination Sequence:
#
# PCOD9340793 Si02
#       7
#     4   4   4   4   4   4   4
#     4  10  22  36  72  97 127 168 231 280 324 386
#     4  11  23  41  70  97 135 172 233 280 338 405
#     4  11  23  41  66 103 131 178 221 285 335 403
#     4  11  25  40  70  96 135 175 223 281 350 407
#     4  10  22  41  63  99 129 174 221 274 338 404
#     4  11  21  40  67  99 129 173 225 286 327 402
#     4  12  22  43  66 101 134 170 222 284 342 403
#
# _framework density 22.942041
#
# number of rings (size 3 to 8) (size 9 to 14) (size 15 to 20)
#    0.000    1.143    5.714    0.857    2.000    1.143 
#    0.000    1.429    0.000    0.000    0.000    0.000 
#    0.000    0.000    0.000    0.000    0.000    0.000 
#
# Total GULP energy -155991.246746 kJ/mol
# GULP energy per Si atom -5571.115955 kJ/mol
# Density = 2.288982 g / cm^3
# Si number density = 22.942041 Si / 1000 Ang^3
#
#
#
# Elastic Constant Matrix: (Units=GPa)
#
#
# Indices 1 2 3 4 5 6 
#
# 1 49.3879 -24.3164 -2.3043 0.0000 0.0000 0.0000
# 2 -24.3164 53.0093 3.6215 0.0000 0.0000 0.0000
# 3 -2.3043 3.6215 67.5607 0.0000 0.0000 0.0000
# 4 0.0000 0.0000 0.0000 31.0476 0.0000 0.0000
# 5 0.0000 0.0000 0.0000 0.0000 31.4421 0.0000
# 6 0.0000 0.0000 0.0000 0.0000 0.0000 19.1249
#
#
#
# Elastic Compliance Matrix: (Units=1/GPa)
#
#
# Indices 1 2 3 4 5 6 
#
# 1 0.026159 0.011983 0.000250 0.000000 0.000000 0.000000
# 2 0.011983 0.024423 -0.000900 0.000000 0.000000 0.000000
# 3 0.000250 -0.000900 0.014858 0.000000 0.000000 0.000000
# 4 0.000000 0.000000 0.000000 0.032209 0.000000 0.000000
# 5 0.000000 0.000000 0.000000 0.000000 0.031805 0.000000
# 6 0.000000 0.000000 0.000000 0.000000 0.000000 0.052288
#
#
# Mechanical properties :
#
#
# Convention : Reuss Voigt Hill
#
# Bulk Modulus (GPa) = 11.35014 13.77327 12.56171
# Shear Modulus (GPa) = 26.53291 29.18673 27.85982
#
# Velocity S-wave (km/s) = 3.40445 3.57065 3.48854
# Velocity P-wave (km/s) = 4.51794 4.79749 4.65981
#
# Compressibility (1/GPa) = 0.08810468
#
# Stress axis : x y z
#
# Youngs Moduli (GPa) = 38.22739 40.94530 67.30250
#
# Poissons Ratio (x) = -0.49063 -0.01682
# Poissons Ratio (y) = -0.45807 0.06060
# Poissons Ratio (z) = -0.00955 0.03687
#
# Static dielectric constant tensor:
#      x y z
#    x 1.935940 0.000000 0.000000 
#    y 0.000000 1.921770 0.000000 
#    z 0.000000 0.000000 1.884660 
# 
# From -- ./inp_files/4968.got.cif
#   From: 2010.05.17/outbox.cif.g08.bks.cpg/sg29_3_cif.got.tgz:4968.got - 2010.06.04 01:19:37.
