data_PCOD9340543
_publ_section_title
;
Structure prediction by ZEFSAII (Michael W. Deem and Ramdas Pophale) SiO2 
 PCOD9340543
Probable space group: P C A 21
;
_chemical_formula_sum "Si O2"
_cell_formula_units_Z 24
_cell_length_a 8.871201
_cell_length_b 15.476013
_cell_length_c 8.052542
_cell_angle_alpha 90.000000
_cell_angle_beta 90.000000
_cell_angle_gamma 90.000000
_cell_volume 1105.540110
_symmetry_space_group_name_H-M "P C A 21"
_symmetry_group_IT_number 29
_symmetry_cell_setting 'orthorhombic'
loop_
_space_group_symop_operation_xyz
x,y,z
-x,-y,1/2+z
1/2-x,y,1/2+z
1/2+x,-y,z
loop_
_atom_site_type_symbol
_atom_site_label
_atom_site_fract_x
_atom_site_fract_y
_atom_site_fract_z
Si Si1 0.034171 0.779440 0.643300
Si Si2 0.982105 0.415118 0.095304
Si Si3 0.131372 0.758894 0.023195
Si Si4 0.840363 0.936957 0.510244
Si Si5 0.331349 0.566234 0.456435
Si Si6 0.472901 0.086975 0.150030
O O1 0.968378 0.684732 0.600260
O O2 0.077181 0.780744 0.837567
O O3 0.194070 0.784251 0.547681
O O4 0.923116 0.856262 0.597374
O O5 0.901920 0.432739 0.272679
O O6 0.849252 0.428637 0.960479
O O7 0.111686 0.482476 0.053351
O O8 0.118258 0.655977 0.043567
O O9 0.031953 0.815355 0.147416
O O10 0.662002 0.925169 0.519062
O O11 0.901707 0.938679 0.324262
O O12 0.891041 0.024477 0.600564
#
# Coordination Sequence:
#
# PCOD9340543 Si02
#       6
#     4   4   4   4   4   4
#     4  10  21  39  61  87 117 153 194 239 289 343
#     4  10  21  37  59  85 117 154 195 240 289 343
#     4  10  21  39  61  87 117 153 194 239 289 343
#     4  12  25  42  63  88 118 153 192 237 286 342
#     4  10  21  37  59  85 117 154 195 240 289 343
#     4  12  25  42  63  88 118 153 192 237 286 342
#
# _framework density 21.708845
#
# number of rings (size 3 to 8) (size 9 to 14) (size 15 to 20)
#    0.000    1.333    0.000    6.000    0.000    5.333 
#    0.000    0.000    0.000    0.000    0.000    0.000 
#    0.000    0.000    0.000    0.000    0.000    0.000 
#
# Total GULP energy -134330.667880 kJ/mol
# GULP energy per Si atom -5597.111162 kJ/mol
# Density = 2.165943 g / cm^3
# Si number density = 21.708845 Si / 1000 Ang^3
#
#
#
# Elastic Constant Matrix: (Units=GPa)
#
#
# Indices 1 2 3 4 5 6 
#
# 1 35.5224 13.8022 -13.8468 0.0000 0.0000 0.0000
# 2 13.8022 70.9544 11.6635 0.0000 0.0000 0.0000
# 3 -13.8468 11.6635 49.5887 0.0000 0.0000 0.0000
# 4 0.0000 0.0000 0.0000 31.2630 0.0000 0.0000
# 5 0.0000 0.0000 0.0000 0.0000 29.6762 0.0000
# 6 0.0000 0.0000 0.0000 0.0000 0.0000 33.7486
#
#
#
# Elastic Compliance Matrix: (Units=1/GPa)
#
#
# Indices 1 2 3 4 5 6 
#
# 1 0.036510 -0.009131 0.012342 0.000000 0.000000 0.000000
# 2 -0.009131 0.016944 -0.006535 0.000000 0.000000 0.000000
# 3 0.012342 -0.006535 0.025149 0.000000 0.000000 0.000000
# 4 0.000000 0.000000 0.000000 0.031987 0.000000 0.000000
# 5 0.000000 0.000000 0.000000 0.000000 0.033697 0.000000
# 6 0.000000 0.000000 0.000000 0.000000 0.000000 0.029631
#
#
# Mechanical properties :
#
#
# Convention : Reuss Voigt Hill
#
# Bulk Modulus (GPa) = 13.89723 19.92259 16.90991
# Shear Modulus (GPa) = 24.44386 28.56734 26.50560
#
# Velocity S-wave (km/s) = 3.35921 3.63151 3.49801
# Velocity P-wave (km/s) = 4.63263 5.17503 4.91132
#
# Compressibility (1/GPa) = 0.07195679
#
# Stress axis : x y z
#
# Youngs Moduli (GPa) = 27.38961 59.01819 39.76243
#
# Poissons Ratio (x) = 0.53889 -0.49077
# Poissons Ratio (y) = 0.25009 0.25984
# Poissons Ratio (z) = -0.33806 0.38568
#
# Static dielectric constant tensor:
#      x y z
#    x 1.756330 0.000000 0.000000 
#    y 0.000000 1.760970 0.000000 
#    z 0.000000 0.000000 1.817840 
# 
# From -- ./inp_files/1147.got.cif
#   From: 2010.05.17/outbox.cif.g08.bks.cpg/sg29_1_cif.got.tgz:1147.got - 2010.06.04 01:19:37.
