data_PCOD9340690
_publ_section_title
;
Structure prediction by ZEFSAII (Michael W. Deem and Ramdas Pophale) SiO2 
 PCOD9340690
Probable space group: P C A 21
;
_chemical_formula_sum "Si O2"
_cell_formula_units_Z 28
_cell_length_a 10.397158
_cell_length_b 10.471273
_cell_length_c 9.288332
_cell_angle_alpha 90.000000
_cell_angle_beta 90.000000
_cell_angle_gamma 90.000000
_cell_volume 1011.234450
_symmetry_space_group_name_H-M "P C A 21"
_symmetry_group_IT_number 29
_symmetry_cell_setting 'orthorhombic'
loop_
_space_group_symop_operation_xyz
x,y,z
-x,-y,1/2+z
1/2-x,y,1/2+z
1/2+x,-y,z
loop_
_atom_site_type_symbol
_atom_site_label
_atom_site_fract_x
_atom_site_fract_y
_atom_site_fract_z
Si Si1 0.549463 0.398119 0.665990
Si Si2 0.220314 0.936641 0.452308
Si Si3 0.904630 0.131586 0.686062
Si Si4 0.986113 0.128685 0.175978
Si Si5 0.957260 0.645648 0.335796
Si Si6 0.756246 0.533398 0.665083
Si Si7 0.234167 0.211643 0.005732
O O1 0.546382 0.262647 0.750656
O O2 0.496665 0.392993 0.496407
O O3 0.708868 0.401715 0.602774
O O4 0.398720 0.456329 0.721972
O O5 0.217578 0.899404 0.287014
O O6 0.352698 0.895390 0.527288
O O7 0.102363 0.870800 0.533316
O O8 0.187156 0.087240 0.468218
O O9 0.954812 0.270078 0.731990
O O10 0.005067 0.017536 0.728410
O O11 0.130459 0.159209 0.119235
O O12 0.880521 0.524986 0.263070
O O13 0.838124 0.742602 0.363048
O O14 0.716816 0.654807 0.568954
#
# Coordination Sequence:
#
# PCOD9340690 Si02
#       7
#     4   4   4   4   4   4   4
#     4   9  22  41  68  97 142 189 235 309 364 447
#     4  11  25  41  74 103 146 192 256 315 383 452
#     4  11  25  42  72 105 146 194 250 319 382 464
#     4  10  22  42  66 100 144 182 256 304 372 446
#     4  10  22  43  72  97 145 186 252 297 385 443
#     4   9  21  42  65  95 139 185 236 294 375 439
#     4  10  21  41  65  99 136 198 231 308 373 457
#
# _framework density 27.688932000000001
#
# number of rings (size 3 to 8) (size 9 to 14) (size 15 to 20)
#    0.857    1.143    1.429    0.857   10.000    0.000 
#    5.143    1.429    0.000    0.000    0.000    0.000 
#    0.000    0.000    0.000    0.000    0.000    0.000 
#
# Total GULP energy -155964.175790 kJ/mol
# GULP energy per Si atom -5570.149135 kJ/mol
# Density = 2.762591 g / cm^3
# Si number density = 27.688932 Si / 1000 Ang^3
#
#
#
# Elastic Constant Matrix: (Units=GPa)
#
#
# Indices 1 2 3 4 5 6 
#
# 1 126.0669 29.3712 18.8694 0.0000 0.0000 0.0000
# 2 29.3712 166.5526 28.1580 0.0000 0.0000 0.0000
# 3 18.8694 28.1580 69.0222 0.0000 0.0000 0.0000
# 4 0.0000 0.0000 0.0000 37.4065 0.0000 0.0000
# 5 0.0000 0.0000 0.0000 0.0000 41.9881 0.0000
# 6 0.0000 0.0000 0.0000 0.0000 0.0000 66.0714
#
#
#
# Elastic Compliance Matrix: (Units=1/GPa)
#
#
# Indices 1 2 3 4 5 6 
#
# 1 0.008483 -0.001186 -0.001835 0.000000 0.000000 0.000000
# 2 -0.001186 0.006615 -0.002374 0.000000 0.000000 0.000000
# 3 -0.001835 -0.002374 0.015959 0.000000 0.000000 0.000000
# 4 0.000000 0.000000 0.000000 0.026733 0.000000 0.000000
# 5 0.000000 0.000000 0.000000 0.000000 0.023816 0.000000
# 6 0.000000 0.000000 0.000000 0.000000 0.000000 0.015135
#
#
# Mechanical properties :
#
#
# Convention : Reuss Voigt Hill
#
# Bulk Modulus (GPa) = 49.34513 57.15987 53.25250
# Shear Modulus (GPa) = 43.74941 48.10940 45.92941
#
# Velocity S-wave (km/s) = 3.97927 4.17285 4.07721
# Velocity P-wave (km/s) = 6.24282 6.62611 6.43732
#
# Compressibility (1/GPa) = 0.02026542
#
# Stress axis : x y z
#
# Youngs Moduli (GPa) = 117.87910 151.18031 62.66251
#
# Poissons Ratio (x) = 0.17925 0.11501
# Poissons Ratio (y) = 0.13977 0.14878
# Poissons Ratio (z) = 0.21636 0.35895
#
# Static dielectric constant tensor:
#      x y z
#    x 2.337240 0.000000 0.000000 
#    y 0.000000 2.172170 0.000000 
#    z 0.000000 0.000000 2.167170 
# 
# From -- ./inp_files/3199.got.cif
#   From: 2010.05.17/outbox.cif.g08.bks.cpg/sg29_2_cif.got.tgz:3199.got - 2010.06.04 01:19:37.
