data_PCOD9340015
_publ_section_title
;
Structure prediction by ZEFSAII (Michael W. Deem and Ramdas Pophale) SiO2 
 PCOD9340015
Probable space group: P C A 21
;
_chemical_formula_sum "Si O2"
_cell_formula_units_Z 28
_cell_length_a 5.574502
_cell_length_b 13.192222
_cell_length_c 17.680940
_cell_angle_alpha 90.000000
_cell_angle_beta 90.000000
_cell_angle_gamma 90.000000
_cell_volume 1300.257529
_symmetry_space_group_name_H-M "P C A 21"
_symmetry_group_IT_number 29
_symmetry_cell_setting 'orthorhombic'
loop_
_space_group_symop_operation_xyz
x,y,z
-x,-y,1/2+z
1/2-x,y,1/2+z
1/2+x,-y,z
loop_
_atom_site_type_symbol
_atom_site_label
_atom_site_fract_x
_atom_site_fract_y
_atom_site_fract_z
Si Si1 0.214425 0.238624 0.827250
Si Si2 0.852423 0.090912 0.746111
Si Si3 0.693804 0.963485 0.393434
Si Si4 0.523189 0.554284 0.085798
Si Si5 0.079617 0.035218 0.100215
Si Si6 0.952300 0.554890 0.403329
Si Si7 0.473482 0.236701 0.670405
O O1 0.352871 0.156812 0.880519
O O2 0.112929 0.335373 0.870083
O O3 0.352474 0.266636 0.750139
O O4 0.006856 0.168256 0.795029
O O5 0.695588 0.170023 0.698283
O O6 0.755398 0.016529 0.811245
O O7 0.964731 0.018954 0.682327
O O8 0.457313 0.016127 0.427775
O O9 0.286727 0.488958 0.108155
O O10 0.484587 0.663848 0.122294
O O11 0.534791 0.559904 0.994567
O O12 0.151967 0.152030 0.116704
O O13 0.313177 0.979927 0.066614
O O14 0.719015 0.485603 0.380817
#
# Coordination Sequence:
#
# PCOD9340015 Si02
#       7
#     4   4   4   4   4   4   4
#     4  11  20  33  61  88 116 147 193 236 286 336
#     4  10  18  32  50  92 122 152 168 224 288 354
#     4  10  17  30  49  82 119 152 172 211 279 352
#     4  10  25  46  61  77 111 158 197 238 293 344
#     4  10  17  30  49  82 119 152 172 211 279 352
#     4  10  25  46  61  77 111 158 197 238 293 344
#     4  11  20  33  61  88 116 147 193 236 286 336
#
# _framework density 21.534193999999999
#
# number of rings (size 3 to 8) (size 9 to 14) (size 15 to 20)
#    0.000    1.714    4.286    1.714    4.000    1.143 
#    0.000    0.000    0.000    6.857    0.000    0.000 
#    0.000    0.000    0.000    0.000    0.000    0.000 
#
# Total GULP energy -155929.925803 kJ/mol
# GULP energy per Si atom -5568.925922 kJ/mol
# Density = 2.148518 g / cm^3
# Si number density = 21.534194 Si / 1000 Ang^3
#
#
#
# Elastic Constant Matrix: (Units=GPa)
#
#
# Indices 1 2 3 4 5 6 
#
# 1 116.8196 30.0322 27.3398 0.0000 0.0000 0.0000
# 2 30.0322 118.2119 16.3770 0.0000 0.0000 0.0000
# 3 27.3398 16.3770 27.6765 0.0000 0.0000 0.0000
# 4 0.0000 0.0000 0.0000 96.7631 0.0000 0.0000
# 5 0.0000 0.0000 0.0000 0.0000 25.4569 0.0000
# 6 0.0000 0.0000 0.0000 0.0000 0.0000 25.6242
#
#
#
# Elastic Compliance Matrix: (Units=1/GPa)
#
#
# Indices 1 2 3 4 5 6 
#
# 1 0.011358 -0.001450 -0.010362 0.000000 0.000000 0.000000
# 2 -0.001450 0.009400 -0.004130 0.000000 0.000000 0.000000
# 3 -0.010362 -0.004130 0.048811 0.000000 0.000000 0.000000
# 4 0.000000 0.000000 0.000000 0.010335 0.000000 0.000000
# 5 0.000000 0.000000 0.000000 0.000000 0.039282 0.000000
# 6 0.000000 0.000000 0.000000 0.000000 0.000000 0.039026
#
#
# Mechanical properties :
#
#
# Convention : Reuss Voigt Hill
#
# Bulk Modulus (GPa) = 26.53520 45.57844 36.05682
# Shear Modulus (GPa) = 24.67230 42.16610 33.41920
#
# Velocity S-wave (km/s) = 3.38853 4.42984 3.94371
# Velocity P-wave (km/s) = 5.25915 6.88304 6.12515
#
# Compressibility (1/GPa) = 0.03768579
#
# Stress axis : x y z
#
# Youngs Moduli (GPa) = 88.04368 106.38394 20.48714
#
# Poissons Ratio (x) = 0.15426 0.21228
# Poissons Ratio (y) = 0.12767 0.08461
# Poissons Ratio (z) = 0.91229 0.43935
#
# Static dielectric constant tensor:
#      x y z
#    x 1.987500 0.000000 0.000000 
#    y 0.000000 1.719980 0.000000 
#    z 0.000000 0.000000 1.846920 
# 
# From -- ./inp_files/4885.got.cif
#   From: 2010.05.17/outbox.cif.g08.bks.cpg/sg29_3_cif.got.tgz:4885.got - 2010.06.04 01:19:37.
