data_PCOD9340919
_publ_section_title
;
Structure prediction by ZEFSAII (Michael W. Deem and Ramdas Pophale) SiO2 
 PCOD9340919
Probable space group: P C A 21
;
_chemical_formula_sum "Si O2"
_cell_formula_units_Z 20
_cell_length_a 9.425378
_cell_length_b 10.681717
_cell_length_c 8.535546
_cell_angle_alpha 90.000000
_cell_angle_beta 90.000000
_cell_angle_gamma 90.000000
_cell_volume 859.352117
_symmetry_space_group_name_H-M "P C A 21"
_symmetry_group_IT_number 29
_symmetry_cell_setting 'orthorhombic'
loop_
_space_group_symop_operation_xyz
x,y,z
-x,-y,1/2+z
1/2-x,y,1/2+z
1/2+x,-y,z
loop_
_atom_site_type_symbol
_atom_site_label
_atom_site_fract_x
_atom_site_fract_y
_atom_site_fract_z
Si Si1 0.702820 0.466788 0.310800
Si Si2 0.566438 0.912005 0.494974
Si Si3 0.107815 0.748210 0.775048
Si Si4 0.290923 0.986024 0.688894
Si Si5 0.449826 0.497390 0.119273
O O1 0.770468 0.334641 0.357653
O O2 0.601170 0.444552 0.162475
O O3 0.610374 0.522805 0.448363
O O4 0.834195 0.547446 0.247348
O O5 0.508734 0.793868 0.398145
O O6 0.423726 0.967717 0.572663
O O7 0.641493 0.993948 0.359518
O O8 0.687605 0.903077 0.627788
O O9 0.185874 0.866540 0.697871
O O10 0.044864 0.647738 0.652182
#
# Coordination Sequence:
#
# PCOD9340919 Si02
#       5
#     4   4   4   4   4
#     4  10  22  41  71  98 138 175 236 283 355 416
#     4  12  23  43  68 104 141 187 236 287 349 420
#     4  10  24  42  72  96 145 183 230 285 362 401
#     4  12  23  41  69 101 143 184 238 289 344 428
#     4  10  22  41  68  99 131 181 224 288 348 423
#
# _framework density 23.273347999999999
#
# number of rings (size 3 to 8) (size 9 to 14) (size 15 to 20)
#    1.200    0.000    4.000    2.400    0.000    0.000 
#    0.000    8.000    0.000    0.000    0.000    0.000 
#    0.000    0.000    0.000    0.000    0.000    0.000 
#
# Total GULP energy -111625.212593 kJ/mol
# GULP energy per Si atom -5581.260630 kJ/mol
# Density = 2.322038 g / cm^3
# Si number density = 23.273348 Si / 1000 Ang^3
#
#
#
# Elastic Constant Matrix: (Units=GPa)
#
#
# Indices 1 2 3 4 5 6 
#
# 1 106.1884 28.6123 39.1885 0.0000 0.0000 0.0000
# 2 28.6123 52.8441 31.8620 0.0000 0.0000 0.0000
# 3 39.1885 31.8620 75.4927 0.0000 0.0000 0.0000
# 4 0.0000 0.0000 0.0000 28.1353 0.0000 0.0000
# 5 0.0000 0.0000 0.0000 0.0000 29.7414 0.0000
# 6 0.0000 0.0000 0.0000 0.0000 0.0000 32.4957
#
#
#
# Elastic Compliance Matrix: (Units=1/GPa)
#
#
# Indices 1 2 3 4 5 6 
#
# 1 0.012173 -0.003730 -0.004745 0.000000 0.000000 0.000000
# 2 -0.003730 0.026526 -0.009259 0.000000 0.000000 0.000000
# 3 -0.004745 -0.009259 0.019617 0.000000 0.000000 0.000000
# 4 0.000000 0.000000 0.000000 0.035543 0.000000 0.000000
# 5 0.000000 0.000000 0.000000 0.000000 0.033623 0.000000
# 6 0.000000 0.000000 0.000000 0.000000 0.000000 0.030773
#
#
# Mechanical properties :
#
#
# Convention : Reuss Voigt Hill
#
# Bulk Modulus (GPa) = 43.76706 48.20563 45.98635
# Shear Modulus (GPa) = 24.83361 27.06532 25.94946
#
# Velocity S-wave (km/s) = 3.27010 3.41388 3.34276
# Velocity P-wave (km/s) = 5.75366 6.02471 5.89075
#
# Compressibility (1/GPa) = 0.02284823
#
# Stress axis : x y z
#
# Youngs Moduli (GPa) = 82.14611 37.69883 50.97580
#
# Poissons Ratio (x) = 0.14063 0.24187
# Poissons Ratio (y) = 0.30644 0.47198
# Poissons Ratio (z) = 0.38977 0.34905
#
# Static dielectric constant tensor:
#      x y z
#    x 1.952330 0.000000 0.000000 
#    y 0.000000 1.897200 0.000000 
#    z 0.000000 0.000000 1.927070 
# 
# From -- ./inp_files/1083.got.cif
#   From: 2010.05.17/outbox.cif.g08.bks.cpg/sg29_1_cif.got.tgz:1083.got - 2010.06.04 01:19:37.
