data_PCOD9340669
_publ_section_title
;
Structure prediction by ZEFSAII (Michael W. Deem and Ramdas Pophale) SiO2 
 PCOD9340669
Probable space group: P C A 21
;
_chemical_formula_sum "Si O2"
_cell_formula_units_Z 32
_cell_length_a 12.772470
_cell_length_b 4.913226
_cell_length_c 22.078217
_cell_angle_alpha 90.000000
_cell_angle_beta 90.000000
_cell_angle_gamma 90.000000
_cell_volume 1385.497129
_symmetry_space_group_name_H-M "P C A 21"
_symmetry_group_IT_number 29
_symmetry_cell_setting 'orthorhombic'
loop_
_space_group_symop_operation_xyz
x,y,z
-x,-y,1/2+z
1/2-x,y,1/2+z
1/2+x,-y,z
loop_
_atom_site_type_symbol
_atom_site_label
_atom_site_fract_x
_atom_site_fract_y
_atom_site_fract_z
Si Si1 0.840221 0.075194 0.774650
Si Si2 0.850816 0.303370 0.430733
Si Si3 0.367698 0.720359 0.894678
Si Si4 0.850221 0.471534 0.668265
Si Si5 0.467889 0.023686 0.621927
Si Si6 0.347770 0.782210 0.202886
Si Si7 0.544313 0.817792 0.984739
Si Si8 0.016228 0.655720 0.810414
O O1 0.811660 0.090902 0.845165
O O2 0.870119 0.350416 0.736331
O O3 0.731584 0.016612 0.739518
O O4 0.942967 0.890818 0.781533
O O5 0.731981 0.411294 0.426858
O O6 0.919880 0.513544 0.469629
O O7 0.903895 0.269221 0.364723
O O8 0.862586 0.015818 0.463731
O O9 0.443476 0.866191 0.941841
O O10 0.440410 0.542706 0.849554
O O11 0.883673 0.775372 0.654245
O O12 0.728146 0.404393 0.661877
O O13 0.920859 0.276875 0.626632
O O14 0.572223 0.059754 0.660773
O O15 0.481472 0.122391 0.553797
O O16 0.408055 0.597949 0.252939
#
# Coordination Sequence:
#
# PCOD9340669 Si02
#       8
#     4   4   4   4   4   4   4   4
#     4  10  21  40  68 103 133 169 220 277 346 408
#     4  11  24  45  69  99 132 182 221 286 344 395
#     4  11  24  42  68 103 139 175 229 283 344 417
#     4  10  25  42  69  98 134 174 229 281 342 411
#     4  12  24  48  63  97 137 182 234 282 333 407
#     4  10  22  41  70 103 132 183 213 289 345 403
#     4  11  27  42  70  93 136 185 234 280 334 405
#     4  11  21  42  67 102 139 168 220 280 348 412
#
# _framework density 23.096402000000001
#
# number of rings (size 3 to 8) (size 9 to 14) (size 15 to 20)
#    0.750    0.500    3.750    1.500    1.750    3.000 
#    4.500    0.000    0.000    0.000    0.000    0.000 
#    0.000    0.000    0.000    0.000    0.000    0.000 
#
# Total GULP energy -178430.730448 kJ/mol
# GULP energy per Si atom -5575.960327 kJ/mol
# Density = 2.304383 g / cm^3
# Si number density = 23.096402 Si / 1000 Ang^3
#
#
#
# Elastic Constant Matrix: (Units=GPa)
#
#
# Indices 1 2 3 4 5 6 
#
# 1 136.9977 5.8025 39.8127 0.0000 0.0000 0.0000
# 2 5.8025 38.9091 -4.9286 0.0000 0.0000 0.0000
# 3 39.8127 -4.9286 139.0423 0.0000 0.0000 0.0000
# 4 0.0000 0.0000 0.0000 29.7166 0.0000 0.0000
# 5 0.0000 0.0000 0.0000 0.0000 15.2421 0.0000
# 6 0.0000 0.0000 0.0000 0.0000 0.0000 21.5925
#
#
#
# Elastic Compliance Matrix: (Units=1/GPa)
#
#
# Indices 1 2 3 4 5 6 
#
# 1 0.008048 -0.001499 -0.002358 0.000000 0.000000 0.000000
# 2 -0.001499 0.026096 0.001354 0.000000 0.000000 0.000000
# 3 -0.002358 0.001354 0.007915 0.000000 0.000000 0.000000
# 4 0.000000 0.000000 0.000000 0.033651 0.000000 0.000000
# 5 0.000000 0.000000 0.000000 0.000000 0.065608 0.000000
# 6 0.000000 0.000000 0.000000 0.000000 0.000000 0.046312
#
#
# Mechanical properties :
#
#
# Convention : Reuss Voigt Hill
#
# Bulk Modulus (GPa) = 26.98714 44.03581 35.51148
# Shear Modulus (GPa) = 24.39184 31.59440 27.99312
#
# Velocity S-wave (km/s) = 3.25328 3.70257 3.48517
# Velocity P-wave (km/s) = 5.08150 6.11443 5.62174
#
# Compressibility (1/GPa) = 0.03705468
#
# Stress axis : x y z
#
# Youngs Moduli (GPa) = 124.25445 38.32010 126.34073
#
# Poissons Ratio (x) = 0.05744 0.29785
# Poissons Ratio (y) = 0.18624 -0.17109
# Poissons Ratio (z) = 0.29294 -0.05189
#
# Static dielectric constant tensor:
#      x y z
#    x 1.921900 0.000000 0.000000 
#    y 0.000000 1.961730 0.000000 
#    z 0.000000 0.000000 1.877520 
# 
# From -- ./inp_files/5702.got.cif
#   From: 2010.05.17/outbox.cif.g08.bks.cpg/sg29_3_cif.got.tgz:5702.got - 2010.06.04 01:19:37.
