data_PCOD9340938
_publ_section_title
;
Structure prediction by ZEFSAII (Michael W. Deem and Ramdas Pophale) SiO2 
 PCOD9340938
Probable space group: P C A 21
;
_chemical_formula_sum "Si O2"
_cell_formula_units_Z 24
_cell_length_a 8.445615
_cell_length_b 12.679235
_cell_length_c 8.874488
_cell_angle_alpha 90.000000
_cell_angle_beta 90.000000
_cell_angle_gamma 90.000000
_cell_volume 950.315117
_symmetry_space_group_name_H-M "P C A 21"
_symmetry_group_IT_number 29
_symmetry_cell_setting 'orthorhombic'
loop_
_space_group_symop_operation_xyz
x,y,z
-x,-y,1/2+z
1/2-x,y,1/2+z
1/2+x,-y,z
loop_
_atom_site_type_symbol
_atom_site_label
_atom_site_fract_x
_atom_site_fract_y
_atom_site_fract_z
Si Si1 0.830135 0.320880 0.502520
Si Si2 0.142882 0.547689 0.708860
Si Si3 0.448354 0.965141 0.284029
Si Si4 0.866334 0.118388 0.946039
Si Si5 0.833470 0.652181 0.631837
Si Si6 0.635692 0.786489 0.426800
O O1 0.865896 0.414015 0.381440
O O2 0.784535 0.378494 0.653285
O O3 0.685040 0.240678 0.462790
O O4 0.982662 0.247726 0.522261
O O5 0.192163 0.429380 0.668725
O O6 0.990687 0.582531 0.611924
O O7 0.296385 0.930125 0.379314
O O8 0.415771 0.930798 0.110511
O O9 0.594980 0.899597 0.357537
O O10 0.498680 0.084562 0.324868
O O11 0.787278 0.744175 0.515715
O O12 0.870722 0.713332 0.782531
#
# Coordination Sequence:
#
# PCOD9340938 Si02
#       6
#     4   4   4   4   4   4
#     4  10  22  42  65  93 129 172 220 275 338 405
#     4  11  23  39  64  94 128 171 218 274 340 410
#     4  11  25  45  70 101 138 185 236 293 356 425
#     4  11  23  44  70 101 140 183 236 292 354 423
#     4  11  23  41  63  94 130 169 220 274 337 414
#     4  10  24  43  64  93 129 170 222 276 337 409
#
# _framework density 25.254781000000001
#
# number of rings (size 3 to 8) (size 9 to 14) (size 15 to 20)
#    0.000    1.333    0.000    6.000    0.000   10.667 
#    0.000    3.333    0.000    0.000    0.000    0.000 
#    0.000    0.000    0.000    0.000    0.000    0.000 
#
# Total GULP energy -134022.584378 kJ/mol
# GULP energy per Si atom -5584.274349 kJ/mol
# Density = 2.519730 g / cm^3
# Si number density = 25.254781 Si / 1000 Ang^3
#
#
#
# Elastic Constant Matrix: (Units=GPa)
#
#
# Indices 1 2 3 4 5 6 
#
# 1 76.3064 2.0027 41.1500 0.0000 0.0000 0.0000
# 2 2.0027 115.5083 13.4460 0.0000 0.0000 0.0000
# 3 41.1500 13.4460 125.9372 0.0000 0.0000 0.0000
# 4 0.0000 0.0000 0.0000 71.7426 0.0000 0.0000
# 5 0.0000 0.0000 0.0000 0.0000 22.2570 0.0000
# 6 0.0000 0.0000 0.0000 0.0000 0.0000 28.5512
#
#
#
# Elastic Compliance Matrix: (Units=1/GPa)
#
#
# Indices 1 2 3 4 5 6 
#
# 1 0.015921 0.000334 -0.005238 0.000000 0.000000 0.000000
# 2 0.000334 0.008773 -0.001046 0.000000 0.000000 0.000000
# 3 -0.005238 -0.001046 0.009764 0.000000 0.000000 0.000000
# 4 0.000000 0.000000 0.000000 0.013939 0.000000 0.000000
# 5 0.000000 0.000000 0.000000 0.000000 0.044930 0.000000
# 6 0.000000 0.000000 0.000000 0.000000 0.000000 0.035025
#
#
# Mechanical properties :
#
#
# Convention : Reuss Voigt Hill
#
# Bulk Modulus (GPa) = 44.32995 47.88325 46.10660
# Shear Modulus (GPa) = 33.83635 41.92038 37.87836
#
# Velocity S-wave (km/s) = 3.66430 4.07861 3.87699
# Velocity P-wave (km/s) = 5.95768 6.41726 6.19174
#
# Compressibility (1/GPa) = 0.02255811
#
# Stress axis : x y z
#
# Youngs Moduli (GPa) = 62.81052 113.98179 102.42162
#
# Poissons Ratio (x) = -0.03803 0.53646
# Poissons Ratio (y) = -0.02096 0.10711
# Poissons Ratio (z) = 0.32899 0.11919
#
# Static dielectric constant tensor:
#      x y z
#    x 2.121160 0.000000 0.000000 
#    y 0.000000 1.037000 0.000000 
#    z 0.000000 0.000000 1.919560 
# 
# From -- ./inp_files/1172.got.cif
#   From: 2010.05.17/outbox.cif.g08.bks.cpg/sg29_1_cif.got.tgz:1172.got - 2010.06.04 01:19:37.
