data_PCOD9340646
_publ_section_title
;
Structure prediction by ZEFSAII (Michael W. Deem and Ramdas Pophale) SiO2 
 PCOD9340646
Probable space group: P C A 21
;
_chemical_formula_sum "Si O2"
_cell_formula_units_Z 16
_cell_length_a 22.436797
_cell_length_b 5.236462
_cell_length_c 4.843533
_cell_angle_alpha 90.000000
_cell_angle_beta 90.000000
_cell_angle_gamma 90.000000
_cell_volume 569.063955
_symmetry_space_group_name_H-M "P C A 21"
_symmetry_group_IT_number 29
_symmetry_cell_setting 'orthorhombic'
loop_
_space_group_symop_operation_xyz
x,y,z
-x,-y,1/2+z
1/2-x,y,1/2+z
1/2+x,-y,z
loop_
_atom_site_type_symbol
_atom_site_label
_atom_site_fract_x
_atom_site_fract_y
_atom_site_fract_z
Si Si1 0.892105 0.818624 0.756560
Si Si2 0.788151 0.063853 0.408700
Si Si3 0.988669 0.319667 0.106486
Si Si4 0.130271 0.528821 0.764812
O O1 0.846498 0.998242 0.592981
O O2 0.962469 0.881196 0.718304
O O3 0.887529 0.565923 0.565197
O O4 0.875277 0.710248 0.056052
O O5 0.763778 0.974139 0.114307
O O6 0.804805 0.352399 0.309680
O O7 0.997771 0.567732 0.306881
O O8 0.081820 0.732584 0.646388
#
# Coordination Sequence:
#
# PCOD9340646 Si02
#       4
#     4   4   4   4
#     4  10  21  40  63  87 120 159 202 261 319 369
#     4  12  26  40  58  90 124 164 216 248 294 380
#     4   8  16  34  60  86 112 148 196 250 318 380
#     4  10  21  40  63  87 120 159 202 261 319 369
#
# _framework density 28.116347000000001
#
# number of rings (size 3 to 8) (size 9 to 14) (size 15 to 20)
#    0.000    2.000    0.000    3.000    0.000    6.000 
#    0.000   17.500    0.000    0.000    0.000    0.000 
#    0.000    0.000    0.000    0.000    0.000    0.000 
#
# Total GULP energy -89250.512308 kJ/mol
# GULP energy per Si atom -5578.157019 kJ/mol
# Density = 2.805235 g / cm^3
# Si number density = 28.116347 Si / 1000 Ang^3
#
#
#
# Elastic Constant Matrix: (Units=GPa)
#
#
# Indices 1 2 3 4 5 6 
#
# 1 106.2576 38.1784 42.6261 0.0000 0.0000 0.0000
# 2 38.1784 72.1815 20.8155 0.0000 0.0000 0.0000
# 3 42.6261 20.8155 172.3289 0.0000 0.0000 0.0000
# 4 0.0000 0.0000 0.0000 18.0672 0.0000 0.0000
# 5 0.0000 0.0000 0.0000 0.0000 33.2272 0.0000
# 6 0.0000 0.0000 0.0000 0.0000 0.0000 36.7439
#
#
#
# Elastic Compliance Matrix: (Units=1/GPa)
#
#
# Indices 1 2 3 4 5 6 
#
# 1 0.012492 -0.005922 -0.002374 0.000000 0.000000 0.000000
# 2 -0.005922 0.017162 -0.000608 0.000000 0.000000 0.000000
# 3 -0.002374 -0.000608 0.006464 0.000000 0.000000 0.000000
# 4 0.000000 0.000000 0.000000 0.055349 0.000000 0.000000
# 5 0.000000 0.000000 0.000000 0.000000 0.030096 0.000000
# 6 0.000000 0.000000 0.000000 0.000000 0.000000 0.027215
#
#
# Mechanical properties :
#
#
# Convention : Reuss Voigt Hill
#
# Bulk Modulus (GPa) = 54.62314 61.55644 58.08979
# Shear Modulus (GPa) = 28.95376 34.21753 31.58564
#
# Velocity S-wave (km/s) = 3.21251 3.49233 3.35534
# Velocity P-wave (km/s) = 5.76454 6.18085 5.97632
#
# Compressibility (1/GPa) = 0.01830726
#
# Stress axis : x y z
#
# Youngs Moduli (GPa) = 80.05440 58.26911 154.71169
#
# Poissons Ratio (x) = 0.34509 0.36736
# Poissons Ratio (y) = 0.47411 0.09407
# Poissons Ratio (z) = 0.19009 0.03543
#
# Static dielectric constant tensor:
#      x y z
#    x 2.610800 0.000000 0.000000 
#    y 0.000000 2.140820 0.000000 
#    z 0.000000 0.000000 2.027100 
# 
# From -- ./inp_files/605.got.cif
#   From: 2010.05.17/outbox.cif.g08.bks.cpg/sg29_1_cif.got.tgz:605.got - 2010.06.04 01:19:37.
