data_PCOD9340718
_publ_section_title
;
Structure prediction by ZEFSAII (Michael W. Deem and Ramdas Pophale) SiO2 
 PCOD9340718
Probable space group: P C A 21
;
_chemical_formula_sum "Si O2"
_cell_formula_units_Z 32
_cell_length_a 9.764724
_cell_length_b 5.425190
_cell_length_c 22.843891
_cell_angle_alpha 90.000000
_cell_angle_beta 90.000000
_cell_angle_gamma 90.000000
_cell_volume 1210.166159
_symmetry_space_group_name_H-M "P C A 21"
_symmetry_group_IT_number 29
_symmetry_cell_setting 'orthorhombic'
loop_
_space_group_symop_operation_xyz
x,y,z
-x,-y,1/2+z
1/2-x,y,1/2+z
1/2+x,-y,z
loop_
_atom_site_type_symbol
_atom_site_label
_atom_site_fract_x
_atom_site_fract_y
_atom_site_fract_z
Si Si1 0.379516 0.318515 0.346310
Si Si2 0.749987 0.721888 0.134550
Si Si3 0.943301 0.247248 0.481505
Si Si4 0.399874 0.346622 0.875484
Si Si5 0.616601 0.827243 0.240794
Si Si6 0.835575 0.179877 0.271319
Si Si7 0.006978 0.983107 0.597664
Si Si8 0.673827 0.402752 0.534681
O O1 0.528530 0.385371 0.371553
O O2 0.257937 0.315979 0.394431
O O3 0.375045 0.068130 0.309212
O O4 0.341131 0.568839 0.308773
O O5 0.708844 0.648319 0.200037
O O6 0.636570 0.936655 0.127755
O O7 0.727602 0.573359 0.074908
O O8 0.905625 0.805873 0.128902
O O9 0.996902 0.194935 0.416634
O O10 0.049217 0.465125 0.501361
O O11 0.781303 0.285222 0.489525
O O12 0.978080 0.048367 0.530179
O O13 0.391395 0.258520 0.808343
O O14 0.690939 0.092388 0.245195
O O15 0.457181 0.811568 0.223430
O O16 0.107996 0.756907 0.586868
#
# Coordination Sequence:
#
# PCOD9340718 Si02
#       8
#     4   4   4   4   4   4   4   4
#     4  10  21  42  64  94 140 183 226 272 333 416
#     4  11  23  44  69  98 133 176 229 285 347 404
#     4  11  23  44  69  98 133 176 229 285 347 404
#     4  10  22  43  64 100 135 178 223 275 348 416
#     4  10  22  43  64 100 135 178 223 275 348 416
#     4  10  21  42  64  94 140 183 226 272 333 416
#     4  11  23  44  67  97 129 174 231 282 340 405
#     4  11  23  44  67  97 129 174 231 282 340 405
#
# _framework density 26.442651999999999
#
# number of rings (size 3 to 8) (size 9 to 14) (size 15 to 20)
#    0.000    1.500    2.500    2.250    0.000    0.000 
#   36.000    0.000    0.000    0.000    0.000    0.000 
#    0.000    0.000    0.000    0.000    0.000    0.000 
#
# Total GULP energy -178629.894781 kJ/mol
# GULP energy per Si atom -5582.184212 kJ/mol
# Density = 2.638247 g / cm^3
# Si number density = 26.442652 Si / 1000 Ang^3
#
#
#
# Elastic Constant Matrix: (Units=GPa)
#
#
# Indices 1 2 3 4 5 6 
#
# 1 106.9795 12.7063 4.4208 0.0000 0.0000 0.0000
# 2 12.7063 75.1811 7.3450 0.0000 0.0000 0.0000
# 3 4.4208 7.3450 111.0244 0.0000 0.0000 0.0000
# 4 0.0000 0.0000 0.0000 28.5627 0.0000 0.0000
# 5 0.0000 0.0000 0.0000 0.0000 52.1133 0.0000
# 6 0.0000 0.0000 0.0000 0.0000 0.0000 27.6036
#
#
#
# Elastic Compliance Matrix: (Units=1/GPa)
#
#
# Indices 1 2 3 4 5 6 
#
# 1 0.009547 -0.001587 -0.000275 0.000000 0.000000 0.000000
# 2 -0.001587 0.013651 -0.000840 0.000000 0.000000 0.000000
# 3 -0.000275 -0.000840 0.009074 0.000000 0.000000 0.000000
# 4 0.000000 0.000000 0.000000 0.035011 0.000000 0.000000
# 5 0.000000 0.000000 0.000000 0.000000 0.019189 0.000000
# 6 0.000000 0.000000 0.000000 0.000000 0.000000 0.036227
#
#
# Mechanical properties :
#
#
# Convention : Reuss Voigt Hill
#
# Bulk Modulus (GPa) = 37.21801 38.01434 37.61617
# Shear Modulus (GPa) = 36.48062 39.57013 38.02538
#
# Velocity S-wave (km/s) = 3.71834 3.87260 3.79625
# Velocity P-wave (km/s) = 5.70441 5.86544 5.78548
#
# Compressibility (1/GPa) = 0.02686871
#
# Stress axis : x y z
#
# Youngs Moduli (GPa) = 104.74041 73.25233 110.21037
#
# Poissons Ratio (x) = 0.11623 0.03033
# Poissons Ratio (y) = 0.16619 0.09257
# Poissons Ratio (z) = 0.02882 0.06153
#
# Static dielectric constant tensor:
#      x y z
#    x 2.178600 0.000000 0.000000 
#    y 0.000000 2.143780 0.000000 
#    z 0.000000 0.000000 2.297450 
# 
# From -- ./inp_files/5716.got.cif
#   From: 2010.05.17/outbox.cif.g08.bks.cpg/sg29_3_cif.got.tgz:5716.got - 2010.06.04 01:19:37.
