data_PCOD9340079
_publ_section_title
;
Structure prediction by ZEFSAII (Michael W. Deem and Ramdas Pophale) SiO2 
 PCOD9340079
Probable space group: P C A 21
;
_chemical_formula_sum "Si O2"
_cell_formula_units_Z 32
_cell_length_a 16.304312
_cell_length_b 5.190769
_cell_length_c 18.062803
_cell_angle_alpha 90.000000
_cell_angle_beta 90.000000
_cell_angle_gamma 90.000000
_cell_volume 1528.689650
_symmetry_space_group_name_H-M "P C A 21"
_symmetry_group_IT_number 29
_symmetry_cell_setting 'orthorhombic'
loop_
_space_group_symop_operation_xyz
x,y,z
-x,-y,1/2+z
1/2-x,y,1/2+z
1/2+x,-y,z
loop_
_atom_site_type_symbol
_atom_site_label
_atom_site_fract_x
_atom_site_fract_y
_atom_site_fract_z
Si Si1 0.732459 0.313219 0.658860
Si Si2 0.899174 0.566860 0.720004
Si Si3 0.277179 0.068037 0.770046
Si Si4 0.887195 0.256684 0.864716
Si Si5 0.730272 0.264548 0.484059
Si Si6 0.448542 0.002846 0.334165
Si Si7 0.426483 0.499114 0.235669
Si Si8 0.799203 0.757205 0.412296
O O1 0.823159 0.421235 0.680985
O O2 0.727897 0.283680 0.571792
O O3 0.657024 0.479556 0.689779
O O4 0.723732 0.048823 0.705230
O O5 0.861067 0.846699 0.730778
O O6 0.911580 0.469115 0.804726
O O7 0.990285 0.554266 0.688405
O O8 0.238904 0.267727 0.828505
O O9 0.304118 0.848616 0.826961
O O10 0.856818 0.335982 0.945250
O O11 0.959205 0.045514 0.864179
O O12 0.792824 0.480484 0.451242
O O13 0.751578 0.970342 0.461342
O O14 0.437483 0.215221 0.269339
O O15 0.386254 0.108162 0.396337
O O16 0.426978 0.723086 0.300152
#
# Coordination Sequence:
#
# PCOD9340079 Si02
#       8
#     4   4   4   4   4   4   4   4
#     4  11  25  40  63  93 134 178 213 268 336 394
#     4  10  20  39  67  91 126 166 219 270 321 380
#     4  10  18  36  66  87 117 167 210 269 312 376
#     4   9  20  37  60  90 122 161 209 267 318 374
#     4  11  25  41  59  92 130 175 207 258 333 398
#     4  11  21  38  67  98 118 156 217 278 315 374
#     4  11  23  39  66 101 123 159 221 275 319 380
#     4  11  22  40  64  90 124 164 218 261 318 392
#
# _framework density 20.932960000000001
#
# number of rings (size 3 to 8) (size 9 to 14) (size 15 to 20)
#    0.000    1.500    3.750    1.500    3.500    0.000 
#    2.250    0.000    0.000    0.000    0.000    0.000 
#    0.000    0.000    0.000    0.000    0.000    0.000 
#
# Total GULP energy -178249.566578 kJ/mol
# GULP energy per Si atom -5570.298956 kJ/mol
# Density = 2.088532 g / cm^3
# Si number density = 20.932960 Si / 1000 Ang^3
#
#
#
# Elastic Constant Matrix: (Units=GPa)
#
#
# Indices 1 2 3 4 5 6 
#
# 1 87.4307 8.6477 36.8530 0.0000 0.0000 0.0000
# 2 8.6477 71.8997 15.7072 0.0000 0.0000 0.0000
# 3 36.8530 15.7072 119.2246 0.0000 0.0000 0.0000
# 4 0.0000 0.0000 0.0000 16.6425 0.0000 0.0000
# 5 0.0000 0.0000 0.0000 0.0000 13.9630 0.0000
# 6 0.0000 0.0000 0.0000 0.0000 0.0000 32.7537
#
#
#
# Elastic Compliance Matrix: (Units=1/GPa)
#
#
# Indices 1 2 3 4 5 6 
#
# 1 0.013187 -0.000716 -0.003982 0.000000 0.000000 0.000000
# 2 -0.000716 0.014359 -0.001670 0.000000 0.000000 0.000000
# 3 -0.003982 -0.001670 0.009838 0.000000 0.000000 0.000000
# 4 0.000000 0.000000 0.000000 0.060087 0.000000 0.000000
# 5 0.000000 0.000000 0.000000 0.000000 0.071618 0.000000
# 6 0.000000 0.000000 0.000000 0.000000 0.000000 0.030531
#
#
# Mechanical properties :
#
#
# Convention : Reuss Voigt Hill
#
# Bulk Modulus (GPa) = 40.57151 44.55233 42.56192
# Shear Modulus (GPa) = 22.66826 27.16165 24.91495
#
# Velocity S-wave (km/s) = 3.29431 3.60607 3.45371
# Velocity P-wave (km/s) = 5.82183 6.21835 6.02335
#
# Compressibility (1/GPa) = 0.02464784
#
# Stress axis : x y z
#
# Youngs Moduli (GPa) = 75.83328 69.64116 101.64273
#
# Poissons Ratio (x) = 0.04988 0.40472
# Poissons Ratio (y) = 0.05431 0.16978
# Poissons Ratio (z) = 0.30195 0.11633
#
# Static dielectric constant tensor:
#      x y z
#    x 1.902420 0.000000 0.000000 
#    y 0.000000 1.823850 0.000000 
#    z 0.000000 0.000000 1.736230 
# 
# From -- ./inp_files/5304.got.cif
#   From: 2010.05.17/outbox.cif.g08.bks.cpg/sg29_3_cif.got.tgz:5304.got - 2010.06.04 01:19:37.
