data_PCOD9340292
_publ_section_title
;
Structure prediction by ZEFSAII (Michael W. Deem and Ramdas Pophale) SiO2 
 PCOD9340292
Probable space group: P C A 21
;
_chemical_formula_sum "Si O2"
_cell_formula_units_Z 32
_cell_length_a 19.246280
_cell_length_b 11.673084
_cell_length_c 5.387660
_cell_angle_alpha 90.000000
_cell_angle_beta 90.000000
_cell_angle_gamma 90.000000
_cell_volume 1210.410246
_symmetry_space_group_name_H-M "P C A 21"
_symmetry_group_IT_number 29
_symmetry_cell_setting 'orthorhombic'
loop_
_space_group_symop_operation_xyz
x,y,z
-x,-y,1/2+z
1/2-x,y,1/2+z
1/2+x,-y,z
loop_
_atom_site_type_symbol
_atom_site_label
_atom_site_fract_x
_atom_site_fract_y
_atom_site_fract_z
Si Si1 0.419758 0.041856 0.531060
Si Si2 0.154331 0.740433 0.217347
Si Si3 0.925669 0.615558 0.616240
Si Si4 0.063696 0.896291 0.529254
Si Si5 0.066835 0.606971 0.841095
Si Si6 0.318148 0.522360 0.965963
Si Si7 0.280263 0.302455 0.510115
Si Si8 0.714490 0.034989 0.953118
O O1 0.426353 0.987673 0.805132
O O2 0.339140 0.066195 0.514642
O O3 0.481756 0.129493 0.496666
O O4 0.427493 0.950727 0.301715
O O5 0.118950 0.800316 0.456738
O O6 0.091322 0.685018 0.066939
O O7 0.201938 0.633868 0.300481
O O8 0.187234 0.839212 0.045884
O O9 0.954200 0.519071 0.431609
O O10 0.863333 0.685601 0.485870
O O11 0.877909 0.551379 0.823214
O O12 0.997053 0.661731 0.730813
O O13 0.136759 0.578387 0.687193
O O14 0.257456 0.431473 0.027645
O O15 0.244068 0.250342 0.269879
O O16 0.726015 0.025786 0.660350
#
# Coordination Sequence:
#
# PCOD9340292 Si02
#       8
#     4   4   4   4   4   4   4   4
#     4   9  18  35  58  81 108 152 191 228 267 330
#     4  10  24  34  53  83 115 156 187 238 295 355
#     4  10  20  35  52  72 102 146 196 244 284 344
#     4   9  18  35  58  80 111 144 191 238 274 330
#     4  11  20  35  52  76 108 149 195 246 297 342
#     4  10  21  34  53  74 111 141 187 238 295 346
#     4  10  20  35  53  75  98 136 187 231 280 342
#     4  11  23  37  55  83 125 158 188 223 280 353
#
# _framework density 26.437317
#
# number of rings (size 3 to 8) (size 9 to 14) (size 15 to 20)
#    0.000    2.000    2.500    1.500    5.250    3.000 
#    0.000    0.000    0.000    0.000    0.000    3.500 
#    0.000    0.000    0.000    0.000    0.000    0.000 
#
# Total GULP energy -178692.466232 kJ/mol
# GULP energy per Si atom -5584.139570 kJ/mol
# Density = 2.637714 g / cm^3
# Si number density = 26.437317 Si / 1000 Ang^3
#
#
#
# Elastic Constant Matrix: (Units=GPa)
#
#
# Indices 1 2 3 4 5 6 
#
# 1 139.6272 14.8353 13.2207 0.0000 0.0000 0.0000
# 2 14.8353 69.2531 16.2427 0.0000 0.0000 0.0000
# 3 13.2207 16.2427 111.8705 0.0000 0.0000 0.0000
# 4 0.0000 0.0000 0.0000 11.7808 0.0000 0.0000
# 5 0.0000 0.0000 0.0000 0.0000 46.1251 0.0000
# 6 0.0000 0.0000 0.0000 0.0000 0.0000 30.3341
#
#
#
# Elastic Compliance Matrix: (Units=1/GPa)
#
#
# Indices 1 2 3 4 5 6 
#
# 1 0.007376 -0.001424 -0.000665 0.000000 0.000000 0.000000
# 2 -0.001424 0.015224 -0.002042 0.000000 0.000000 0.000000
# 3 -0.000665 -0.002042 0.009314 0.000000 0.000000 0.000000
# 4 0.000000 0.000000 0.000000 0.084884 0.000000 0.000000
# 5 0.000000 0.000000 0.000000 0.000000 0.021680 0.000000
# 6 0.000000 0.000000 0.000000 0.000000 0.000000 0.032966
#
#
# Mechanical properties :
#
#
# Convention : Reuss Voigt Hill
#
# Bulk Modulus (GPa) = 42.28033 45.48315 43.88174
# Shear Modulus (GPa) = 26.65381 36.07814 31.36598
#
# Velocity S-wave (km/s) = 3.17864 3.69815 3.44819
# Velocity P-wave (km/s) = 5.43131 5.95622 5.69981
#
# Compressibility (1/GPa) = 0.02365166
#
# Stress axis : x y z
#
# Youngs Moduli (GPa) = 135.57109 65.68650 107.36548
#
# Poissons Ratio (x) = 0.09355 0.07139
# Poissons Ratio (y) = 0.19308 0.21925
# Poissons Ratio (z) = 0.09015 0.13414
#
# Static dielectric constant tensor:
#      x y z
#    x 2.124380 0.000000 0.000000 
#    y 0.000000 2.128080 0.000000 
#    z 0.000000 0.000000 2.134830 
# 
# From -- ./inp_files/593.got.cif
#   From: 2010.05.17/outbox.cif.g08.bks.cpg/sg29_1_cif.got.tgz:593.got - 2010.06.04 01:19:37.
