data_PCOD9340410
_publ_section_title
;
Structure prediction by ZEFSAII (Michael W. Deem and Ramdas Pophale) SiO2 
 PCOD9340410
Probable space group: P C A 21
;
_chemical_formula_sum "Si O2"
_cell_formula_units_Z 28
_cell_length_a 9.675876
_cell_length_b 17.267591
_cell_length_c 7.568324
_cell_angle_alpha 90.000000
_cell_angle_beta 90.000000
_cell_angle_gamma 90.000000
_cell_volume 1264.508530
_symmetry_space_group_name_H-M "P C A 21"
_symmetry_group_IT_number 29
_symmetry_cell_setting 'orthorhombic'
loop_
_space_group_symop_operation_xyz
x,y,z
-x,-y,1/2+z
1/2-x,y,1/2+z
1/2+x,-y,z
loop_
_atom_site_type_symbol
_atom_site_label
_atom_site_fract_x
_atom_site_fract_y
_atom_site_fract_z
Si Si1 0.518619 0.214064 0.393020
Si Si2 0.658838 0.075013 0.836328
Si Si3 0.601045 0.560885 0.602938
Si Si4 0.374945 0.360547 0.467796
Si Si5 0.584450 0.405459 0.776529
Si Si6 0.453826 0.956196 0.950677
Si Si7 0.212037 0.756678 0.738290
O O1 0.389777 0.269968 0.422921
O O2 0.478673 0.124220 0.385048
O O3 0.621223 0.236033 0.231830
O O4 0.620926 0.231837 0.560962
O O5 0.597554 0.060520 0.645573
O O6 0.810203 0.037457 0.845781
O O7 0.670883 0.167380 0.854187
O O8 0.552931 0.029214 0.957344
O O9 0.565143 0.599890 0.790526
O O10 0.723426 0.607990 0.508700
O O11 0.651519 0.475598 0.664316
O O12 0.477424 0.562595 0.460751
O O13 0.462020 0.379488 0.643261
O O14 0.675397 0.328952 0.807657
#
# Coordination Sequence:
#
# PCOD9340410 Si02
#       7
#     4   4   4   4   4   4   4
#     4   9  21  40  61  93 125 166 213 267 324 393
#     4  10  20  39  63  94 129 172 218 275 328 395
#     4  12  24  42  66  90 131 170 216 276 332 396
#     4  11  24  43  62  93 133 166 217 272 329 392
#     4  11  24  42  65  95 124 173 221 269 333 397
#     4  10  20  39  63  92 132 170 220 270 331 392
#     4   9  21  39  64  89 128 163 219 263 321 397
#
# _framework density 22.142989
#
# number of rings (size 3 to 8) (size 9 to 14) (size 15 to 20)
#    0.000    1.714    2.857    0.857    2.000    4.571 
#    2.571    0.000    0.000    0.000    0.000    0.000 
#    0.000    0.000    0.000    0.000    0.000    0.000 
#
# Total GULP energy -156229.786985 kJ/mol
# GULP energy per Si atom -5579.635249 kJ/mol
# Density = 2.209259 g / cm^3
# Si number density = 22.142989 Si / 1000 Ang^3
#
#
#
# Elastic Constant Matrix: (Units=GPa)
#
#
# Indices 1 2 3 4 5 6 
#
# 1 55.5280 49.3349 15.2905 0.0000 0.0000 0.0000
# 2 49.3349 123.1480 21.9943 0.0000 0.0000 0.0000
# 3 15.2905 21.9943 80.5418 0.0000 0.0000 0.0000
# 4 0.0000 0.0000 0.0000 26.1130 0.0000 0.0000
# 5 0.0000 0.0000 0.0000 0.0000 21.0886 0.0000
# 6 0.0000 0.0000 0.0000 0.0000 0.0000 39.1546
#
#
#
# Elastic Compliance Matrix: (Units=1/GPa)
#
#
# Indices 1 2 3 4 5 6 
#
# 1 0.028396 -0.010947 -0.002401 0.000000 0.000000 0.000000
# 2 -0.010947 0.012757 -0.001405 0.000000 0.000000 0.000000
# 3 -0.002401 -0.001405 0.013256 0.000000 0.000000 0.000000
# 4 0.000000 0.000000 0.000000 0.038295 0.000000 0.000000
# 5 0.000000 0.000000 0.000000 0.000000 0.047419 0.000000
# 6 0.000000 0.000000 0.000000 0.000000 0.000000 0.025540
#
#
# Mechanical properties :
#
#
# Convention : Reuss Voigt Hill
#
# Bulk Modulus (GPa) = 40.15916 48.05080 44.10498
# Shear Modulus (GPa) = 24.57352 28.77777 26.67564
#
# Velocity S-wave (km/s) = 3.33493 3.60895 3.47464
# Velocity P-wave (km/s) = 5.74497 6.25407 6.00492
#
# Compressibility (1/GPa) = 0.02490092
#
# Stress axis : x y z
#
# Youngs Moduli (GPa) = 35.21575 78.38906 75.43976
#
# Poissons Ratio (x) = 0.85813 0.18117
# Poissons Ratio (y) = 0.38551 0.10602
# Poissons Ratio (z) = 0.08457 0.11017
#
# Static dielectric constant tensor:
#      x y z
#    x 1.772510 0.000000 0.000000 
#    y 0.000000 1.977410 0.000000 
#    z 0.000000 0.000000 1.887100 
# 
# From -- ./inp_files/1230.got.cif
#   From: 2010.05.17/outbox.cif.g08.bks.cpg/sg29_1_cif.got.tgz:1230.got - 2010.06.04 01:19:37.
