data_PCOD9340259
_publ_section_title
;
Structure prediction by ZEFSAII (Michael W. Deem and Ramdas Pophale) SiO2 
 PCOD9340259
Probable space group: P C A 21
;
_chemical_formula_sum "Si O2"
_cell_formula_units_Z 20
_cell_length_a 8.729358
_cell_length_b 6.888437
_cell_length_c 12.781479
_cell_angle_alpha 90.000000
_cell_angle_beta 90.000000
_cell_angle_gamma 90.000000
_cell_volume 768.571200
_symmetry_space_group_name_H-M "P C A 21"
_symmetry_group_IT_number 29
_symmetry_cell_setting 'orthorhombic'
loop_
_space_group_symop_operation_xyz
x,y,z
-x,-y,1/2+z
1/2-x,y,1/2+z
1/2+x,-y,z
loop_
_atom_site_type_symbol
_atom_site_label
_atom_site_fract_x
_atom_site_fract_y
_atom_site_fract_z
Si Si1 0.042271 0.763746 0.092700
Si Si2 0.242378 0.412216 0.058035
Si Si3 0.517981 0.246432 0.844855
Si Si4 0.520089 0.348588 0.410619
Si Si5 0.692319 0.035147 0.269951
O O1 0.140514 0.569670 0.118706
O O2 0.122230 0.931791 0.156197
O O3 0.864104 0.722371 0.116709
O O4 0.046185 0.794804 0.967870
O O5 0.350663 0.545744 0.982506
O O6 0.119858 0.298394 0.987144
O O7 0.536365 0.476692 0.835719
O O8 0.638873 0.120868 0.779778
O O9 0.349896 0.177229 0.810731
O O10 0.593856 0.175021 0.347776
#
# Coordination Sequence:
#
# PCOD9340259 Si02
#       5
#     4   4   4   4   4
#     4  10  22  42  65 103 132 176 229 270 339 395
#     4   8  18  39  66  93 128 171 217 274 327 388
#     4  10  26  44  61 101 137 173 225 272 337 387
#     4  10  19  43  68  88 134 179 212 275 338 380
#     4  12  25  42  70  95 135 181 223 273 331 410
#
# _framework density 26.022313
#
# number of rings (size 3 to 8) (size 9 to 14) (size 15 to 20)
#    0.000    2.400    4.000    0.000    8.400    1.600 
#    0.000    0.000    0.000    0.000    0.000    0.000 
#    0.000    0.000    0.000    0.000    0.000    0.000 
#
# Total GULP energy -111992.943054 kJ/mol
# GULP energy per Si atom -5599.647153 kJ/mol
# Density = 2.596309 g / cm^3
# Si number density = 26.022313 Si / 1000 Ang^3
#
#
#
# Elastic Constant Matrix: (Units=GPa)
#
#
# Indices 1 2 3 4 5 6 
#
# 1 133.6294 13.5294 15.4180 0.0000 0.0000 0.0000
# 2 13.5294 64.1845 3.4433 0.0000 0.0000 0.0000
# 3 15.4180 3.4433 79.6441 0.0000 0.0000 0.0000
# 4 0.0000 0.0000 0.0000 32.1430 0.0000 0.0000
# 5 0.0000 0.0000 0.0000 0.0000 39.0773 0.0000
# 6 0.0000 0.0000 0.0000 0.0000 0.0000 46.0286
#
#
#
# Elastic Compliance Matrix: (Units=1/GPa)
#
#
# Indices 1 2 3 4 5 6 
#
# 1 0.007809 -0.001569 -0.001444 0.000000 0.000000 0.000000
# 2 -0.001569 0.015931 -0.000385 0.000000 0.000000 0.000000
# 3 -0.001444 -0.000385 0.012852 0.000000 0.000000 0.000000
# 4 0.000000 0.000000 0.000000 0.031111 0.000000 0.000000
# 5 0.000000 0.000000 0.000000 0.000000 0.025590 0.000000
# 6 0.000000 0.000000 0.000000 0.000000 0.000000 0.021726
#
#
# Mechanical properties :
#
#
# Convention : Reuss Voigt Hill
#
# Bulk Modulus (GPa) = 33.56028 38.02660 35.79344
# Shear Modulus (GPa) = 37.95168 39.78761 38.86964
#
# Velocity S-wave (km/s) = 3.82308 3.91446 3.86904
# Velocity P-wave (km/s) = 5.69321 5.92245 5.80896
#
# Compressibility (1/GPa) = 0.02979713
#
# Stress axis : x y z
#
# Youngs Moduli (GPa) = 128.06095 62.76918 77.80876
#
# Poissons Ratio (x) = 0.09846 0.11234
# Poissons Ratio (y) = 0.20087 0.02997
# Poissons Ratio (z) = 0.18490 0.02417
#
# Static dielectric constant tensor:
#      x y z
#    x 2.062920 0.000000 0.000000 
#    y 0.000000 2.050510 0.000000 
#    z 0.000000 0.000000 2.031460 
# 
# From -- ./inp_files/2783.got.cif
#   From: 2010.05.17/outbox.cif.g08.bks.cpg/sg29_2_cif.got.tgz:2783.got - 2010.06.04 01:19:37.
