data_PCOD9340253
_publ_section_title
;
Structure prediction by ZEFSAII (Michael W. Deem and Ramdas Pophale) SiO2 
 PCOD9340253
Probable space group: P C A 21
;
_chemical_formula_sum "Si O2"
_cell_formula_units_Z 28
_cell_length_a 18.385488
_cell_length_b 5.473119
_cell_length_c 11.883246
_cell_angle_alpha 90.000000
_cell_angle_beta 90.000000
_cell_angle_gamma 90.000000
_cell_volume 1195.763081
_symmetry_space_group_name_H-M "P C A 21"
_symmetry_group_IT_number 29
_symmetry_cell_setting 'orthorhombic'
loop_
_space_group_symop_operation_xyz
x,y,z
-x,-y,1/2+z
1/2-x,y,1/2+z
1/2+x,-y,z
loop_
_atom_site_type_symbol
_atom_site_label
_atom_site_fract_x
_atom_site_fract_y
_atom_site_fract_z
Si Si1 0.062283 0.241182 0.657660
Si Si2 0.341732 0.872976 0.277996
Si Si3 0.096557 0.593751 0.466424
Si Si4 0.764383 0.352880 0.075745
Si Si5 0.529152 0.878223 0.066176
Si Si6 0.308409 0.133880 0.498488
Si Si7 0.009914 0.627031 0.803622
O O1 0.098532 0.443158 0.582165
O O2 0.037556 0.356705 0.773472
O O3 0.120536 0.033470 0.680139
O O4 0.989378 0.157136 0.594244
O O5 0.294101 0.680717 0.205367
O O6 0.414371 0.758884 0.338687
O O7 0.302198 0.050422 0.367003
O O8 0.177394 0.694581 0.472506
O O9 0.035575 0.797837 0.483769
O O10 0.061778 0.407101 0.377945
O O11 0.732314 0.621372 0.043584
O O12 0.711986 0.116555 0.063887
O O13 0.515461 0.748608 0.186588
O O14 0.606864 0.816709 0.020518
#
# Coordination Sequence:
#
# PCOD9340253 Si02
#       7
#     4   4   4   4   4   4   4
#     4  10  19  41  74 100 138 187 256 312 362 452
#     4  11  24  48  71 104 147 209 244 310 402 451
#     4  11  22  42  73 101 141 188 258 305 371 442
#     4  12  28  48  71 109 156 195 251 318 384 471
#     4  10  23  43  67 108 136 192 258 314 360 463
#     4  12  30  46  76 108 154 205 245 313 396 475
#     4  10  22  38  78 104 140 192 258 324 373 450
#
# _framework density 23.416011000000001
#
# number of rings (size 3 to 8) (size 9 to 14) (size 15 to 20)
#    0.000    1.143    4.286    2.571    8.000    3.429 
#    0.000    0.000    0.000    0.000    0.000    0.000 
#    0.000    0.000    0.000    0.000    0.000    0.000 
#
# Total GULP energy -156007.709779 kJ/mol
# GULP energy per Si atom -5571.703921 kJ/mol
# Density = 2.336272 g / cm^3
# Si number density = 23.416011 Si / 1000 Ang^3
#
#
#
# Elastic Constant Matrix: (Units=GPa)
#
#
# Indices 1 2 3 4 5 6 
#
# 1 83.3210 34.4973 8.6187 0.0000 0.0000 0.0000
# 2 34.4973 99.6174 24.6002 0.0000 0.0000 0.0000
# 3 8.6187 24.6002 71.4130 0.0000 0.0000 0.0000
# 4 0.0000 0.0000 0.0000 28.2693 0.0000 0.0000
# 5 0.0000 0.0000 0.0000 0.0000 29.2958 0.0000
# 6 0.0000 0.0000 0.0000 0.0000 0.0000 37.1074
#
#
#
# Elastic Compliance Matrix: (Units=1/GPa)
#
#
# Indices 1 2 3 4 5 6 
#
# 1 0.014011 -0.004847 -0.000021 0.000000 0.000000 0.000000
# 2 -0.004847 0.012648 -0.003772 0.000000 0.000000 0.000000
# 3 -0.000021 -0.003772 0.015305 0.000000 0.000000 0.000000
# 4 0.000000 0.000000 0.000000 0.035374 0.000000 0.000000
# 5 0.000000 0.000000 0.000000 0.000000 0.034135 0.000000
# 6 0.000000 0.000000 0.000000 0.000000 0.000000 0.026949
#
#
# Mechanical properties :
#
#
# Convention : Reuss Voigt Hill
#
# Bulk Modulus (GPa) = 40.51244 43.30932 41.91088
# Shear Modulus (GPa) = 30.50093 31.37684 30.93888
#
# Velocity S-wave (km/s) = 3.61302 3.66454 3.63887
# Velocity P-wave (km/s) = 5.89440 6.03663 5.96594
#
# Compressibility (1/GPa) = 0.02468378
#
# Stress axis : x y z
#
# Youngs Moduli (GPa) = 71.37448 79.06220 65.33793
#
# Poissons Ratio (x) = 0.38318 0.00140
# Poissons Ratio (y) = 0.34592 0.24646
# Poissons Ratio (z) = 0.00153 0.29823
#
# Static dielectric constant tensor:
#      x y z
#    x 2.006030 0.000000 0.000000 
#    y 0.000000 2.002160 0.000000 
#    z 0.000000 0.000000 1.957410 
# 
# From -- ./inp_files/3788.got.cif
#   From: 2010.05.17/outbox.cif.g08.bks.cpg/sg29_2_cif.got.tgz:3788.got - 2010.06.04 01:19:37.
