data_PCOD9340710
_publ_section_title
;
Structure prediction by ZEFSAII (Michael W. Deem and Ramdas Pophale) SiO2 
 PCOD9340710
Probable space group: P C A 21
;
_chemical_formula_sum "Si O2"
_cell_formula_units_Z 28
_cell_length_a 8.819907
_cell_length_b 12.836233
_cell_length_c 11.446427
_cell_angle_alpha 90.000000
_cell_angle_beta 90.000000
_cell_angle_gamma 90.000000
_cell_volume 1295.900151
_symmetry_space_group_name_H-M "P C A 21"
_symmetry_group_IT_number 29
_symmetry_cell_setting 'orthorhombic'
loop_
_space_group_symop_operation_xyz
x,y,z
-x,-y,1/2+z
1/2-x,y,1/2+z
1/2+x,-y,z
loop_
_atom_site_type_symbol
_atom_site_label
_atom_site_fract_x
_atom_site_fract_y
_atom_site_fract_z
Si Si1 0.291941 0.004306 0.845440
Si Si2 0.742907 0.325378 0.685614
Si Si3 0.072671 0.571312 0.505498
Si Si4 0.048372 0.863545 0.729126
Si Si5 0.546899 0.872139 0.963105
Si Si6 0.234009 0.441239 0.143529
Si Si7 0.554442 0.682882 0.796229
O O1 0.402412 0.095857 0.799942
O O2 0.183175 0.047347 0.946094
O O3 0.401299 0.917342 0.896960
O O4 0.179523 0.950742 0.751201
O O5 0.688405 0.337371 0.549593
O O6 0.627891 0.248505 0.751724
O O7 0.743970 0.449363 0.713353
O O8 0.913170 0.288041 0.711927
O O9 0.934824 0.572808 0.598216
O O10 0.162481 0.464731 0.528988
O O11 0.007664 0.589796 0.378539
O O12 0.993962 0.857586 0.596337
O O13 0.591351 0.770088 0.890962
O O14 0.303980 0.350071 0.218879
#
# Coordination Sequence:
#
# PCOD9340710 Si02
#       7
#     4   4   4   4   4   4   4
#     4  10  24  39  66  91 126 161 208 262 318 369
#     4  10  21  42  61  90 125 162 205 255 308 373
#     4  10  23  40  60  87 126 160 205 253 304 364
#     4  11  21  43  65  91 129 161 207 269 308 377
#     4  11  22  40  64  93 121 164 209 251 322 373
#     4  10  22  40  60  92 125 162 208 251 301 370
#     4  12  23  40  66  88 128 164 206 257 311 370
#
# _framework density 21.606601999999999
#
# number of rings (size 3 to 8) (size 9 to 14) (size 15 to 20)
#    0.857    0.571    4.286    0.857    4.000    0.000 
#    0.000    0.000    6.286    0.000    0.000    0.000 
#    0.000    0.000    0.000    0.000    0.000    0.000 
#
# Total GULP energy -156068.272181 kJ/mol
# GULP energy per Si atom -5573.866864 kJ/mol
# Density = 2.155742 g / cm^3
# Si number density = 21.606602 Si / 1000 Ang^3
#
#
#
# Elastic Constant Matrix: (Units=GPa)
#
#
# Indices 1 2 3 4 5 6 
#
# 1 103.1989 15.8509 23.0699 0.0000 0.0000 0.0000
# 2 15.8509 54.2709 4.5787 0.0000 0.0000 0.0000
# 3 23.0699 4.5787 41.4703 0.0000 0.0000 0.0000
# 4 0.0000 0.0000 0.0000 20.8174 0.0000 0.0000
# 5 0.0000 0.0000 0.0000 0.0000 20.5201 0.0000
# 6 0.0000 0.0000 0.0000 0.0000 0.0000 30.3198
#
#
#
# Elastic Compliance Matrix: (Units=1/GPa)
#
#
# Indices 1 2 3 4 5 6 
#
# 1 0.011485 -0.002842 -0.006075 0.000000 0.000000 0.000000
# 2 -0.002842 0.019302 -0.000550 0.000000 0.000000 0.000000
# 3 -0.006075 -0.000550 0.027554 0.000000 0.000000 0.000000
# 4 0.000000 0.000000 0.000000 0.048037 0.000000 0.000000
# 5 0.000000 0.000000 0.000000 0.000000 0.048733 0.000000
# 6 0.000000 0.000000 0.000000 0.000000 0.000000 0.032982
#
#
# Mechanical properties :
#
#
# Convention : Reuss Voigt Hill
#
# Bulk Modulus (GPa) = 25.37639 31.77101 28.57370
# Shear Modulus (GPa) = 22.71054 24.69418 23.70236
#
# Velocity S-wave (km/s) = 3.24557 3.38435 3.31569
# Velocity P-wave (km/s) = 5.08087 5.47795 5.28314
#
# Compressibility (1/GPa) = 0.03940671
#
# Stress axis : x y z
#
# Youngs Moduli (GPa) = 87.07327 51.80679 36.29237
#
# Poissons Ratio (x) = 0.14722 0.22048
# Poissons Ratio (y) = 0.24744 0.01997
# Poissons Ratio (z) = 0.52898 0.02851
#
# Static dielectric constant tensor:
#      x y z
#    x 1.778540 0.000000 0.000000 
#    y 0.000000 1.863590 0.000000 
#    z 0.000000 0.000000 1.771280 
# 
# From -- ./inp_files/2862.got.cif
#   From: 2010.05.17/outbox.cif.g08.bks.cpg/sg29_2_cif.got.tgz:2862.got - 2010.06.04 01:19:37.
