data_PCOD9340623
_publ_section_title
;
Structure prediction by ZEFSAII (Michael W. Deem and Ramdas Pophale) SiO2 
 PCOD9340623
Probable space group: P C A 21
;
_chemical_formula_sum "Si O2"
_cell_formula_units_Z 32
_cell_length_a 12.630703
_cell_length_b 13.073730
_cell_length_c 8.249290
_cell_angle_alpha 90.000000
_cell_angle_beta 90.000000
_cell_angle_gamma 90.000000
_cell_volume 1362.208563
_symmetry_space_group_name_H-M "P C A 21"
_symmetry_group_IT_number 29
_symmetry_cell_setting 'orthorhombic'
loop_
_space_group_symop_operation_xyz
x,y,z
-x,-y,1/2+z
1/2-x,y,1/2+z
1/2+x,-y,z
loop_
_atom_site_type_symbol
_atom_site_label
_atom_site_fract_x
_atom_site_fract_y
_atom_site_fract_z
Si Si1 0.361163 0.876140 0.944220
Si Si2 0.612163 0.593617 0.800535
Si Si3 0.594640 0.920248 0.023007
Si Si4 0.362635 0.839895 0.576231
Si Si5 0.708319 0.893278 0.354183
Si Si6 0.510780 0.444261 0.584491
Si Si7 0.439610 0.275892 0.980527
Si Si8 0.855541 0.543363 0.809457
O O1 0.376169 0.827138 0.768156
O O2 0.324179 0.993063 0.911382
O O3 0.474746 0.882477 0.029188
O O4 0.261365 0.827924 0.035907
O O5 0.572226 0.479298 0.749335
O O6 0.550190 0.632902 0.960134
O O7 0.585168 0.662658 0.645037
O O8 0.736419 0.579776 0.821325
O O9 0.662447 0.882366 0.175171
O O10 0.599660 0.044189 0.031781
O O11 0.664929 0.886178 0.869195
O O12 0.442190 0.766270 0.483684
O O13 0.645345 0.813512 0.462716
O O14 0.604394 0.476072 0.458605
O O15 0.399443 0.502015 0.641047
O O16 0.420709 0.349958 0.827512
#
# Coordination Sequence:
#
# PCOD9340623 Si02
#       8
#     4   4   4   4   4   4   4   4
#     4  10  22  41  65  83 123 183 230 279 331 394
#     4  10  21  39  69  99 130 168 209 262 328 381
#     4  10  22  39  63  90 121 177 235 279 333 386
#     4  10  23  40  63  87 127 173 231 276 336 397
#     4  10  23  37  61  95 124 169 232 284 331 386
#     4   9  19  40  67  92 126 165 204 248 307 422
#     4  11  23  39  61  96 138 162 217 290 332 378
#     4  10  21  39  69 100 129 167 206 264 328 382
#
# _framework density 23.491263
#
# number of rings (size 3 to 8) (size 9 to 14) (size 15 to 20)
#    0.000    2.000    1.250    1.500    5.250    2.000 
#    2.250    0.000   41.250    0.000    0.000    0.000 
#    0.000    0.000    0.000    0.000    0.000    0.000 
#
# Total GULP energy -178182.562127 kJ/mol
# GULP energy per Si atom -5568.205066 kJ/mol
# Density = 2.343780 g / cm^3
# Si number density = 23.491263 Si / 1000 Ang^3
#
#
#
# Elastic Constant Matrix: (Units=GPa)
#
#
# Indices 1 2 3 4 5 6 
#
# 1 186.7544 32.1769 25.3373 0.0000 0.0000 0.0000
# 2 32.1769 23.7146 7.9557 0.0000 0.0000 0.0000
# 3 25.3373 7.9557 50.9118 0.0000 0.0000 0.0000
# 4 0.0000 0.0000 0.0000 25.5944 0.0000 0.0000
# 5 0.0000 0.0000 0.0000 0.0000 34.9902 0.0000
# 6 0.0000 0.0000 0.0000 0.0000 0.0000 22.4096
#
#
#
# Elastic Compliance Matrix: (Units=1/GPa)
#
#
# Indices 1 2 3 4 5 6 
#
# 1 0.007209 -0.009053 -0.002173 0.000000 0.000000 0.000000
# 2 -0.009053 0.055869 -0.004225 0.000000 0.000000 0.000000
# 3 -0.002173 -0.004225 0.021384 0.000000 0.000000 0.000000
# 4 0.000000 0.000000 0.000000 0.039071 0.000000 0.000000
# 5 0.000000 0.000000 0.000000 0.000000 0.028579 0.000000
# 6 0.000000 0.000000 0.000000 0.000000 0.000000 0.044624
#
#
# Mechanical properties :
#
#
# Convention : Reuss Voigt Hill
#
# Bulk Modulus (GPa) = 18.67082 43.59120 31.13101
# Shear Modulus (GPa) = 20.36737 29.65955 25.01346
#
# Velocity S-wave (km/s) = 2.94771 3.55713 3.26666
# Velocity P-wave (km/s) = 4.42160 5.95546 5.24491
#
# Compressibility (1/GPa) = 0.05355951
#
# Stress axis : x y z
#
# Youngs Moduli (GPa) = 138.71160 17.89914 46.76488
#
# Poissons Ratio (x) = 0.16204 0.10163
# Poissons Ratio (y) = 1.25571 0.19758
# Poissons Ratio (z) = 0.30145 0.07563
#
# Static dielectric constant tensor:
#      x y z
#    x 1.920190 0.000000 0.000000 
#    y 0.000000 1.996980 0.000000 
#    z 0.000000 0.000000 2.062600 
# 
# From -- ./inp_files/1593.got.cif
#   From: 2010.05.17/outbox.cif.g08.bks.cpg/sg29_1_cif.got.tgz:1593.got - 2010.06.04 01:19:37.
