data_PCOD9340149
_publ_section_title
;
Structure prediction by ZEFSAII (Michael W. Deem and Ramdas Pophale) SiO2 
 PCOD9340149
Probable space group: P C A 21
;
_chemical_formula_sum "Si O2"
_cell_formula_units_Z 24
_cell_length_a 17.596237
_cell_length_b 7.600654
_cell_length_c 8.417168
_cell_angle_alpha 90.000000
_cell_angle_beta 90.000000
_cell_angle_gamma 90.000000
_cell_volume 1125.736535
_symmetry_space_group_name_H-M "P C A 21"
_symmetry_group_IT_number 29
_symmetry_cell_setting 'orthorhombic'
loop_
_space_group_symop_operation_xyz
x,y,z
-x,-y,1/2+z
1/2-x,y,1/2+z
1/2+x,-y,z
loop_
_atom_site_type_symbol
_atom_site_label
_atom_site_fract_x
_atom_site_fract_y
_atom_site_fract_z
Si Si1 0.954610 0.031909 0.903050
Si Si2 0.528674 0.555145 0.306811
Si Si3 0.353281 0.163049 0.684902
Si Si4 0.689971 0.867188 0.818739
Si Si5 0.415403 0.847895 0.231389
Si Si6 0.934549 0.685646 0.120847
O O1 0.896896 0.006260 0.757581
O O2 0.035992 0.002004 0.822598
O O3 0.944876 0.854550 0.009340
O O4 0.937708 0.163331 0.045601
O O5 0.588510 0.672992 0.206526
O O6 0.448752 0.668310 0.306898
O O7 0.563969 0.540739 0.481432
O O8 0.504575 0.369764 0.232816
O O9 0.329528 0.141726 0.503854
O O10 0.277445 0.178135 0.788595
O O11 0.640318 0.724109 0.721243
O O12 0.667435 0.064453 0.753890
#
# Coordination Sequence:
#
# PCOD9340149 Si02
#       6
#     4   4   4   4   4   4
#     4   9  18  32  50  79 102 136 174 212 256 311
#     4  10  19  34  53  81 106 139 177 215 257 314
#     4  10  20  32  54  77 102 135 177 213 264 321
#     4  11  19  34  54  76 102 137 173 221 262 315
#     4   9  17  30  51  74 103 130 171 211 252 303
#     4   9  19  32  52  75 105 137 176 214 259 308
#
# _framework density 21.319375999999998
#
# number of rings (size 3 to 8) (size 9 to 14) (size 15 to 20)
#    0.000    2.667    0.000    6.000    0.000    1.333 
#    0.000    0.000    0.000   28.000    0.000    0.000 
#    0.000    0.000    0.000    0.000    0.000    0.000 
#
# Total GULP energy -133610.970009 kJ/mol
# GULP energy per Si atom -5567.123750 kJ/mol
# Density = 2.127085 g / cm^3
# Si number density = 21.319376 Si / 1000 Ang^3
#
#
#
# Elastic Constant Matrix: (Units=GPa)
#
#
# Indices 1 2 3 4 5 6 
#
# 1 84.9442 11.9492 -7.5955 0.0000 0.0000 0.0000
# 2 11.9492 72.4739 -4.5300 0.0000 0.0000 0.0000
# 3 -7.5955 -4.5300 83.5704 0.0000 0.0000 0.0000
# 4 0.0000 0.0000 0.0000 15.3896 0.0000 0.0000
# 5 0.0000 0.0000 0.0000 0.0000 41.2247 0.0000
# 6 0.0000 0.0000 0.0000 0.0000 0.0000 24.1969
#
#
#
# Elastic Compliance Matrix: (Units=1/GPa)
#
#
# Indices 1 2 3 4 5 6 
#
# 1 0.012134 -0.001938 0.000998 0.000000 0.000000 0.000000
# 2 -0.001938 0.014155 0.000591 0.000000 0.000000 0.000000
# 3 0.000998 0.000591 0.012089 0.000000 0.000000 0.000000
# 4 0.000000 0.000000 0.000000 0.064979 0.000000 0.000000
# 5 0.000000 0.000000 0.000000 0.000000 0.024257 0.000000
# 6 0.000000 0.000000 0.000000 0.000000 0.000000 0.041328
#
#
# Mechanical properties :
#
#
# Convention : Reuss Voigt Hill
#
# Bulk Modulus (GPa) = 26.54014 26.73734 26.63874
# Shear Modulus (GPa) = 27.44242 32.23990 29.84116
#
# Velocity S-wave (km/s) = 3.59166 3.89297 3.74534
# Velocity P-wave (km/s) = 5.44756 5.72499 5.58799
#
# Compressibility (1/GPa) = 0.03767877
#
# Stress axis : x y z
#
# Youngs Moduli (GPa) = 82.41097 70.64849 82.72197
#
# Poissons Ratio (x) = 0.13694 -0.08254
# Poissons Ratio (y) = 0.15974 -0.04890
# Poissons Ratio (z) = -0.08223 -0.04176
#
# Static dielectric constant tensor:
#      x y z
#    x 1.787710 0.000000 0.000000 
#    y 0.000000 1.922760 0.000000 
#    z 0.000000 0.000000 1.862400 
# 
# From -- ./inp_files/1741.got.cif
#   From: 2010.05.17/outbox.cif.g08.bks.cpg/sg29_1_cif.got.tgz:1741.got - 2010.06.04 01:19:37.
