data_PCOD9340817
_publ_section_title
;
Structure prediction by ZEFSAII (Michael W. Deem and Ramdas Pophale) SiO2 
 PCOD9340817
Probable space group: P C A 21
;
_chemical_formula_sum "Si O2"
_cell_formula_units_Z 32
_cell_length_a 27.730903
_cell_length_b 8.174551
_cell_length_c 4.975764
_cell_angle_alpha 90.000000
_cell_angle_beta 90.000000
_cell_angle_gamma 90.000000
_cell_volume 1127.944402
_symmetry_space_group_name_H-M "P C A 21"
_symmetry_group_IT_number 29
_symmetry_cell_setting 'orthorhombic'
loop_
_space_group_symop_operation_xyz
x,y,z
-x,-y,1/2+z
1/2-x,y,1/2+z
1/2+x,-y,z
loop_
_atom_site_type_symbol
_atom_site_label
_atom_site_fract_x
_atom_site_fract_y
_atom_site_fract_z
Si Si1 0.065510 0.972694 0.687090
Si Si2 0.994099 0.793054 0.435079
Si Si3 0.631943 0.488698 0.031205
Si Si4 0.109959 0.184135 0.251674
Si Si5 0.351362 0.876116 0.516044
Si Si6 0.223871 0.823348 0.572480
Si Si7 0.221021 0.433394 0.663624
Si Si8 0.481506 0.530790 0.439987
O O1 0.051860 0.825380 0.488370
O O2 0.094374 0.113740 0.536137
O O3 0.093384 0.883142 0.919730
O O4 0.013213 0.044228 0.743170
O O5 0.937041 0.818294 0.554382
O O6 0.994768 0.637336 0.203393
O O7 0.627505 0.629288 0.255129
O O8 0.652624 0.311796 0.124089
O O9 0.669027 0.565761 0.812473
O O10 0.576287 0.465594 0.938012
O O11 0.149531 0.053166 0.155462
O O12 0.321987 0.880501 0.236105
O O13 0.268118 0.877033 0.767921
O O14 0.225702 0.628118 0.600695
O O15 0.260428 0.366440 0.878410
O O16 0.503442 0.622986 0.169669
#
# Coordination Sequence:
#
# PCOD9340817 Si02
#       8
#     4   4   4   4   4   4   4   4
#     4  11  21  38  65  90 130 174 231 276 330 409
#     4  10  22  38  62  85 126 183 218 272 333 387
#     4  10  23  45  66  96 136 179 222 288 344 403
#     4  10  23  41  61  95 131 169 229 273 338 404
#     4  10  23  41  65  95 126 172 221 279 338 405
#     4   9  19  37  65  94 129 168 215 271 341 411
#     4   9  19  40  66  97 127 172 226 278 342 416
#     4  11  26  40  62  98 139 173 228 277 330 407
#
# _framework density 28.370194999999999
#
# number of rings (size 3 to 8) (size 9 to 14) (size 15 to 20)
#    0.000    2.000    1.250    0.750    7.000    1.000 
#    6.750    1.250    0.000    0.000    0.000    0.000 
#    0.000    0.000    0.000    0.000    0.000    0.000 
#
# Total GULP energy -178392.224228 kJ/mol
# GULP energy per Si atom -5574.757007 kJ/mol
# Density = 2.830562 g / cm^3
# Si number density = 28.370195 Si / 1000 Ang^3
#
#
#
# Elastic Constant Matrix: (Units=GPa)
#
#
# Indices 1 2 3 4 5 6 
#
# 1 108.3941 26.8630 -3.9963 0.0000 0.0000 0.0000
# 2 26.8630 89.4013 9.4183 0.0000 0.0000 0.0000
# 3 -3.9963 9.4183 135.8076 0.0000 0.0000 0.0000
# 4 0.0000 0.0000 0.0000 30.5883 0.0000 0.0000
# 5 0.0000 0.0000 0.0000 0.0000 52.0968 0.0000
# 6 0.0000 0.0000 0.0000 0.0000 0.0000 39.5405
#
#
#
# Elastic Compliance Matrix: (Units=1/GPa)
#
#
# Indices 1 2 3 4 5 6 
#
# 1 0.010002 -0.003059 0.000506 0.000000 0.000000 0.000000
# 2 -0.003059 0.012203 -0.000936 0.000000 0.000000 0.000000
# 3 0.000506 -0.000936 0.007443 0.000000 0.000000 0.000000
# 4 0.000000 0.000000 0.000000 0.032692 0.000000 0.000000
# 5 0.000000 0.000000 0.000000 0.000000 0.019195 0.000000
# 6 0.000000 0.000000 0.000000 0.000000 0.000000 0.025291
#
#
# Mechanical properties :
#
#
# Convention : Reuss Voigt Hill
#
# Bulk Modulus (GPa) = 44.10833 44.24142 44.17488
# Shear Modulus (GPa) = 41.19939 44.53299 42.86619
#
# Velocity S-wave (km/s) = 3.81492 3.96626 3.89132
# Velocity P-wave (km/s) = 5.91489 6.05005 5.98285
#
# Compressibility (1/GPa) = 0.02267145
#
# Stress axis : x y z
#
# Youngs Moduli (GPa) = 99.97676 81.94531 134.35092
#
# Poissons Ratio (x) = 0.25066 -0.06804
# Poissons Ratio (y) = 0.30581 0.12579
# Poissons Ratio (z) = -0.05063 0.07673
#
# Static dielectric constant tensor:
#      x y z
#    x 2.330190 0.000000 0.000000 
#    y 0.000000 2.409160 0.000000 
#    z 0.000000 0.000000 2.412550 
# 
# From -- ./inp_files/915.got.cif
#   From: 2010.05.17/outbox.cif.g08.bks.cpg/sg29_1_cif.got.tgz:915.got - 2010.06.04 01:19:37.
