data_PCOD9340191
_publ_section_title
;
Structure prediction by ZEFSAII (Michael W. Deem and Ramdas Pophale) SiO2 
 PCOD9340191
Probable space group: P C A 21
;
_chemical_formula_sum "Si O2"
_cell_formula_units_Z 28
_cell_length_a 26.870113
_cell_length_b 5.035641
_cell_length_c 8.808036
_cell_angle_alpha 90.000000
_cell_angle_beta 90.000000
_cell_angle_gamma 90.000000
_cell_volume 1191.799873
_symmetry_space_group_name_H-M "P C A 21"
_symmetry_group_IT_number 29
_symmetry_cell_setting 'orthorhombic'
loop_
_space_group_symop_operation_xyz
x,y,z
-x,-y,1/2+z
1/2-x,y,1/2+z
1/2+x,-y,z
loop_
_atom_site_type_symbol
_atom_site_label
_atom_site_fract_x
_atom_site_fract_y
_atom_site_fract_z
Si Si1 0.476851 0.583215 0.858010
Si Si2 0.871470 0.924866 0.602715
Si Si3 0.776013 0.274380 0.609537
Si Si4 0.176137 0.903487 0.556411
Si Si5 0.918305 0.915280 0.942142
Si Si6 0.429649 0.574403 0.523618
Si Si7 0.209080 0.421727 0.399580
O O1 0.443301 0.368710 0.946394
O O2 0.460901 0.562282 0.681981
O O3 0.461609 0.868280 0.923964
O O4 0.533556 0.509117 0.890176
O O5 0.816910 0.050277 0.586299
O O6 0.907399 0.132800 0.516500
O O7 0.887840 0.933160 0.781172
O O8 0.884861 0.635806 0.540864
O O9 0.794605 0.492208 0.728165
O O10 0.759232 0.447449 0.465378
O O11 0.723027 0.145871 0.666972
O O12 0.121228 0.019580 0.575047
O O13 0.201945 0.119378 0.443418
O O14 0.168915 0.611211 0.484271
#
# Coordination Sequence:
#
# PCOD9340191 Si02
#       7
#     4   4   4   4   4   4   4
#     4  10  21  38  60  84 111 145 188 243 281 342
#     4  10  20  34  62  84 110 150 194 230 274 349
#     4  10  23  38  58  87 121 154 195 239 283 346
#     4  10  22  36  58  89 113 156 191 245 272 347
#     4  10  19  36  62  83 108 153 196 225 279 345
#     4  10  22  37  59  85 110 146 190 235 292 333
#     4  10  23  33  61  78 125 146 196 233 289 324
#
# _framework density 23.493874999999999
#
# number of rings (size 3 to 8) (size 9 to 14) (size 15 to 20)
#    0.857    1.143    1.429    1.714    8.000    0.000 
#    0.000    2.857    0.000    0.000    0.000    0.000 
#    0.000    0.000    0.000    0.000    0.000    0.000 
#
# Total GULP energy -156233.166581 kJ/mol
# GULP energy per Si atom -5579.755949 kJ/mol
# Density = 2.344040 g / cm^3
# Si number density = 23.493875 Si / 1000 Ang^3
#
#
#
# Elastic Constant Matrix: (Units=GPa)
#
#
# Indices 1 2 3 4 5 6 
#
# 1 24.7772 -11.6734 -3.1144 0.0000 0.0000 0.0000
# 2 -11.6734 66.8140 3.4409 0.0000 0.0000 0.0000
# 3 -3.1144 3.4409 3.2737 0.0000 0.0000 0.0000
# 4 0.0000 0.0000 0.0000 19.2292 0.0000 0.0000
# 5 0.0000 0.0000 0.0000 0.0000 28.8028 0.0000
# 6 0.0000 0.0000 0.0000 0.0000 0.0000 25.7777
#
#
#
# Elastic Compliance Matrix: (Units=1/GPa)
#
#
# Indices 1 2 3 4 5 6 
#
# 1 0.048314 0.006422 0.039214 0.000000 0.000000 0.000000
# 2 0.006422 0.016677 -0.011420 0.000000 0.000000 0.000000
# 3 0.039214 -0.011420 0.354772 0.000000 0.000000 0.000000
# 4 0.000000 0.000000 0.000000 0.052004 0.000000 0.000000
# 5 0.000000 0.000000 0.000000 0.000000 0.034719 0.000000
# 6 0.000000 0.000000 0.000000 0.000000 0.000000 0.038793
#
#
# Mechanical properties :
#
#
# Convention : Reuss Voigt Hill
#
# Bulk Modulus (GPa) = 2.04836 8.01901 5.03369
# Shear Modulus (GPa) = 7.81764 21.84272 14.83018
#
# Velocity S-wave (km/s) = 1.82613 3.05244 2.51517
# Velocity P-wave (km/s) = 2.30653 3.98043 3.25299
#
# Compressibility (1/GPa) = 0.48819506
#
# Stress axis : x y z
#
# Youngs Moduli (GPa) = 20.69784 59.96280 2.81871
#
# Poissons Ratio (x) = -0.38506 -0.11053
# Poissons Ratio (y) = -0.13292 0.03219
# Poissons Ratio (z) = -0.81164 0.68475
#
# Static dielectric constant tensor:
#      x y z
#    x 1.943210 0.000000 0.000000 
#    y 0.000000 1.845790 0.000000 
#    z 0.000000 0.000000 1.906290 
# 
# From -- ./inp_files/3929.got.cif
#   From: 2010.05.17/outbox.cif.g08.bks.cpg/sg29_2_cif.got.tgz:3929.got - 2010.06.04 01:19:37.
