data_PCOD9340619
_publ_section_title
;
Structure prediction by ZEFSAII (Michael W. Deem and Ramdas Pophale) SiO2 
 PCOD9340619
Probable space group: P C A 21
;
_chemical_formula_sum "Si O2"
_cell_formula_units_Z 32
_cell_length_a 5.353259
_cell_length_b 20.578285
_cell_length_c 13.531587
_cell_angle_alpha 90.000000
_cell_angle_beta 90.000000
_cell_angle_gamma 90.000000
_cell_volume 1490.651659
_symmetry_space_group_name_H-M "P C A 21"
_symmetry_group_IT_number 29
_symmetry_cell_setting 'orthorhombic'
loop_
_space_group_symop_operation_xyz
x,y,z
-x,-y,1/2+z
1/2-x,y,1/2+z
1/2+x,-y,z
loop_
_atom_site_type_symbol
_atom_site_label
_atom_site_fract_x
_atom_site_fract_y
_atom_site_fract_z
Si Si1 0.489315 0.226658 0.122010
Si Si2 0.498678 0.460153 0.004421
Si Si3 0.391586 0.968480 0.965585
Si Si4 0.922968 0.978622 0.740169
Si Si5 0.439387 0.314041 0.314847
Si Si6 0.938939 0.314512 0.430605
Si Si7 0.511075 0.141578 0.620264
Si Si8 0.500209 0.540058 0.740879
O O1 0.482613 0.271974 0.217820
O O2 0.733858 0.181656 0.125815
O O3 0.235066 0.185402 0.116341
O O4 0.510588 0.273162 0.027825
O O5 0.730986 0.507650 0.981619
O O6 0.499720 0.449373 0.122618
O O7 0.539887 0.391099 0.953923
O O8 0.608046 0.018605 0.995709
O O9 0.388301 0.983166 0.845711
O O10 0.474496 0.902552 0.020049
O O11 0.992030 0.903922 0.719012
O O12 0.653562 0.984926 0.691543
O O13 0.663473 0.299044 0.390486
O O14 0.464198 0.390510 0.290915
O O15 0.163129 0.299888 0.355031
O O16 0.235276 0.506448 0.763889
#
# Coordination Sequence:
#
# PCOD9340619 Si02
#       8
#     4   4   4   4   4   4   4   4
#     4  12  28  51  66 105 142 192 242 276 334 422
#     4  10  21  39  68 101 135 180 235 298 361 413
#     4  10  21  41  67 103 135 167 215 280 342 398
#     4  10  21  41  67 103 135 167 215 280 342 398
#     4  12  26  47  71  99 143 188 237 298 351 410
#     4  12  26  47  71  99 143 188 237 298 351 410
#     4  12  24  45  74  97 142 186 222 278 344 416
#     4  10  21  39  68 101 135 180 235 298 361 413
#
# _framework density 21.467122
#
# number of rings (size 3 to 8) (size 9 to 14) (size 15 to 20)
#    0.000    1.000    1.250    5.250    0.000    3.000 
#   27.000    0.000    0.000    0.000    0.000    0.000 
#    0.000    0.000    0.000    0.000    0.000    0.000 
#
# Total GULP energy -178761.483582 kJ/mol
# GULP energy per Si atom -5586.296362 kJ/mol
# Density = 2.141826 g / cm^3
# Si number density = 21.467122 Si / 1000 Ang^3
#
#
#
# Elastic Constant Matrix: (Units=GPa)
#
#
# Indices 1 2 3 4 5 6 
#
# 1 125.0814 23.9631 -7.9013 0.0000 0.0000 0.0000
# 2 23.9631 95.4848 23.3808 0.0000 0.0000 0.0000
# 3 -7.9013 23.3808 95.9457 0.0000 0.0000 0.0000
# 4 0.0000 0.0000 0.0000 731.8517 0.0000 0.0000
# 5 0.0000 0.0000 0.0000 0.0000 15.5587 0.0000
# 6 0.0000 0.0000 0.0000 0.0000 0.0000 28.3756
#
#
#
# Elastic Compliance Matrix: (Units=1/GPa)
#
#
# Indices 1 2 3 4 5 6 
#
# 1 0.008549 -0.002465 0.001305 0.000000 0.000000 0.000000
# 2 -0.002465 0.011848 -0.003090 0.000000 0.000000 0.000000
# 3 0.001305 -0.003090 0.011283 0.000000 0.000000 0.000000
# 4 0.000000 0.000000 0.000000 0.001366 0.000000 0.000000
# 5 0.000000 0.000000 0.000000 0.000000 0.064273 0.000000
# 6 0.000000 0.000000 0.000000 0.000000 0.000000 0.035241
#
#
# Mechanical properties :
#
#
# Convention : Reuss Voigt Hill
#
# Bulk Modulus (GPa) = 43.14139 43.93301 43.53720
# Shear Modulus (GPa) = 33.60461 173.62849 103.61655
#
# Velocity S-wave (km/s) = 3.96080 9.00315 6.95502
# Velocity P-wave (km/s) = 6.40761 11.33955 9.20985
#
# Compressibility (1/GPa) = 0.02317960
#
# Stress axis : x y z
#
# Youngs Moduli (GPa) = 116.96616 84.40091 88.62834
#
# Poissons Ratio (x) = 0.20806 -0.11564
# Poissons Ratio (y) = 0.28833 0.27389
# Poissons Ratio (z) = -0.15261 0.26082
#
# Static dielectric constant tensor:
#      x y z
#    x 1.779680 0.000000 0.000000 
#    y 0.000000 1.741230 0.000000 
#    z 0.000000 0.000000 1.872290 
# 
# From -- ./inp_files/4115.got.cif
#   From: 2010.05.17/outbox.cif.g08.bks.cpg/sg29_3_cif.got.tgz:4115.got - 2010.06.04 01:19:37.
