data_PCOD9340265
_publ_section_title
;
Structure prediction by ZEFSAII (Michael W. Deem and Ramdas Pophale) SiO2 
 PCOD9340265
Probable space group: P C A 21
;
_chemical_formula_sum "Si O2"
_cell_formula_units_Z 28
_cell_length_a 8.717726
_cell_length_b 6.892480
_cell_length_c 21.253733
_cell_angle_alpha 90.000000
_cell_angle_beta 90.000000
_cell_angle_gamma 90.000000
_cell_volume 1277.067786
_symmetry_space_group_name_H-M "P C A 21"
_symmetry_group_IT_number 29
_symmetry_cell_setting 'orthorhombic'
loop_
_space_group_symop_operation_xyz
x,y,z
-x,-y,1/2+z
1/2-x,y,1/2+z
1/2+x,-y,z
loop_
_atom_site_type_symbol
_atom_site_label
_atom_site_fract_x
_atom_site_fract_y
_atom_site_fract_z
Si Si1 0.974699 0.149125 0.067770
Si Si2 0.299377 0.536918 0.149954
Si Si3 0.999030 0.782006 0.154586
Si Si4 0.236886 0.078307 0.980391
Si Si5 0.382482 0.968531 0.774415
Si Si6 0.582514 0.284973 0.772627
Si Si7 0.999081 0.154698 0.395043
O O1 0.024297 0.975695 0.114746
O O2 0.903842 0.323278 0.107155
O O3 0.841754 0.055944 0.024574
O O4 0.116034 0.197080 0.022062
O O5 0.130861 0.622870 0.142210
O O6 0.338353 0.314957 0.136255
O O7 0.356056 0.565903 0.222278
O O8 0.020558 0.835272 0.227527
O O9 0.356237 0.201955 0.938787
O O10 0.135236 0.937310 0.936178
O O11 0.212136 0.885477 0.771379
O O12 0.421263 0.187822 0.751457
O O13 0.440721 0.988190 0.845948
O O14 0.556684 0.322492 0.846719
#
# Coordination Sequence:
#
# PCOD9340265 Si02
#       7
#     4   4   4   4   4   4   4
#     4  11  21  40  58  90 115 161 198 244 282 355
#     4  11  24  39  60  90 121 154 194 246 299 350
#     4  11  24  39  60  90 121 154 194 246 299 350
#     4  10  20  30  62  86 112 156 208 226 296 340
#     4   9  17  32  58  84 115 142 185 240 295 340
#     4   9  17  32  58  84 115 142 185 240 295 340
#     4   9  15  34  54  94 109 149 196 246 278 365
#
# _framework density 21.925228000000001
#
# number of rings (size 3 to 8) (size 9 to 14) (size 15 to 20)
#    0.857    1.143    4.286    0.000    2.000    1.143 
#    0.000    0.000    0.000   10.286    0.000    0.000 
#    0.000    0.000    0.000    0.000    0.000    0.000 
#
# Total GULP energy -156032.438368 kJ/mol
# GULP energy per Si atom -5572.587085 kJ/mol
# Density = 2.187533 g / cm^3
# Si number density = 21.925228 Si / 1000 Ang^3
#
#
#
# Elastic Constant Matrix: (Units=GPa)
#
#
# Indices 1 2 3 4 5 6 
#
# 1 84.5443 7.7030 41.4351 0.0000 0.0000 0.0000
# 2 7.7030 19.6999 7.0062 0.0000 0.0000 0.0000
# 3 41.4351 7.0062 96.6998 0.0000 0.0000 0.0000
# 4 0.0000 0.0000 0.0000 3.9526 0.0000 0.0000
# 5 0.0000 0.0000 0.0000 0.0000 49.4497 0.0000
# 6 0.0000 0.0000 0.0000 0.0000 0.0000 21.3357
#
#
#
# Elastic Compliance Matrix: (Units=1/GPa)
#
#
# Indices 1 2 3 4 5 6 
#
# 1 0.015235 -0.003732 -0.006258 0.000000 0.000000 0.000000
# 2 -0.003732 0.053018 -0.002242 0.000000 0.000000 0.000000
# 3 -0.006258 -0.002242 0.013185 0.000000 0.000000 0.000000
# 4 0.000000 0.000000 0.000000 0.252999 0.000000 0.000000
# 5 0.000000 0.000000 0.000000 0.000000 0.020223 0.000000
# 6 0.000000 0.000000 0.000000 0.000000 0.000000 0.046870
#
#
# Mechanical properties :
#
#
# Convention : Reuss Voigt Hill
#
# Bulk Modulus (GPa) = 17.55157 34.80363 26.17760
# Shear Modulus (GPa) = 11.23633 24.60091 17.91862
#
# Velocity S-wave (km/s) = 2.26627 3.35332 2.86188
# Velocity P-wave (km/s) = 3.85623 5.55889 4.78392
#
# Compressibility (1/GPa) = 0.05697494
#
# Stress axis : x y z
#
# Youngs Moduli (GPa) = 65.63829 18.86146 75.84305
#
# Poissons Ratio (x) = 0.07038 0.47460
# Poissons Ratio (y) = 0.24493 0.17007
# Poissons Ratio (z) = 0.41075 0.04229
#
# Static dielectric constant tensor:
#      x y z
#    x 1.837980 0.000000 0.000000 
#    y 0.000000 1.792910 0.000000 
#    z 0.000000 0.000000 1.835530 
# 
# From -- ./inp_files/5677.got.cif
#   From: 2010.05.17/outbox.cif.g08.bks.cpg/sg29_3_cif.got.tgz:5677.got - 2010.06.04 01:19:37.
