data_PCOD9340387
_publ_section_title
;
Structure prediction by ZEFSAII (Michael W. Deem and Ramdas Pophale) SiO2 
 PCOD9340387
Probable space group: P C A 21
;
_chemical_formula_sum "Si O2"
_cell_formula_units_Z 24
_cell_length_a 18.721617
_cell_length_b 7.129293
_cell_length_c 8.130767
_cell_angle_alpha 90.000000
_cell_angle_beta 90.000000
_cell_angle_gamma 90.000000
_cell_volume 1085.228863
_symmetry_space_group_name_H-M "P C A 21"
_symmetry_group_IT_number 29
_symmetry_cell_setting 'orthorhombic'
loop_
_space_group_symop_operation_xyz
x,y,z
-x,-y,1/2+z
1/2-x,y,1/2+z
1/2+x,-y,z
loop_
_atom_site_type_symbol
_atom_site_label
_atom_site_fract_x
_atom_site_fract_y
_atom_site_fract_z
Si Si1 0.045295 0.491073 0.024350
Si Si2 0.039884 0.088898 0.865475
Si Si3 0.162140 0.442729 0.309492
Si Si4 0.852608 0.207902 0.407021
Si Si5 0.071297 0.188739 0.496941
Si Si6 0.275095 0.650186 0.109178
O O1 0.093141 0.478095 0.191394
O O2 0.975376 0.620637 0.028011
O O3 0.097140 0.608295 0.904794
O O4 0.029702 0.287480 0.952201
O O5 0.100826 0.968929 0.955064
O O6 0.068782 0.105698 0.679949
O O7 0.970567 0.957846 0.881022
O O8 0.143516 0.250591 0.405428
O O9 0.235209 0.474768 0.203475
O O10 0.175188 0.586032 0.459671
O O11 0.791612 0.239440 0.537773
O O12 0.816226 0.214929 0.231316
#
# Coordination Sequence:
#
# PCOD9340387 Si02
#       6
#     4   4   4   4   4   4
#     4  10  21  39  63  89 121 156 199 254 311 367
#     4  11  23  39  60  92 122 153 201 253 314 371
#     4  10  20  38  63  87 118 164 205 246 304 365
#     4   9  20  39  61  86 118 156 198 245 297 358
#     4  11  23  38  62  91 122 159 199 256 314 370
#     4   9  19  39  63  85 119 164 204 246 296 355
#
# _framework density 22.115151999999998
#
# number of rings (size 3 to 8) (size 9 to 14) (size 15 to 20)
#    0.000    2.000    0.000    3.000    0.000    5.333 
#    0.000   16.667    0.000    0.000    0.000    0.000 
#    0.000    0.000    0.000    0.000    0.000    0.000 
#
# Total GULP energy -133895.446638 kJ/mol
# GULP energy per Si atom -5578.976943 kJ/mol
# Density = 2.206482 g / cm^3
# Si number density = 22.115152 Si / 1000 Ang^3
#
#
#
# Elastic Constant Matrix: (Units=GPa)
#
#
# Indices 1 2 3 4 5 6 
#
# 1 44.7702 27.8244 2.4705 0.0000 0.0000 0.0000
# 2 27.8244 109.4561 12.5706 0.0000 0.0000 0.0000
# 3 2.4705 12.5706 70.7168 0.0000 0.0000 0.0000
# 4 0.0000 0.0000 0.0000 18.5145 0.0000 0.0000
# 5 0.0000 0.0000 0.0000 0.0000 20.6945 0.0000
# 6 0.0000 0.0000 0.0000 0.0000 0.0000 12.0019
#
#
#
# Elastic Compliance Matrix: (Units=1/GPa)
#
#
# Indices 1 2 3 4 5 6 
#
# 1 0.026533 -0.006777 0.000278 0.000000 0.000000 0.000000
# 2 -0.006777 0.011057 -0.001729 0.000000 0.000000 0.000000
# 3 0.000278 -0.001729 0.014439 0.000000 0.000000 0.000000
# 4 0.000000 0.000000 0.000000 0.054012 0.000000 0.000000
# 5 0.000000 0.000000 0.000000 0.000000 0.048322 0.000000
# 6 0.000000 0.000000 0.000000 0.000000 0.000000 0.083320
#
#
# Mechanical properties :
#
#
# Convention : Reuss Voigt Hill
#
# Bulk Modulus (GPa) = 28.11125 34.51935 31.31530
# Shear Modulus (GPa) = 18.79733 22.38070 20.58901
#
# Velocity S-wave (km/s) = 2.91860 3.18466 3.05453
# Velocity P-wave (km/s) = 4.90882 5.40051 5.16052
#
# Compressibility (1/GPa) = 0.03557295
#
# Stress axis : x y z
#
# Youngs Moduli (GPa) = 37.68947 90.43806 69.25914
#
# Poissons Ratio (x) = 0.61287 -0.01923
# Poissons Ratio (y) = 0.25541 0.11974
# Poissons Ratio (z) = -0.01047 0.15635
#
# Static dielectric constant tensor:
#      x y z
#    x 1.810390 0.000000 0.000000 
#    y 0.000000 1.819330 0.000000 
#    z 0.000000 0.000000 1.870180 
# 
# From -- ./inp_files/2392.got.cif
#   From: 2010.05.17/outbox.cif.g08.bks.cpg/sg29_2_cif.got.tgz:2392.got - 2010.06.04 01:19:37.
