data_PCOD9340693
_publ_section_title
;
Structure prediction by ZEFSAII (Michael W. Deem and Ramdas Pophale) SiO2 
 PCOD9340693
Probable space group: P C A 21
;
_chemical_formula_sum "Si O2"
_cell_formula_units_Z 28
_cell_length_a 4.959950
_cell_length_b 13.474023
_cell_length_c 17.662507
_cell_angle_alpha 90.000000
_cell_angle_beta 90.000000
_cell_angle_gamma 90.000000
_cell_volume 1180.393828
_symmetry_space_group_name_H-M "P C A 21"
_symmetry_group_IT_number 29
_symmetry_cell_setting 'orthorhombic'
loop_
_space_group_symop_operation_xyz
x,y,z
-x,-y,1/2+z
1/2-x,y,1/2+z
1/2+x,-y,z
loop_
_atom_site_type_symbol
_atom_site_label
_atom_site_fract_x
_atom_site_fract_y
_atom_site_fract_z
Si Si1 0.026832 0.253925 0.639290
Si Si2 0.566488 0.931144 0.358884
Si Si3 0.783134 0.436922 0.721136
Si Si4 0.072342 0.061368 0.030746
Si Si5 0.980501 0.142777 0.189837
Si Si6 0.651387 0.430799 0.397350
Si Si7 0.174368 0.773652 0.972683
O O1 0.323393 0.236252 0.672174
O O2 0.896474 0.357118 0.663465
O O3 0.828755 0.173273 0.678108
O O4 0.002413 0.240079 0.549007
O O5 0.536678 0.900653 0.271315
O O6 0.478537 0.833550 0.406129
O O7 0.863484 0.975879 0.371168
O O8 0.474110 0.466976 0.711862
O O9 0.826373 0.403300 0.808144
O O10 0.060200 0.071544 0.121141
O O11 0.873184 0.970501 0.011216
O O12 0.930068 0.158551 0.997393
O O13 0.360665 0.479113 0.411497
O O14 0.724576 0.333254 0.444307
#
# Coordination Sequence:
#
# PCOD9340693 Si02
#       7
#     4   4   4   4   4   4   4
#     4  11  24  41  66  97 129 175 222 273 338 398
#     4  12  26  44  67  99 133 177 224 273 331 400
#     4  10  21  41  66  93 124 165 219 277 327 388
#     4  11  22  40  63  92 129 173 217 267 326 392
#     4  11  23  42  66  93 129 176 226 272 320 395
#     4  10  24  43  67  96 132 176 222 275 339 399
#     4  11  26  43  67 100 140 176 220 281 345 408
#
# _framework density 23.720897999999998
#
# number of rings (size 3 to 8) (size 9 to 14) (size 15 to 20)
#    0.000    1.143    0.000    6.000    0.000   10.286 
#    0.000    0.000    0.000    0.000    0.000    0.000 
#    0.000    0.000    0.000    0.000    0.000    0.000 
#
# Total GULP energy -156894.021869 kJ/mol
# GULP energy per Si atom -5603.357924 kJ/mol
# Density = 2.366691 g / cm^3
# Si number density = 23.720898 Si / 1000 Ang^3
#
#
#
# Elastic Constant Matrix: (Units=GPa)
#
#
# Indices 1 2 3 4 5 6 
#
# 1 89.2764 0.2486 18.1495 0.0000 0.0000 0.0000
# 2 0.2486 94.4304 52.8285 0.0000 0.0000 0.0000
# 3 18.1495 52.8285 127.7705 0.0000 0.0000 0.0000
# 4 0.0000 0.0000 0.0000 45.6074 0.0000 0.0000
# 5 0.0000 0.0000 0.0000 0.0000 26.2106 0.0000
# 6 0.0000 0.0000 0.0000 0.0000 0.0000 32.2274
#
#
#
# Elastic Compliance Matrix: (Units=1/GPa)
#
#
# Indices 1 2 3 4 5 6 
#
# 1 0.011632 0.001163 -0.002133 0.000000 0.000000 0.000000
# 2 0.001163 0.013893 -0.005909 0.000000 0.000000 0.000000
# 3 -0.002133 -0.005909 0.010573 0.000000 0.000000 0.000000
# 4 0.000000 0.000000 0.000000 0.021926 0.000000 0.000000
# 5 0.000000 0.000000 0.000000 0.000000 0.038153 0.000000
# 6 0.000000 0.000000 0.000000 0.000000 0.000000 0.031030
#
#
# Mechanical properties :
#
#
# Convention : Reuss Voigt Hill
#
# Bulk Modulus (GPa) = 44.76706 50.43670 47.60188
# Shear Modulus (GPa) = 33.69037 36.82579 35.25808
#
# Velocity S-wave (km/s) = 3.77275 3.94440 3.85953
# Velocity P-wave (km/s) = 6.15561 6.48484 6.32237
#
# Compressibility (1/GPa) = 0.02233785
#
# Stress axis : x y z
#
# Youngs Moduli (GPa) = 85.97308 71.98058 94.58256
#
# Poissons Ratio (x) = -0.08369 0.20174
# Poissons Ratio (y) = -0.09996 0.55891
# Poissons Ratio (z) = 0.18338 0.42535
#
# Static dielectric constant tensor:
#      x y z
#    x 1.871660 0.000000 0.000000 
#    y 0.000000 1.902450 0.000000 
#    z 0.000000 0.000000 1.917000 
# 
# From -- ./inp_files/4889.got.cif
#   From: 2010.05.17/outbox.cif.g08.bks.cpg/sg29_3_cif.got.tgz:4889.got - 2010.06.04 01:19:37.
