data_PCOD9340187
_publ_section_title
;
Structure prediction by ZEFSAII (Michael W. Deem and Ramdas Pophale) SiO2 
 PCOD9340187
Probable space group: P C A 21
;
_chemical_formula_sum "Si O2"
_cell_formula_units_Z 28
_cell_length_a 15.664749
_cell_length_b 15.455379
_cell_length_c 5.183267
_cell_angle_alpha 90.000000
_cell_angle_beta 90.000000
_cell_angle_gamma 90.000000
_cell_volume 1254.892953
_symmetry_space_group_name_H-M "P C A 21"
_symmetry_group_IT_number 29
_symmetry_cell_setting 'orthorhombic'
loop_
_space_group_symop_operation_xyz
x,y,z
-x,-y,1/2+z
1/2-x,y,1/2+z
1/2+x,-y,z
loop_
_atom_site_type_symbol
_atom_site_label
_atom_site_fract_x
_atom_site_fract_y
_atom_site_fract_z
Si Si1 0.205689 0.413374 0.558550
Si Si2 0.554342 0.996808 0.879621
Si Si3 0.077056 0.814447 0.971279
Si Si4 0.553380 0.493992 0.816507
Si Si5 0.959678 0.806074 0.471325
Si Si6 0.778781 0.775754 0.501897
Si Si7 0.307654 0.652800 0.389419
O O1 0.226950 0.447388 0.273622
O O2 0.115365 0.437778 0.674491
O O3 0.221186 0.310959 0.533348
O O4 0.603627 0.084360 0.951989
O O5 0.526163 0.999134 0.580366
O O6 0.585359 0.900325 0.934920
O O7 0.153289 0.748352 0.926968
O O8 0.009650 0.801996 0.738608
O O9 0.026529 0.796301 0.238101
O O10 0.488473 0.471900 0.581625
O O11 0.612220 0.412432 0.891805
O O12 0.876517 0.746872 0.476089
O O13 0.738712 0.825109 0.264095
O O14 0.240437 0.640307 0.619112
#
# Coordination Sequence:
#
# PCOD9340187 Si02
#       7
#     4   4   4   4   4   4   4
#     4  10  21  39  60  83 118 154 182 231 304 357
#     4   8  16  32  56  84 118 156 200 252 299 339
#     4  10  21  38  62  88 117 162 209 250 293 355
#     4  12  26  44  67  92 114 154 210 255 297 367
#     4  10  19  36  60  90 121 158 209 253 292 358
#     4  10  21  34  53  84 121 154 182 231 302 354
#     4  12  26  45  64  91 129 164 200 256 319 372
#
# _framework density 22.312659
#
# number of rings (size 3 to 8) (size 9 to 14) (size 15 to 20)
#    0.000    1.714    0.000    4.286    0.000    6.857 
#    0.000    1.429    0.000    0.000    0.000    0.000 
#    0.000    0.000    0.000    0.000    0.000    0.000 
#
# Total GULP energy -156291.954632 kJ/mol
# GULP energy per Si atom -5581.855523 kJ/mol
# Density = 2.226187 g / cm^3
# Si number density = 22.312659 Si / 1000 Ang^3
#
#
#
# Elastic Constant Matrix: (Units=GPa)
#
#
# Indices 1 2 3 4 5 6 
#
# 1 55.7728 17.4614 7.2162 0.0000 0.0000 0.0000
# 2 17.4614 42.5984 -4.5569 0.0000 0.0000 0.0000
# 3 7.2162 -4.5569 132.4370 0.0000 0.0000 0.0000
# 4 0.0000 0.0000 0.0000 15.1311 0.0000 0.0000
# 5 0.0000 0.0000 0.0000 0.0000 26.0513 0.0000
# 6 0.0000 0.0000 0.0000 0.0000 0.0000 22.9600
#
#
#
# Elastic Compliance Matrix: (Units=1/GPa)
#
#
# Indices 1 2 3 4 5 6 
#
# 1 0.020838 -0.008695 -0.001435 0.000000 0.000000 0.000000
# 2 -0.008695 0.027190 0.001409 0.000000 0.000000 0.000000
# 3 -0.001435 0.001409 0.007677 0.000000 0.000000 0.000000
# 4 0.000000 0.000000 0.000000 0.066089 0.000000 0.000000
# 5 0.000000 0.000000 0.000000 0.000000 0.038386 0.000000
# 6 0.000000 0.000000 0.000000 0.000000 0.000000 0.043554
#
#
# Mechanical properties :
#
#
# Convention : Reuss Voigt Hill
#
# Bulk Modulus (GPa) = 26.13382 30.11663 28.12523
# Shear Modulus (GPa) = 21.37401 26.87434 24.12417
#
# Velocity S-wave (km/s) = 3.09841 3.47427 3.29171
# Velocity P-wave (km/s) = 4.95360 5.44251 5.20380
#
# Compressibility (1/GPa) = 0.03826459
#
# Stress axis : x y z
#
# Youngs Moduli (GPa) = 47.98992 36.77833 130.25217
#
# Poissons Ratio (x) = 0.31979 0.18686
# Poissons Ratio (y) = 0.41727 -0.18357
# Poissons Ratio (z) = 0.06885 -0.05183
#
# Static dielectric constant tensor:
#      x y z
#    x 1.838190 0.000000 0.000000 
#    y 0.000000 1.906730 0.000000 
#    z 0.000000 0.000000 1.902240 
# 
# From -- ./inp_files/243.got.cif
#   From: 2010.05.17/outbox.cif.g08.bks.cpg/sg29_1_cif.got.tgz:243.got - 2010.06.04 01:19:37.
