data_PCOD9340707
_publ_section_title
;
Structure prediction by ZEFSAII (Michael W. Deem and Ramdas Pophale) SiO2 
 PCOD9340707
Probable space group: P C A 21
;
_chemical_formula_sum "Si O2"
_cell_formula_units_Z 32
_cell_length_a 13.583570
_cell_length_b 8.679129
_cell_length_c 12.239706
_cell_angle_alpha 90.000000
_cell_angle_beta 90.000000
_cell_angle_gamma 90.000000
_cell_volume 1442.982469
_symmetry_space_group_name_H-M "P C A 21"
_symmetry_group_IT_number 29
_symmetry_cell_setting 'orthorhombic'
loop_
_space_group_symop_operation_xyz
x,y,z
-x,-y,1/2+z
1/2-x,y,1/2+z
1/2+x,-y,z
loop_
_atom_site_type_symbol
_atom_site_label
_atom_site_fract_x
_atom_site_fract_y
_atom_site_fract_z
Si Si1 0.861342 0.828407 0.983900
Si Si2 0.247938 0.646598 0.524312
Si Si3 0.995847 0.704824 0.325020
Si Si4 0.163737 0.452182 0.349804
Si Si5 0.179567 0.399985 0.676589
Si Si6 0.732751 0.071229 0.870834
Si Si7 0.552210 0.965867 0.977696
Si Si8 0.636601 0.134115 0.169267
O O1 0.891632 0.688573 0.905757
O O2 0.949348 0.948325 0.997205
O O3 0.774943 0.912559 0.918085
O O4 0.828471 0.744511 0.094550
O O5 0.250844 0.514940 0.430951
O O6 0.174938 0.561647 0.609437
O O7 0.224599 0.798019 0.452514
O O8 0.338192 0.714059 0.596237
O O9 0.084686 0.586706 0.340698
O O10 0.042968 0.833464 0.244777
O O11 0.906785 0.623008 0.263352
O O12 0.963661 0.794349 0.433983
O O13 0.216624 0.406042 0.238652
O O14 0.616131 0.057388 0.885876
O O15 0.772427 0.102853 0.750195
O O16 0.614526 0.994691 0.087559
#
# Coordination Sequence:
#
# PCOD9340707 Si02
#       8
#     4   4   4   4   4   4   4   4
#     4  11  24  44  67 105 141 183 254 300 364 451
#     4  10  21  41  70  97 134 190 241 289 369 440
#     4  12  23  46  70 104 145 188 248 307 372 455
#     4  11  24  44  67 100 147 186 237 304 372 445
#     4  11  24  44  69 101 143 192 238 305 369 437
#     4  11  23  45  72 103 146 186 243 310 369 448
#     4  11  25  44  72 103 143 195 246 319 366 448
#     4  11  22  44  75 101 143 192 243 302 375 448
#
# _framework density 22.176290999999999
#
# number of rings (size 3 to 8) (size 9 to 14) (size 15 to 20)
#    0.000    1.000    5.000    0.750    0.000    7.000 
#    2.250    7.500    0.000    0.000    0.000    0.000 
#    0.000    0.000    0.000    0.000    0.000    0.000 
#
# Total GULP energy -178601.150142 kJ/mol
# GULP energy per Si atom -5581.285942 kJ/mol
# Density = 2.212582 g / cm^3
# Si number density = 22.176291 Si / 1000 Ang^3
#
#
#
# Elastic Constant Matrix: (Units=GPa)
#
#
# Indices 1 2 3 4 5 6 
#
# 1 38.3702 22.6517 13.9371 0.0000 0.0000 0.0000
# 2 22.6517 70.8699 31.0111 0.0000 0.0000 0.0000
# 3 13.9371 31.0111 84.2544 0.0000 0.0000 0.0000
# 4 0.0000 0.0000 0.0000 32.6001 0.0000 0.0000
# 5 0.0000 0.0000 0.0000 0.0000 35.8422 0.0000
# 6 0.0000 0.0000 0.0000 0.0000 0.0000 35.7570
#
#
#
# Elastic Compliance Matrix: (Units=1/GPa)
#
#
# Indices 1 2 3 4 5 6 
#
# 1 0.032361 -0.009537 -0.001843 0.000000 0.000000 0.000000
# 2 -0.009537 0.019630 -0.005647 0.000000 0.000000 0.000000
# 3 -0.001843 -0.005647 0.014252 0.000000 0.000000 0.000000
# 4 0.000000 0.000000 0.000000 0.030675 0.000000 0.000000
# 5 0.000000 0.000000 0.000000 0.000000 0.027900 0.000000
# 6 0.000000 0.000000 0.000000 0.000000 0.000000 0.027967
#
#
# Mechanical properties :
#
#
# Convention : Reuss Voigt Hill
#
# Bulk Modulus (GPa) = 31.06675 36.52159 33.79417
# Shear Modulus (GPa) = 25.30758 29.23283 27.27020
#
# Velocity S-wave (km/s) = 3.38183 3.63464 3.51051
# Velocity P-wave (km/s) = 5.41188 5.84112 5.63059
#
# Compressibility (1/GPa) = 0.03218875
#
# Stress axis : x y z
#
# Youngs Moduli (GPa) = 30.90099 50.94291 70.16418
#
# Poissons Ratio (x) = 0.48585 0.12930
# Poissons Ratio (y) = 0.29470 0.39625
# Poissons Ratio (z) = 0.05695 0.28770
#
# Static dielectric constant tensor:
#      x y z
#    x 1.823440 0.000000 0.000000 
#    y 0.000000 1.808220 0.000000 
#    z 0.000000 0.000000 1.856370 
# 
# From -- ./inp_files/3473.got.cif
#   From: 2010.05.17/outbox.cif.g08.bks.cpg/sg29_2_cif.got.tgz:3473.got - 2010.06.04 01:19:37.
