data_PCOD9340485
_publ_section_title
;
Structure prediction by ZEFSAII (Michael W. Deem and Ramdas Pophale) SiO2 
 PCOD9340485
Probable space group: P C A 21
;
_chemical_formula_sum "Si O2"
_cell_formula_units_Z 32
_cell_length_a 13.754323
_cell_length_b 9.296940
_cell_length_c 12.158204
_cell_angle_alpha 90.000000
_cell_angle_beta 90.000000
_cell_angle_gamma 90.000000
_cell_volume 1554.707426
_symmetry_space_group_name_H-M "P C A 21"
_symmetry_group_IT_number 29
_symmetry_cell_setting 'orthorhombic'
loop_
_space_group_symop_operation_xyz
x,y,z
-x,-y,1/2+z
1/2-x,y,1/2+z
1/2+x,-y,z
loop_
_atom_site_type_symbol
_atom_site_label
_atom_site_fract_x
_atom_site_fract_y
_atom_site_fract_z
Si Si1 0.822444 0.269604 0.066770
Si Si2 0.876217 0.130469 0.618016
Si Si3 0.372393 0.355594 0.804465
Si Si4 0.896811 0.313453 0.831293
Si Si5 0.176278 0.448372 0.721594
Si Si6 0.544359 0.809901 0.118555
Si Si7 0.541430 0.661906 0.534233
Si Si8 0.922120 0.604406 0.440329
O O1 0.732320 0.161346 0.075176
O O2 0.805138 0.405010 0.150760
O O3 0.929432 0.202853 0.089965
O O4 0.829463 0.318057 0.939388
O O5 0.872845 0.196978 0.740858
O O6 0.957896 0.220879 0.551692
O O7 0.911989 0.967864 0.616216
O O8 0.396589 0.524031 0.786005
O O9 0.267536 0.346494 0.748462
O O10 0.446487 0.257741 0.738907
O O11 0.383932 0.317425 0.932777
O O12 0.006082 0.291172 0.872896
O O13 0.099152 0.365141 0.646294
O O14 0.139622 0.474811 0.846769
O O15 0.610248 0.707936 0.038405
O O16 0.486013 0.515408 0.501461
#
# Coordination Sequence:
#
# PCOD9340485 Si02
#       8
#     4   4   4   4   4   4   4   4
#     4  11  24  43  74 102 137 188 246 295 364 428
#     4  12  26  45  70  98 149 193 238 278 371 441
#     4  11  24  40  72 106 140 176 243 296 354 413
#     4  10  20  42  67 102 130 178 241 294 344 424
#     4  12  22  40  75 106 139 179 239 304 350 419
#     4  11  26  47  64 103 151 186 232 301 356 434
#     4  11  24  42  72 103 135 189 236 297 354 417
#     4  10  22  41  70  96 139 177 235 299 343 408
#
# _framework density 20.582652
#
# number of rings (size 3 to 8) (size 9 to 14) (size 15 to 20)
#    0.000    1.000    6.250    2.250    3.500    4.000 
#    2.250    0.000    0.000    0.000    0.000    0.000 
#    0.000    0.000    0.000    0.000    0.000    0.000 
#
# Total GULP energy -178460.975048 kJ/mol
# GULP energy per Si atom -5576.905470 kJ/mol
# Density = 2.053580 g / cm^3
# Si number density = 20.582652 Si / 1000 Ang^3
#
#
#
# Elastic Constant Matrix: (Units=GPa)
#
#
# Indices 1 2 3 4 5 6 
#
# 1 96.7871 38.3033 45.5078 0.0000 0.0000 0.0000
# 2 38.3033 100.9936 49.8039 0.0000 0.0000 0.0000
# 3 45.5078 49.8039 121.0592 0.0000 0.0000 0.0000
# 4 0.0000 0.0000 0.0000 -3.4601 0.0000 0.0000
# 5 0.0000 0.0000 0.0000 0.0000 32.6789 0.0000
# 6 0.0000 0.0000 0.0000 0.0000 0.0000 24.6903
#
#
#
# Elastic Compliance Matrix: (Units=1/GPa)
#
#
# Indices 1 2 3 4 5 6 
#
# 1 0.013348 -0.003247 -0.003682 0.000000 0.000000 0.000000
# 2 -0.003247 0.013211 -0.004215 0.000000 0.000000 0.000000
# 3 -0.003682 -0.004215 0.011378 0.000000 0.000000 0.000000
# 4 0.000000 0.000000 0.000000 -0.289007 0.000000 0.000000
# 5 0.000000 0.000000 0.000000 0.000000 0.030601 0.000000
# 6 0.000000 0.000000 0.000000 0.000000 0.000000 0.040502
#
#
# Mechanical properties :
#
#
# Convention : Reuss Voigt Hill
#
# Bulk Modulus (GPa) = 63.89331 65.11886 64.50609
# Shear Modulus (GPa) = -32.79496 23.13014 -4.83241
#
# Velocity S-wave (km/s) = -3.99598 3.35590 -1.53392
# Velocity P-wave (km/s) = 3.13356 6.83539 5.31703
#
# Compressibility (1/GPa) = 0.01565109
#
# Stress axis : x y z
#
# Youngs Moduli (GPa) = 74.91727 75.69216 87.88523
#
# Poissons Ratio (x) = 0.24575 0.32359
# Poissons Ratio (y) = 0.24323 0.37041
# Poissons Ratio (z) = 0.27585 0.31902
#
# Static dielectric constant tensor:
#      x y z
#    x 1.830030 0.000000 0.000000 
#    y 0.000000 1.699370 0.000000 
#    z 0.000000 0.000000 1.792340 
# 
# From -- ./inp_files/3491.got.cif
#   From: 2010.05.17/outbox.cif.g08.bks.cpg/sg29_2_cif.got.tgz:3491.got - 2010.06.04 01:19:37.
