data_PCOD9340130
_publ_section_title
;
Structure prediction by ZEFSAII (Michael W. Deem and Ramdas Pophale) SiO2 
 PCOD9340130
Probable space group: P C A 21
;
_chemical_formula_sum "Si O2"
_cell_formula_units_Z 24
_cell_length_a 10.919524
_cell_length_b 10.043622
_cell_length_c 9.393533
_cell_angle_alpha 90.000000
_cell_angle_beta 90.000000
_cell_angle_gamma 90.000000
_cell_volume 1030.203526
_symmetry_space_group_name_H-M "P C A 21"
_symmetry_group_IT_number 29
_symmetry_cell_setting 'orthorhombic'
loop_
_space_group_symop_operation_xyz
x,y,z
-x,-y,1/2+z
1/2-x,y,1/2+z
1/2+x,-y,z
loop_
_atom_site_type_symbol
_atom_site_label
_atom_site_fract_x
_atom_site_fract_y
_atom_site_fract_z
Si Si1 0.960241 0.177051 0.109570
Si Si2 0.114656 0.523449 0.580712
Si Si3 0.394346 0.122805 0.092575
Si Si4 0.641843 0.468551 0.912882
Si Si5 0.183637 0.128283 0.902433
Si Si6 0.607007 0.169618 0.913727
O O1 0.891242 0.314661 0.083252
O O2 0.985236 0.167944 0.278216
O O3 0.891251 0.038001 0.082791
O O4 0.077341 0.173268 0.009137
O O5 0.237814 0.478671 0.496556
O O6 0.121991 0.483512 0.749044
O O7 0.986265 0.483295 0.501919
O O8 0.346551 0.169203 0.243567
O O9 0.307987 0.176426 0.970052
O O10 0.532776 0.162472 0.060377
O O11 0.669979 0.310552 0.901140
O O12 0.180924 0.966541 0.899561
#
# Coordination Sequence:
#
# PCOD9340130 Si02
#       6
#     4   4   4   4   4   4
#     4   9  20  37  56  81 113 150 192 238 290 350
#     4  11  24  43  66  91 121 159 205 255 307 362
#     4  10  19  32  54  83 115 150 188 234 289 349
#     4  11  24  43  66  91 121 159 205 255 307 362
#     4  10  19  32  54  83 115 150 188 234 289 349
#     4   9  20  37  56  81 113 150 192 238 290 350
#
# _framework density 23.296367
#
# number of rings (size 3 to 8) (size 9 to 14) (size 15 to 20)
#    0.000    2.000    0.000    3.000    0.000    5.333 
#    0.000    0.000    0.000    0.000    0.000    0.000 
#    0.000    0.000    0.000    0.000    0.000    0.000 
#
# Total GULP energy -133925.398539 kJ/mol
# GULP energy per Si atom -5580.224939 kJ/mol
# Density = 2.324334 g / cm^3
# Si number density = 23.296367 Si / 1000 Ang^3
#
#
#
# Elastic Constant Matrix: (Units=GPa)
#
#
# Indices 1 2 3 4 5 6 
#
# 1 102.9527 0.5302 73.4231 0.0000 0.0000 0.0000
# 2 0.5302 112.5826 -0.0656 0.0000 0.0000 0.0000
# 3 73.4231 -0.0656 115.5944 0.0000 0.0000 0.0000
# 4 0.0000 0.0000 0.0000 8.0745 0.0000 0.0000
# 5 0.0000 0.0000 0.0000 0.0000 43.3522 0.0000
# 6 0.0000 0.0000 0.0000 0.0000 0.0000 -15.5137
#
#
#
# Elastic Compliance Matrix: (Units=1/GPa)
#
#
# Indices 1 2 3 4 5 6 
#
# 1 0.017758 -0.000090 -0.011279 0.000000 0.000000 0.000000
# 2 -0.000090 0.008883 0.000062 0.000000 0.000000 0.000000
# 3 -0.011279 0.000062 0.015815 0.000000 0.000000 0.000000
# 4 0.000000 0.000000 0.000000 0.123847 0.000000 0.000000
# 5 0.000000 0.000000 0.000000 0.000000 0.023067 0.000000
# 6 0.000000 0.000000 0.000000 0.000000 0.000000 -0.064459
#
#
# Mechanical properties :
#
#
# Convention : Reuss Voigt Hill
#
# Bulk Modulus (GPa) = 50.39947 53.21167 51.80557
# Shear Modulus (GPa) = 32.43808 24.33205 28.38507
#
# Velocity S-wave (km/s) = 3.73555 3.23531 3.49439
# Velocity P-wave (km/s) = 6.34719 6.07018 6.21023
#
# Compressibility (1/GPa) = 0.01984148
#
# Stress axis : x y z
#
# Youngs Moduli (GPa) = 56.31297 112.57677 63.22923
#
# Poissons Ratio (x) = 0.01015 0.71319
# Poissons Ratio (y) = 0.00508 -0.00394
# Poissons Ratio (z) = 0.63518 -0.00702
#
# Static dielectric constant tensor:
#      x y z
#    x 1.892860 0.000000 0.000000 
#    y 0.000000 1.912870 0.000000 
#    z 0.000000 0.000000 1.858620 
# 
# From -- ./inp_files/1430.got.cif
#   From: 2010.05.17/outbox.cif.g08.bks.cpg/sg29_1_cif.got.tgz:1430.got - 2010.06.04 01:19:37.
