data_PCOD9340839
_publ_section_title
;
Structure prediction by ZEFSAII (Michael W. Deem and Ramdas Pophale) SiO2 
 PCOD9340839
Probable space group: P C A 21
;
_chemical_formula_sum "Si O2"
_cell_formula_units_Z 24
_cell_length_a 15.934701
_cell_length_b 11.948139
_cell_length_c 5.549471
_cell_angle_alpha 90.000000
_cell_angle_beta 90.000000
_cell_angle_gamma 90.000000
_cell_volume 1056.563908
_symmetry_space_group_name_H-M "P C A 21"
_symmetry_group_IT_number 29
_symmetry_cell_setting 'orthorhombic'
loop_
_space_group_symop_operation_xyz
x,y,z
-x,-y,1/2+z
1/2-x,y,1/2+z
1/2+x,-y,z
loop_
_atom_site_type_symbol
_atom_site_label
_atom_site_fract_x
_atom_site_fract_y
_atom_site_fract_z
Si Si1 0.899825 0.742422 0.144360
Si Si2 0.442949 0.669805 0.379252
Si Si3 0.561388 0.575597 0.029683
Si Si4 0.449698 0.026064 0.365186
Si Si5 0.301502 0.849095 0.380891
Si Si6 0.764306 0.613793 0.666851
O O1 0.920154 0.624487 0.270088
O O2 0.918362 0.846751 0.319268
O O3 0.798032 0.720929 0.119270
O O4 0.978969 0.748601 0.961630
O O5 0.433200 0.557086 0.535838
O O6 0.358717 0.738557 0.376624
O O7 0.473545 0.621393 0.123656
O O8 0.636131 0.631712 0.186128
O O9 0.367082 0.950819 0.380880
O O10 0.500201 0.010792 0.618611
O O11 0.250747 0.853137 0.632125
O O12 0.742270 0.551535 0.911818
#
# Coordination Sequence:
#
# PCOD9340839 Si02
#       6
#     4   4   4   4   4   4
#     4  11  24  43  75 106 143 190 247 312 376 448
#     4  12  24  46  74 104 151 204 248 307 381 468
#     4  11  24  42  73 107 148 190 254 300 382 451
#     4  12  26  49  82 107 147 198 260 322 384 457
#     4  12  30  51  75 113 159 205 263 314 393 467
#     4  10  22  39  63 103 140 171 228 299 352 423
#
# _framework density 22.715143000000001
#
# number of rings (size 3 to 8) (size 9 to 14) (size 15 to 20)
#    0.000    0.667    5.000    2.000    2.333    5.333 
#    0.000    0.000    0.000    0.000    0.000    0.000 
#    0.000    0.000    0.000    0.000    0.000    0.000 
#
# Total GULP energy -133625.438210 kJ/mol
# GULP energy per Si atom -5567.726592 kJ/mol
# Density = 2.266344 g / cm^3
# Si number density = 22.715143 Si / 1000 Ang^3
#
#
#
# Elastic Constant Matrix: (Units=GPa)
#
#
# Indices 1 2 3 4 5 6 
#
# 1 125.2989 48.2080 54.8772 0.0000 0.0000 0.0000
# 2 48.2080 104.9426 19.9078 0.0000 0.0000 0.0000
# 3 54.8772 19.9078 133.9976 0.0000 0.0000 0.0000
# 4 0.0000 0.0000 0.0000 28.8816 0.0000 0.0000
# 5 0.0000 0.0000 0.0000 0.0000 56.1837 0.0000
# 6 0.0000 0.0000 0.0000 0.0000 0.0000 45.3134
#
#
#
# Elastic Compliance Matrix: (Units=1/GPa)
#
#
# Indices 1 2 3 4 5 6 
#
# 1 0.011482 -0.004510 -0.004032 0.000000 0.000000 0.000000
# 2 -0.004510 0.011577 0.000127 0.000000 0.000000 0.000000
# 3 -0.004032 0.000127 0.009095 0.000000 0.000000 0.000000
# 4 0.000000 0.000000 0.000000 0.034624 0.000000 0.000000
# 5 0.000000 0.000000 0.000000 0.000000 0.017799 0.000000
# 6 0.000000 0.000000 0.000000 0.000000 0.000000 0.022069
#
#
# Mechanical properties :
#
#
# Convention : Reuss Voigt Hill
#
# Bulk Modulus (GPa) = 65.25750 67.80279 66.53015
# Shear Modulus (GPa) = 38.88531 42.15882 40.52207
#
# Velocity S-wave (km/s) = 4.14196 4.31278 4.22823
# Velocity P-wave (km/s) = 7.18787 7.39690 7.29313
#
# Compressibility (1/GPa) = 0.01532391
#
# Stress axis : x y z
#
# Youngs Moduli (GPa) = 87.09284 86.38169 109.94620
#
# Poissons Ratio (x) = 0.38955 0.44334
# Poissons Ratio (y) = 0.39275 -0.01396
# Poissons Ratio (z) = 0.35119 -0.01097
#
# Static dielectric constant tensor:
#      x y z
#    x 1.979480 0.000000 0.000000 
#    y 0.000000 1.816050 0.000000 
#    z 0.000000 0.000000 1.991280 
# 
# From -- ./inp_files/173.got.cif
#   From: 2010.05.17/outbox.cif.g08.bks.cpg/sg29_1_cif.got.tgz:173.got - 2010.06.04 01:19:37.
