data_PCOD9340378
_publ_section_title
;
Structure prediction by ZEFSAII (Michael W. Deem and Ramdas Pophale) SiO2 
 PCOD9340378
Probable space group: P C A 21
;
_chemical_formula_sum "Si O2"
_cell_formula_units_Z 12
_cell_length_a 14.499192
_cell_length_b 8.189450
_cell_length_c 4.909204
_cell_angle_alpha 90.000000
_cell_angle_beta 90.000000
_cell_angle_gamma 90.000000
_cell_volume 582.920886
_symmetry_space_group_name_H-M "P C A 21"
_symmetry_group_IT_number 29
_symmetry_cell_setting 'orthorhombic'
loop_
_space_group_symop_operation_xyz
x,y,z
-x,-y,1/2+z
1/2-x,y,1/2+z
1/2+x,-y,z
loop_
_atom_site_type_symbol
_atom_site_label
_atom_site_fract_x
_atom_site_fract_y
_atom_site_fract_z
Si Si1 0.446282 0.433347 0.184820
Si Si2 0.809340 0.301544 0.214359
Si Si3 0.514353 0.108152 0.933367
O O1 0.506230 0.449262 0.458316
O O2 0.347831 0.513775 0.243529
O O3 0.453026 0.253980 0.060308
O O4 0.721150 0.275403 0.405659
O O5 0.891680 0.187598 0.319704
O O6 0.531860 0.983188 0.179597
#
# Coordination Sequence:
#
# PCOD9340378 Si02
#       3
#     4   4   4
#     4  10  20  38  61  84 113 158 203 234 284 366
#     4  11  22  39  61  88 118 156 202 253 294 340
#     4  11  22  39  62  88 121 160 197 241 302 368
#
# _framework density 20.585985999999998
#
# number of rings (size 3 to 8) (size 9 to 14) (size 15 to 20)
#    0.000    1.333    0.000   10.000    0.000    0.000 
#    0.000   10.000    0.000    0.000    0.000    0.000 
#    0.000    0.000    0.000    0.000    0.000    0.000 
#
# Total GULP energy -67052.930253 kJ/mol
# GULP energy per Si atom -5587.744188 kJ/mol
# Density = 2.053913 g / cm^3
# Si number density = 20.585986 Si / 1000 Ang^3
#
#
#
# Elastic Constant Matrix: (Units=GPa)
#
#
# Indices 1 2 3 4 5 6 
#
# 1 44.9279 23.4004 7.2100 0.0000 0.0000 0.0000
# 2 23.4004 83.2387 8.7284 0.0000 0.0000 0.0000
# 3 7.2100 8.7284 99.1124 0.0000 0.0000 0.0000
# 4 0.0000 0.0000 0.0000 52.4386 0.0000 0.0000
# 5 0.0000 0.0000 0.0000 0.0000 38.1466 0.0000
# 6 0.0000 0.0000 0.0000 0.0000 0.0000 15.7080
#
#
#
# Elastic Compliance Matrix: (Units=1/GPa)
#
#
# Indices 1 2 3 4 5 6 
#
# 1 0.026234 -0.007242 -0.001271 0.000000 0.000000 0.000000
# 2 -0.007242 0.014125 -0.000717 0.000000 0.000000 0.000000
# 3 -0.001271 -0.000717 0.010245 0.000000 0.000000 0.000000
# 4 0.000000 0.000000 0.000000 0.019070 0.000000 0.000000
# 5 0.000000 0.000000 0.000000 0.000000 0.026215 0.000000
# 6 0.000000 0.000000 0.000000 0.000000 0.000000 0.063662
#
#
# Mechanical properties :
#
#
# Convention : Reuss Voigt Hill
#
# Bulk Modulus (GPa) = 31.10944 33.99517 32.55231
# Shear Modulus (GPa) = 26.49378 33.78799 30.14088
#
# Velocity S-wave (km/s) = 3.59134 4.05570 3.83057
# Velocity P-wave (km/s) = 5.68698 6.20332 5.95076
#
# Compressibility (1/GPa) = 0.03214459
#
# Stress axis : x y z
#
# Youngs Moduli (GPa) = 38.11904 70.79819 97.60729
#
# Poissons Ratio (x) = 0.51270 0.12402
# Poissons Ratio (y) = 0.27605 0.06999
# Poissons Ratio (z) = 0.04844 0.05077
#
# Static dielectric constant tensor:
#      x y z
#    x 1.716770 0.000000 0.000000 
#    y 0.000000 1.771770 0.000000 
#    z 0.000000 0.000000 1.723250 
# 
# From -- ./inp_files/38.got.cif
#   From: 2010.05.17/outbox.cif.g08.bks.cpg/sg29_1_cif.got.tgz:38.got - 2010.06.04 01:19:37.
