data_PCOD9340396
_publ_section_title
;
Structure prediction by ZEFSAII (Michael W. Deem and Ramdas Pophale) SiO2 
 PCOD9340396
Probable space group: P C A 21
;
_chemical_formula_sum "Si O2"
_cell_formula_units_Z 32
_cell_length_a 10.215551
_cell_length_b 11.369884
_cell_length_c 12.745892
_cell_angle_alpha 90.000000
_cell_angle_beta 90.000000
_cell_angle_gamma 90.000000
_cell_volume 1480.430638
_symmetry_space_group_name_H-M "P C A 21"
_symmetry_group_IT_number 29
_symmetry_cell_setting 'orthorhombic'
loop_
_space_group_symop_operation_xyz
x,y,z
-x,-y,1/2+z
1/2-x,y,1/2+z
1/2+x,-y,z
loop_
_atom_site_type_symbol
_atom_site_label
_atom_site_fract_x
_atom_site_fract_y
_atom_site_fract_z
Si Si1 0.769032 0.322104 0.507600
Si Si2 0.380768 0.872720 0.102935
Si Si3 0.245076 0.516172 0.179364
Si Si4 0.545312 0.438348 0.866025
Si Si5 0.247169 0.041996 0.771644
Si Si6 0.006114 0.916661 0.374497
Si Si7 0.112601 0.277479 0.212754
Si Si8 0.582348 0.330885 0.323490
O O1 0.746057 0.206009 0.574209
O O2 0.699792 0.424474 0.575178
O O3 0.903596 0.378392 0.471223
O O4 0.705646 0.293810 0.394489
O O5 0.327139 0.974524 0.177564
O O6 0.489920 0.786726 0.155606
O O7 0.446380 0.914043 0.994459
O O8 0.345580 0.526785 0.276827
O O9 0.189288 0.386410 0.158670
O O10 0.128970 0.605744 0.217444
O O11 0.447632 0.346093 0.812431
O O12 0.483137 0.564061 0.887606
O O13 0.382957 0.982975 0.807597
O O14 0.360370 0.033580 0.363861
O O15 0.287591 0.173892 0.740964
O O16 0.998486 0.786070 0.323456
#
# Coordination Sequence:
#
# PCOD9340396 Si02
#       8
#     4   4   4   4   4   4   4   4
#     4  10  21  36  67  93 129 175 214 275 344 408
#     4  11  25  45  68  98 135 179 235 283 343 411
#     4  10  20  38  65  93 133 169 211 274 344 406
#     4  10  21  40  63  97 134 168 223 274 346 409
#     4  12  26  48  69  98 138 187 234 291 337 400
#     4  11  26  43  73  96 138 183 234 286 345 403
#     4  11  24  44  67  96 138 178 227 285 340 408
#     4   9  21  38  60  95 125 171 214 274 337 407
#
# _framework density 21.615333
#
# number of rings (size 3 to 8) (size 9 to 14) (size 15 to 20)
#    0.000    1.500    2.500    1.500    8.750    0.000 
#    0.000    1.250    0.000    0.000    0.000    0.000 
#    0.000    0.000    0.000    0.000    0.000    0.000 
#
# Total GULP energy -178404.317588 kJ/mol
# GULP energy per Si atom -5575.134925 kJ/mol
# Density = 2.156614 g / cm^3
# Si number density = 21.615333 Si / 1000 Ang^3
#
#
#
# Elastic Constant Matrix: (Units=GPa)
#
#
# Indices 1 2 3 4 5 6 
#
# 1 63.0201 25.4756 4.8446 0.0000 0.0000 0.0000
# 2 25.4756 103.5300 23.4873 0.0000 0.0000 0.0000
# 3 4.8446 23.4873 35.1145 0.0000 0.0000 0.0000
# 4 0.0000 0.0000 0.0000 17.3127 0.0000 0.0000
# 5 0.0000 0.0000 0.0000 0.0000 25.9840 0.0000
# 6 0.0000 0.0000 0.0000 0.0000 0.0000 31.2836
#
#
#
# Elastic Compliance Matrix: (Units=1/GPa)
#
#
# Indices 1 2 3 4 5 6 
#
# 1 0.017630 -0.004464 0.000553 0.000000 0.000000 0.000000
# 2 -0.004464 0.012517 -0.007757 0.000000 0.000000 0.000000
# 3 0.000553 -0.007757 0.033590 0.000000 0.000000 0.000000
# 4 0.000000 0.000000 0.000000 0.057761 0.000000 0.000000
# 5 0.000000 0.000000 0.000000 0.000000 0.038485 0.000000
# 6 0.000000 0.000000 0.000000 0.000000 0.000000 0.031966
#
#
# Mechanical properties :
#
#
# Convention : Reuss Voigt Hill
#
# Bulk Modulus (GPa) = 24.75047 34.36439 29.55743
# Shear Modulus (GPa) = 21.85786 24.77320 23.31553
#
# Velocity S-wave (km/s) = 3.18342 3.38907 3.28785
# Velocity P-wave (km/s) = 4.99875 5.58991 5.30257
#
# Compressibility (1/GPa) = 0.04040328
#
# Stress axis : x y z
#
# Youngs Moduli (GPa) = 56.72197 79.89055 29.77063
#
# Poissons Ratio (x) = 0.35661 -0.01647
# Poissons Ratio (y) = 0.25319 0.23092
# Poissons Ratio (z) = -0.03139 0.61968
#
# Static dielectric constant tensor:
#      x y z
#    x 1.871120 0.000000 0.000000 
#    y 0.000000 1.796380 0.000000 
#    z 0.000000 0.000000 1.800880 
# 
# From -- ./inp_files/3253.got.cif
#   From: 2010.05.17/outbox.cif.g08.bks.cpg/sg29_2_cif.got.tgz:3253.got - 2010.06.04 01:19:37.
