data_PCOD9340770
_publ_section_title
;
Structure prediction by ZEFSAII (Michael W. Deem and Ramdas Pophale) SiO2 
 PCOD9340770
Probable space group: P C A 21
;
_chemical_formula_sum "Si O2"
_cell_formula_units_Z 28
_cell_length_a 11.734008
_cell_length_b 9.033742
_cell_length_c 10.643024
_cell_angle_alpha 90.000000
_cell_angle_beta 90.000000
_cell_angle_gamma 90.000000
_cell_volume 1128.181840
_symmetry_space_group_name_H-M "P C A 21"
_symmetry_group_IT_number 29
_symmetry_cell_setting 'orthorhombic'
loop_
_space_group_symop_operation_xyz
x,y,z
-x,-y,1/2+z
1/2-x,y,1/2+z
1/2+x,-y,z
loop_
_atom_site_type_symbol
_atom_site_label
_atom_site_fract_x
_atom_site_fract_y
_atom_site_fract_z
Si Si1 0.089881 0.452043 0.241050
Si Si2 0.908655 0.060285 0.676862
Si Si3 0.040118 0.612059 0.500872
Si Si4 0.746511 0.312602 0.148890
Si Si5 0.325787 0.166075 0.482541
Si Si6 0.386522 0.931865 0.291089
Si Si7 0.895495 0.843815 0.877746
O O1 0.048827 0.519792 0.373126
O O2 0.207778 0.528342 0.198879
O O3 0.108668 0.278126 0.266810
O O4 0.997798 0.469147 0.129813
O O5 0.833716 0.957884 0.588121
O O6 0.877951 0.009831 0.820397
O O7 0.036579 0.995793 0.675690
O O8 0.874471 0.225779 0.645789
O O9 0.166916 0.674982 0.531735
O O10 0.933054 0.724789 0.486322
O O11 0.813952 0.204250 0.242837
O O12 0.194303 0.216345 0.477504
O O13 0.336405 0.078312 0.351503
O O14 0.469805 0.861955 0.398858
#
# Coordination Sequence:
#
# PCOD9340770 Si02
#       7
#     4   4   4   4   4   4   4
#     4  12  29  51  76 114 154 213 252 319 389 470
#     4  10  23  44  68 108 141 190 250 323 377 449
#     4  12  29  51  78 112 162 203 266 317 391 474
#     4  12  25  47  74 111 156 199 260 317 394 467
#     4  12  23  42  78 101 147 195 252 313 398 449
#     4  10  21  45  68 107 146 188 248 329 374 464
#     4  10  24  44  68 103 148 186 256 308 385 449
#
# _framework density 24.818695999999999
#
# number of rings (size 3 to 8) (size 9 to 14) (size 15 to 20)
#    0.857    0.000    5.714    0.857    8.000    1.143 
#    0.000    0.000    0.000    0.000    0.000    0.000 
#    0.000    0.000    0.000    0.000    0.000    0.000 
#
# Total GULP energy -156016.700668 kJ/mol
# GULP energy per Si atom -5572.025024 kJ/mol
# Density = 2.476221 g / cm^3
# Si number density = 24.818696 Si / 1000 Ang^3
#
#
#
# Elastic Constant Matrix: (Units=GPa)
#
#
# Indices 1 2 3 4 5 6 
#
# 1 58.5975 15.7103 1.5351 0.0000 0.0000 0.0000
# 2 15.7103 68.1866 5.0271 0.0000 0.0000 0.0000
# 3 1.5351 5.0271 78.3433 0.0000 0.0000 0.0000
# 4 0.0000 0.0000 0.0000 37.6788 0.0000 0.0000
# 5 0.0000 0.0000 0.0000 0.0000 51.8849 0.0000
# 6 0.0000 0.0000 0.0000 0.0000 0.0000 15.4646
#
#
#
# Elastic Compliance Matrix: (Units=1/GPa)
#
#
# Indices 1 2 3 4 5 6 
#
# 1 0.018190 -0.004184 -0.000088 0.000000 0.000000 0.000000
# 2 -0.004184 0.015698 -0.000925 0.000000 0.000000 0.000000
# 3 -0.000088 -0.000925 0.012825 0.000000 0.000000 0.000000
# 4 0.000000 0.000000 0.000000 0.026540 0.000000 0.000000
# 5 0.000000 0.000000 0.000000 0.000000 0.019273 0.000000
# 6 0.000000 0.000000 0.000000 0.000000 0.000000 0.064664
#
#
# Mechanical properties :
#
#
# Convention : Reuss Voigt Hill
#
# Bulk Modulus (GPa) = 27.53470 27.74136 27.63803
# Shear Modulus (GPa) = 27.82542 33.19599 30.51070
#
# Velocity S-wave (km/s) = 3.35199 3.66121 3.51000
# Velocity P-wave (km/s) = 5.10877 5.39207 5.25233
#
# Compressibility (1/GPa) = 0.03631780
#
# Stress axis : x y z
#
# Youngs Moduli (GPa) = 54.97602 63.70256 77.97008
#
# Poissons Ratio (x) = 0.26656 0.00685
# Poissons Ratio (y) = 0.23004 0.07215
# Poissons Ratio (z) = 0.00483 0.05894
#
# Static dielectric constant tensor:
#      x y z
#    x 2.185380 0.000000 0.000000 
#    y 0.000000 1.941480 0.000000 
#    z 0.000000 0.000000 2.057250 
# 
# From -- ./inp_files/3151.got.cif
#   From: 2010.05.17/outbox.cif.g08.bks.cpg/sg29_2_cif.got.tgz:3151.got - 2010.06.04 01:19:37.
