data_PCOD9340077
_publ_section_title
;
Structure prediction by ZEFSAII (Michael W. Deem and Ramdas Pophale) SiO2 
 PCOD9340077
Probable space group: P C A 21
;
_chemical_formula_sum "Si O2"
_cell_formula_units_Z 28
_cell_length_a 10.092151
_cell_length_b 8.450134
_cell_length_c 16.338789
_cell_angle_alpha 90.000000
_cell_angle_beta 90.000000
_cell_angle_gamma 90.000000
_cell_volume 1393.372388
_symmetry_space_group_name_H-M "P C A 21"
_symmetry_group_IT_number 29
_symmetry_cell_setting 'orthorhombic'
loop_
_space_group_symop_operation_xyz
x,y,z
-x,-y,1/2+z
1/2-x,y,1/2+z
1/2+x,-y,z
loop_
_atom_site_type_symbol
_atom_site_label
_atom_site_fract_x
_atom_site_fract_y
_atom_site_fract_z
Si Si1 0.379801 0.343984 0.548450
Si Si2 0.278622 0.652732 0.197365
Si Si3 0.957029 0.804286 0.723010
Si Si4 0.022232 0.343690 0.884535
Si Si5 0.094018 0.408876 0.582445
Si Si6 0.472667 0.827454 0.714398
Si Si7 0.687174 0.584483 0.329865
O O1 0.403510 0.260005 0.635742
O O2 0.460105 0.265150 0.473322
O O3 0.220597 0.341372 0.532652
O O4 0.452877 0.518445 0.552313
O O5 0.408654 0.709979 0.244098
O O6 0.335883 0.565203 0.119226
O O7 0.198427 0.521705 0.247742
O O8 0.177691 0.794430 0.185300
O O9 0.858250 0.755259 0.796196
O O10 0.993856 0.986430 0.712947
O O11 0.988465 0.231897 0.807914
O O12 0.167749 0.411404 0.866631
O O13 0.916720 0.486775 0.884047
O O14 0.060927 0.282716 0.654577
#
# Coordination Sequence:
#
# PCOD9340077 Si02
#       7
#     4   4   4   4   4   4   4
#     4  11  22  38  62  92 122 155 204 256 300 354
#     4  10  18  36  64  88 108 156 212 246 276 354
#     4  11  23  37  65  89 122 160 204 248 305 365
#     4  11  22  38  62  92 122 155 204 256 300 354
#     4  11  19  41  63  87 117 159 210 241 291 368
#     4  11  23  37  65  89 122 160 204 248 305 365
#     4  11  19  41  63  87 117 159 210 241 291 368
#
# _framework density 20.095130000000001
#
# number of rings (size 3 to 8) (size 9 to 14) (size 15 to 20)
#    0.000    1.143    5.714    2.571    4.000    0.000 
#    0.000    2.857    0.000    0.000    0.000    0.000 
#    0.000    0.000    0.000    0.000    0.000    0.000 
#
# Total GULP energy -155954.919983 kJ/mol
# GULP energy per Si atom -5569.818571 kJ/mol
# Density = 2.004939 g / cm^3
# Si number density = 20.095130 Si / 1000 Ang^3
#
#
#
# Elastic Constant Matrix: (Units=GPa)
#
#
# Indices 1 2 3 4 5 6 
#
# 1 106.4903 10.0370 9.7334 0.0000 0.0000 0.0000
# 2 10.0370 63.2284 11.5128 0.0000 0.0000 0.0000
# 3 9.7334 11.5128 32.5840 0.0000 0.0000 0.0000
# 4 0.0000 0.0000 0.0000 12.8033 0.0000 0.0000
# 5 0.0000 0.0000 0.0000 0.0000 23.5720 0.0000
# 6 0.0000 0.0000 0.0000 0.0000 0.0000 17.2541
#
#
#
# Elastic Compliance Matrix: (Units=1/GPa)
#
#
# Indices 1 2 3 4 5 6 
#
# 1 0.009723 -0.001084 -0.002521 0.000000 0.000000 0.000000
# 2 -0.001084 0.017024 -0.005691 0.000000 0.000000 0.000000
# 3 -0.002521 -0.005691 0.033454 0.000000 0.000000 0.000000
# 4 0.000000 0.000000 0.000000 0.078105 0.000000 0.000000
# 5 0.000000 0.000000 0.000000 0.000000 0.042423 0.000000
# 6 0.000000 0.000000 0.000000 0.000000 0.000000 0.057957
#
#
# Mechanical properties :
#
#
# Convention : Reuss Voigt Hill
#
# Bulk Modulus (GPa) = 24.03416 29.42991 26.73204
# Shear Modulus (GPa) = 18.44001 22.12717 20.28359
#
# Velocity S-wave (km/s) = 3.03254 3.32191 3.18052
# Velocity P-wave (km/s) = 4.92421 5.42131 5.17873
#
# Compressibility (1/GPa) = 0.04160744
#
# Stress axis : x y z
#
# Youngs Moduli (GPa) = 102.84698 58.74035 29.89187
#
# Poissons Ratio (x) = 0.06370 0.07537
# Poissons Ratio (y) = 0.11153 0.17012
# Poissons Ratio (z) = 0.25931 0.33430
#
# Static dielectric constant tensor:
#      x y z
#    x 1.787350 0.000000 0.000000 
#    y 0.000000 1.674440 0.000000 
#    z 0.000000 0.000000 1.788850 
# 
# From -- ./inp_files/4518.got.cif
#   From: 2010.05.17/outbox.cif.g08.bks.cpg/sg29_3_cif.got.tgz:4518.got - 2010.06.04 01:19:37.
