data_PCOD9340233
_publ_section_title
;
Structure prediction by ZEFSAII (Michael W. Deem and Ramdas Pophale) SiO2 
 PCOD9340233
Probable space group: P C A 21
;
_chemical_formula_sum "Si O2"
_cell_formula_units_Z 32
_cell_length_a 19.860235
_cell_length_b 7.936850
_cell_length_c 8.171214
_cell_angle_alpha 90.000000
_cell_angle_beta 90.000000
_cell_angle_gamma 90.000000
_cell_volume 1288.009719
_symmetry_space_group_name_H-M "P C A 21"
_symmetry_group_IT_number 29
_symmetry_cell_setting 'orthorhombic'
loop_
_space_group_symop_operation_xyz
x,y,z
-x,-y,1/2+z
1/2-x,y,1/2+z
1/2+x,-y,z
loop_
_atom_site_type_symbol
_atom_site_label
_atom_site_fract_x
_atom_site_fract_y
_atom_site_fract_z
Si Si1 0.951955 0.947430 0.763020
Si Si2 0.470711 0.273583 0.240877
Si Si3 0.333907 0.516071 0.746047
Si Si4 0.261267 0.348513 0.487801
Si Si5 0.482824 0.390445 0.863258
Si Si6 0.280474 0.865257 0.878938
Si Si7 0.166449 0.011326 0.046249
Si Si8 0.356494 0.115521 0.072309
O O1 0.999572 0.781478 0.761087
O O2 0.911509 0.975918 0.594051
O O3 0.903146 0.886662 0.909313
O O4 0.976083 0.135653 0.803055
O O5 0.469644 0.446006 0.341311
O O6 0.406638 0.151397 0.218791
O O7 0.484699 0.341683 0.055369
O O8 0.308453 0.496803 0.559674
O O9 0.409108 0.457240 0.794594
O O10 0.315392 0.693381 0.826261
O O11 0.276666 0.397784 0.823770
O O12 0.195041 0.270320 0.576892
O O13 0.309108 0.188861 0.480132
O O14 0.298920 0.983529 0.725227
O O15 0.201687 0.875761 0.926946
O O16 0.316641 0.943600 0.039285
#
# Coordination Sequence:
#
# PCOD9340233 Si02
#       8
#     4   4   4   4   4   4   4   4
#     4  10  20  42  68  91 133 187 226 282 348 407
#     4  11  24  44  72  98 140 190 239 293 352 415
#     4  12  22  40  66 103 136 180 223 293 352 418
#     4  11  20  40  69  93 141 178 215 282 361 418
#     4  11  24  46  66 101 140 184 239 295 346 418
#     4  10  21  36  64  92 134 170 223 281 339 409
#     4  10  19  39  59  93 126 176 219 270 342 411
#     4   9  20  43  62  91 132 183 222 278 350 410
#
# _framework density 24.844532000000001
#
# number of rings (size 3 to 8) (size 9 to 14) (size 15 to 20)
#    0.000    1.500    3.750    3.750    0.000    3.000 
#    4.500    8.750    0.000    0.000    0.000    0.000 
#    0.000    0.000    0.000    0.000    0.000    0.000 
#
# Total GULP energy -178277.037955 kJ/mol
# GULP energy per Si atom -5571.157436 kJ/mol
# Density = 2.478798 g / cm^3
# Si number density = 24.844532 Si / 1000 Ang^3
#
#
#
# Elastic Constant Matrix: (Units=GPa)
#
#
# Indices 1 2 3 4 5 6 
#
# 1 23.2504 16.8929 18.4844 0.0000 0.0000 0.0000
# 2 16.8929 143.8182 19.8761 0.0000 0.0000 0.0000
# 3 18.4844 19.8761 69.3474 0.0000 0.0000 0.0000
# 4 0.0000 0.0000 0.0000 24.1488 0.0000 0.0000
# 5 0.0000 0.0000 0.0000 0.0000 12.2387 0.0000
# 6 0.0000 0.0000 0.0000 0.0000 0.0000 14.5264
#
#
#
# Elastic Compliance Matrix: (Units=1/GPa)
#
#
# Indices 1 2 3 4 5 6 
#
# 1 0.057637 -0.004838 -0.013976 0.000000 0.000000 0.000000
# 2 -0.004838 0.007646 -0.000902 0.000000 0.000000 0.000000
# 3 -0.013976 -0.000902 0.018404 0.000000 0.000000 0.000000
# 4 0.000000 0.000000 0.000000 0.041410 0.000000 0.000000
# 5 0.000000 0.000000 0.000000 0.000000 0.081708 0.000000
# 6 0.000000 0.000000 0.000000 0.000000 0.000000 0.068840
#
#
# Mechanical properties :
#
#
# Convention : Reuss Voigt Hill
#
# Bulk Modulus (GPa) = 22.59690 38.54699 30.57195
# Shear Modulus (GPa) = 15.15938 22.26029 18.70984
#
# Velocity S-wave (km/s) = 2.47284 2.99655 2.74720
# Velocity P-wave (km/s) = 4.15552 5.24608 4.73232
#
# Compressibility (1/GPa) = 0.04425385
#
# Stress axis : x y z
#
# Youngs Moduli (GPa) = 17.35011 130.78419 54.33622
#
# Poissons Ratio (x) = 0.63279 0.75941
# Poissons Ratio (y) = 0.08395 0.04900
# Poissons Ratio (z) = 0.24249 0.11795
#
# Static dielectric constant tensor:
#      x y z
#    x 2.330060 0.000000 0.000000 
#    y 0.000000 2.018220 0.000000 
#    z 0.000000 0.000000 2.036850 
# 
# From -- ./inp_files/2297.got.cif
#   From: 2010.05.17/outbox.cif.g08.bks.cpg/sg29_2_cif.got.tgz:2297.got - 2010.06.04 01:19:37.
