data_PCOD9340054
_publ_section_title
;
Structure prediction by ZEFSAII (Michael W. Deem and Ramdas Pophale) SiO2 
 PCOD9340054
Probable space group: P C A 21
;
_chemical_formula_sum "Si O2"
_cell_formula_units_Z 32
_cell_length_a 23.461580
_cell_length_b 8.487788
_cell_length_c 8.436053
_cell_angle_alpha 90.000000
_cell_angle_beta 90.000000
_cell_angle_gamma 90.000000
_cell_volume 1679.929588
_symmetry_space_group_name_H-M "P C A 21"
_symmetry_group_IT_number 29
_symmetry_cell_setting 'orthorhombic'
loop_
_space_group_symop_operation_xyz
x,y,z
-x,-y,1/2+z
1/2-x,y,1/2+z
1/2+x,-y,z
loop_
_atom_site_type_symbol
_atom_site_label
_atom_site_fract_x
_atom_site_fract_y
_atom_site_fract_z
Si Si1 0.830036 0.349956 0.268590
Si Si2 0.488514 0.381791 0.881317
Si Si3 0.432479 0.818644 0.159611
Si Si4 0.910134 0.606207 0.428010
Si Si5 0.583413 0.311901 0.306661
Si Si6 0.472178 0.175628 0.175505
Si Si7 0.167122 0.452341 0.192444
Si Si8 0.231407 0.535892 0.474151
O O1 0.876636 0.212025 0.268835
O O2 0.864265 0.506317 0.325213
O O3 0.809728 0.370847 0.089560
O O4 0.772151 0.350043 0.370213
O O5 0.517886 0.291061 0.735006
O O6 0.539877 0.480874 0.961337
O O7 0.444784 0.516275 0.832957
O O8 0.461709 0.265879 0.010338
O O9 0.454369 0.995803 0.163531
O O10 0.416489 0.765588 0.981385
O O11 0.938008 0.740476 0.319628
O O12 0.878680 0.647558 0.592322
O O13 0.539325 0.204176 0.209348
O O14 0.640571 0.368799 0.214554
O O15 0.192325 0.422847 0.366317
O O16 0.223486 0.448331 0.084903
#
# Coordination Sequence:
#
# PCOD9340054 Si02
#       8
#     4   4   4   4   4   4   4   4
#     4   9  17  33  55  82 102 143 188 246 287 339
#     4  10  20  35  53  82 115 156 194 225 277 353
#     4  11  22  35  54  85 123 154 190 234 295 358
#     4   9  19  33  55  80 112 148 188 232 287 348
#     4  11  20  35  58  82 115 157 195 237 285 352
#     4  11  22  35  53  84 124 156 185 232 292 367
#     4  10  18  33  56  87 106 139 196 252 296 335
#     4   9  18  31  56  86 103 131 196 264 287 328
#
# _framework density 19.048418000000002
#
# number of rings (size 3 to 8) (size 9 to 14) (size 15 to 20)
#    0.000    2.000    2.500    3.000    1.750    0.000 
#    0.000    0.000    0.000    6.000    0.000    0.000 
#    0.000    0.000    0.000    0.000    0.000    0.000 
#
# Total GULP energy -178188.894147 kJ/mol
# GULP energy per Si atom -5568.402942 kJ/mol
# Density = 1.900506 g / cm^3
# Si number density = 19.048418 Si / 1000 Ang^3
#
#
#
# Elastic Constant Matrix: (Units=GPa)
#
#
# Indices 1 2 3 4 5 6 
#
# 1 70.4707 14.5939 13.6105 0.0000 0.0000 0.0000
# 2 14.5939 60.9926 11.6684 0.0000 0.0000 0.0000
# 3 13.6105 11.6684 76.0146 0.0000 0.0000 0.0000
# 4 0.0000 0.0000 0.0000 14.0300 0.0000 0.0000
# 5 0.0000 0.0000 0.0000 0.0000 37.5847 0.0000
# 6 0.0000 0.0000 0.0000 0.0000 0.0000 15.0340
#
#
#
# Elastic Compliance Matrix: (Units=1/GPa)
#
#
# Indices 1 2 3 4 5 6 
#
# 1 0.015292 -0.003230 -0.002242 0.000000 0.000000 0.000000
# 2 -0.003230 0.017574 -0.002119 0.000000 0.000000 0.000000
# 3 -0.002242 -0.002119 0.013882 0.000000 0.000000 0.000000
# 4 0.000000 0.000000 0.000000 0.071276 0.000000 0.000000
# 5 0.000000 0.000000 0.000000 0.000000 0.026607 0.000000
# 6 0.000000 0.000000 0.000000 0.000000 0.000000 0.066516
#
#
# Mechanical properties :
#
#
# Convention : Reuss Voigt Hill
#
# Bulk Modulus (GPa) = 31.68069 31.91372 31.79720
# Shear Modulus (GPa) = 21.11031 24.50342 22.80686
#
# Velocity S-wave (km/s) = 3.33264 3.59050 3.46397
# Velocity P-wave (km/s) = 5.61039 5.82917 5.72083
#
# Compressibility (1/GPa) = 0.03156497
#
# Stress axis : x y z
#
# Youngs Moduli (GPa) = 65.39248 56.90311 72.03484
#
# Poissons Ratio (x) = 0.18380 0.16152
# Poissons Ratio (y) = 0.21122 0.15266
# Poissons Ratio (z) = 0.14663 0.12059
#
# Static dielectric constant tensor:
#      x y z
#    x 1.764840 0.000000 0.000000 
#    y 0.000000 1.605610 0.000000 
#    z 0.000000 0.000000 1.758840 
# 
# From -- ./inp_files/2466.got.cif
#   From: 2010.05.17/outbox.cif.g08.bks.cpg/sg29_2_cif.got.tgz:2466.got - 2010.06.04 01:19:37.
