data_PCOD9340750
_publ_section_title
;
Structure prediction by ZEFSAII (Michael W. Deem and Ramdas Pophale) SiO2 
 PCOD9340750
Probable space group: P C A 21
;
_chemical_formula_sum "Si O2"
_cell_formula_units_Z 28
_cell_length_a 8.217619
_cell_length_b 17.897100
_cell_length_c 8.536646
_cell_angle_alpha 90.000000
_cell_angle_beta 90.000000
_cell_angle_gamma 90.000000
_cell_volume 1255.497751
_symmetry_space_group_name_H-M "P C A 21"
_symmetry_group_IT_number 29
_symmetry_cell_setting 'orthorhombic'
loop_
_space_group_symop_operation_xyz
x,y,z
-x,-y,1/2+z
1/2-x,y,1/2+z
1/2+x,-y,z
loop_
_atom_site_type_symbol
_atom_site_label
_atom_site_fract_x
_atom_site_fract_y
_atom_site_fract_z
Si Si1 0.764172 0.750579 0.929140
Si Si2 0.887298 0.067478 0.884340
Si Si3 0.580266 0.843875 0.676436
Si Si4 0.566664 0.665266 0.170078
Si Si5 0.969283 0.475153 0.014579
Si Si6 0.814377 0.975813 0.592441
Si Si7 0.180707 0.572894 0.809701
O O1 0.703056 0.811992 0.807285
O O2 0.825255 0.682500 0.821763
O O3 0.908275 0.784384 0.036395
O O4 0.616531 0.727432 0.043963
O O5 0.915287 0.137930 0.770584
O O6 0.875944 0.998321 0.763385
O O7 0.045943 0.062982 0.992703
O O8 0.738572 0.050938 0.999636
O O9 0.660411 0.920832 0.612947
O O10 0.382951 0.650818 0.235417
O O11 0.593411 0.587768 0.077750
O O12 0.858003 0.437070 0.880044
O O13 0.056929 0.547041 0.946316
O O14 0.856417 0.484293 0.167561
#
# Coordination Sequence:
#
# PCOD9340750 Si02
#       7
#     4   4   4   4   4   4   4
#     4  10  21  44  64  91 120 178 223 260 294 403
#     4  12  22  38  62  95 128 167 203 272 336 385
#     4  11  21  38  68  90 123 165 221 261 315 384
#     4   9  24  38  64  90 126 165 219 254 318 366
#     4  10  22  39  64  98 129 164 201 265 322 374
#     4  12  22  38  64  97 131 160 211 276 343 375
#     4  10  22  39  64  97 131 159 206 262 322 375
#
# _framework density 22.301911
#
# number of rings (size 3 to 8) (size 9 to 14) (size 15 to 20)
#    0.857    0.571    4.286    0.857    2.000    0.000 
#    7.714    0.000    9.429    0.000    0.000    0.000 
#    0.000    0.000    0.000    0.000    0.000    0.000 
#
# Total GULP energy -155878.182729 kJ/mol
# GULP energy per Si atom -5567.077955 kJ/mol
# Density = 2.225115 g / cm^3
# Si number density = 22.301911 Si / 1000 Ang^3
#
#
#
# Elastic Constant Matrix: (Units=GPa)
#
#
# Indices 1 2 3 4 5 6 
#
# 1 27.8033 11.1481 15.5608 0.0000 0.0000 0.0000
# 2 11.1481 45.0273 21.7722 0.0000 0.0000 0.0000
# 3 15.5608 21.7722 116.0593 0.0000 0.0000 0.0000
# 4 0.0000 0.0000 0.0000 21.0880 0.0000 0.0000
# 5 0.0000 0.0000 0.0000 0.0000 37.3407 0.0000
# 6 0.0000 0.0000 0.0000 0.0000 0.0000 26.1298
#
#
#
# Elastic Compliance Matrix: (Units=1/GPa)
#
#
# Indices 1 2 3 4 5 6 
#
# 1 0.041558 -0.008353 -0.004005 0.000000 0.000000 0.000000
# 2 -0.008353 0.026103 -0.003777 0.000000 0.000000 0.000000
# 3 -0.004005 -0.003777 0.009862 0.000000 0.000000 0.000000
# 4 0.000000 0.000000 0.000000 0.047420 0.000000 0.000000
# 5 0.000000 0.000000 0.000000 0.000000 0.026780 0.000000
# 6 0.000000 0.000000 0.000000 0.000000 0.000000 0.038270
#
#
# Mechanical properties :
#
#
# Convention : Reuss Voigt Hill
#
# Bulk Modulus (GPa) = 22.09776 31.76134 26.92955
# Shear Modulus (GPa) = 21.06619 26.27227 23.66923
#
# Velocity S-wave (km/s) = 3.07675 3.43596 3.26131
# Velocity P-wave (km/s) = 4.74888 5.47847 5.12667
#
# Compressibility (1/GPa) = 0.04525346
#
# Stress axis : x y z
#
# Youngs Moduli (GPa) = 24.06302 38.30973 101.40140
#
# Poissons Ratio (x) = 0.31998 0.40611
# Poissons Ratio (y) = 0.20099 0.38299
# Poissons Ratio (z) = 0.09637 0.14469
#
# Static dielectric constant tensor:
#      x y z
#    x 1.840140 0.000000 0.000000 
#    y 0.000000 1.849340 0.000000 
#    z 0.000000 0.000000 1.852320 
# 
# From -- ./inp_files/1234.got.cif
#   From: 2010.05.17/outbox.cif.g08.bks.cpg/sg29_1_cif.got.tgz:1234.got - 2010.06.04 01:19:37.
