data_PCOD9340550
_publ_section_title
;
Structure prediction by ZEFSAII (Michael W. Deem and Ramdas Pophale) SiO2 
 PCOD9340550
Probable space group: P C A 21
;
_chemical_formula_sum "Si O2"
_cell_formula_units_Z 32
_cell_length_a 20.953878
_cell_length_b 7.155622
_cell_length_c 8.049923
_cell_angle_alpha 90.000000
_cell_angle_beta 90.000000
_cell_angle_gamma 90.000000
_cell_volume 1206.989600
_symmetry_space_group_name_H-M "P C A 21"
_symmetry_group_IT_number 29
_symmetry_cell_setting 'orthorhombic'
loop_
_space_group_symop_operation_xyz
x,y,z
-x,-y,1/2+z
1/2-x,y,1/2+z
1/2+x,-y,z
loop_
_atom_site_type_symbol
_atom_site_label
_atom_site_fract_x
_atom_site_fract_y
_atom_site_fract_z
Si Si1 0.285447 0.592620 0.317530
Si Si2 0.240776 0.161771 0.389714
Si Si3 0.839871 0.358415 0.952848
Si Si4 0.149097 0.078486 0.085464
Si Si5 0.595092 0.560177 0.907540
Si Si6 0.481191 0.732259 0.003144
Si Si7 0.881096 0.733837 0.042036
Si Si8 0.966806 0.951923 0.793734
O O1 0.265579 0.375694 0.359733
O O2 0.218786 0.700196 0.340051
O O3 0.304916 0.623233 0.129116
O O4 0.353013 0.607087 0.416533
O O5 0.198060 0.104585 0.235685
O O6 0.302591 0.036254 0.434022
O O7 0.187821 0.163423 0.539873
O O8 0.866609 0.564673 0.914063
O O9 0.906020 0.254527 0.971219
O O10 0.088131 0.976347 0.164941
O O11 0.119584 0.278433 0.031587
O O12 0.521057 0.544951 0.962053
O O13 0.600958 0.637735 0.716962
O O14 0.507732 0.880789 0.868153
O O15 0.493269 0.803145 0.188412
O O16 0.933890 0.857800 0.953976
#
# Coordination Sequence:
#
# PCOD9340550 Si02
#       8
#     4   4   4   4   4   4   4   4
#     4   9  17  34  57  86 122 155 189 245 308 360
#     4   9  14  26  50  81 112 149 195 236 289 355
#     4  10  21  37  61  90 123 158 200 251 309 374
#     4   9  16  27  49  79 111 151 199 244 285 345
#     4   9  17  32  56  85 116 154 198 243 300 365
#     4  11  23  40  60  86 120 164 212 256 308 373
#     4   9  18  33  58  89 118 154 198 251 303 364
#     4  10  22  39  57  82 120 161 205 256 306 362
#
# _framework density 26.512242000000001
#
# number of rings (size 3 to 8) (size 9 to 14) (size 15 to 20)
#    0.000    2.500    0.000    4.500    0.000    3.000 
#    0.000    5.000    0.000    4.500    0.000    0.000 
#    0.000    0.000    0.000    0.000    0.000    0.000 
#
# Total GULP energy -178532.635059 kJ/mol
# GULP energy per Si atom -5579.144846 kJ/mol
# Density = 2.645190 g / cm^3
# Si number density = 26.512242 Si / 1000 Ang^3
#
#
#
# Elastic Constant Matrix: (Units=GPa)
#
#
# Indices 1 2 3 4 5 6 
#
# 1 145.2194 22.0894 41.1209 0.0000 0.0000 0.0000
# 2 22.0894 43.6734 10.7170 0.0000 0.0000 0.0000
# 3 41.1209 10.7170 84.2488 0.0000 0.0000 0.0000
# 4 0.0000 0.0000 0.0000 8.9086 0.0000 0.0000
# 5 0.0000 0.0000 0.0000 0.0000 54.5785 0.0000
# 6 0.0000 0.0000 0.0000 0.0000 0.0000 32.3915
#
#
#
# Elastic Compliance Matrix: (Units=1/GPa)
#
#
# Indices 1 2 3 4 5 6 
#
# 1 0.008444 -0.003364 -0.003693 0.000000 0.000000 0.000000
# 2 -0.003364 0.024976 -0.001535 0.000000 0.000000 0.000000
# 3 -0.003693 -0.001535 0.013868 0.000000 0.000000 0.000000
# 4 0.000000 0.000000 0.000000 0.112251 0.000000 0.000000
# 5 0.000000 0.000000 0.000000 0.000000 0.018322 0.000000
# 6 0.000000 0.000000 0.000000 0.000000 0.000000 0.030872
#
#
# Mechanical properties :
#
#
# Convention : Reuss Voigt Hill
#
# Bulk Modulus (GPa) = 33.22090 46.77735 39.99912
# Shear Modulus (GPa) = 21.19078 32.45666 26.82372
#
# Velocity S-wave (km/s) = 2.83023 3.50267 3.18425
# Velocity P-wave (km/s) = 4.82056 5.83440 5.35155
#
# Compressibility (1/GPa) = 0.03010153
#
# Stress axis : x y z
#
# Youngs Moduli (GPa) = 118.43133 40.03911 72.11091
#
# Poissons Ratio (x) = 0.13471 0.26633
# Poissons Ratio (y) = 0.39845 0.11068
# Poissons Ratio (z) = 0.43740 0.06146
#
# Static dielectric constant tensor:
#      x y z
#    x 2.236370 0.000000 0.000000 
#    y 0.000000 2.145990 0.000000 
#    z 0.000000 0.000000 2.092290 
# 
# From -- ./inp_files/2341.got.cif
#   From: 2010.05.17/outbox.cif.g08.bks.cpg/sg29_2_cif.got.tgz:2341.got - 2010.06.04 01:19:37.
