data_PCOD9340456
_publ_section_title
;
Structure prediction by ZEFSAII (Michael W. Deem and Ramdas Pophale) SiO2 
 PCOD9340456
Probable space group: P C A 21
;
_chemical_formula_sum "Si O2"
_cell_formula_units_Z 20
_cell_length_a 14.947749
_cell_length_b 5.033817
_cell_length_c 11.615324
_cell_angle_alpha 90.000000
_cell_angle_beta 90.000000
_cell_angle_gamma 90.000000
_cell_volume 873.986146
_symmetry_space_group_name_H-M "P C A 21"
_symmetry_group_IT_number 29
_symmetry_cell_setting 'orthorhombic'
loop_
_space_group_symop_operation_xyz
x,y,z
-x,-y,1/2+z
1/2-x,y,1/2+z
1/2+x,-y,z
loop_
_atom_site_type_symbol
_atom_site_label
_atom_site_fract_x
_atom_site_fract_y
_atom_site_fract_z
Si Si1 0.296436 0.071561 0.223460
Si Si2 0.508805 0.113430 0.715935
Si Si3 0.852985 0.676944 0.591187
Si Si4 0.923505 0.404575 0.810832
Si Si5 0.761293 0.428654 0.376694
O O1 0.222635 0.107846 0.124585
O O2 0.295653 0.358908 0.282681
O O3 0.393199 0.978864 0.182816
O O4 0.270729 0.863628 0.323580
O O5 0.448595 0.174322 0.602485
O O6 0.501121 0.375766 0.796441
O O7 0.462683 0.885008 0.793115
O O8 0.866170 0.470762 0.695828
O O9 0.821284 0.508140 0.484452
O O10 0.845857 0.455629 0.904100
#
# Coordination Sequence:
#
# PCOD9340456 Si02
#       5
#     4   4   4   4   4
#     4  11  23  40  65  90 129 173 213 269 336 385
#     4  10  20  41  60  86 130 167 207 274 324 370
#     4   9  23  39  65  89 131 167 216 265 327 390
#     4   9  19  39  59  85 126 164 204 276 313 380
#     4  11  21  39  65  92 124 175 218 262 332 403
#
# _framework density 22.883659999999999
#
# number of rings (size 3 to 8) (size 9 to 14) (size 15 to 20)
#    1.200    0.800    2.000    1.200    2.800    0.000 
#    3.600    2.000    0.000    0.000    0.000    0.000 
#    0.000    0.000    0.000    0.000    0.000    0.000 
#
# Total GULP energy -111434.105841 kJ/mol
# GULP energy per Si atom -5571.705292 kJ/mol
# Density = 2.283158 g / cm^3
# Si number density = 22.883660 Si / 1000 Ang^3
#
#
#
# Elastic Constant Matrix: (Units=GPa)
#
#
# Indices 1 2 3 4 5 6 
#
# 1 98.3671 8.4790 6.0862 0.0000 0.0000 0.0000
# 2 8.4790 92.2637 -0.2940 0.0000 0.0000 0.0000
# 3 6.0862 -0.2940 25.6834 0.0000 0.0000 0.0000
# 4 0.0000 0.0000 0.0000 19.5181 0.0000 0.0000
# 5 0.0000 0.0000 0.0000 0.0000 6.1837 0.0000
# 6 0.0000 0.0000 0.0000 0.0000 0.0000 32.6231
#
#
#
# Elastic Compliance Matrix: (Units=1/GPa)
#
#
# Indices 1 2 3 4 5 6 
#
# 1 0.010402 -0.000964 -0.002476 0.000000 0.000000 0.000000
# 2 -0.000964 0.010928 0.000353 0.000000 0.000000 0.000000
# 3 -0.002476 0.000353 0.039526 0.000000 0.000000 0.000000
# 4 0.000000 0.000000 0.000000 0.051235 0.000000 0.000000
# 5 0.000000 0.000000 0.000000 0.000000 0.161715 0.000000
# 6 0.000000 0.000000 0.000000 0.000000 0.000000 0.030653
#
#
# Mechanical properties :
#
#
# Convention : Reuss Voigt Hill
#
# Bulk Modulus (GPa) = 18.28685 27.20630 22.74658
# Shear Modulus (GPa) = 15.20403 25.13451 20.16927
#
# Velocity S-wave (km/s) = 2.58040 3.31775 2.97203
# Velocity P-wave (km/s) = 4.10932 5.15668 4.66251
#
# Compressibility (1/GPa) = 0.05468410
#
# Stress axis : x y z
#
# Youngs Moduli (GPa) = 96.13273 91.50636 25.29948
#
# Poissons Ratio (x) = 0.08820 0.06264
# Poissons Ratio (y) = 0.09266 -0.00894
# Poissons Ratio (z) = 0.23803 -0.03235
#
# Static dielectric constant tensor:
#      x y z
#    x 1.942720 0.000000 0.000000 
#    y 0.000000 1.839420 0.000000 
#    z 0.000000 0.000000 1.891200 
# 
# From -- ./inp_files/3300.got.cif
#   From: 2010.05.17/outbox.cif.g08.bks.cpg/sg29_2_cif.got.tgz:3300.got - 2010.06.04 01:19:37.
