data_PCOD9340140
_publ_section_title
;
Structure prediction by ZEFSAII (Michael W. Deem and Ramdas Pophale) SiO2 
 PCOD9340140
Probable space group: P C A 21
;
_chemical_formula_sum "Si O2"
_cell_formula_units_Z 24
_cell_length_a 16.816528
_cell_length_b 7.958152
_cell_length_c 8.138784
_cell_angle_alpha 90.000000
_cell_angle_beta 90.000000
_cell_angle_gamma 90.000000
_cell_volume 1089.201140
_symmetry_space_group_name_H-M "P C A 21"
_symmetry_group_IT_number 29
_symmetry_cell_setting 'orthorhombic'
loop_
_space_group_symop_operation_xyz
x,y,z
-x,-y,1/2+z
1/2-x,y,1/2+z
1/2+x,-y,z
loop_
_atom_site_type_symbol
_atom_site_label
_atom_site_fract_x
_atom_site_fract_y
_atom_site_fract_z
Si Si1 0.217734 0.275142 0.233840
Si Si2 0.911009 0.522784 0.561043
Si Si3 0.864697 0.624149 0.070575
Si Si4 0.479639 0.793506 0.443524
Si Si5 0.591844 0.993175 0.216752
Si Si6 0.939752 0.332847 0.904891
O O1 0.172795 0.396885 0.104387
O O2 0.185624 0.319933 0.412414
O O3 0.310671 0.312260 0.218409
O O4 0.178249 0.092560 0.205170
O O5 0.937180 0.452535 0.742059
O O6 0.918638 0.362541 0.439950
O O7 0.972562 0.653893 0.481727
O O8 0.947765 0.722567 0.056052
O O9 0.884734 0.428714 0.038926
O O10 0.435684 0.938772 0.541731
O O11 0.525744 0.862819 0.285991
O O12 0.588362 0.151413 0.343035
#
# Coordination Sequence:
#
# PCOD9340140 Si02
#       6
#     4   4   4   4   4   4
#     4  10  20  35  52  75 107 142 177 221 266 318
#     4   9  18  33  54  75 103 138 177 215 262 321
#     4   9  20  36  51  73 107 141 177 216 269 326
#     4   9  19  35  54  79 106 137 177 222 268 321
#     4  10  19  33  55  80 106 135 179 231 268 307
#     4   9  18  34  54  78 103 137 179 223 265 319
#
# _framework density 22.034497000000002
#
# number of rings (size 3 to 8) (size 9 to 14) (size 15 to 20)
#    0.000    2.667    0.000    2.000    0.000    5.333 
#    0.000   11.667    0.000    0.000    0.000    0.000 
#    0.000    0.000    0.000    0.000    0.000    0.000 
#
# Total GULP energy -133837.252577 kJ/mol
# GULP energy per Si atom -5576.552191 kJ/mol
# Density = 2.198435 g / cm^3
# Si number density = 22.034497 Si / 1000 Ang^3
#
#
#
# Elastic Constant Matrix: (Units=GPa)
#
#
# Indices 1 2 3 4 5 6 
#
# 1 52.6833 7.0521 3.4787 0.0000 0.0000 0.0000
# 2 7.0521 91.6774 5.0179 0.0000 0.0000 0.0000
# 3 3.4787 5.0179 51.7802 0.0000 0.0000 0.0000
# 4 0.0000 0.0000 0.0000 21.7409 0.0000 0.0000
# 5 0.0000 0.0000 0.0000 0.0000 25.5995 0.0000
# 6 0.0000 0.0000 0.0000 0.0000 0.0000 19.3157
#
#
#
# Elastic Compliance Matrix: (Units=1/GPa)
#
#
# Indices 1 2 3 4 5 6 
#
# 1 0.019247 -0.001417 -0.001156 0.000000 0.000000 0.000000
# 2 -0.001417 0.011070 -0.000978 0.000000 0.000000 0.000000
# 3 -0.001156 -0.000978 0.019485 0.000000 0.000000 0.000000
# 4 0.000000 0.000000 0.000000 0.045996 0.000000 0.000000
# 5 0.000000 0.000000 0.000000 0.000000 0.039063 0.000000
# 6 0.000000 0.000000 0.000000 0.000000 0.000000 0.051771
#
#
# Mechanical properties :
#
#
# Convention : Reuss Voigt Hill
#
# Bulk Modulus (GPa) = 23.41850 25.24869 24.33359
# Shear Modulus (GPa) = 24.04213 25.37071 24.70642
#
# Velocity S-wave (km/s) = 3.30678 3.39692 3.35216
# Velocity P-wave (km/s) = 5.02304 5.18353 5.10392
#
# Compressibility (1/GPa) = 0.04270128
#
# Stress axis : x y z
#
# Youngs Moduli (GPa) = 51.95511 90.33143 51.32207
#
# Poissons Ratio (x) = 0.12803 0.05932
# Poissons Ratio (y) = 0.07364 0.05017
# Poissons Ratio (z) = 0.06005 0.08831
#
# Static dielectric constant tensor:
#      x y z
#    x 1.788260 0.000000 0.000000 
#    y 0.000000 1.866630 0.000000 
#    z 0.000000 0.000000 1.893490 
# 
# From -- ./inp_files/1742.got.cif
#   From: 2010.05.17/outbox.cif.g08.bks.cpg/sg29_1_cif.got.tgz:1742.got - 2010.06.04 01:19:37.
