data_PCOD9340771
_publ_section_title
;
Structure prediction by ZEFSAII (Michael W. Deem and Ramdas Pophale) SiO2 
 PCOD9340771
Probable space group: P C A 21
;
_chemical_formula_sum "Si O2"
_cell_formula_units_Z 32
_cell_length_a 21.969301
_cell_length_b 5.504286
_cell_length_c 11.055615
_cell_angle_alpha 90.000000
_cell_angle_beta 90.000000
_cell_angle_gamma 90.000000
_cell_volume 1336.903737
_symmetry_space_group_name_H-M "P C A 21"
_symmetry_group_IT_number 29
_symmetry_cell_setting 'orthorhombic'
loop_
_space_group_symop_operation_xyz
x,y,z
-x,-y,1/2+z
1/2-x,y,1/2+z
1/2+x,-y,z
loop_
_atom_site_type_symbol
_atom_site_label
_atom_site_fract_x
_atom_site_fract_y
_atom_site_fract_z
Si Si1 0.180126 0.338530 0.563470
Si Si2 0.353470 0.922513 0.653066
Si Si3 0.000496 0.409423 0.198807
Si Si4 0.269806 0.954276 0.250489
Si Si5 0.418095 0.192329 0.867532
Si Si6 0.871536 0.405015 0.294324
Si Si7 0.481296 0.898115 0.557870
Si Si8 0.704371 0.715043 0.962607
O O1 0.131769 0.272325 0.462842
O O2 0.148494 0.503999 0.662046
O O3 0.242366 0.457079 0.513768
O O4 0.201828 0.098391 0.636596
O O5 0.290616 0.809400 0.708257
O O6 0.408441 0.835459 0.564009
O O7 0.389422 0.005925 0.772459
O O8 0.324072 0.139844 0.574257
O O9 0.942122 0.362444 0.282695
O O10 0.059063 0.416620 0.285454
O O11 0.992365 0.664284 0.130668
O O12 0.009509 0.166113 0.117535
O O13 0.325354 0.813223 0.312127
O O14 0.256882 0.142255 0.359309
O O15 0.477423 0.091845 0.937689
O O16 0.851925 0.599240 0.393128
#
# Coordination Sequence:
#
# PCOD9340771 Si02
#       8
#     4   4   4   4   4   4   4   4
#     4  10  21  45  68  99 137 186 239 291 366 440
#     4  10  24  45  70 106 142 185 251 297 366 443
#     4  11  27  46  73 106 141 195 246 295 364 437
#     4  10  22  43  70 102 141 190 233 310 369 431
#     4  11  23  46  74  98 148 187 240 300 362 430
#     4  11  24  42  71 101 143 184 242 298 371 436
#     4  11  26  49  71 105 146 195 243 299 359 441
#     4  10  23  42  71 101 140 184 236 304 367 432
#
# _framework density 23.935904000000001
#
# number of rings (size 3 to 8) (size 9 to 14) (size 15 to 20)
#    0.000    1.500    2.500    0.750    3.500    8.000 
#   11.250    0.000    0.000    0.000    0.000    0.000 
#    0.000    0.000    0.000    0.000    0.000    0.000 
#
# Total GULP energy -178519.233929 kJ/mol
# GULP energy per Si atom -5578.726060 kJ/mol
# Density = 2.388142 g / cm^3
# Si number density = 23.935904 Si / 1000 Ang^3
#
#
#
# Elastic Constant Matrix: (Units=GPa)
#
#
# Indices 1 2 3 4 5 6 
#
# 1 128.3952 11.3062 34.0874 0.0000 0.0000 0.0000
# 2 11.3062 43.5940 23.7916 0.0000 0.0000 0.0000
# 3 34.0874 23.7916 111.4828 0.0000 0.0000 0.0000
# 4 0.0000 0.0000 0.0000 0.6142 0.0000 0.0000
# 5 0.0000 0.0000 0.0000 0.0000 -9.5425 0.0000
# 6 0.0000 0.0000 0.0000 0.0000 0.0000 -37.9463
#
#
#
# Elastic Compliance Matrix: (Units=1/GPa)
#
#
# Indices 1 2 3 4 5 6 
#
# 1 0.008507 -0.000890 -0.002411 0.000000 0.000000 0.000000
# 2 -0.000890 0.026056 -0.005288 0.000000 0.000000 0.000000
# 3 -0.002411 -0.005288 0.010836 0.000000 0.000000 0.000000
# 4 0.000000 0.000000 0.000000 1.628261 0.000000 0.000000
# 5 0.000000 0.000000 0.000000 0.000000 -0.104795 0.000000
# 6 0.000000 0.000000 0.000000 0.000000 0.000000 -0.026353
#
#
# Mechanical properties :
#
#
# Convention : Reuss Voigt Hill
#
# Bulk Modulus (GPa) = 35.43709 46.87138 41.15424
# Shear Modulus (GPa) = 3.18654 4.91085 4.04870
#
# Velocity S-wave (km/s) = 1.15506 1.43392 1.30198
# Velocity P-wave (km/s) = 4.07628 4.72928 4.41487
#
# Compressibility (1/GPa) = 0.02821902
#
# Stress axis : x y z
#
# Youngs Moduli (GPa) = 117.55050 38.37883 92.28655
#
# Poissons Ratio (x) = 0.03417 0.22251
# Poissons Ratio (y) = 0.10467 0.48804
# Poissons Ratio (z) = 0.28343 0.20296
#
# Static dielectric constant tensor:
#      x y z
#    x 2.088590 0.000000 0.000000 
#    y 0.000000 2.094410 0.000000 
#    z 0.000000 0.000000 1.926640 
# 
# From -- ./inp_files/3980.got.cif
#   From: 2010.05.17/outbox.cif.g08.bks.cpg/sg29_2_cif.got.tgz:3980.got - 2010.06.04 01:19:37.
