data_PCOD9340654
_publ_section_title
;
Structure prediction by ZEFSAII (Michael W. Deem and Ramdas Pophale) SiO2 
 PCOD9340654
Probable space group: P C A 21
;
_chemical_formula_sum "Si O2"
_cell_formula_units_Z 24
_cell_length_a 14.364012
_cell_length_b 8.555933
_cell_length_c 8.200290
_cell_angle_alpha 90.000000
_cell_angle_beta 90.000000
_cell_angle_gamma 90.000000
_cell_volume 1007.795339
_symmetry_space_group_name_H-M "P C A 21"
_symmetry_group_IT_number 29
_symmetry_cell_setting 'orthorhombic'
loop_
_space_group_symop_operation_xyz
x,y,z
-x,-y,1/2+z
1/2-x,y,1/2+z
1/2+x,-y,z
loop_
_atom_site_type_symbol
_atom_site_label
_atom_site_fract_x
_atom_site_fract_y
_atom_site_fract_z
Si Si1 0.373496 0.820496 0.422750
Si Si2 0.725863 0.319456 0.226634
Si Si3 0.559014 0.162312 0.403726
Si Si4 0.373496 0.179505 0.544776
Si Si5 0.725863 0.680544 0.740891
Si Si6 0.559014 0.837688 0.563799
O O1 0.318098 0.718239 0.553111
O O2 0.317123 0.786526 0.259385
O O3 0.481281 0.773779 0.438709
O O4 0.367615 0.000000 0.483763
O O5 0.644714 0.269207 0.353276
O O6 0.750000 0.500000 0.233763
O O7 0.481281 0.226221 0.528816
O O8 0.591055 0.000000 0.483763
O O9 0.500000 0.133115 0.233763
O O10 0.318098 0.281761 0.414415
O O11 0.317123 0.213475 0.708141
O O12 0.644714 0.730793 0.614250
#
# Coordination Sequence:
#
# PCOD9340654 Si02
#       6
#     4   4   4   4   4   4
#     4  10  21  40  65  90 120 164 214 257 303 370
#     4  11  22  39  61  92 129 162 201 259 321 375
#     4   9  20  39  64  92 122 162 214 260 305 369
#     4  10  21  40  65  90 120 164 214 257 303 370
#     4  11  22  39  61  92 129 162 201 259 321 375
#     4   9  20  39  64  92 122 162 214 260 305 369
#
# _framework density 23.814359
#
# number of rings (size 3 to 8) (size 9 to 14) (size 15 to 20)
#    0.000    2.000    0.000    3.000    0.000    5.333 
#    0.000   20.000    0.000    0.000    0.000    0.000 
#    0.000    0.000    0.000    0.000    0.000    0.000 
#
# Total GULP energy -134301.492728 kJ/mol
# GULP energy per Si atom -5595.895530 kJ/mol
# Density = 2.376016 g / cm^3
# Si number density = 23.814359 Si / 1000 Ang^3
#
#
#
# Elastic Constant Matrix: (Units=GPa)
#
#
# Indices 1 2 3 4 5 6 
#
# 1 161.7746 72.8388 46.6837 0.0000 0.0000 0.0000
# 2 72.8388 125.8088 29.5151 0.0000 0.0000 0.0000
# 3 46.6837 29.5151 52.1347 0.0000 0.0000 0.0000
# 4 0.0000 0.0000 0.0000 41.4967 0.0000 0.0000
# 5 0.0000 0.0000 0.0000 0.0000 50.0195 0.0000
# 6 0.0000 0.0000 0.0000 0.0000 0.0000 3.5372
#
#
#
# Elastic Compliance Matrix: (Units=1/GPa)
#
#
# Indices 1 2 3 4 5 6 
#
# 1 0.009977 -0.004244 -0.006531 0.000000 0.000000 0.000000
# 2 -0.004244 0.010971 -0.002411 0.000000 0.000000 0.000000
# 3 -0.006531 -0.002411 0.026394 0.000000 0.000000 0.000000
# 4 0.000000 0.000000 0.000000 0.024098 0.000000 0.000000
# 5 0.000000 0.000000 0.000000 0.000000 0.019992 0.000000
# 6 0.000000 0.000000 0.000000 0.000000 0.000000 0.282707
#
#
# Mechanical properties :
#
#
# Convention : Reuss Voigt Hill
#
# Bulk Modulus (GPa) = 47.68633 70.86592 59.27612
# Shear Modulus (GPa) = 12.26987 31.72272 21.99630
#
# Velocity S-wave (km/s) = 2.27233 3.65373 3.04247
# Velocity P-wave (km/s) = 5.19156 6.90086 6.10632
#
# Compressibility (1/GPa) = 0.02097037
#
# Stress axis : x y z
#
# Youngs Moduli (GPa) = 100.22985 91.14643 37.88706
#
# Poissons Ratio (x) = 0.38684 0.24745
# Poissons Ratio (y) = 0.42539 0.09134
# Poissons Ratio (z) = 0.65462 0.21974
#
# Static dielectric constant tensor:
#      x y z
#    x 1.932190 0.000000 0.000000 
#    y 0.000000 1.831670 0.000000 
#    z 0.000000 0.000000 2.070490 
# 
# From -- ./inp_files/1715.got.cif
#   From: 2010.05.17/outbox.cif.g08.bks.cpg/sg29_1_cif.got.tgz:1715.got - 2010.06.04 01:19:37.
