data_PCOD9340778
_publ_section_title
;
Structure prediction by ZEFSAII (Michael W. Deem and Ramdas Pophale) SiO2 
 PCOD9340778
Probable space group: P C A 21
;
_chemical_formula_sum "Si O2"
_cell_formula_units_Z 28
_cell_length_a 11.439336
_cell_length_b 11.947852
_cell_length_c 8.380874
_cell_angle_alpha 90.000000
_cell_angle_beta 90.000000
_cell_angle_gamma 90.000000
_cell_volume 1145.460090
_symmetry_space_group_name_H-M "P C A 21"
_symmetry_group_IT_number 29
_symmetry_cell_setting 'orthorhombic'
loop_
_space_group_symop_operation_xyz
x,y,z
-x,-y,1/2+z
1/2-x,y,1/2+z
1/2+x,-y,z
loop_
_atom_site_type_symbol
_atom_site_label
_atom_site_fract_x
_atom_site_fract_y
_atom_site_fract_z
Si Si1 0.662395 0.357421 0.229310
Si Si2 0.460081 0.318539 0.865003
Si Si3 0.852127 0.486232 0.411024
Si Si4 0.905188 0.704840 0.231599
Si Si5 0.807074 0.850429 0.735828
Si Si6 0.834975 0.165879 0.263736
Si Si7 0.699059 0.007629 0.502225
O O1 0.731681 0.426301 0.361853
O O2 0.542341 0.295726 0.273263
O O3 0.755143 0.261237 0.181062
O O4 0.635586 0.447986 0.092546
O O5 0.531487 0.431556 0.830466
O O6 0.374871 0.267236 0.730735
O O7 0.566289 0.229217 0.862196
O O8 0.401358 0.323398 0.040598
O O9 0.850220 0.610706 0.345923
O O10 0.829013 0.815644 0.256725
O O11 0.801036 0.939128 0.594618
O O12 0.857445 0.914066 0.890052
O O13 0.755517 0.096279 0.383543
O O14 0.875554 0.077155 0.130126
#
# Coordination Sequence:
#
# PCOD9340778 Si02
#       7
#     4   4   4   4   4   4   4
#     4  10  23  45  66  99 130 179 234 282 349 411
#     4  10  23  45  66  98 140 178 235 285 345 416
#     4  10  24  41  71  96 132 182 235 285 348 419
#     4  11  24  42  67  97 145 180 225 290 346 417
#     4  11  23  43  62 101 144 175 229 288 348 424
#     4  10  21  46  73  97 139 178 236 295 336 434
#     4  10  22  42  67 102 132 184 228 275 364 405
#
# _framework density 24.444327000000001
#
# number of rings (size 3 to 8) (size 9 to 14) (size 15 to 20)
#    0.000    1.714    1.429    2.571    4.000    2.286 
#   20.571    0.000    0.000    0.000    0.000    0.000 
#    0.000    0.000    0.000    0.000    0.000    0.000 
#
# Total GULP energy -156363.348806 kJ/mol
# GULP energy per Si atom -5584.405314 kJ/mol
# Density = 2.438869 g / cm^3
# Si number density = 24.444327 Si / 1000 Ang^3
#
#
#
# Elastic Constant Matrix: (Units=GPa)
#
#
# Indices 1 2 3 4 5 6 
#
# 1 70.4192 9.1626 5.0881 0.0000 0.0000 0.0000
# 2 9.1626 83.1679 38.0901 0.0000 0.0000 0.0000
# 3 5.0881 38.0901 72.8572 0.0000 0.0000 0.0000
# 4 0.0000 0.0000 0.0000 43.8093 0.0000 0.0000
# 5 0.0000 0.0000 0.0000 0.0000 30.0742 0.0000
# 6 0.0000 0.0000 0.0000 0.0000 0.0000 31.9669
#
#
#
# Elastic Compliance Matrix: (Units=1/GPa)
#
#
# Indices 1 2 3 4 5 6 
#
# 1 0.014410 -0.001481 -0.000232 0.000000 0.000000 0.000000
# 2 -0.001481 0.015962 -0.008241 0.000000 0.000000 0.000000
# 3 -0.000232 -0.008241 0.018050 0.000000 0.000000 0.000000
# 4 0.000000 0.000000 0.000000 0.022826 0.000000 0.000000
# 5 0.000000 0.000000 0.000000 0.000000 0.033251 0.000000
# 6 0.000000 0.000000 0.000000 0.000000 0.000000 0.031282
#
#
# Mechanical properties :
#
#
# Convention : Reuss Voigt Hill
#
# Bulk Modulus (GPa) = 35.07191 36.79175 35.93183
# Shear Modulus (GPa) = 30.26725 32.77698 31.52211
#
# Velocity S-wave (km/s) = 3.52264 3.66578 3.59492
# Velocity P-wave (km/s) = 5.56095 5.74466 5.65355
#
# Compressibility (1/GPa) = 0.02851285
#
# Stress axis : x y z
#
# Youngs Moduli (GPa) = 69.39537 62.65065 55.40084
#
# Poissons Ratio (x) = 0.09281 0.01285
# Poissons Ratio (y) = 0.10280 0.45658
# Poissons Ratio (z) = 0.01609 0.51632
#
# Static dielectric constant tensor:
#      x y z
#    x 1.951290 0.000000 0.000000 
#    y 0.000000 1.926070 0.000000 
#    z 0.000000 0.000000 1.960300 
# 
# From -- ./inp_files/1492.got.cif
#   From: 2010.05.17/outbox.cif.g08.bks.cpg/sg29_1_cif.got.tgz:1492.got - 2010.06.04 01:19:37.
