data_PCOD9340311
_publ_section_title
;
Structure prediction by ZEFSAII (Michael W. Deem and Ramdas Pophale) SiO2 
 PCOD9340311
Probable space group: P C A 21
;
_chemical_formula_sum "Si O2"
_cell_formula_units_Z 28
_cell_length_a 8.401089
_cell_length_b 4.923870
_cell_length_c 23.759264
_cell_angle_alpha 90.000000
_cell_angle_beta 90.000000
_cell_angle_gamma 90.000000
_cell_volume 982.822628
_symmetry_space_group_name_H-M "P C A 21"
_symmetry_group_IT_number 29
_symmetry_cell_setting 'orthorhombic'
loop_
_space_group_symop_operation_xyz
x,y,z
-x,-y,1/2+z
1/2-x,y,1/2+z
1/2+x,-y,z
loop_
_atom_site_type_symbol
_atom_site_label
_atom_site_fract_x
_atom_site_fract_y
_atom_site_fract_z
Si Si1 0.710226 0.227234 0.591620
Si Si2 0.789773 0.227238 0.295454
Si Si3 0.484767 0.827467 0.867641
Si Si4 0.984764 0.172532 0.519433
Si Si5 0.041916 0.475983 0.693537
Si Si6 0.250002 0.194038 0.943537
Si Si7 0.281137 0.112318 0.693536
O O1 0.590180 0.040061 0.555765
O O2 0.805042 0.036490 0.635465
O O3 0.856150 0.345686 0.554719
O O4 0.615119 0.420885 0.634007
O O5 0.643847 0.345685 0.332354
O O6 0.884881 0.420893 0.253069
O O7 0.694960 0.036498 0.251607
O O8 0.909818 0.040063 0.331309
O O9 0.619457 0.663766 0.902967
O O10 0.366411 0.004106 0.906613
O O11 0.119451 0.336235 0.484105
O O12 0.866408 0.995888 0.480462
O O13 0.089443 0.162887 0.693536
O O14 0.869158 0.601892 0.693538
#
# Coordination Sequence:
#
# PCOD9340311 Si02
#       7
#     4   4   4   4   4   4   4
#     4  10  20  36  56  80 116 146 184 218 276 322
#     4  10  20  36  56  80 116 146 184 218 276 322
#     4   9  16  31  54  82 110 139 178 233 268 328
#     4   9  16  31  54  82 110 139 178 233 268 328
#     4  11  24  36  53  83 115 149 185 223 266 326
#     4   8  16  28  52  88 106 128 192 226 272 324
#     4  11  24  36  53  83 115 149 185 223 266 326
#
# _framework density 28.489373000000001
#
# number of rings (size 3 to 8) (size 9 to 14) (size 15 to 20)
#    0.000    2.286    2.857    0.000    4.000    0.000 
#    0.000    0.000    0.000    0.000    0.000  140.000 
#    0.000    0.000    0.000    0.000    0.000    0.000 
#
# Total GULP energy -156582.795490 kJ/mol
# GULP energy per Si atom -5592.242696 kJ/mol
# Density = 2.842453 g / cm^3
# Si number density = 28.489373 Si / 1000 Ang^3
#
#
#
# Elastic Constant Matrix: (Units=GPa)
#
#
# Indices 1 2 3 4 5 6 
#
# 1 202.7644 17.0938 102.1615 0.0000 0.0000 0.0000
# 2 17.0938 30.0353 12.8852 0.0000 0.0000 0.0000
# 3 102.1615 12.8852 123.6367 0.0000 0.0000 0.0000
# 4 0.0000 0.0000 0.0000 300.2631 0.0000 0.0000
# 5 0.0000 0.0000 0.0000 0.0000 111.5393 0.0000
# 6 0.0000 0.0000 0.0000 0.0000 0.0000 19.2348
#
#
#
# Elastic Compliance Matrix: (Units=1/GPa)
#
#
# Indices 1 2 3 4 5 6 
#
# 1 0.008554 -0.001922 -0.006868 0.000000 0.000000 0.000000
# 2 -0.001922 0.035284 -0.002089 0.000000 0.000000 0.000000
# 3 -0.006868 -0.002089 0.013981 0.000000 0.000000 0.000000
# 4 0.000000 0.000000 0.000000 0.003330 0.000000 0.000000
# 5 0.000000 0.000000 0.000000 0.000000 0.008965 0.000000
# 6 0.000000 0.000000 0.000000 0.000000 0.000000 0.051989
#
#
# Mechanical properties :
#
#
# Convention : Reuss Voigt Hill
#
# Bulk Modulus (GPa) = 27.73066 68.96860 48.34963
# Shear Modulus (GPa) = 32.07517 101.16051 66.61784
#
# Velocity S-wave (km/s) = 3.35903 5.96534 4.84088
# Velocity P-wave (km/s) = 4.97985 8.46806 6.94647
#
# Compressibility (1/GPa) = 0.03606116
#
# Stress axis : x y z
#
# Youngs Moduli (GPa) = 116.89952 28.34126 71.52490
#
# Poissons Ratio (x) = 0.05447 0.49125
# Poissons Ratio (y) = 0.22468 0.14942
# Poissons Ratio (z) = 0.80289 0.05921
#
# Static dielectric constant tensor:
#      x y z
#    x 2.197290 0.000000 0.000000 
#    y 0.000000 2.148780 0.000000 
#    z 0.000000 0.000000 2.273890 
# 
# From -- ./inp_files/2538.got.cif
#   From: 2010.05.17/outbox.cif.g08.bks.cpg/sg29_2_cif.got.tgz:2538.got - 2010.06.04 01:19:37.
