data_PCOD9340287
_publ_section_title
;
Structure prediction by ZEFSAII (Michael W. Deem and Ramdas Pophale) SiO2 
 PCOD9340287
Probable space group: P C A 21
;
_chemical_formula_sum "Si O2"
_cell_formula_units_Z 32
_cell_length_a 8.924444
_cell_length_b 11.008077
_cell_length_c 14.149890
_cell_angle_alpha 90.000000
_cell_angle_beta 90.000000
_cell_angle_gamma 90.000000
_cell_volume 1390.098873
_symmetry_space_group_name_H-M "P C A 21"
_symmetry_group_IT_number 29
_symmetry_cell_setting 'orthorhombic'
loop_
_space_group_symop_operation_xyz
x,y,z
-x,-y,1/2+z
1/2-x,y,1/2+z
1/2+x,-y,z
loop_
_atom_site_type_symbol
_atom_site_label
_atom_site_fract_x
_atom_site_fract_y
_atom_site_fract_z
Si Si1 0.935906 0.000866 0.932770
Si Si2 0.689675 0.834272 0.964950
Si Si3 0.092072 0.514118 0.591798
Si Si4 0.155534 0.670837 0.012534
Si Si5 0.315991 0.119217 0.237624
Si Si6 0.171842 0.831574 0.844658
Si Si7 0.837599 0.135712 0.675076
Si Si8 0.167357 0.333971 0.131485
O O1 0.051634 0.078694 0.993966
O O2 0.813322 0.093141 0.890096
O O3 0.033392 0.926917 0.854241
O O4 0.844475 0.900719 0.990723
O O5 0.686254 0.845348 0.850299
O O6 0.675852 0.709061 0.020723
O O7 0.192189 0.593652 0.520528
O O8 0.208971 0.435564 0.650293
O O9 0.977318 0.416773 0.546935
O O10 0.991759 0.607839 0.649100
O O11 0.169647 0.793708 0.076096
O O12 0.127984 0.719652 0.908902
O O13 0.488291 0.129464 0.204375
O O14 0.209929 0.218025 0.190173
O O15 0.244682 0.992524 0.199318
O O16 0.237662 0.784798 0.747031
#
# Coordination Sequence:
#
# PCOD9340287 Si02
#       8
#     4   4   4   4   4   4   4   4
#     4  10  20  34  58  94 142 162 194 264 316 396
#     4  11  21  40  61  98 135 173 206 266 324 401
#     4  10  24  50  62  96 126 172 240 284 300 388
#     4  11  25  43  72  89 133 178 221 276 334 372
#     4  12  25  41  66 106 138 170 214 266 341 413
#     4  11  21  40  61  98 135 173 206 266 324 401
#     4  12  25  41  66 106 138 170 214 266 341 413
#     4  11  25  43  72  89 133 178 221 276 334 372
#
# _framework density 23.019946000000001
#
# number of rings (size 3 to 8) (size 9 to 14) (size 15 to 20)
#    0.000    1.000    5.000    1.500    5.250    0.000 
#    0.000    7.500    0.000    0.000    0.000    0.000 
#    0.000    0.000    0.000    0.000    0.000    0.000 
#
# Total GULP energy -178788.732732 kJ/mol
# GULP energy per Si atom -5587.147898 kJ/mol
# Density = 2.296755 g / cm^3
# Si number density = 23.019946 Si / 1000 Ang^3
#
#
#
# Elastic Constant Matrix: (Units=GPa)
#
#
# Indices 1 2 3 4 5 6 
#
# 1 128.2463 35.6877 8.9116 0.0000 0.0000 0.0000
# 2 35.6877 90.4730 24.6495 0.0000 0.0000 0.0000
# 3 8.9116 24.6495 72.1904 0.0000 0.0000 0.0000
# 4 0.0000 0.0000 0.0000 17.6615 0.0000 0.0000
# 5 0.0000 0.0000 0.0000 0.0000 20.0987 0.0000
# 6 0.0000 0.0000 0.0000 0.0000 0.0000 46.0569
#
#
#
# Elastic Compliance Matrix: (Units=1/GPa)
#
#
# Indices 1 2 3 4 5 6 
#
# 1 0.008760 -0.003485 0.000109 0.000000 0.000000 0.000000
# 2 -0.003485 0.013573 -0.004204 0.000000 0.000000 0.000000
# 3 0.000109 -0.004204 0.015274 0.000000 0.000000 0.000000
# 4 0.000000 0.000000 0.000000 0.056620 0.000000 0.000000
# 5 0.000000 0.000000 0.000000 0.000000 0.049754 0.000000
# 6 0.000000 0.000000 0.000000 0.000000 0.000000 0.021712
#
#
# Mechanical properties :
#
#
# Convention : Reuss Voigt Hill
#
# Bulk Modulus (GPa) = 44.55158 47.71194 46.13176
# Shear Modulus (GPa) = 26.54804 31.54081 29.04442
#
# Velocity S-wave (km/s) = 3.39966 3.70557 3.55590
# Velocity P-wave (km/s) = 5.89964 6.25137 6.07805
#
# Compressibility (1/GPa) = 0.02244589
#
# Stress axis : x y z
#
# Youngs Moduli (GPa) = 114.15898 73.67488 65.46883
#
# Poissons Ratio (x) = 0.25675 -0.00711
# Poissons Ratio (y) = 0.39783 0.27526
# Poissons Ratio (z) = -0.01239 0.30976
#
# Static dielectric constant tensor:
#      x y z
#    x 1.874890 0.000000 0.000000 
#    y 0.000000 1.874010 0.000000 
#    z 0.000000 0.000000 1.922870 
# 
# From -- ./inp_files/4273.got.cif
#   From: 2010.05.17/outbox.cif.g08.bks.cpg/sg29_3_cif.got.tgz:4273.got - 2010.06.04 01:19:37.
