data_PCOD9340434
_publ_section_title
;
Structure prediction by ZEFSAII (Michael W. Deem and Ramdas Pophale) SiO2 
 PCOD9340434
Probable space group: P C A 21
;
_chemical_formula_sum "Si O2"
_cell_formula_units_Z 20
_cell_length_a 16.742951
_cell_length_b 5.247603
_cell_length_c 8.817284
_cell_angle_alpha 90.000000
_cell_angle_beta 90.000000
_cell_angle_gamma 90.000000
_cell_volume 774.689746
_symmetry_space_group_name_H-M "P C A 21"
_symmetry_group_IT_number 29
_symmetry_cell_setting 'orthorhombic'
loop_
_space_group_symop_operation_xyz
x,y,z
-x,-y,1/2+z
1/2-x,y,1/2+z
1/2+x,-y,z
loop_
_atom_site_type_symbol
_atom_site_label
_atom_site_fract_x
_atom_site_fract_y
_atom_site_fract_z
Si Si1 0.250000 0.883752 0.837640
Si Si2 0.250000 0.226785 0.594154
Si Si3 0.113572 0.531685 0.263173
Si Si4 0.000000 0.500001 0.014953
Si Si5 0.613572 0.468317 0.763173
O O1 0.330657 0.725973 0.855982
O O2 0.169343 0.725973 0.855980
O O3 0.250001 0.939918 0.657959
O O4 0.250000 0.158618 0.918068
O O5 0.327694 0.362353 0.660663
O O6 0.172306 0.362349 0.660663
O O7 0.062232 0.384563 0.392205
O O8 0.053534 0.654346 0.137566
O O9 0.062233 0.384564 0.892206
O O10 0.946467 0.345656 0.137565
#
# Coordination Sequence:
#
# PCOD9340434 Si02
#       5
#     4   4   4   4   4
#     4  11  22  39  64  92 122 165 215 263 313 376
#     4  11  22  39  64  92 122 165 215 263 313 376
#     4  10  22  40  62  90 126 166 214 262 316 384
#     4  10  20  40  62  86 128 170 204 262 326 376
#     4  10  22  40  62  90 126 166 214 262 316 384
#
# _framework density 25.816789
#
# number of rings (size 3 to 8) (size 9 to 14) (size 15 to 20)
#    0.000    1.600    0.000    4.800    0.000    6.400 
#    0.000   30.000    0.000    0.000    0.000    0.000 
#    0.000    0.000    0.000    0.000    0.000    0.000 
#
# Total GULP energy -111346.369985 kJ/mol
# GULP energy per Si atom -5567.318499 kJ/mol
# Density = 2.575803 g / cm^3
# Si number density = 25.816789 Si / 1000 Ang^3
#
#
#
# Elastic Constant Matrix: (Units=GPa)
#
#
# Indices 1 2 3 4 5 6 
#
# 1 153.3223 32.5026 92.3067 0.0000 0.0000 0.0000
# 2 32.5026 46.6511 29.5801 0.0000 0.0000 0.0000
# 3 92.3067 29.5801 172.6505 0.0000 0.0000 0.0000
# 4 0.0000 0.0000 0.0000 53.1732 0.0000 0.0000
# 5 0.0000 0.0000 0.0000 0.0000 48.5761 0.0000
# 6 0.0000 0.0000 0.0000 0.0000 0.0000 -2.5710
#
#
#
# Elastic Compliance Matrix: (Units=1/GPa)
#
#
# Indices 1 2 3 4 5 6 
#
# 1 0.010280 -0.004126 -0.004789 0.000000 0.000000 0.000000
# 2 -0.004126 0.025704 -0.002198 0.000000 0.000000 0.000000
# 3 -0.004789 -0.002198 0.008729 0.000000 0.000000 0.000000
# 4 0.000000 0.000000 0.000000 0.018806 0.000000 0.000000
# 5 0.000000 0.000000 0.000000 0.000000 0.020586 0.000000
# 6 0.000000 0.000000 0.000000 0.000000 0.000000 -0.388951
#
#
# Mechanical properties :
#
#
# Convention : Reuss Voigt Hill
#
# Bulk Modulus (GPa) = 44.46989 75.71143 60.09066
# Shear Modulus (GPa) = -18.17367 34.38463 8.10548
#
# Velocity S-wave (km/s) = -2.65608 3.65344 1.77382
# Velocity P-wave (km/s) = 2.80290 6.86927 5.24610
#
# Compressibility (1/GPa) = 0.02248712
#
# Stress axis : x y z
#
# Youngs Moduli (GPa) = 97.27404 38.90469 114.55672
#
# Poissons Ratio (x) = 0.16050 0.54866
# Poissons Ratio (y) = 0.40131 0.25181
# Poissons Ratio (z) = 0.46589 0.08552
#
# Static dielectric constant tensor:
#      x y z
#    x 2.101860 0.000000 0.000000 
#    y 0.000000 1.985900 0.000000 
#    z 0.000000 0.000000 1.996760 
# 
# From -- ./inp_files/1952.got.cif
#   From: 2010.05.17/outbox.cif.g08.bks.cpg/sg29_1_cif.got.tgz:1952.got - 2010.06.04 01:19:37.
