data_PCOD9340737
_publ_section_title
;
Structure prediction by ZEFSAII (Michael W. Deem and Ramdas Pophale) SiO2 
 PCOD9340737
Probable space group: P C A 21
;
_chemical_formula_sum "Si O2"
_cell_formula_units_Z 28
_cell_length_a 9.060267
_cell_length_b 7.413796
_cell_length_c 16.114038
_cell_angle_alpha 90.000000
_cell_angle_beta 90.000000
_cell_angle_gamma 90.000000
_cell_volume 1082.395583
_symmetry_space_group_name_H-M "P C A 21"
_symmetry_group_IT_number 29
_symmetry_cell_setting 'orthorhombic'
loop_
_space_group_symop_operation_xyz
x,y,z
-x,-y,1/2+z
1/2-x,y,1/2+z
1/2+x,-y,z
loop_
_atom_site_type_symbol
_atom_site_label
_atom_site_fract_x
_atom_site_fract_y
_atom_site_fract_z
Si Si1 0.414176 0.921898 0.058290
Si Si2 0.432143 0.450577 0.171577
Si Si3 0.864509 0.174070 0.239765
Si Si4 0.004358 0.104026 0.399523
Si Si5 0.671568 0.677752 0.067497
Si Si6 0.569857 0.239618 0.320875
Si Si7 0.246827 0.625399 0.957734
O O1 0.378099 0.942155 0.155832
O O2 0.588356 0.867218 0.060803
O O3 0.330086 0.738449 0.029526
O O4 0.393017 0.060946 0.981037
O O5 0.346662 0.618688 0.212190
O O6 0.563783 0.546019 0.121046
O O7 0.327336 0.334418 0.112943
O O8 0.490863 0.325294 0.244058
O O9 0.005184 0.172143 0.302383
O O10 0.715717 0.129835 0.290181
O O11 0.887911 0.245064 0.435091
O O12 0.970144 0.896020 0.374143
O O13 0.693353 0.569835 0.982807
O O14 0.638506 0.385835 0.382685
#
# Coordination Sequence:
#
# PCOD9340737 Si02
#       7
#     4   4   4   4   4   4   4
#     4  10  22  44  66 100 137 176 233 282 342 416
#     4  11  21  43  70 100 128 178 233 286 348 403
#     4  10  21  43  67  94 141 177 226 294 336 405
#     4  10  24  42  63  97 134 186 223 273 347 407
#     4  11  21  43  71 100 128 179 232 286 346 408
#     4  10  22  42  65  96 136 177 233 279 349 414
#     4  10  21  43  66  93 140 173 226 288 344 401
#
# _framework density 25.868544
#
# number of rings (size 3 to 8) (size 9 to 14) (size 15 to 20)
#    0.000    1.714    4.286    0.000    0.000    6.857 
#   25.714    0.000    0.000    0.000    0.000    0.000 
#    0.000    0.000    0.000    0.000    0.000    0.000 
#
# Total GULP energy -156310.725762 kJ/mol
# GULP energy per Si atom -5582.525920 kJ/mol
# Density = 2.580967 g / cm^3
# Si number density = 25.868544 Si / 1000 Ang^3
#
#
#
# Elastic Constant Matrix: (Units=GPa)
#
#
# Indices 1 2 3 4 5 6 
#
# 1 44.6940 17.1258 20.7349 0.0000 0.0000 0.0000
# 2 17.1258 73.4097 23.1077 0.0000 0.0000 0.0000
# 3 20.7349 23.1077 154.7653 0.0000 0.0000 0.0000
# 4 0.0000 0.0000 0.0000 40.7133 0.0000 0.0000
# 5 0.0000 0.0000 0.0000 0.0000 43.7044 0.0000
# 6 0.0000 0.0000 0.0000 0.0000 0.0000 38.7755
#
#
#
# Elastic Compliance Matrix: (Units=1/GPa)
#
#
# Indices 1 2 3 4 5 6 
#
# 1 0.025574 -0.005129 -0.002661 0.000000 0.000000 0.000000
# 2 -0.005129 0.015322 -0.001601 0.000000 0.000000 0.000000
# 3 -0.002661 -0.001601 0.007057 0.000000 0.000000 0.000000
# 4 0.000000 0.000000 0.000000 0.024562 0.000000 0.000000
# 5 0.000000 0.000000 0.000000 0.000000 0.022881 0.000000
# 6 0.000000 0.000000 0.000000 0.000000 0.000000 0.025789
#
#
# Mechanical properties :
#
#
# Convention : Reuss Voigt Hill
#
# Bulk Modulus (GPa) = 34.27768 43.86729 39.07248
# Shear Modulus (GPa) = 33.40240 38.76536 36.08388
#
# Velocity S-wave (km/s) = 3.59728 3.87531 3.73888
# Velocity P-wave (km/s) = 5.52570 6.08430 5.81171
#
# Compressibility (1/GPa) = 0.02917351
#
# Stress axis : x y z
#
# Youngs Moduli (GPa) = 39.10239 65.26358 141.70657
#
# Poissons Ratio (x) = 0.33471 0.37702
# Poissons Ratio (y) = 0.20054 0.22682
# Poissons Ratio (z) = 0.10403 0.10446
#
# Static dielectric constant tensor:
#      x y z
#    x 2.166530 0.000000 0.000000 
#    y 0.000000 2.046500 0.000000 
#    z 0.000000 0.000000 2.095340 
# 
# From -- ./inp_files/5006.got.cif
#   From: 2010.05.17/outbox.cif.g08.bks.cpg/sg29_3_cif.got.tgz:5006.got - 2010.06.04 01:19:37.
