data_PCOD9340949
_publ_section_title
;
Structure prediction by ZEFSAII (Michael W. Deem and Ramdas Pophale) SiO2 
 PCOD9340949
Probable space group: P C A 21
;
_chemical_formula_sum "Si O2"
_cell_formula_units_Z 28
_cell_length_a 13.793323
_cell_length_b 11.884000
_cell_length_c 7.596025
_cell_angle_alpha 90.000000
_cell_angle_beta 90.000000
_cell_angle_gamma 90.000000
_cell_volume 1245.139283
_symmetry_space_group_name_H-M "P C A 21"
_symmetry_group_IT_number 29
_symmetry_cell_setting 'orthorhombic'
loop_
_space_group_symop_operation_xyz
x,y,z
-x,-y,1/2+z
1/2-x,y,1/2+z
1/2+x,-y,z
loop_
_atom_site_type_symbol
_atom_site_label
_atom_site_fract_x
_atom_site_fract_y
_atom_site_fract_z
Si Si1 0.883941 0.690973 0.875000
Si Si2 0.515537 0.883344 0.862968
Si Si3 0.824332 0.708003 0.276346
Si Si4 0.551072 0.138011 0.961769
Si Si5 0.178207 0.683862 0.079600
Si Si6 0.391921 0.691927 0.979445
Si Si7 0.919275 0.546530 0.546689
O O1 0.787385 0.741049 0.785533
O O2 0.902252 0.583881 0.749574
O O3 0.859426 0.672442 0.081354
O O4 0.971231 0.779790 0.875226
O O5 0.612313 0.809979 0.849309
O O6 0.472237 0.873893 0.668343
O O7 0.444048 0.815180 0.996463
O O8 0.541174 0.012125 0.894601
O O9 0.845991 0.608973 0.413675
O O10 0.651966 0.206190 0.963952
O O11 0.144273 0.693429 0.279538
O O12 0.107599 0.582722 0.016527
O O13 0.293331 0.665135 0.082069
O O14 0.475082 0.598329 0.006562
#
# Coordination Sequence:
#
# PCOD9340949 Si02
#       7
#     4   4   4   4   4   4   4
#     4  11  23  41  69 103 135 183 230 288 353 417
#     4   9  22  44  66  95 141 177 236 297 349 423
#     4  10  22  42  67 106 134 177 245 282 348 429
#     4  10  24  42  68  98 137 186 235 291 358 416
#     4  11  27  45  69 107 142 183 244 287 352 441
#     4  10  26  47  67 105 140 186 235 293 359 414
#     4  11  26  45  72  98 149 186 227 294 351 420
#
# _framework density 22.487442999999999
#
# number of rings (size 3 to 8) (size 9 to 14) (size 15 to 20)
#    0.000    1.714    1.429    0.857   10.000    1.143 
#    2.571    5.714    0.000    0.000    0.000    0.000 
#    0.000    0.000    0.000    0.000    0.000    0.000 
#
# Total GULP energy -156389.801417 kJ/mol
# GULP energy per Si atom -5585.350051 kJ/mol
# Density = 2.243626 g / cm^3
# Si number density = 22.487443 Si / 1000 Ang^3
#
#
#
# Elastic Constant Matrix: (Units=GPa)
#
#
# Indices 1 2 3 4 5 6 
#
# 1 115.9314 28.5904 14.0271 0.0000 0.0000 0.0000
# 2 28.5904 125.0489 24.9341 0.0000 0.0000 0.0000
# 3 14.0271 24.9341 85.8569 0.0000 0.0000 0.0000
# 4 0.0000 0.0000 0.0000 33.0748 0.0000 0.0000
# 5 0.0000 0.0000 0.0000 0.0000 34.2991 0.0000
# 6 0.0000 0.0000 0.0000 0.0000 0.0000 6.6833
#
#
#
# Elastic Compliance Matrix: (Units=1/GPa)
#
#
# Indices 1 2 3 4 5 6 
#
# 1 0.009213 -0.001917 -0.000948 0.000000 0.000000 0.000000
# 2 -0.001917 0.008887 -0.002268 0.000000 0.000000 0.000000
# 3 -0.000948 -0.002268 0.012461 0.000000 0.000000 0.000000
# 4 0.000000 0.000000 0.000000 0.030235 0.000000 0.000000
# 5 0.000000 0.000000 0.000000 0.000000 0.029155 0.000000
# 6 0.000000 0.000000 0.000000 0.000000 0.000000 0.149626
#
#
# Mechanical properties :
#
#
# Convention : Reuss Voigt Hill
#
# Bulk Modulus (GPa) = 49.27447 51.32671 50.30059
# Shear Modulus (GPa) = 19.48486 32.09713 25.79100
#
# Velocity S-wave (km/s) = 2.94679 3.78211 3.39028
# Velocity P-wave (km/s) = 5.79117 6.47662 6.14346
#
# Compressibility (1/GPa) = 0.02029449
#
# Stress axis : x y z
#
# Youngs Moduli (GPa) = 108.53758 112.51835 80.25143
#
# Poissons Ratio (x) = 0.21574 0.07611
# Poissons Ratio (y) = 0.20811 0.18199
# Poissons Ratio (z) = 0.10294 0.25517
#
# Static dielectric constant tensor:
#      x y z
#    x 1.864300 0.000000 0.000000 
#    y 0.000000 1.852140 0.000000 
#    z 0.000000 0.000000 1.868890 
# 
# From -- ./inp_files/1809.got.cif
#   From: 2010.05.17/outbox.cif.g08.bks.cpg/sg29_1_cif.got.tgz:1809.got - 2010.06.04 01:19:37.
