data_PCOD9340427
_publ_section_title
;
Structure prediction by ZEFSAII (Michael W. Deem and Ramdas Pophale) SiO2 
 PCOD9340427
Probable space group: P C A 21
;
_chemical_formula_sum "Si O2"
_cell_formula_units_Z 32
_cell_length_a 14.988864
_cell_length_b 7.793303
_cell_length_c 12.667813
_cell_angle_alpha 90.000000
_cell_angle_beta 90.000000
_cell_angle_gamma 90.000000
_cell_volume 1479.762184
_symmetry_space_group_name_H-M "P C A 21"
_symmetry_group_IT_number 29
_symmetry_cell_setting 'orthorhombic'
loop_
_space_group_symop_operation_xyz
x,y,z
-x,-y,1/2+z
1/2-x,y,1/2+z
1/2+x,-y,z
loop_
_atom_site_type_symbol
_atom_site_label
_atom_site_fract_x
_atom_site_fract_y
_atom_site_fract_z
Si Si1 0.195657 0.887842 0.306000
Si Si2 0.815455 0.779056 0.933732
Si Si3 0.764704 0.578384 0.248875
Si Si4 0.004047 0.372918 0.519444
Si Si5 0.883038 0.289509 0.316944
Si Si6 0.800844 0.886496 0.620287
Si Si7 0.402259 0.616290 0.719656
Si Si8 0.013327 0.296354 0.151974
O O1 0.160761 0.061952 0.357997
O O2 0.204861 0.935272 0.181623
O O3 0.291328 0.813541 0.341112
O O4 0.119896 0.742950 0.313712
O O5 0.774804 0.626488 0.863410
O O6 0.739520 0.863925 0.005811
O O7 0.899982 0.706627 0.995794
O O8 0.853255 0.472945 0.267234
O O9 0.762080 0.755611 0.187351
O O10 0.695809 0.454292 0.187296
O O11 0.939381 0.325533 0.422204
O O12 0.957628 0.299699 0.625558
O O13 0.009713 0.576097 0.553868
O O14 0.936747 0.203671 0.218982
O O15 0.902452 0.819578 0.623231
O O16 0.451075 0.436053 0.739345
#
# Coordination Sequence:
#
# PCOD9340427 Si02
#       8
#     4   4   4   4   4   4   4   4
#     4  10  23  39  61  86 132 166 198 255 321 386
#     4  11  22  39  61  91 127 168 201 252 315 386
#     4   9  19  36  62  87 120 157 201 258 307 364
#     4  10  21  37  65  90 117 161 216 260 301 370
#     4  11  20  39  62  93 118 162 208 254 314 371
#     4  10  20  40  59  88 125 165 201 248 321 369
#     4   8  19  39  60  83 116 162 196 264 305 351
#     4   9  20  39  66  88 119 157 211 275 290 363
#
# _framework density 21.625095000000002
#
# number of rings (size 3 to 8) (size 9 to 14) (size 15 to 20)
#    0.750    1.500    0.000    3.750    1.750    0.000 
#    4.500    1.250    0.000    0.000    0.000    0.000 
#    0.000    0.000    0.000    0.000    0.000    0.000 
#
# Total GULP energy -178141.541275 kJ/mol
# GULP energy per Si atom -5566.923165 kJ/mol
# Density = 2.157588 g / cm^3
# Si number density = 21.625095 Si / 1000 Ang^3
#
#
#
# Elastic Constant Matrix: (Units=GPa)
#
#
# Indices 1 2 3 4 5 6 
#
# 1 68.6390 -7.4094 23.8293 0.0000 0.0000 0.0000
# 2 -7.4094 44.8386 0.0829 0.0000 0.0000 0.0000
# 3 23.8293 0.0829 54.6030 0.0000 0.0000 0.0000
# 4 0.0000 0.0000 0.0000 25.1352 0.0000 0.0000
# 5 0.0000 0.0000 0.0000 0.0000 35.3401 0.0000
# 6 0.0000 0.0000 0.0000 0.0000 0.0000 20.6563
#
#
#
# Elastic Compliance Matrix: (Units=1/GPa)
#
#
# Indices 1 2 3 4 5 6 
#
# 1 0.017543 0.002913 -0.007660 0.000000 0.000000 0.000000
# 2 0.002913 0.022786 -0.001306 0.000000 0.000000 0.000000
# 3 -0.007660 -0.001306 0.021659 0.000000 0.000000 0.000000
# 4 0.000000 0.000000 0.000000 0.039785 0.000000 0.000000
# 5 0.000000 0.000000 0.000000 0.000000 0.028296 0.000000
# 6 0.000000 0.000000 0.000000 0.000000 0.000000 0.048411
#
#
# Mechanical properties :
#
#
# Convention : Reuss Voigt Hill
#
# Bulk Modulus (GPa) = 20.04747 22.34291 21.19519
# Shear Modulus (GPa) = 24.12965 26.33151 25.23058
#
# Velocity S-wave (km/s) = 3.34401 3.49325 3.41944
# Velocity P-wave (km/s) = 4.91939 5.15992 5.04109
#
# Compressibility (1/GPa) = 0.04988161
#
# Stress axis : x y z
#
# Youngs Moduli (GPa) = 57.00328 43.88663 46.17011
#
# Poissons Ratio (x) = -0.12784 0.35368
# Poissons Ratio (y) = -0.16605 0.06029
# Poissons Ratio (z) = 0.43666 0.05731
#
# Static dielectric constant tensor:
#      x y z
#    x 1.843360 0.000000 0.000000 
#    y 0.000000 1.825800 0.000000 
#    z 0.000000 0.000000 1.856240 
# 
# From -- ./inp_files/4742.got.cif
#   From: 2010.05.17/outbox.cif.g08.bks.cpg/sg29_3_cif.got.tgz:4742.got - 2010.06.04 01:19:37.
