data_PCOD9340099
_publ_section_title
;
Structure prediction by ZEFSAII (Michael W. Deem and Ramdas Pophale) SiO2 
 PCOD9340099
Probable space group: P C A 21
;
_chemical_formula_sum "Si O2"
_cell_formula_units_Z 32
_cell_length_a 25.810946
_cell_length_b 8.956214
_cell_length_c 5.691188
_cell_angle_alpha 90.000000
_cell_angle_beta 90.000000
_cell_angle_gamma 90.000000
_cell_volume 1315.622573
_symmetry_space_group_name_H-M "P C A 21"
_symmetry_group_IT_number 29
_symmetry_cell_setting 'orthorhombic'
loop_
_space_group_symop_operation_xyz
x,y,z
-x,-y,1/2+z
1/2-x,y,1/2+z
1/2+x,-y,z
loop_
_atom_site_type_symbol
_atom_site_label
_atom_site_fract_x
_atom_site_fract_y
_atom_site_fract_z
Si Si1 0.727441 0.236059 0.644140
Si Si2 0.523293 0.942331 0.930984
Si Si3 0.625182 0.027598 0.178847
Si Si4 0.564276 0.579482 0.975836
Si Si5 0.264690 0.106663 0.686534
Si Si6 0.935944 0.234280 0.020434
Si Si7 0.870638 0.304605 0.393412
Si Si8 0.049040 0.431017 0.468621
O O1 0.746717 0.289540 0.389823
O O2 0.735031 0.055219 0.656846
O O3 0.668574 0.288472 0.678171
O O4 0.495752 0.781875 0.953638
O O5 0.506679 0.986067 0.663442
O O6 0.583194 0.954686 0.002411
O O7 0.674208 0.924454 0.221957
O O8 0.593706 0.098900 0.395627
O O9 0.649067 0.181662 0.074097
O O10 0.614415 0.467015 0.975833
O O11 0.512436 0.470875 0.980444
O O12 0.567208 0.641765 0.710396
O O13 0.564407 0.653456 0.233333
O O14 0.256148 0.178215 0.428542
O O15 0.924536 0.404834 0.952386
O O16 0.924426 0.233635 0.295962
#
# Coordination Sequence:
#
# PCOD9340099 Si02
#       8
#     4   4   4   4   4   4   4   4
#     4  10  19  28  40  61  83 109 141 173 207 261
#     4  10  21  31  42  63  88 114 154 180 208 257
#     4  11  19  29  45  61  89 118 148 176 217 259
#     4   9  18  28  41  65  81 111 142 172 202 251
#     4  10  19  29  42  60  83 110 142 176 214 258
#     4  10  19  30  45  63  87 123 149 177 216 253
#     4  11  18  28  46  60  88 118 145 170 222 255
#     4   9  17  29  43  59  87 107 143 174 204 240
#
# _framework density 24.323084999999999
#
# number of rings (size 3 to 8) (size 9 to 14) (size 15 to 20)
#    0.000    2.000    5.000    1.500    0.000    0.000 
#    0.000    0.000    0.000    0.000    0.000    0.000 
#    0.000    2.000    0.000    0.000    0.000    3.625 
#
# Total GULP energy -178175.787522 kJ/mol
# GULP energy per Si atom -5567.993360 kJ/mol
# Density = 2.426772 g / cm^3
# Si number density = 24.323085 Si / 1000 Ang^3
#
#
#
# Elastic Constant Matrix: (Units=GPa)
#
#
# Indices 1 2 3 4 5 6 
#
# 1 78.6683 -2.9661 24.7441 0.0000 0.0000 0.0000
# 2 -2.9661 17.6077 21.1305 0.0000 0.0000 0.0000
# 3 24.7441 21.1305 193.4238 0.0000 0.0000 0.0000
# 4 0.0000 0.0000 0.0000 21.0581 0.0000 0.0000
# 5 0.0000 0.0000 0.0000 0.0000 42.9368 0.0000
# 6 0.0000 0.0000 0.0000 0.0000 0.0000 15.2563
#
#
#
# Elastic Compliance Matrix: (Units=1/GPa)
#
#
# Indices 1 2 3 4 5 6 
#
# 1 0.013624 0.005048 -0.002294 0.000000 0.000000 0.000000
# 2 0.005048 0.067233 -0.007991 0.000000 0.000000 0.000000
# 3 -0.002294 -0.007991 0.006336 0.000000 0.000000 0.000000
# 4 0.000000 0.000000 0.000000 0.047488 0.000000 0.000000
# 5 0.000000 0.000000 0.000000 0.000000 0.023290 0.000000
# 6 0.000000 0.000000 0.000000 0.000000 0.000000 0.065547
#
#
# Mechanical properties :
#
#
# Convention : Reuss Voigt Hill
#
# Bulk Modulus (GPa) = 13.03444 41.72409 27.37926
# Shear Modulus (GPa) = 19.26304 32.30298 25.78301
#
# Velocity S-wave (km/s) = 2.81724 3.64824 3.25933
# Velocity P-wave (km/s) = 3.99412 5.91080 5.04433
#
# Compressibility (1/GPa) = 0.07671982
#
# Stress axis : x y z
#
# Youngs Moduli (GPa) = 73.40203 14.87362 157.81726
#
# Poissons Ratio (x) = -0.07509 0.36208
# Poissons Ratio (y) = -0.37056 1.26107
# Poissons Ratio (z) = 0.16841 0.11885
#
# Static dielectric constant tensor:
#      x y z
#    x 2.054810 0.000000 0.000000 
#    y 0.000000 2.069020 0.000000 
#    z 0.000000 0.000000 2.071250 
# 
# From -- ./inp_files/582.got.cif
#   From: 2010.05.17/outbox.cif.g08.bks.cpg/sg29_1_cif.got.tgz:582.got - 2010.06.04 01:19:37.
