data_PCOD9340261
_publ_section_title
;
Structure prediction by ZEFSAII (Michael W. Deem and Ramdas Pophale) SiO2 
 PCOD9340261
Probable space group: P C A 21
;
_chemical_formula_sum "Si O2"
_cell_formula_units_Z 32
_cell_length_a 9.210104
_cell_length_b 12.155307
_cell_length_c 14.035263
_cell_angle_alpha 90.000000
_cell_angle_beta 90.000000
_cell_angle_gamma 90.000000
_cell_volume 1571.270733
_symmetry_space_group_name_H-M "P C A 21"
_symmetry_group_IT_number 29
_symmetry_cell_setting 'orthorhombic'
loop_
_space_group_symop_operation_xyz
x,y,z
-x,-y,1/2+z
1/2-x,y,1/2+z
1/2+x,-y,z
loop_
_atom_site_type_symbol
_atom_site_label
_atom_site_fract_x
_atom_site_fract_y
_atom_site_fract_z
Si Si1 0.439914 0.773464 0.185990
Si Si2 0.859036 0.931369 0.809116
Si Si3 0.956138 0.850774 0.999750
Si Si4 0.787183 0.699812 0.590160
Si Si5 0.940635 0.354737 0.377786
Si Si6 0.369991 0.855906 0.687357
Si Si7 0.130723 0.262068 0.784688
Si Si8 0.744108 0.556256 0.921931
O O1 0.522077 0.872748 0.241124
O O2 0.547395 0.735063 0.103464
O O3 0.428615 0.683095 0.269138
O O4 0.280057 0.803641 0.153773
O O5 0.919526 0.937050 0.916630
O O6 0.721082 0.848679 0.811342
O O7 0.828730 0.045738 0.758607
O O8 0.043129 0.752421 0.945634
O O9 0.808185 0.793167 0.037087
O O10 0.040134 0.891457 0.093278
O O11 0.718023 0.690064 0.694349
O O12 0.770039 0.588781 0.531890
O O13 0.810673 0.434861 0.403527
O O14 0.091674 0.420074 0.390669
O O15 0.473412 0.773264 0.746797
O O16 0.145696 0.352884 0.866301
#
# Coordination Sequence:
#
# PCOD9340261 Si02
#       8
#     4   4   4   4   4   4   4   4
#     4  10  21  42  59  92 135 156 212 274 318 375
#     4  10  19  44  65  85 129 173 208 263 330 375
#     4   9  20  43  64  91 129 166 212 270 313 389
#     4   9  18  41  65  82 122 175 200 256 327 379
#     4  10  22  41  63  89 131 168 210 273 323 379
#     4  11  23  37  65 100 123 168 215 266 316 390
#     4  10  20  41  64  88 130 165 215 265 319 386
#     4  11  21  41  65  93 123 177 212 259 330 381
#
# _framework density 20.365683000000001
#
# number of rings (size 3 to 8) (size 9 to 14) (size 15 to 20)
#    0.000    2.000    5.000    0.750    1.750    1.000 
#   15.750    6.250    0.000    0.000    0.000    0.000 
#    0.000    0.000    0.000    0.000    0.000    0.000 
#
# Total GULP energy -178678.254821 kJ/mol
# GULP energy per Si atom -5583.695463 kJ/mol
# Density = 2.031933 g / cm^3
# Si number density = 20.365683 Si / 1000 Ang^3
#
#
#
# Elastic Constant Matrix: (Units=GPa)
#
#
# Indices 1 2 3 4 5 6 
#
# 1 57.7879 3.7588 -5.6625 0.0000 0.0000 0.0000
# 2 3.7588 45.7057 17.3301 0.0000 0.0000 0.0000
# 3 -5.6625 17.3301 69.7437 0.0000 0.0000 0.0000
# 4 0.0000 0.0000 0.0000 11.9065 0.0000 0.0000
# 5 0.0000 0.0000 0.0000 0.0000 10.9198 0.0000
# 6 0.0000 0.0000 0.0000 0.0000 0.0000 12.3025
#
#
#
# Elastic Compliance Matrix: (Units=1/GPa)
#
#
# Indices 1 2 3 4 5 6 
#
# 1 0.017642 -0.002201 0.001979 0.000000 0.000000 0.000000
# 2 -0.002201 0.024430 -0.006249 0.000000 0.000000 0.000000
# 3 0.001979 -0.006249 0.016052 0.000000 0.000000 0.000000
# 4 0.000000 0.000000 0.000000 0.083987 0.000000 0.000000
# 5 0.000000 0.000000 0.000000 0.000000 0.091577 0.000000
# 6 0.000000 0.000000 0.000000 0.000000 0.000000 0.081284
#
#
# Mechanical properties :
#
#
# Convention : Reuss Voigt Hill
#
# Bulk Modulus (GPa) = 22.13323 22.67668 22.40495
# Shear Modulus (GPa) = 14.57836 17.54649 16.06243
#
# Velocity S-wave (km/s) = 2.67840 2.93844 2.81143
# Velocity P-wave (km/s) = 4.52290 4.76146 4.64371
#
# Compressibility (1/GPa) = 0.04518094
#
# Stress axis : x y z
#
# Youngs Moduli (GPa) = 56.68357 40.93401 62.29872
#
# Poissons Ratio (x) = 0.09011 -0.12331
# Poissons Ratio (y) = 0.12478 0.38931
# Poissons Ratio (z) = -0.11220 0.25580
#
# Static dielectric constant tensor:
#      x y z
#    x 1.728410 0.000000 0.000000 
#    y 0.000000 1.717540 0.000000 
#    z 0.000000 0.000000 1.712760 
# 
# From -- ./inp_files/4288.got.cif
#   From: 2010.05.17/outbox.cif.g08.bks.cpg/sg29_3_cif.got.tgz:4288.got - 2010.06.04 01:19:37.
