data_PCOD9340900
_publ_section_title
;
Structure prediction by ZEFSAII (Michael W. Deem and Ramdas Pophale) SiO2 
 PCOD9340900
Probable space group: P C A 21
;
_chemical_formula_sum "Si O2"
_cell_formula_units_Z 28
_cell_length_a 23.767534
_cell_length_b 11.679250
_cell_length_c 4.890276
_cell_angle_alpha 90.000000
_cell_angle_beta 90.000000
_cell_angle_gamma 90.000000
_cell_volume 1357.476904
_symmetry_space_group_name_H-M "P C A 21"
_symmetry_group_IT_number 29
_symmetry_cell_setting 'orthorhombic'
loop_
_space_group_symop_operation_xyz
x,y,z
-x,-y,1/2+z
1/2-x,y,1/2+z
1/2+x,-y,z
loop_
_atom_site_type_symbol
_atom_site_label
_atom_site_fract_x
_atom_site_fract_y
_atom_site_fract_z
Si Si1 0.401303 0.750899 0.657850
Si Si2 0.214324 0.137082 0.990251
Si Si3 0.933591 0.388061 0.166776
Si Si4 0.285677 0.862789 0.478320
Si Si5 0.000003 0.921961 0.234463
Si Si6 0.401294 0.249060 0.310942
Si Si7 0.566428 0.611967 0.301971
O O1 0.407111 0.640650 0.459887
O O2 0.341709 0.805986 0.591320
O O3 0.451226 0.842128 0.607208
O O4 0.412865 0.713235 0.968084
O O5 0.266766 0.168034 0.794612
O O6 0.158292 0.193903 0.877293
O O7 0.206877 0.999936 0.984277
O O8 0.907053 0.640696 0.508952
O O9 0.921639 0.500019 0.984408
O O10 0.233234 0.831835 0.673962
O O11 0.951231 0.842125 0.361704
O O12 0.021963 0.999999 0.484469
O O13 0.412879 0.286733 0.000734
O O14 0.500014 0.612039 0.234259
#
# Coordination Sequence:
#
# PCOD9340900 Si02
#       7
#     4   4   4   4   4   4   4
#     4  12  23  41  64  94 130 168 212 264 325 382
#     4  10  22  41  65  92 124 171 221 258 306 383
#     4  12  23  41  64  93 128 167 218 266 320 391
#     4  10  22  41  65  92 124 171 221 258 306 383
#     4  12  24  38  58  94 136 166 198 254 332 394
#     4  12  23  41  64  94 130 168 212 264 325 382
#     4  12  23  41  64  93 128 167 218 266 320 391
#
# _framework density 20.626503
#
# number of rings (size 3 to 8) (size 9 to 14) (size 15 to 20)
#    0.000    0.571    2.857    6.857    0.000    3.429 
#    0.000    0.000    0.000   17.143    0.000    0.000 
#    0.000    0.000    0.000    0.000    0.000    0.000 
#
# Total GULP energy -156397.095749 kJ/mol
# GULP energy per Si atom -5585.610562 kJ/mol
# Density = 2.057956 g / cm^3
# Si number density = 20.626503 Si / 1000 Ang^3
#
#
#
# Elastic Constant Matrix: (Units=GPa)
#
#
# Indices 1 2 3 4 5 6 
#
# 1 99.1142 39.0169 9.4957 0.0000 0.0000 0.0000
# 2 39.0169 64.9372 25.2968 0.0000 0.0000 0.0000
# 3 9.4957 25.2968 116.3577 0.0000 0.0000 0.0000
# 4 0.0000 0.0000 0.0000 37.3681 0.0000 0.0000
# 5 0.0000 0.0000 0.0000 0.0000 23.2536 0.0000
# 6 0.0000 0.0000 0.0000 0.0000 0.0000 -0.7256
#
#
#
# Elastic Compliance Matrix: (Units=1/GPa)
#
#
# Indices 1 2 3 4 5 6 
#
# 1 0.013269 -0.008249 0.000711 0.000000 0.000000 0.000000
# 2 -0.008249 0.021953 -0.004099 0.000000 0.000000 0.000000
# 3 0.000711 -0.004099 0.009427 0.000000 0.000000 0.000000
# 4 0.000000 0.000000 0.000000 0.026761 0.000000 0.000000
# 5 0.000000 0.000000 0.000000 0.000000 0.043004 0.000000
# 6 0.000000 0.000000 0.000000 0.000000 0.000000 -1.378206
#
#
# Mechanical properties :
#
#
# Convention : Reuss Voigt Hill
#
# Bulk Modulus (GPa) = 46.78824 47.55865 47.17344
# Shear Modulus (GPa) = -4.05386 25.75254 10.84934
#
# Velocity S-wave (km/s) = -1.40344 3.53727 2.29594
# Velocity P-wave (km/s) = 4.48404 6.30794 5.47251
#
# Compressibility (1/GPa) = 0.02137289
#
# Stress axis : x y z
#
# Youngs Moduli (GPa) = 75.36587 45.55208 106.07323
#
# Poissons Ratio (x) = 0.37576 -0.07537
# Poissons Ratio (y) = 0.62170 0.43485
# Poissons Ratio (z) = -0.05355 0.18674
#
# Static dielectric constant tensor:
#      x y z
#    x 1.678860 0.000000 0.000000 
#    y 0.000000 1.821330 0.000000 
#    z 0.000000 0.000000 1.763780 
# 
# From -- ./inp_files/809.got.cif
#   From: 2010.05.17/outbox.cif.g08.bks.cpg/sg29_1_cif.got.tgz:809.got - 2010.06.04 01:19:37.
