data_PCOD9340691
_publ_section_title
;
Structure prediction by ZEFSAII (Michael W. Deem and Ramdas Pophale) SiO2 
 PCOD9340691
Probable space group: P C A 21
;
_chemical_formula_sum "Si O2"
_cell_formula_units_Z 32
_cell_length_a 9.429725
_cell_length_b 6.753674
_cell_length_c 19.413505
_cell_angle_alpha 90.000000
_cell_angle_beta 90.000000
_cell_angle_gamma 90.000000
_cell_volume 1236.354668
_symmetry_space_group_name_H-M "P C A 21"
_symmetry_group_IT_number 29
_symmetry_cell_setting 'orthorhombic'
loop_
_space_group_symop_operation_xyz
x,y,z
-x,-y,1/2+z
1/2-x,y,1/2+z
1/2+x,-y,z
loop_
_atom_site_type_symbol
_atom_site_label
_atom_site_fract_x
_atom_site_fract_y
_atom_site_fract_z
Si Si1 0.685546 0.712117 0.855710
Si Si2 0.983911 0.199846 0.685435
Si Si3 0.317294 0.846230 0.203814
Si Si4 0.850681 0.942921 0.564670
Si Si5 0.666097 0.723196 0.489151
Si Si6 0.553745 0.418184 0.593234
Si Si7 0.002990 0.611800 0.810879
Si Si8 0.584202 0.106850 0.918092
O O1 0.709223 0.659648 0.937230
O O2 0.560724 0.610439 0.811427
O O3 0.635930 0.938504 0.866489
O O4 0.836429 0.652297 0.821236
O O5 0.840433 0.195295 0.733242
O O6 0.010173 0.412406 0.649113
O O7 0.909537 0.060758 0.627507
O O8 0.126447 0.074202 0.703541
O O9 0.332297 0.723734 0.131303
O O10 0.437929 0.736909 0.248297
O O11 0.693924 0.857366 0.556406
O O12 0.933711 0.734705 0.569659
O O13 0.857797 0.068832 0.494229
O O14 0.599793 0.530356 0.523451
O O15 0.580783 0.872774 0.438983
O O16 0.095210 0.691820 0.876273
#
# Coordination Sequence:
#
# PCOD9340691 Si02
#       8
#     4   4   4   4   4   4   4   4
#     4  10  26  45  72 101 140 180 240 295 360 426
#     4  11  24  46  70 102 140 188 227 301 347 431
#     4  11  28  45  72 101 141 194 245 285 360 415
#     4  10  22  38  65 102 133 176 228 281 360 422
#     4  10  21  41  66 103 141 181 222 289 364 433
#     4  11  23  42  69 105 144 185 232 296 357 424
#     4  11  27  49  69 104 137 194 241 298 347 424
#     4  10  23  42  67 100 138 182 225 289 357 423
#
# _framework density 25.882541
#
# number of rings (size 3 to 8) (size 9 to 14) (size 15 to 20)
#    0.000    1.500    1.250    1.500   12.250    6.000 
#    0.000    0.000    0.000    0.000    0.000    0.000 
#    0.000    0.000    0.000    0.000    0.000    0.000 
#
# Total GULP energy -178274.973975 kJ/mol
# GULP energy per Si atom -5571.092937 kJ/mol
# Density = 2.582363 g / cm^3
# Si number density = 25.882541 Si / 1000 Ang^3
#
#
#
# Elastic Constant Matrix: (Units=GPa)
#
#
# Indices 1 2 3 4 5 6 
#
# 1 110.0041 40.9020 18.4993 0.0000 0.0000 0.0000
# 2 40.9020 84.4585 -1.2894 0.0000 0.0000 0.0000
# 3 18.4993 -1.2894 41.0722 0.0000 0.0000 0.0000
# 4 0.0000 0.0000 0.0000 41.5435 0.0000 0.0000
# 5 0.0000 0.0000 0.0000 0.0000 34.8226 0.0000
# 6 0.0000 0.0000 0.0000 0.0000 0.0000 31.5052
#
#
#
# Elastic Compliance Matrix: (Units=1/GPa)
#
#
# Indices 1 2 3 4 5 6 
#
# 1 0.012302 -0.006045 -0.005731 0.000000 0.000000 0.000000
# 2 -0.006045 0.014816 0.003188 0.000000 0.000000 0.000000
# 3 -0.005731 0.003188 0.027029 0.000000 0.000000 0.000000
# 4 0.000000 0.000000 0.000000 0.024071 0.000000 0.000000
# 5 0.000000 0.000000 0.000000 0.000000 0.028717 0.000000
# 6 0.000000 0.000000 0.000000 0.000000 0.000000 0.031741
#
#
# Mechanical properties :
#
#
# Convention : Reuss Voigt Hill
#
# Bulk Modulus (GPa) = 27.04816 39.08428 33.06622
# Shear Modulus (GPa) = 29.73084 33.40247 31.56666
#
# Velocity S-wave (km/s) = 3.39290 3.59631 3.49608
# Velocity P-wave (km/s) = 5.08154 5.69017 5.39444
#
# Compressibility (1/GPa) = 0.03697109
#
# Stress axis : x y z
#
# Youngs Moduli (GPa) = 81.28740 67.49285 36.99785
#
# Poissons Ratio (x) = 0.40801 0.21202
# Poissons Ratio (y) = 0.49140 -0.11795
# Poissons Ratio (z) = 0.46584 -0.21516
#
# Static dielectric constant tensor:
#      x y z
#    x 2.168600 0.000000 0.000000 
#    y 0.000000 2.105780 0.000000 
#    z 0.000000 0.000000 2.221350 
# 
# From -- ./inp_files/5515.got.cif
#   From: 2010.05.17/outbox.cif.g08.bks.cpg/sg29_3_cif.got.tgz:5515.got - 2010.06.04 01:19:37.
