data_PCOD9340529
_publ_section_title
;
Structure prediction by ZEFSAII (Michael W. Deem and Ramdas Pophale) SiO2 
 PCOD9340529
Probable space group: P C A 21
;
_chemical_formula_sum "Si O2"
_cell_formula_units_Z 28
_cell_length_a 5.447812
_cell_length_b 15.623837
_cell_length_c 13.200138
_cell_angle_alpha 90.000000
_cell_angle_beta 90.000000
_cell_angle_gamma 90.000000
_cell_volume 1123.539338
_symmetry_space_group_name_H-M "P C A 21"
_symmetry_group_IT_number 29
_symmetry_cell_setting 'orthorhombic'
loop_
_space_group_symop_operation_xyz
x,y,z
-x,-y,1/2+z
1/2-x,y,1/2+z
1/2+x,-y,z
loop_
_atom_site_type_symbol
_atom_site_label
_atom_site_fract_x
_atom_site_fract_y
_atom_site_fract_z
Si Si1 0.588645 0.451324 0.768520
Si Si2 0.491289 0.736647 0.181129
Si Si3 0.490700 0.170660 0.168109
Si Si4 0.411684 0.545960 0.514733
Si Si5 0.007529 0.235005 0.938459
Si Si6 0.504337 0.274890 0.975920
Si Si7 0.041432 0.050494 0.838450
O O1 0.359777 0.513418 0.741384
O O2 0.536578 0.359566 0.718909
O O3 0.584470 0.448077 0.891619
O O4 0.250313 0.792542 0.206113
O O5 0.751737 0.779196 0.208898
O O6 0.497443 0.745244 0.058602
O O7 0.466178 0.078350 0.219426
O O8 0.491224 0.190068 0.047195
O O9 0.640990 0.486156 0.542364
O O10 0.470731 0.642755 0.547953
O O11 0.257466 0.283130 0.912119
O O12 0.028447 0.137513 0.904170
O O13 0.743900 0.269789 0.907351
O O14 0.297650 0.003875 0.859696
#
# Coordination Sequence:
#
# PCOD9340529 Si02
#       7
#     4   4   4   4   4   4   4
#     4  10  21  36  59  95 133 170 218 270 311 348
#     4  10  21  42  63  96 128 175 214 259 308 382
#     4  10  23  41  65  95 126 161 219 250 322 390
#     4  10  21  36  59  95 133 170 218 270 311 348
#     4  10  23  41  65  95 126 161 219 250 322 390
#     4  10  21  42  63  96 128 175 214 259 308 382
#     4  12  26  46  70 100 126 158 204 270 332 390
#
# _framework density 24.921244000000002
#
# number of rings (size 3 to 8) (size 9 to 14) (size 15 to 20)
#    0.000    1.714    0.000    3.429    4.000    0.000 
#    0.000   34.286    0.000    0.000    0.000    0.000 
#    0.000    0.000    0.000    0.000    0.000    0.000 
#
# Total GULP energy -156610.562011 kJ/mol
# GULP energy per Si atom -5593.234358 kJ/mol
# Density = 2.486452 g / cm^3
# Si number density = 24.921244 Si / 1000 Ang^3
#
#
#
# Elastic Constant Matrix: (Units=GPa)
#
#
# Indices 1 2 3 4 5 6 
#
# 1 258.5064 61.6370 -5.0680 0.0000 0.0000 0.0000
# 2 61.6370 102.8254 -6.6822 0.0000 0.0000 0.0000
# 3 -5.0680 -6.6822 84.6777 0.0000 0.0000 0.0000
# 4 0.0000 0.0000 0.0000 46.9405 0.0000 0.0000
# 5 0.0000 0.0000 0.0000 0.0000 -9.6124 0.0000
# 6 0.0000 0.0000 0.0000 0.0000 0.0000 58.9233
#
#
#
# Elastic Compliance Matrix: (Units=1/GPa)
#
#
# Indices 1 2 3 4 5 6 
#
# 1 0.004514 -0.002702 0.000057 0.000000 0.000000 0.000000
# 2 -0.002702 0.011393 0.000737 0.000000 0.000000 0.000000
# 3 0.000057 0.000737 0.011871 0.000000 0.000000 0.000000
# 4 0.000000 0.000000 0.000000 0.021304 0.000000 0.000000
# 5 0.000000 0.000000 0.000000 0.000000 -0.104032 0.000000
# 6 0.000000 0.000000 0.000000 0.000000 0.000000 0.016971
#
#
# Mechanical properties :
#
#
# Convention : Reuss Voigt Hill
#
# Bulk Modulus (GPa) = 41.73249 60.64257 51.18753
# Shear Modulus (GPa) = -191.00911 45.65845 -72.67533
#
# Velocity S-wave (km/s) = -8.76422 4.28496 -5.40604
# Velocity P-wave (km/s) = 9.25382 6.99054 4.28751
#
# Compressibility (1/GPa) = 0.02396214
#
# Stress axis : x y z
#
# Youngs Moduli (GPa) = 221.54576 87.77472 84.23838
#
# Poissons Ratio (x) = 0.23717 -0.00480
# Poissons Ratio (y) = 0.59861 -0.06211
# Poissons Ratio (z) = -0.01261 -0.06472
#
# Static dielectric constant tensor:
#      x y z
#    x 2.099910 0.000000 0.000000 
#    y 0.000000 1.899790 0.000000 
#    z 0.000000 0.000000 2.066510 
# 
# From -- ./inp_files/4062.got.cif
#   From: 2010.05.17/outbox.cif.g08.bks.cpg/sg29_3_cif.got.tgz:4062.got - 2010.06.04 01:19:37.
