data_PCOD9340108
_publ_section_title
;
Structure prediction by ZEFSAII (Michael W. Deem and Ramdas Pophale) SiO2 
 PCOD9340108
Probable space group: P C A 21
;
_chemical_formula_sum "Si O2"
_cell_formula_units_Z 28
_cell_length_a 10.239633
_cell_length_b 19.694925
_cell_length_c 5.076519
_cell_angle_alpha 90.000000
_cell_angle_beta 90.000000
_cell_angle_gamma 90.000000
_cell_volume 1023.775515
_symmetry_space_group_name_H-M "P C A 21"
_symmetry_group_IT_number 29
_symmetry_cell_setting 'orthorhombic'
loop_
_space_group_symop_operation_xyz
x,y,z
-x,-y,1/2+z
1/2-x,y,1/2+z
1/2+x,-y,z
loop_
_atom_site_type_symbol
_atom_site_label
_atom_site_fract_x
_atom_site_fract_y
_atom_site_fract_z
Si Si1 0.092083 0.500000 0.851260
Si Si2 0.669921 0.789560 0.829461
Si Si3 0.330079 0.789559 0.329463
Si Si4 0.843126 0.927516 0.179463
Si Si5 0.156873 0.927515 0.679466
Si Si6 0.079931 0.361629 0.700398
Si Si7 0.420069 0.638371 0.200398
O O1 0.160352 0.428200 0.790606
O O2 0.160352 0.571799 0.790606
O O3 0.973512 0.500000 0.636372
O O4 0.795585 0.794612 0.635367
O O5 0.588209 0.855693 0.737849
O O6 0.625177 0.713897 0.765310
O O7 0.295585 0.794612 0.635371
O O8 0.411791 0.855692 0.237850
O O9 0.374822 0.713897 0.265312
O O10 0.727748 0.927379 0.398603
O O11 0.914244 0.000000 0.210666
O O12 0.227750 0.927378 0.398609
O O13 0.045789 0.366534 0.394354
O O14 0.954210 0.366534 0.894354
#
# Coordination Sequence:
#
# PCOD9340108 Si02
#       7
#     4   4   4   4   4   4   4
#     4   8  16  30  48  66  86 120 160 186 212 272
#     4  10  19  31  48  72  97 119 151 195 235 268
#     4  10  19  31  48  72  97 119 151 195 235 268
#     4   8  14  25  42  63  87 117 151 183 217 265
#     4   8  14  25  42  63  87 117 151 183 217 265
#     4  10  19  33  51  69  92 124 158 188 226 277
#     4  10  19  33  51  69  92 124 158 188 226 277
#
# _framework density 27.349747000000001
#
# number of rings (size 3 to 8) (size 9 to 14) (size 15 to 20)
#    0.000    2.857    0.000    1.714    0.000    0.000 
#    0.000    1.429    0.000    1.714    0.000    0.000 
#    0.000    0.000    0.000    0.000    0.000    0.000 
#
# Total GULP energy -156355.259974 kJ/mol
# GULP energy per Si atom -5584.116428 kJ/mol
# Density = 2.728750 g / cm^3
# Si number density = 27.349747 Si / 1000 Ang^3
#
#
#
# Elastic Constant Matrix: (Units=GPa)
#
#
# Indices 1 2 3 4 5 6 
#
# 1 50.0418 26.0569 36.1303 0.0000 0.0000 0.0000
# 2 26.0569 336.6915 19.3839 0.0000 0.0000 0.0000
# 3 36.1303 19.3839 140.9728 0.0000 0.0000 0.0000
# 4 0.0000 0.0000 0.0000 29.0350 0.0000 0.0000
# 5 0.0000 0.0000 0.0000 0.0000 45.2086 0.0000
# 6 0.0000 0.0000 0.0000 0.0000 0.0000 19.3730
#
#
#
# Elastic Compliance Matrix: (Units=1/GPa)
#
#
# Indices 1 2 3 4 5 6 
#
# 1 0.025348 -0.001600 -0.006277 0.000000 0.000000 0.000000
# 2 -0.001600 0.003095 -0.000015 0.000000 0.000000 0.000000
# 3 -0.006277 -0.000015 0.008704 0.000000 0.000000 0.000000
# 4 0.000000 0.000000 0.000000 0.034441 0.000000 0.000000
# 5 0.000000 0.000000 0.000000 0.000000 0.022120 0.000000
# 6 0.000000 0.000000 0.000000 0.000000 0.000000 0.051618
#
#
# Mechanical properties :
#
#
# Convention : Reuss Voigt Hill
#
# Bulk Modulus (GPa) = 46.81028 76.76094 61.78561
# Shear Modulus (GPa) = 29.72084 48.46564 39.09324
#
# Velocity S-wave (km/s) = 3.30008 4.21416 3.78482
# Velocity P-wave (km/s) = 5.62790 7.19765 6.46063
#
# Compressibility (1/GPa) = 0.02136283
#
# Stress axis : x y z
#
# Youngs Moduli (GPa) = 39.45042 323.12071 114.88556
#
# Poissons Ratio (x) = 0.51712 0.72108
# Poissons Ratio (y) = 0.06314 0.00177
# Poissons Ratio (z) = 0.24761 0.00497
#
# Static dielectric constant tensor:
#      x y z
#    x 2.226190 0.000000 0.000000 
#    y 0.000000 2.315290 0.000000 
#    z 0.000000 0.000000 2.007300 
# 
# From -- ./inp_files/257.got.cif
#   From: 2010.05.17/outbox.cif.g08.bks.cpg/sg29_1_cif.got.tgz:257.got - 2010.06.04 01:19:37.
