data_PCOD9340240
_publ_section_title
;
Structure prediction by ZEFSAII (Michael W. Deem and Ramdas Pophale) SiO2 
 PCOD9340240
Probable space group: P C A 21
;
_chemical_formula_sum "Si O2"
_cell_formula_units_Z 16
_cell_length_a 13.154313
_cell_length_b 9.096773
_cell_length_c 5.166837
_cell_angle_alpha 90.000000
_cell_angle_beta 90.000000
_cell_angle_gamma 90.000000
_cell_volume 618.273012
_symmetry_space_group_name_H-M "P C A 21"
_symmetry_group_IT_number 29
_symmetry_cell_setting 'orthorhombic'
loop_
_space_group_symop_operation_xyz
x,y,z
-x,-y,1/2+z
1/2-x,y,1/2+z
1/2+x,-y,z
loop_
_atom_site_type_symbol
_atom_site_label
_atom_site_fract_x
_atom_site_fract_y
_atom_site_fract_z
Si Si1 0.687323 0.256657 0.962570
Si Si2 0.939824 0.491276 0.145788
Si Si3 0.637923 0.786677 0.438633
Si Si4 0.633451 0.916624 0.930089
O O1 0.781618 0.279572 0.761304
O O2 0.608983 0.365372 0.824539
O O3 0.651978 0.088223 0.955783
O O4 0.009225 0.561485 0.376583
O O5 0.866066 0.619714 0.035962
O O6 0.582865 0.881296 0.658460
O O7 0.753137 0.843855 0.401893
O O8 0.586802 0.828903 0.168626
#
# Coordination Sequence:
#
# PCOD9340240 Si02
#       4
#     4   4   4   4
#     4  12  23  43  73 105 135 182 253 308 351 421
#     4  12  28  46  64 104 156 198 231 290 381 453
#     4  10  20  38  67  95 138 171 235 291 350 418
#     4  10  19  39  68 106 123 167 245 311 340 396
#
# _framework density 25.878534999999999
#
# number of rings (size 3 to 8) (size 9 to 14) (size 15 to 20)
#    0.000    1.000    5.000    3.000    7.000    0.000 
#    0.000    5.000    0.000    0.000    0.000    0.000 
#    0.000    0.000    0.000    0.000    0.000    0.000 
#
# Total GULP energy -89368.660353 kJ/mol
# GULP energy per Si atom -5585.541272 kJ/mol
# Density = 2.581963 g / cm^3
# Si number density = 25.878535 Si / 1000 Ang^3
#
#
#
# Elastic Constant Matrix: (Units=GPa)
#
#
# Indices 1 2 3 4 5 6 
#
# 1 61.9184 43.8543 8.0047 0.0000 0.0000 0.0000
# 2 43.8543 113.1266 -14.1095 0.0000 0.0000 0.0000
# 3 8.0047 -14.1095 167.6577 0.0000 0.0000 0.0000
# 4 0.0000 0.0000 0.0000 40.4582 0.0000 0.0000
# 5 0.0000 0.0000 0.0000 0.0000 17.9183 0.0000
# 6 0.0000 0.0000 0.0000 0.0000 0.0000 43.7616
#
#
#
# Elastic Compliance Matrix: (Units=1/GPa)
#
#
# Indices 1 2 3 4 5 6 
#
# 1 0.022819 -0.009077 -0.001853 0.000000 0.000000 0.000000
# 2 -0.009077 0.012544 0.001489 0.000000 0.000000 0.000000
# 3 -0.001853 0.001489 0.006178 0.000000 0.000000 0.000000
# 4 0.000000 0.000000 0.000000 0.024717 0.000000 0.000000
# 5 0.000000 0.000000 0.000000 0.000000 0.055809 0.000000
# 6 0.000000 0.000000 0.000000 0.000000 0.000000 0.022851
#
#
# Mechanical properties :
#
#
# Convention : Reuss Voigt Hill
#
# Bulk Modulus (GPa) = 44.13336 46.46687 45.30011
# Shear Modulus (GPa) = 29.17944 40.75784 34.96864
#
# Velocity S-wave (km/s) = 3.36155 3.97289 3.67994
# Velocity P-wave (km/s) = 5.67078 6.24819 5.96647
#
# Compressibility (1/GPa) = 0.02265860
#
# Stress axis : x y z
#
# Youngs Moduli (GPa) = 43.82366 79.71864 161.85596
#
# Poissons Ratio (x) = 0.72360 0.29998
# Poissons Ratio (y) = 0.39779 -0.24101
# Poissons Ratio (z) = 0.08122 -0.11870
#
# Static dielectric constant tensor:
#      x y z
#    x 2.331670 0.000000 0.000000 
#    y 0.000000 2.006530 0.000000 
#    z 0.000000 0.000000 2.157220 
# 
# From -- ./inp_files/146.got.cif
#   From: 2010.05.17/outbox.cif.g08.bks.cpg/sg29_1_cif.got.tgz:146.got - 2010.06.04 01:19:37.
