data_PCOD9340144
_publ_section_title
;
Structure prediction by ZEFSAII (Michael W. Deem and Ramdas Pophale) SiO2 
 PCOD9340144
Probable space group: P C A 21
;
_chemical_formula_sum "Si O2"
_cell_formula_units_Z 32
_cell_length_a 20.213008
_cell_length_b 10.265506
_cell_length_c 8.942914
_cell_angle_alpha 90.000000
_cell_angle_beta 90.000000
_cell_angle_gamma 90.000000
_cell_volume 1855.625634
_symmetry_space_group_name_H-M "P C A 21"
_symmetry_group_IT_number 29
_symmetry_cell_setting 'orthorhombic'
loop_
_space_group_symop_operation_xyz
x,y,z
-x,-y,1/2+z
1/2-x,y,1/2+z
1/2+x,-y,z
loop_
_atom_site_type_symbol
_atom_site_label
_atom_site_fract_x
_atom_site_fract_y
_atom_site_fract_z
Si Si1 0.821656 0.336768 0.541710
Si Si2 0.908221 0.091721 0.183021
Si Si3 0.431437 0.450184 0.541016
Si Si4 0.059887 0.174863 0.538966
Si Si5 0.559887 0.825138 0.184243
Si Si6 0.431438 0.450185 0.182194
Si Si7 0.321657 0.663233 0.181497
Si Si8 0.408221 0.908278 0.540188
O O1 0.872724 0.451134 0.583776
O O2 0.749999 0.354269 0.611603
O O3 0.816820 0.337007 0.361604
O O4 0.854591 0.198908 0.586072
O O5 0.854591 0.198907 0.137137
O O6 0.903359 0.069735 0.361605
O O7 0.981392 0.151523 0.155423
O O8 0.904595 0.954958 0.098340
O O9 0.418689 0.305058 0.600113
O O10 0.437521 0.451198 0.361605
O O11 0.499999 0.500000 0.611606
O O12 0.068616 0.189584 0.361605
O O13 0.081311 0.305060 0.623096
O O14 0.981392 0.151524 0.567786
O O15 0.595405 0.954959 0.124871
O O16 0.372725 0.548868 0.139432
#
# Coordination Sequence:
#
# PCOD9340144 Si02
#       8
#     4   4   4   4   4   4   4   4
#     4  10  22  39  57  81 114 149 189 232 281 339
#     4   9  18  35  54  79 113 144 179 228 278 329
#     4  11  21  36  57  84 115 148 187 236 285 334
#     4  10  19  33  55  85 113 140 183 231 278 331
#     4  10  19  33  55  85 113 140 183 231 278 331
#     4  11  21  36  57  84 115 148 187 236 285 334
#     4  10  22  39  57  81 114 149 189 232 281 339
#     4   9  18  35  54  79 113 144 179 228 278 329
#
# _framework density 17.244858000000001
#
# number of rings (size 3 to 8) (size 9 to 14) (size 15 to 20)
#    0.000    2.000    2.500    1.500    0.000    4.000 
#    0.000    1.250    0.000    0.000    0.000    0.000 
#    0.000    0.000    0.000    0.000    0.000    0.000 
#
# Total GULP energy -178645.929126 kJ/mol
# GULP energy per Si atom -5582.685285 kJ/mol
# Density = 1.720561 g / cm^3
# Si number density = 17.244858 Si / 1000 Ang^3
#
#
#
# Elastic Constant Matrix: (Units=GPa)
#
#
# Indices 1 2 3 4 5 6 
#
# 1 123.6231 86.8149 49.1670 0.0000 0.0000 0.0000
# 2 86.8149 164.9439 60.6304 0.0000 0.0000 0.0000
# 3 49.1670 60.6304 45.9385 0.0000 0.0000 0.0000
# 4 0.0000 0.0000 0.0000 33.8147 0.0000 0.0000
# 5 0.0000 0.0000 0.0000 0.0000 28.1049 0.0000
# 6 0.0000 0.0000 0.0000 0.0000 0.0000 25.1059
#
#
#
# Elastic Compliance Matrix: (Units=1/GPa)
#
#
# Indices 1 2 3 4 5 6 
#
# 1 0.015304 -0.003951 -0.011165 0.000000 0.000000 0.000000
# 2 -0.003951 0.012795 -0.012659 0.000000 0.000000 0.000000
# 3 -0.011165 -0.012659 0.050426 0.000000 0.000000 0.000000
# 4 0.000000 0.000000 0.000000 0.029573 0.000000 0.000000
# 5 0.000000 0.000000 0.000000 0.000000 0.035581 0.000000
# 6 0.000000 0.000000 0.000000 0.000000 0.000000 0.039831
#
#
# Mechanical properties :
#
#
# Convention : Reuss Voigt Hill
#
# Bulk Modulus (GPa) = 43.52561 80.85889 62.19225
# Shear Modulus (GPa) = 20.26591 26.59796 23.43194
#
# Velocity S-wave (km/s) = 3.43182 3.93156 3.69016
# Velocity P-wave (km/s) = 6.40295 8.22193 7.36878
#
# Compressibility (1/GPa) = 0.02297498
#
# Stress axis : x y z
#
# Youngs Moduli (GPa) = 65.34100 78.15334 19.83110
#
# Poissons Ratio (x) = 0.30878 0.22142
# Poissons Ratio (y) = 0.25816 0.25104
# Poissons Ratio (z) = 0.72956 0.98934
#
# Static dielectric constant tensor:
#      x y z
#    x 1.558480 0.000000 0.000000 
#    y 0.000000 1.581980 0.000000 
#    z 0.000000 0.000000 1.576140 
# 
# From -- ./inp_files/2273.got.cif
#   From: 2010.05.17/outbox.cif.g08.bks.cpg/sg29_2_cif.got.tgz:2273.got - 2010.06.04 01:19:37.
