data_PCOD9340840
_publ_section_title
;
Structure prediction by ZEFSAII (Michael W. Deem and Ramdas Pophale) SiO2 
 PCOD9340840
Probable space group: P C A 21
;
_chemical_formula_sum "Si O2"
_cell_formula_units_Z 32
_cell_length_a 29.245715
_cell_length_b 5.850745
_cell_length_c 8.258495
_cell_angle_alpha 90.000000
_cell_angle_beta 90.000000
_cell_angle_gamma 90.000000
_cell_volume 1413.104644
_symmetry_space_group_name_H-M "P C A 21"
_symmetry_group_IT_number 29
_symmetry_cell_setting 'orthorhombic'
loop_
_space_group_symop_operation_xyz
x,y,z
-x,-y,1/2+z
1/2-x,y,1/2+z
1/2+x,-y,z
loop_
_atom_site_type_symbol
_atom_site_label
_atom_site_fract_x
_atom_site_fract_y
_atom_site_fract_z
Si Si1 0.532856 0.903762 0.617670
Si Si2 0.645645 0.822338 0.981550
Si Si3 0.899877 0.523339 0.239692
Si Si4 0.225398 0.931321 0.130840
Si Si5 0.440410 0.849947 0.447512
Si Si6 0.890743 0.156313 0.966148
Si Si7 0.829733 0.460419 0.753154
Si Si8 0.192310 0.152992 0.465161
O O1 0.562245 0.675206 0.649190
O O2 0.481135 0.848756 0.574558
O O3 0.538502 0.045612 0.782405
O O4 0.558099 0.058052 0.479899
O O5 0.639472 0.681113 0.816100
O O6 0.601709 0.986673 0.995071
O O7 0.649549 0.647302 0.131747
O O8 0.690989 0.974582 0.993403
O O9 0.922094 0.397490 0.395248
O O10 0.884334 0.326658 0.117837
O O11 0.211594 0.667821 0.159716
O O12 0.209899 0.039380 0.299372
O O13 0.274565 0.035534 0.093773
O O14 0.870100 0.289676 0.811732
O O15 0.858593 0.937468 0.990367
O O16 0.809941 0.581616 0.915528
#
# Coordination Sequence:
#
# PCOD9340840 Si02
#       8
#     4   4   4   4   4   4   4   4
#     4  10  23  41  61  90 124 162 208 256 305 366
#     4  10  22  41  62  90 124 160 207 254 303 366
#     4  10  22  39  63  90 122 164 202 251 317 362
#     4  10  23  39  60  90 123 161 206 251 301 365
#     4  10  23  41  61  90 124 162 208 256 305 366
#     4  10  22  41  62  90 124 160 207 254 303 366
#     4  10  22  41  63  90 122 164 204 251 313 358
#     4  10  23  39  60  90 123 161 206 251 301 365
#
# _framework density 22.645174000000001
#
# number of rings (size 3 to 8) (size 9 to 14) (size 15 to 20)
#    0.000    2.000    0.000    1.500    0.000   19.000 
#    0.000    2.500    0.000    0.000    0.000    0.000 
#    0.000    0.000    0.000    0.000    0.000    0.000 
#
# Total GULP energy -178719.826401 kJ/mol
# GULP energy per Si atom -5584.994575 kJ/mol
# Density = 2.259363 g / cm^3
# Si number density = 22.645174 Si / 1000 Ang^3
#
#
#
# Elastic Constant Matrix: (Units=GPa)
#
#
# Indices 1 2 3 4 5 6 
#
# 1 52.0080 11.1304 4.7251 0.0000 0.0000 0.0000
# 2 11.1304 90.3867 16.3036 0.0000 0.0000 0.0000
# 3 4.7251 16.3036 51.6460 0.0000 0.0000 0.0000
# 4 0.0000 0.0000 0.0000 45.1691 0.0000 0.0000
# 5 0.0000 0.0000 0.0000 0.0000 29.8158 0.0000
# 6 0.0000 0.0000 0.0000 0.0000 0.0000 15.0918
#
#
#
# Elastic Compliance Matrix: (Units=1/GPa)
#
#
# Indices 1 2 3 4 5 6 
#
# 1 0.019808 -0.002240 -0.001105 0.000000 0.000000 0.000000
# 2 -0.002240 0.011985 -0.003578 0.000000 0.000000 0.000000
# 3 -0.001105 -0.003578 0.020593 0.000000 0.000000 0.000000
# 4 0.000000 0.000000 0.000000 0.022139 0.000000 0.000000
# 5 0.000000 0.000000 0.000000 0.000000 0.033539 0.000000
# 6 0.000000 0.000000 0.000000 0.000000 0.000000 0.066261
#
#
# Mechanical properties :
#
#
# Convention : Reuss Voigt Hill
#
# Bulk Modulus (GPa) = 25.94774 28.70653 27.32713
# Shear Modulus (GPa) = 24.87335 28.80746 26.84041
#
# Velocity S-wave (km/s) = 3.31780 3.57055 3.44649
# Velocity P-wave (km/s) = 5.11472 5.45001 5.28503
#
# Compressibility (1/GPa) = 0.03853900
#
# Stress axis : x y z
#
# Youngs Moduli (GPa) = 50.48573 83.43869 48.55936
#
# Poissons Ratio (x) = 0.18689 0.05366
# Poissons Ratio (y) = 0.11308 0.17377
# Poissons Ratio (z) = 0.05579 0.29858
#
# Static dielectric constant tensor:
#      x y z
#    x 1.815610 0.000000 0.000000 
#    y 0.000000 1.930450 0.000000 
#    z 0.000000 0.000000 1.884350 
# 
# From -- ./inp_files/2620.got.cif
#   From: 2010.05.17/outbox.cif.g08.bks.cpg/sg29_2_cif.got.tgz:2620.got - 2010.06.04 01:19:37.
