data_PCOD9340418
_publ_section_title
;
Structure prediction by ZEFSAII (Michael W. Deem and Ramdas Pophale) SiO2 
 PCOD9340418
Probable space group: P C A 21
;
_chemical_formula_sum "Si O2"
_cell_formula_units_Z 28
_cell_length_a 15.265946
_cell_length_b 5.433789
_cell_length_c 14.707007
_cell_angle_alpha 90.000000
_cell_angle_beta 90.000000
_cell_angle_gamma 90.000000
_cell_volume 1219.974607
_symmetry_space_group_name_H-M "P C A 21"
_symmetry_group_IT_number 29
_symmetry_cell_setting 'orthorhombic'
loop_
_space_group_symop_operation_xyz
x,y,z
-x,-y,1/2+z
1/2-x,y,1/2+z
1/2+x,-y,z
loop_
_atom_site_type_symbol
_atom_site_label
_atom_site_fract_x
_atom_site_fract_y
_atom_site_fract_z
Si Si1 0.914579 0.482926 0.094860
Si Si2 0.211473 0.049236 0.018180
Si Si3 0.773485 0.441163 0.939455
Si Si4 0.474301 0.881847 0.237801
Si Si5 0.424011 0.771722 0.626654
Si Si6 0.691975 0.869674 0.700753
Si Si7 0.143166 0.398227 0.258957
O O1 0.858108 0.615284 0.175263
O O2 0.955538 0.243352 0.140157
O O3 0.996524 0.655747 0.070851
O O4 0.853439 0.442477 0.010262
O O5 0.284667 0.034260 0.099034
O O6 0.123154 0.987083 0.072552
O O7 0.220088 0.309403 0.966741
O O8 0.223221 0.812059 0.954974
O O9 0.813887 0.452311 0.840022
O O10 0.545286 0.699669 0.282835
O O11 0.530995 0.123304 0.217683
O O12 0.375904 0.970288 0.260672
O O13 0.361220 0.557209 0.665585
O O14 0.786029 0.818936 0.744391
#
# Coordination Sequence:
#
# PCOD9340418 Si02
#       7
#     4   4   4   4   4   4   4
#     4   9  20  39  63  93 128 176 228 276 333 413
#     4  11  22  42  68  92 131 180 231 271 340 416
#     4  11  25  42  63 101 140 177 216 300 355 387
#     4  10  20  39  68  95 124 180 239 279 335 419
#     4  10  21  39  68  94 123 183 239 270 328 438
#     4  10  20  39  68  93 129 183 234 272 324 434
#     4  11  24  40  66 102 141 177 233 294 355 399
#
# _framework density 22.9513
#
# number of rings (size 3 to 8) (size 9 to 14) (size 15 to 20)
#    0.000    1.714    2.857    1.714    4.000    0.000 
#    2.571    2.857    0.000    0.000    0.000    0.000 
#    0.000    0.000    0.000    0.000    0.000    0.000 
#
# Total GULP energy -156142.853974 kJ/mol
# GULP energy per Si atom -5576.530499 kJ/mol
# Density = 2.289906 g / cm^3
# Si number density = 22.951300 Si / 1000 Ang^3
#
#
#
# Elastic Constant Matrix: (Units=GPa)
#
#
# Indices 1 2 3 4 5 6 
#
# 1 93.0792 30.6892 2.9494 0.0000 0.0000 0.0000
# 2 30.6892 93.0248 9.6203 0.0000 0.0000 0.0000
# 3 2.9494 9.6203 33.0916 0.0000 0.0000 0.0000
# 4 0.0000 0.0000 0.0000 16.8307 0.0000 0.0000
# 5 0.0000 0.0000 0.0000 0.0000 21.9748 0.0000
# 6 0.0000 0.0000 0.0000 0.0000 0.0000 38.2574
#
#
#
# Elastic Compliance Matrix: (Units=1/GPa)
#
#
# Indices 1 2 3 4 5 6 
#
# 1 0.012055 -0.003986 0.000084 0.000000 0.000000 0.000000
# 2 -0.003986 0.012401 -0.003250 0.000000 0.000000 0.000000
# 3 0.000084 -0.003250 0.031156 0.000000 0.000000 0.000000
# 4 0.000000 0.000000 0.000000 0.059415 0.000000 0.000000
# 5 0.000000 0.000000 0.000000 0.000000 0.045507 0.000000
# 6 0.000000 0.000000 0.000000 0.000000 0.000000 0.026139
#
#
# Mechanical properties :
#
#
# Convention : Reuss Voigt Hill
#
# Bulk Modulus (GPa) = 24.20745 33.96814 29.08779
# Shear Modulus (GPa) = 23.28340 27.14170 25.21255
#
# Velocity S-wave (km/s) = 3.18853 3.44259 3.31799
# Velocity P-wave (km/s) = 4.91181 5.53481 5.23259
#
# Compressibility (1/GPa) = 0.04130961
#
# Stress axis : x y z
#
# Youngs Moduli (GPa) = 82.95317 80.63989 32.09610
#
# Poissons Ratio (x) = 0.32141 -0.00270
# Poissons Ratio (y) = 0.33063 0.10431
# Poissons Ratio (z) = -0.00699 0.26207
#
# Static dielectric constant tensor:
#      x y z
#    x 1.921630 0.000000 0.000000 
#    y 0.000000 1.928840 0.000000 
#    z 0.000000 0.000000 1.840480 
# 
# From -- ./inp_files/4645.got.cif
#   From: 2010.05.17/outbox.cif.g08.bks.cpg/sg29_3_cif.got.tgz:4645.got - 2010.06.04 01:19:37.
