data_PCOD9340968
_publ_section_title
;
Structure prediction by ZEFSAII (Michael W. Deem and Ramdas Pophale) SiO2 
 PCOD9340968
Probable space group: P C A 21
;
_chemical_formula_sum "Si O2"
_cell_formula_units_Z 32
_cell_length_a 9.043194
_cell_length_b 14.877080
_cell_length_c 8.800345
_cell_angle_alpha 90.000000
_cell_angle_beta 90.000000
_cell_angle_gamma 90.000000
_cell_volume 1183.966036
_symmetry_space_group_name_H-M "P C A 21"
_symmetry_group_IT_number 29
_symmetry_cell_setting 'orthorhombic'
loop_
_space_group_symop_operation_xyz
x,y,z
-x,-y,1/2+z
1/2-x,y,1/2+z
1/2+x,-y,z
loop_
_atom_site_type_symbol
_atom_site_label
_atom_site_fract_x
_atom_site_fract_y
_atom_site_fract_z
Si Si1 0.308520 0.725409 0.404990
Si Si2 0.787090 0.699084 0.424929
Si Si3 0.932521 0.593040 0.152611
Si Si4 0.692108 0.991484 0.593444
Si Si5 0.795243 0.397933 0.146669
Si Si6 0.480959 0.992562 0.331827
Si Si7 0.863930 0.153974 0.662037
Si Si8 0.862171 0.825827 0.673527
O O1 0.193044 0.671023 0.507830
O O2 0.370193 0.649147 0.293293
O O3 0.226974 0.790281 0.285836
O O4 0.410828 0.777083 0.528437
O O5 0.874060 0.630561 0.314978
O O6 0.658218 0.650686 0.524442
O O7 0.892630 0.750994 0.545755
O O8 0.718498 0.771916 0.307357
O O9 0.872970 0.492524 0.126179
O O10 0.113319 0.592915 0.156741
O O11 0.542419 0.992042 0.498304
O O12 0.764786 0.896147 0.575618
O O13 0.687935 0.999355 0.779861
O O14 0.766751 0.085664 0.562050
O O15 0.526484 0.897915 0.251576
O O16 0.530289 0.087743 0.255428
#
# Coordination Sequence:
#
# PCOD9340968 Si02
#       8
#     4   4   4   4   4   4   4   4
#     4  10  23  43  70  97 133 183 229 296 355 420
#     4  10  23  43  70  97 133 183 229 296 355 420
#     4  11  26  48  75 107 142 181 233 293 367 444
#     4  11  24  37  61  93 134 188 236 287 349 410
#     4  11  26  48  75 107 142 181 233 293 367 444
#     4  11  24  37  61  93 134 188 236 287 349 410
#     4  10  22  43  61  90 138 177 234 287 344 410
#     4  10  22  43  61  90 138 177 234 287 344 410
#
# _framework density 27.027802999999999
#
# number of rings (size 3 to 8) (size 9 to 14) (size 15 to 20)
#    0.000    1.500    2.500    0.750    3.500   10.000 
#    0.000    5.000    0.000    0.000    0.000    0.000 
#    0.000    0.000    0.000    0.000    0.000    0.000 
#
# Total GULP energy -178729.404365 kJ/mol
# GULP energy per Si atom -5585.293886 kJ/mol
# Density = 2.696629 g / cm^3
# Si number density = 27.027803 Si / 1000 Ang^3
#
#
#
# Elastic Constant Matrix: (Units=GPa)
#
#
# Indices 1 2 3 4 5 6 
#
# 1 100.1974 46.8575 31.5204 0.0000 0.0000 0.0000
# 2 46.8575 162.2780 61.8337 0.0000 0.0000 0.0000
# 3 31.5204 61.8337 143.5578 0.0000 0.0000 0.0000
# 4 0.0000 0.0000 0.0000 59.3010 0.0000 0.0000
# 5 0.0000 0.0000 0.0000 0.0000 29.8496 0.0000
# 6 0.0000 0.0000 0.0000 0.0000 0.0000 25.0461
#
#
#
# Elastic Compliance Matrix: (Units=1/GPa)
#
#
# Indices 1 2 3 4 5 6 
#
# 1 0.011749 -0.002883 -0.001338 0.000000 0.000000 0.000000
# 2 -0.002883 0.008079 -0.002847 0.000000 0.000000 0.000000
# 3 -0.001338 -0.002847 0.008486 0.000000 0.000000 0.000000
# 4 0.000000 0.000000 0.000000 0.016863 0.000000 0.000000
# 5 0.000000 0.000000 0.000000 0.000000 0.033501 0.000000
# 6 0.000000 0.000000 0.000000 0.000000 0.000000 0.039926
#
#
# Mechanical properties :
#
#
# Convention : Reuss Voigt Hill
#
# Bulk Modulus (GPa) = 70.52702 76.27294 73.39998
# Shear Modulus (GPa) = 36.37220 40.56079 38.46649
#
# Velocity S-wave (km/s) = 3.67240 3.87810 3.77665
# Velocity P-wave (km/s) = 6.64326 6.95229 6.79953
#
# Compressibility (1/GPa) = 0.01417896
#
# Stress axis : x y z
#
# Youngs Moduli (GPa) = 85.11099 123.77016 117.84206
#
# Poissons Ratio (x) = 0.35680 0.15768
# Poissons Ratio (y) = 0.24535 0.33551
# Poissons Ratio (z) = 0.11389 0.35238
#
# Static dielectric constant tensor:
#      x y z
#    x 2.278030 0.000000 0.000000 
#    y 0.000000 2.040390 0.000000 
#    z 0.000000 0.000000 2.134000 
# 
# From -- ./inp_files/1559.got.cif
#   From: 2010.05.17/outbox.cif.g08.bks.cpg/sg29_1_cif.got.tgz:1559.got - 2010.06.04 01:19:37.
