data_PCOD9340552
_publ_section_title
;
Structure prediction by ZEFSAII (Michael W. Deem and Ramdas Pophale) SiO2 
 PCOD9340552
Probable space group: P C A 21
;
_chemical_formula_sum "Si O2"
_cell_formula_units_Z 28
_cell_length_a 16.017196
_cell_length_b 14.160460
_cell_length_c 5.355957
_cell_angle_alpha 90.000000
_cell_angle_beta 90.000000
_cell_angle_gamma 90.000000
_cell_volume 1214.789231
_symmetry_space_group_name_H-M "P C A 21"
_symmetry_group_IT_number 29
_symmetry_cell_setting 'orthorhombic'
loop_
_space_group_symop_operation_xyz
x,y,z
-x,-y,1/2+z
1/2-x,y,1/2+z
1/2+x,-y,z
loop_
_atom_site_type_symbol
_atom_site_label
_atom_site_fract_x
_atom_site_fract_y
_atom_site_fract_z
Si Si1 0.099000 0.806813 0.711730
Si Si2 0.441933 0.735217 0.706920
Si Si3 0.974526 0.547018 0.414284
Si Si4 0.697050 0.845026 0.959136
Si Si5 0.200956 0.377438 0.934974
Si Si6 0.444538 0.004473 0.364988
Si Si7 0.254783 0.660130 0.683409
O O1 0.057400 0.807144 0.438497
O O2 0.181709 0.740067 0.689551
O O3 0.113573 0.912358 0.807593
O O4 0.036931 0.765729 0.925776
O O5 0.489548 0.643555 0.800349
O O6 0.344197 0.709274 0.679549
O O7 0.879224 0.560036 0.486630
O O8 0.019553 0.522631 0.675605
O O9 0.760036 0.864056 0.727264
O O10 0.676156 0.733742 0.951638
O O11 0.616009 0.908183 0.915654
O O12 0.232608 0.391602 0.654195
O O13 0.499344 0.985836 0.614431
O O14 0.246893 0.601944 0.434048
#
# Coordination Sequence:
#
# PCOD9340552 Si02
#       7
#     4   4   4   4   4   4   4
#     4  10  21  37  61  91 132 179 212 261 333 400
#     4  10  21  40  63  93 124 170 216 264 327 408
#     4  12  26  45  71 106 136 168 223 291 364 411
#     4  10  23  44  69  97 133 189 241 285 334 400
#     4  10  23  46  72  99 134 184 233 280 343 419
#     4  12  26  40  62 105 144 177 232 293 344 388
#     4   8  16  32  54  83 119 159 209 236 305 386
#
# _framework density 23.049264999999998
#
# number of rings (size 3 to 8) (size 9 to 14) (size 15 to 20)
#    0.000    1.714    0.000    3.429    4.000    3.429 
#    0.000   12.857    0.000    0.000    0.000    0.000 
#    0.000    0.000    0.000    0.000    0.000    0.000 
#
# Total GULP energy -156415.220853 kJ/mol
# GULP energy per Si atom -5586.257888 kJ/mol
# Density = 2.299680 g / cm^3
# Si number density = 23.049265 Si / 1000 Ang^3
#
#
#
# Elastic Constant Matrix: (Units=GPa)
#
#
# Indices 1 2 3 4 5 6 
#
# 1 45.6474 10.6694 -11.2002 0.0000 0.0000 0.0000
# 2 10.6694 28.4328 -22.8661 0.0000 0.0000 0.0000
# 3 -11.2002 -22.8661 120.2650 0.0000 0.0000 0.0000
# 4 0.0000 0.0000 0.0000 15.2384 0.0000 0.0000
# 5 0.0000 0.0000 0.0000 0.0000 18.1872 0.0000
# 6 0.0000 0.0000 0.0000 0.0000 0.0000 36.4584
#
#
#
# Elastic Compliance Matrix: (Units=1/GPa)
#
#
# Indices 1 2 3 4 5 6 
#
# 1 0.024052 -0.008528 0.000618 0.000000 0.000000 0.000000
# 2 -0.008528 0.044543 0.007675 0.000000 0.000000 0.000000
# 3 0.000618 0.007675 0.009832 0.000000 0.000000 0.000000
# 4 0.000000 0.000000 0.000000 0.065624 0.000000 0.000000
# 5 0.000000 0.000000 0.000000 0.000000 0.054984 0.000000
# 6 0.000000 0.000000 0.000000 0.000000 0.000000 0.027429
#
#
# Mechanical properties :
#
#
# Convention : Reuss Voigt Hill
#
# Bulk Modulus (GPa) = 12.82756 16.39460 14.61108
# Shear Modulus (GPa) = 19.76926 28.49296 24.13111
#
# Velocity S-wave (km/s) = 2.93182 3.51974 3.23915
# Velocity P-wave (km/s) = 4.12773 4.86276 4.51024
#
# Compressibility (1/GPa) = 0.07795718
#
# Stress axis : x y z
#
# Youngs Moduli (GPa) = 41.57643 22.45026 101.71095
#
# Poissons Ratio (x) = 0.19146 -0.06291
# Poissons Ratio (y) = 0.35457 -0.78061
# Poissons Ratio (z) = -0.02571 -0.17230
#
# Static dielectric constant tensor:
#      x y z
#    x 1.825760 0.000000 0.000000 
#    y 0.000000 1.898020 0.000000 
#    z 0.000000 0.000000 1.933410 
# 
# From -- ./inp_files/233.got.cif
#   From: 2010.05.17/outbox.cif.g08.bks.cpg/sg29_1_cif.got.tgz:233.got - 2010.06.04 01:19:37.
