data_PCOD9340781
_publ_section_title
;
Structure prediction by ZEFSAII (Michael W. Deem and Ramdas Pophale) SiO2 
 PCOD9340781
Probable space group: P C A 21
;
_chemical_formula_sum "Si O2"
_cell_formula_units_Z 28
_cell_length_a 17.061861
_cell_length_b 6.968091
_cell_length_c 9.202446
_cell_angle_alpha 90.000000
_cell_angle_beta 90.000000
_cell_angle_gamma 90.000000
_cell_volume 1094.065922
_symmetry_space_group_name_H-M "P C A 21"
_symmetry_group_IT_number 29
_symmetry_cell_setting 'orthorhombic'
loop_
_space_group_symop_operation_xyz
x,y,z
-x,-y,1/2+z
1/2-x,y,1/2+z
1/2+x,-y,z
loop_
_atom_site_type_symbol
_atom_site_label
_atom_site_fract_x
_atom_site_fract_y
_atom_site_fract_z
Si Si1 0.532981 0.957834 0.929580
Si Si2 0.763686 0.034986 0.632679
Si Si3 0.075292 0.393301 0.755539
Si Si4 0.868100 0.334228 0.462358
Si Si5 0.620208 0.717123 0.143653
Si Si6 0.146442 0.878811 0.424682
Si Si7 0.417324 0.464190 0.920823
O O1 0.565973 0.171296 0.937319
O O2 0.581060 0.820648 0.819353
O O3 0.431684 0.397669 0.084106
O O4 0.549223 0.848633 0.083379
O O5 0.801438 0.206786 0.536918
O O6 0.792971 0.069617 0.795962
O O7 0.675407 0.040577 0.578853
O O8 0.803291 0.832193 0.592275
O O9 0.141105 0.542729 0.814152
O O10 0.996534 0.471911 0.835850
O O11 0.886032 0.506493 0.574575
O O12 0.621829 0.688729 0.315051
O O13 0.137363 0.650027 0.430151
O O14 0.057972 0.946180 0.393333
#
# Coordination Sequence:
#
# PCOD9340781 Si02
#       7
#     4   4   4   4   4   4   4
#     4   9  22  45  76 116 145 194 242 315 386 437
#     4  11  26  48  71 102 154 199 251 302 372 451
#     4  10  22  39  70 114 151 180 241 306 374 439
#     4  10  21  47  78 106 146 187 242 312 372 443
#     4  10  22  49  75 112 148 190 244 321 373 444
#     4  11  25  48  70 106 152 202 252 303 377 452
#     4  11  22  44  72 108 150 194 244 307 378 438
#
# _framework density 25.592611000000002
#
# number of rings (size 3 to 8) (size 9 to 14) (size 15 to 20)
#    0.000    1.714    1.429    2.571    6.000    0.000 
#    5.143    1.429    0.000    0.000    0.000    0.000 
#    0.000    0.000    0.000    0.000    0.000    0.000 
#
# Total GULP energy -156768.393111 kJ/mol
# GULP energy per Si atom -5598.871183 kJ/mol
# Density = 2.553436 g / cm^3
# Si number density = 25.592611 Si / 1000 Ang^3
#
#
#
# Elastic Constant Matrix: (Units=GPa)
#
#
# Indices 1 2 3 4 5 6 
#
# 1 16.1483 36.6972 40.5909 0.0000 0.0000 0.0000
# 2 36.6972 201.7852 73.8965 0.0000 0.0000 0.0000
# 3 40.5909 73.8965 188.9507 0.0000 0.0000 0.0000
# 4 0.0000 0.0000 0.0000 46.5978 0.0000 0.0000
# 5 0.0000 0.0000 0.0000 0.0000 21.4062 0.0000
# 6 0.0000 0.0000 0.0000 0.0000 0.0000 15.7716
#
#
#
# Elastic Compliance Matrix: (Units=1/GPa)
#
#
# Indices 1 2 3 4 5 6 
#
# 1 0.203228 -0.024477 -0.034085 0.000000 0.000000 0.000000
# 2 -0.024477 0.008732 0.001843 0.000000 0.000000 0.000000
# 3 -0.034085 0.001843 0.011894 0.000000 0.000000 0.000000
# 4 0.000000 0.000000 0.000000 0.021460 0.000000 0.000000
# 5 0.000000 0.000000 0.000000 0.000000 0.046716 0.000000
# 6 0.000000 0.000000 0.000000 0.000000 0.000000 0.063405
#
#
# Mechanical properties :
#
#
# Convention : Reuss Voigt Hill
#
# Bulk Modulus (GPa) = 9.05667 78.80594 43.93130
# Shear Modulus (GPa) = 9.88769 33.80176 21.84472
#
# Velocity S-wave (km/s) = 1.96771 3.63817 2.92474
# Velocity P-wave (km/s) = 2.95110 6.96475 5.34868
#
# Compressibility (1/GPa) = 0.11041584
#
# Stress axis : x y z
#
# Youngs Moduli (GPa) = 4.92057 114.51779 84.07714
#
# Poissons Ratio (x) = 2.80308 2.86580
# Poissons Ratio (y) = 0.12044 -0.15497
# Poissons Ratio (z) = 0.16772 -0.21108
#
# Static dielectric constant tensor:
#      x y z
#    x 2.078000 0.000000 0.000000 
#    y 0.000000 1.997410 0.000000 
#    z 0.000000 0.000000 2.042500 
# 
# From -- ./inp_files/3730.got.cif
#   From: 2010.05.17/outbox.cif.g08.bks.cpg/sg29_2_cif.got.tgz:3730.got - 2010.06.04 01:19:37.
