data_PCOD9340497
_publ_section_title
;
Structure prediction by ZEFSAII (Michael W. Deem and Ramdas Pophale) SiO2 
 PCOD9340497
Probable space group: P C A 21
;
_chemical_formula_sum "Si O2"
_cell_formula_units_Z 32
_cell_length_a 13.679771
_cell_length_b 8.632282
_cell_length_c 12.514533
_cell_angle_alpha 90.000000
_cell_angle_beta 90.000000
_cell_angle_gamma 90.000000
_cell_volume 1477.811680
_symmetry_space_group_name_H-M "P C A 21"
_symmetry_group_IT_number 29
_symmetry_cell_setting 'orthorhombic'
loop_
_space_group_symop_operation_xyz
x,y,z
-x,-y,1/2+z
1/2-x,y,1/2+z
1/2+x,-y,z
loop_
_atom_site_type_symbol
_atom_site_label
_atom_site_fract_x
_atom_site_fract_y
_atom_site_fract_z
Si Si1 0.294958 0.224305 0.832710
Si Si2 0.680772 0.252969 0.277588
Si Si3 0.991937 0.671993 0.609363
Si Si4 0.211339 0.642890 0.575505
Si Si5 0.391246 0.037480 0.649882
Si Si6 0.645277 0.560801 0.929138
Si Si7 0.731110 0.064635 0.958852
Si Si8 0.449904 0.473117 0.828167
O O1 0.314996 0.149044 0.716167
O O2 0.200363 0.332777 0.843294
O O3 0.384453 0.331914 0.867911
O O4 0.283368 0.089203 0.918978
O O5 0.737092 0.356635 0.190825
O O6 0.762709 0.169774 0.351386
O O7 0.606961 0.364517 0.341648
O O8 0.615942 0.120323 0.219021
O O9 0.097651 0.606629 0.579952
O O10 0.986411 0.851568 0.648292
O O11 0.914052 0.663336 0.514403
O O12 0.955706 0.559362 0.702295
O O13 0.276934 0.541847 0.494841
O O14 0.214204 0.823057 0.540723
O O15 0.361689 0.987824 0.529465
O O16 0.558181 0.466458 0.874526
#
# Coordination Sequence:
#
# PCOD9340497 Si02
#       8
#     4   4   4   4   4   4   4   4
#     4  10  22  42  66  95 133 172 228 283 343 404
#     4  10  21  44  66  98 137 175 231 278 343 417
#     4  11  23  43  65  98 135 175 234 279 342 417
#     4  11  25  42  66  99 136 179 225 287 347 410
#     4   9  21  42  64  97 132 177 226 280 337 413
#     4  12  23  43  67  96 135 178 225 289 346 412
#     4  10  20  43  67  90 135 178 217 277 344 403
#     4  11  25  43  67 101 131 178 232 281 346 416
#
# _framework density 21.653638000000001
#
# number of rings (size 3 to 8) (size 9 to 14) (size 15 to 20)
#    0.000    1.500    2.500    2.250    3.500    0.000 
#   13.500    0.000    0.000    0.000    0.000    0.000 
#    0.000    0.000    0.000    0.000    0.000    0.000 
#
# Total GULP energy -178408.143770 kJ/mol
# GULP energy per Si atom -5575.254493 kJ/mol
# Density = 2.160435 g / cm^3
# Si number density = 21.653638 Si / 1000 Ang^3
#
#
#
# Elastic Constant Matrix: (Units=GPa)
#
#
# Indices 1 2 3 4 5 6 
#
# 1 86.0021 33.6464 17.9955 0.0000 0.0000 0.0000
# 2 33.6464 91.0848 16.1064 0.0000 0.0000 0.0000
# 3 17.9955 16.1064 66.9138 0.0000 0.0000 0.0000
# 4 0.0000 0.0000 0.0000 32.1736 0.0000 0.0000
# 5 0.0000 0.0000 0.0000 0.0000 31.7438 0.0000
# 6 0.0000 0.0000 0.0000 0.0000 0.0000 18.8695
#
#
#
# Elastic Compliance Matrix: (Units=1/GPa)
#
#
# Indices 1 2 3 4 5 6 
#
# 1 0.014024 -0.004714 -0.002637 0.000000 0.000000 0.000000
# 2 -0.004714 0.013051 -0.001874 0.000000 0.000000 0.000000
# 3 -0.002637 -0.001874 0.016105 0.000000 0.000000 0.000000
# 4 0.000000 0.000000 0.000000 0.031081 0.000000 0.000000
# 5 0.000000 0.000000 0.000000 0.000000 0.031502 0.000000
# 6 0.000000 0.000000 0.000000 0.000000 0.000000 0.052996
#
#
# Mechanical properties :
#
#
# Convention : Reuss Voigt Hill
#
# Bulk Modulus (GPa) = 40.43555 42.16637 41.30096
# Shear Modulus (GPa) = 26.96120 28.30753 27.63437
#
# Velocity S-wave (km/s) = 3.53244 3.61957 3.57627
# Velocity P-wave (km/s) = 5.94574 6.08142 6.01397
#
# Compressibility (1/GPa) = 0.02473071
#
# Stress axis : x y z
#
# Youngs Moduli (GPa) = 71.30833 76.61985 62.09347
#
# Poissons Ratio (x) = 0.36119 0.16373
# Poissons Ratio (y) = 0.33615 0.11635
# Poissons Ratio (z) = 0.18802 0.14357
#
# Static dielectric constant tensor:
#      x y z
#    x 1.771150 0.000000 0.000000 
#    y 0.000000 1.814770 0.000000 
#    z 0.000000 0.000000 1.854650 
# 
# From -- ./inp_files/3484.got.cif
#   From: 2010.05.17/outbox.cif.g08.bks.cpg/sg29_2_cif.got.tgz:3484.got - 2010.06.04 01:19:37.
