data_PCOD9340470
_publ_section_title
;
Structure prediction by ZEFSAII (Michael W. Deem and Ramdas Pophale) SiO2 
 PCOD9340470
Probable space group: P C A 21
;
_chemical_formula_sum "Si O2"
_cell_formula_units_Z 24
_cell_length_a 9.530168
_cell_length_b 10.068476
_cell_length_c 9.962099
_cell_angle_alpha 90.000000
_cell_angle_beta 90.000000
_cell_angle_gamma 90.000000
_cell_volume 955.905915
_symmetry_space_group_name_H-M "P C A 21"
_symmetry_group_IT_number 29
_symmetry_cell_setting 'orthorhombic'
loop_
_space_group_symop_operation_xyz
x,y,z
-x,-y,1/2+z
1/2-x,y,1/2+z
1/2+x,-y,z
loop_
_atom_site_type_symbol
_atom_site_label
_atom_site_fract_x
_atom_site_fract_y
_atom_site_fract_z
Si Si1 0.371297 0.672842 0.303370
Si Si2 0.823344 0.929724 0.060834
Si Si3 0.147694 0.847171 0.213670
Si Si4 0.941831 0.920984 0.430728
Si Si5 0.180521 0.578890 0.084251
Si Si6 0.120525 0.279757 0.149905
O O1 0.252316 0.783502 0.325403
O O2 0.328858 0.607825 0.159302
O O3 0.345099 0.574235 0.425457
O O4 0.523767 0.735830 0.281759
O O5 0.725258 0.929971 0.926599
O O6 0.768700 0.798006 0.137641
O O7 0.750860 0.053346 0.137185
O O8 0.979602 0.963620 0.015274
O O9 0.017196 0.910481 0.289761
O O10 0.103066 0.714276 0.132009
O O11 0.960525 0.790271 0.524842
O O12 0.138665 0.436140 0.137924
#
# Coordination Sequence:
#
# PCOD9340470 Si02
#       6
#     4   4   4   4   4   4
#     4  10  21  42  70  97 144 177 233 285 367 410
#     4  10  22  42  65  99 138 186 229 294 342 419
#     4  10  20  41  69  94 135 187 226 283 361 409
#     4  10  22  42  66  98 142 175 239 286 348 419
#     4  10  24  41  73  98 136 188 228 296 359 421
#     4  10  23  42  67 100 139 177 243 284 347 430
#
# _framework density 25.107074000000001
#
# number of rings (size 3 to 8) (size 9 to 14) (size 15 to 20)
#    2.000    0.000    1.667    2.000    2.333    4.000 
#    6.000    0.000    0.000    0.000    0.000    0.000 
#    0.000    0.000    0.000    0.000    0.000    0.000 
#
# Total GULP energy -133768.132620 kJ/mol
# GULP energy per Si atom -5573.672193 kJ/mol
# Density = 2.504993 g / cm^3
# Si number density = 25.107074 Si / 1000 Ang^3
#
#
#
# Elastic Constant Matrix: (Units=GPa)
#
#
# Indices 1 2 3 4 5 6 
#
# 1 98.1846 8.2378 3.2006 0.0000 0.0000 0.0000
# 2 8.2378 125.0893 15.1370 0.0000 0.0000 0.0000
# 3 3.2006 15.1370 73.9299 0.0000 0.0000 0.0000
# 4 0.0000 0.0000 0.0000 27.9424 0.0000 0.0000
# 5 0.0000 0.0000 0.0000 0.0000 28.5854 0.0000
# 6 0.0000 0.0000 0.0000 0.0000 0.0000 26.4085
#
#
#
# Elastic Compliance Matrix: (Units=1/GPa)
#
#
# Indices 1 2 3 4 5 6 
#
# 1 0.010249 -0.000637 -0.000313 0.000000 0.000000 0.000000
# 2 -0.000637 0.008237 -0.001659 0.000000 0.000000 0.000000
# 3 -0.000313 -0.001659 0.013880 0.000000 0.000000 0.000000
# 4 0.000000 0.000000 0.000000 0.035788 0.000000 0.000000
# 5 0.000000 0.000000 0.000000 0.000000 0.034983 0.000000
# 6 0.000000 0.000000 0.000000 0.000000 0.000000 0.037867
#
#
# Mechanical properties :
#
#
# Convention : Reuss Voigt Hill
#
# Bulk Modulus (GPa) = 36.83688 38.92828 37.88258
# Shear Modulus (GPa) = 32.20202 34.62916 33.41559
#
# Velocity S-wave (km/s) = 3.58521 3.71787 3.65214
# Velocity P-wave (km/s) = 5.64288 5.82826 5.73632
#
# Compressibility (1/GPa) = 0.02714670
#
# Stress axis : x y z
#
# Youngs Moduli (GPa) = 97.57469 121.40362 72.04840
#
# Poissons Ratio (x) = 0.07734 0.02257
# Poissons Ratio (y) = 0.06216 0.11952
# Poissons Ratio (z) = 0.03057 0.20140
#
# Static dielectric constant tensor:
#      x y z
#    x 2.047110 0.000000 0.000000 
#    y 0.000000 1.976280 0.000000 
#    z 0.000000 0.000000 2.099170 
# 
# From -- ./inp_files/3171.got.cif
#   From: 2010.05.17/outbox.cif.g08.bks.cpg/sg29_2_cif.got.tgz:3171.got - 2010.06.04 01:19:37.
