data_PCOD9340525
_publ_section_title
;
Structure prediction by ZEFSAII (Michael W. Deem and Ramdas Pophale) SiO2 
 PCOD9340525
Probable space group: P C A 21
;
_chemical_formula_sum "Si O2"
_cell_formula_units_Z 32
_cell_length_a 7.048427
_cell_length_b 14.614724
_cell_length_c 12.260622
_cell_angle_alpha 90.000000
_cell_angle_beta 90.000000
_cell_angle_gamma 90.000000
_cell_volume 1262.976668
_symmetry_space_group_name_H-M "P C A 21"
_symmetry_group_IT_number 29
_symmetry_cell_setting 'orthorhombic'
loop_
_space_group_symop_operation_xyz
x,y,z
-x,-y,1/2+z
1/2-x,y,1/2+z
1/2+x,-y,z
loop_
_atom_site_type_symbol
_atom_site_label
_atom_site_fract_x
_atom_site_fract_y
_atom_site_fract_z
Si Si1 0.804947 0.489640 0.910570
Si Si2 0.449008 0.495397 0.577441
Si Si3 0.169648 0.711304 0.904873
Si Si4 0.921016 0.124990 0.713775
Si Si5 0.971491 0.312414 0.651011
Si Si6 0.767270 0.951268 0.835395
Si Si7 0.384190 0.898172 0.462597
Si Si8 0.132451 0.350757 0.238482
O O1 0.799785 0.378832 0.892876
O O2 0.801431 0.565660 0.816400
O O3 0.802532 0.511595 0.047734
O O4 0.052480 0.501337 0.939348
O O5 0.428785 0.580322 0.661265
O O6 0.469601 0.398062 0.636099
O O7 0.250565 0.812876 0.929303
O O8 0.012014 0.705304 0.811542
O O9 0.057468 0.697167 0.020820
O O10 0.955348 0.110925 0.585008
O O11 0.857092 0.231889 0.712189
O O12 0.108042 0.111736 0.785488
O O13 0.798813 0.037890 0.754111
O O14 0.185855 0.299452 0.691358
O O15 0.952166 0.897969 0.871561
O O16 0.708294 0.003411 0.946060
#
# Coordination Sequence:
#
# PCOD9340525 Si02
#       8
#     4   4   4   4   4   4   4   4
#     4  11  22  39  56  83 119 157 199 239 292 344
#     4  11  22  38  56  83 118 159 198 241 289 349
#     4  10  22  38  56  86 119 152 197 249 285 346
#     4  10  21  39  63  87 122 154 193 255 296 360
#     4  10  21  36  57  85 118 150 198 239 296 341
#     4  10  21  39  64  91 113 158 201 233 318 369
#     4  10  21  40  62  87 123 151 194 254 297 358
#     4  12  20  37  60  82 114 167 192 244 289 349
#
# _framework density 25.336967999999999
#
# number of rings (size 3 to 8) (size 9 to 14) (size 15 to 20)
#    0.000    1.500    3.750    2.250    0.000    1.000 
#    4.500    0.000    8.250    0.000    0.000    0.000 
#    0.000    0.000    0.000    0.000    0.000    0.000 
#
# Total GULP energy -178553.166125 kJ/mol
# GULP energy per Si atom -5579.786441 kJ/mol
# Density = 2.527930 g / cm^3
# Si number density = 25.336968 Si / 1000 Ang^3
#
#
#
# Elastic Constant Matrix: (Units=GPa)
#
#
# Indices 1 2 3 4 5 6 
#
# 1 109.6003 18.1329 29.3605 0.0000 0.0000 0.0000
# 2 18.1329 119.7395 1.6179 0.0000 0.0000 0.0000
# 3 29.3605 1.6179 68.1802 0.0000 0.0000 0.0000
# 4 0.0000 0.0000 0.0000 35.5552 0.0000 0.0000
# 5 0.0000 0.0000 0.0000 0.0000 37.5821 0.0000
# 6 0.0000 0.0000 0.0000 0.0000 0.0000 29.0042
#
#
#
# Elastic Compliance Matrix: (Units=1/GPa)
#
#
# Indices 1 2 3 4 5 6 
#
# 1 0.010591 -0.001543 -0.004524 0.000000 0.000000 0.000000
# 2 -0.001543 0.008579 0.000461 0.000000 0.000000 0.000000
# 3 -0.004524 0.000461 0.016604 0.000000 0.000000 0.000000
# 4 0.000000 0.000000 0.000000 0.028125 0.000000 0.000000
# 5 0.000000 0.000000 0.000000 0.000000 0.026608 0.000000
# 6 0.000000 0.000000 0.000000 0.000000 0.000000 0.034478
#
#
# Mechanical properties :
#
#
# Convention : Reuss Voigt Hill
#
# Bulk Modulus (GPa) = 40.71341 43.97141 42.34241
# Shear Modulus (GPa) = 34.62940 36.98888 35.80914
#
# Velocity S-wave (km/s) = 3.70097 3.82498 3.76349
# Velocity P-wave (km/s) = 5.86230 6.07451 5.96935
#
# Compressibility (1/GPa) = 0.02456193
#
# Stress axis : x y z
#
# Youngs Moduli (GPa) = 94.41691 116.56550 60.22503
#
# Poissons Ratio (x) = 0.17983 0.27248
# Poissons Ratio (y) = 0.14566 -0.02775
# Poissons Ratio (z) = 0.42717 -0.05371
#
# Static dielectric constant tensor:
#      x y z
#    x 2.352730 0.000000 0.000000 
#    y 0.000000 2.009850 0.000000 
#    z 0.000000 0.000000 1.983730 
# 
# From -- ./inp_files/2925.got.cif
#   From: 2010.05.17/outbox.cif.g08.bks.cpg/sg29_2_cif.got.tgz:2925.got - 2010.06.04 01:19:37.
