data_PCOD9340168
_publ_section_title
;
Structure prediction by ZEFSAII (Michael W. Deem and Ramdas Pophale) SiO2 
 PCOD9340168
Probable space group: P C A 21
;
_chemical_formula_sum "Si O2"
_cell_formula_units_Z 32
_cell_length_a 20.090432
_cell_length_b 7.520898
_cell_length_c 8.506600
_cell_angle_alpha 90.000000
_cell_angle_beta 90.000000
_cell_angle_gamma 90.000000
_cell_volume 1285.331011
_symmetry_space_group_name_H-M "P C A 21"
_symmetry_group_IT_number 29
_symmetry_cell_setting 'orthorhombic'
loop_
_space_group_symop_operation_xyz
x,y,z
-x,-y,1/2+z
1/2-x,y,1/2+z
1/2+x,-y,z
loop_
_atom_site_type_symbol
_atom_site_label
_atom_site_fract_x
_atom_site_fract_y
_atom_site_fract_z
Si Si1 0.277980 0.046082 0.910740
Si Si2 0.402793 0.541101 0.744679
Si Si3 0.970309 0.964387 0.412372
Si Si4 0.654213 0.531695 0.725212
Si Si5 0.722020 0.546082 0.410740
Si Si6 0.154213 0.031694 0.725212
Si Si7 0.597207 0.041101 0.244679
Si Si8 0.970309 0.535613 0.412372
O O1 0.263921 0.250000 0.952132
O O2 0.208057 0.970194 0.854747
O O3 0.330626 0.042994 0.767504
O O4 0.317240 0.968169 0.058883
O O5 0.330626 0.457005 0.767504
O O6 0.392931 0.750000 0.768190
O O7 0.455774 0.469669 0.873233
O O8 0.438064 0.514855 0.577570
O O9 0.918964 0.025104 0.276879
O O10 0.973338 0.750000 0.406828
O O11 0.044226 0.030331 0.373232
O O12 0.938064 0.014856 0.577569
O O13 0.682760 0.468169 0.558883
O O14 0.708057 0.470194 0.854747
O O15 0.653321 0.750000 0.723593
O O16 0.581036 0.474897 0.776879
#
# Coordination Sequence:
#
# PCOD9340168 Si02
#       8
#     4   4   4   4   4   4   4   4
#     4  10  19  35  59  83 110 144 184 228 271 319
#     4  11  23  37  56  84 113 142 180 226 278 329
#     4  10  21  38  58  80 109 146 187 226 267 322
#     4   9  18  34  59  85 106 142 193 230 260 314
#     4  10  19  35  59  83 110 144 184 228 271 319
#     4   9  18  34  59  85 106 142 193 230 260 314
#     4  11  23  37  56  84 113 142 180 226 278 329
#     4  10  21  38  58  80 109 146 187 226 267 322
#
# _framework density 24.89631
#
# number of rings (size 3 to 8) (size 9 to 14) (size 15 to 20)
#    0.000    2.000    0.000    3.750    0.000    8.000 
#    0.000    6.250    0.000    0.000    0.000    0.000 
#    0.000    0.000    0.000    0.000    0.000    0.000 
#
# Total GULP energy -179027.531479 kJ/mol
# GULP energy per Si atom -5594.610359 kJ/mol
# Density = 2.483964 g / cm^3
# Si number density = 24.896310 Si / 1000 Ang^3
#
#
#
# Elastic Constant Matrix: (Units=GPa)
#
#
# Indices 1 2 3 4 5 6 
#
# 1 101.7019 1.9362 -17.7570 0.0000 0.0000 0.0000
# 2 1.9362 77.4001 -8.1896 0.0000 0.0000 0.0000
# 3 -17.7570 -8.1896 62.2949 0.0000 0.0000 0.0000
# 4 0.0000 0.0000 0.0000 15.4880 0.0000 0.0000
# 5 0.0000 0.0000 0.0000 0.0000 45.1173 0.0000
# 6 0.0000 0.0000 0.0000 0.0000 0.0000 5.5686
#
#
#
# Elastic Compliance Matrix: (Units=1/GPa)
#
#
# Indices 1 2 3 4 5 6 
#
# 1 0.010348 0.000054 0.002957 0.000000 0.000000 0.000000
# 2 0.000054 0.013102 0.001738 0.000000 0.000000 0.000000
# 3 0.002957 0.001738 0.017124 0.000000 0.000000 0.000000
# 4 0.000000 0.000000 0.000000 0.064566 0.000000 0.000000
# 5 0.000000 0.000000 0.000000 0.000000 0.022164 0.000000
# 6 0.000000 0.000000 0.000000 0.000000 0.000000 0.179579
#
#
# Mechanical properties :
#
#
# Convention : Reuss Voigt Hill
#
# Bulk Modulus (GPa) = 19.97145 21.48623 20.72884
# Shear Modulus (GPa) = 15.91967 30.92861 23.42414
#
# Velocity S-wave (km/s) = 2.53146 3.52845 3.07069
# Velocity P-wave (km/s) = 4.07230 5.02483 4.57343
#
# Compressibility (1/GPa) = 0.05007148
#
# Stress axis : x y z
#
# Youngs Moduli (GPa) = 96.63825 76.32183 58.39774
#
# Poissons Ratio (x) = -0.00412 -0.17267
# Poissons Ratio (y) = -0.00522 -0.10149
# Poissons Ratio (z) = -0.28573 -0.13264
#
# Static dielectric constant tensor:
#      x y z
#    x 1.933210 0.000000 0.000000 
#    y 0.000000 1.928930 0.000000 
#    z 0.000000 0.000000 2.012530 
# 
# From -- ./inp_files/2259.got.cif
#   From: 2010.05.17/outbox.cif.g08.bks.cpg/sg29_2_cif.got.tgz:2259.got - 2010.06.04 01:19:37.
