data_PCOD9340854
_publ_section_title
;
Structure prediction by ZEFSAII (Michael W. Deem and Ramdas Pophale) SiO2 
 PCOD9340854
Probable space group: P C A 21
;
_chemical_formula_sum "Si O2"
_cell_formula_units_Z 32
_cell_length_a 14.981311
_cell_length_b 11.898880
_cell_length_c 7.753144
_cell_angle_alpha 90.000000
_cell_angle_beta 90.000000
_cell_angle_gamma 90.000000
_cell_volume 1382.081821
_symmetry_space_group_name_H-M "P C A 21"
_symmetry_group_IT_number 29
_symmetry_cell_setting 'orthorhombic'
loop_
_space_group_symop_operation_xyz
x,y,z
-x,-y,1/2+z
1/2-x,y,1/2+z
1/2+x,-y,z
loop_
_atom_site_type_symbol
_atom_site_label
_atom_site_fract_x
_atom_site_fract_y
_atom_site_fract_z
Si Si1 0.616634 0.236105 0.684950
Si Si2 0.532826 0.160454 0.200669
Si Si3 0.699758 0.280405 0.057135
Si Si4 0.676504 0.736067 0.306089
Si Si5 0.030363 0.086459 0.318211
Si Si6 0.872029 0.498958 0.682696
Si Si7 0.064452 0.525835 0.574310
Si Si8 0.631100 0.689797 0.706427
O O1 0.702997 0.226604 0.565835
O O2 0.551168 0.131646 0.701282
O O3 0.561896 0.346754 0.635839
O O4 0.659942 0.264018 0.869273
O O5 0.627310 0.221372 0.180368
O O6 0.458273 0.247428 0.266289
O O7 0.540300 0.046033 0.305204
O O8 0.498331 0.123428 0.010391
O O9 0.700404 0.411432 0.111930
O O10 0.619722 0.846669 0.261825
O O11 0.654720 0.629570 0.183259
O O12 0.645994 0.709623 0.501333
O O13 0.783204 0.741267 0.299415
O O14 0.963438 0.479485 0.577509
O O15 0.894343 0.476064 0.883671
O O16 0.117598 0.444659 0.707311
#
# Coordination Sequence:
#
# PCOD9340854 Si02
#       8
#     4   4   4   4   4   4   4   4
#     4  11  23  41  62  90 125 159 201 251 301 362
#     4  10  23  43  62  84 119 157 202 253 300 354
#     4  11  23  41  62  90 125 159 201 251 301 362
#     4  10  22  40  60  88 122 155 194 243 295 353
#     4  10  23  43  62  84 119 157 202 253 300 354
#     4  11  21  37  62  91 125 161 197 244 303 363
#     4  11  21  37  62  91 125 161 197 244 303 363
#     4  10  22  40  60  88 122 155 194 243 295 353
#
# _framework density 23.153478
#
# number of rings (size 3 to 8) (size 9 to 14) (size 15 to 20)
#    0.000    1.500    2.500    2.250    0.000    8.000 
#    0.000    5.000    0.000    0.000    0.000    0.000 
#    0.000    0.000    0.000    0.000    0.000    0.000 
#
# Total GULP energy -179116.674299 kJ/mol
# GULP energy per Si atom -5597.396072 kJ/mol
# Density = 2.310078 g / cm^3
# Si number density = 23.153478 Si / 1000 Ang^3
#
#
#
# Elastic Constant Matrix: (Units=GPa)
#
#
# Indices 1 2 3 4 5 6 
#
# 1 70.3653 7.8735 12.5430 0.0000 0.0000 0.0000
# 2 7.8735 74.9088 22.6924 0.0000 0.0000 0.0000
# 3 12.5430 22.6924 60.8369 0.0000 0.0000 0.0000
# 4 0.0000 0.0000 0.0000 21.3539 0.0000 0.0000
# 5 0.0000 0.0000 0.0000 0.0000 26.1979 0.0000
# 6 0.0000 0.0000 0.0000 0.0000 0.0000 7.9439
#
#
#
# Elastic Compliance Matrix: (Units=1/GPa)
#
#
# Indices 1 2 3 4 5 6 
#
# 1 0.014787 -0.000711 -0.002784 0.000000 0.000000 0.000000
# 2 -0.000711 0.015084 -0.005480 0.000000 0.000000 0.000000
# 3 -0.002784 -0.005480 0.019055 0.000000 0.000000 0.000000
# 4 0.000000 0.000000 0.000000 0.046830 0.000000 0.000000
# 5 0.000000 0.000000 0.000000 0.000000 0.038171 0.000000
# 6 0.000000 0.000000 0.000000 0.000000 0.000000 0.125883
#
#
# Mechanical properties :
#
#
# Convention : Reuss Voigt Hill
#
# Bulk Modulus (GPa) = 32.28100 32.48098 32.38099
# Shear Modulus (GPa) = 17.35591 21.96592 19.66091
#
# Velocity S-wave (km/s) = 2.74086 3.08345 2.91719
# Velocity P-wave (km/s) = 4.89784 5.17068 5.03611
#
# Compressibility (1/GPa) = 0.03097797
#
# Stress axis : x y z
#
# Youngs Moduli (GPa) = 67.62560 66.29381 52.47875
#
# Poissons Ratio (x) = 0.04714 0.14608
# Poissons Ratio (y) = 0.04808 0.28758
# Poissons Ratio (z) = 0.18824 0.36329
#
# Static dielectric constant tensor:
#      x y z
#    x 1.861390 0.000000 0.000000 
#    y 0.000000 1.816690 0.000000 
#    z 0.000000 0.000000 1.908170 
# 
# From -- ./inp_files/1862.got.cif
#   From: 2010.05.17/outbox.cif.g08.bks.cpg/sg29_1_cif.got.tgz:1862.got - 2010.06.04 01:19:37.
