data_PCOD9340929
_publ_section_title
;
Structure prediction by ZEFSAII (Michael W. Deem and Ramdas Pophale) SiO2 
 PCOD9340929
Probable space group: P C A 21
;
_chemical_formula_sum "Si O2"
_cell_formula_units_Z 28
_cell_length_a 5.681848
_cell_length_b 22.591823
_cell_length_c 8.382072
_cell_angle_alpha 90.000000
_cell_angle_beta 90.000000
_cell_angle_gamma 90.000000
_cell_volume 1075.950459
_symmetry_space_group_name_H-M "P C A 21"
_symmetry_group_IT_number 29
_symmetry_cell_setting 'orthorhombic'
loop_
_space_group_symop_operation_xyz
x,y,z
-x,-y,1/2+z
1/2-x,y,1/2+z
1/2+x,-y,z
loop_
_atom_site_type_symbol
_atom_site_label
_atom_site_fract_x
_atom_site_fract_y
_atom_site_fract_z
Si Si1 0.203433 0.614934 0.027540
Si Si2 0.659124 0.888711 0.856319
Si Si3 0.238695 0.498143 0.307954
Si Si4 0.376462 0.198263 0.601358
Si Si5 0.408085 0.372854 0.343435
Si Si6 0.430712 0.276707 0.862965
Si Si7 0.530255 0.965919 0.572384
O O1 0.092266 0.613041 0.201186
O O2 0.233024 0.550035 0.941087
O O3 0.473245 0.635526 0.015832
O O4 0.079886 0.669209 0.934770
O O5 0.737229 0.840556 0.728647
O O6 0.539068 0.939376 0.751764
O O7 0.510024 0.851285 0.985781
O O8 0.889592 0.915917 0.944630
O O9 0.488982 0.502260 0.220335
O O10 0.250122 0.430658 0.370259
O O11 0.536132 0.239941 0.714461
O O12 0.187111 0.234875 0.496471
O O13 0.289421 0.312964 0.293317
O O14 0.266570 0.992184 0.556336
#
# Coordination Sequence:
#
# PCOD9340929 Si02
#       7
#     4   4   4   4   4   4   4
#     4  11  25  42  65  96 131 171 230 293 367 442
#     4   9  20  40  66 100 144 182 233 286 344 406
#     4  10  22  42  64 100 130 172 210 286 364 440
#     4   9  20  38  72  88 134 186 229 294 342 408
#     4  11  25  42  65  96 131 171 230 293 367 442
#     4  11  20  42  70  88 124 182 231 294 352 422
#     4  11  22  40  74 108 148 188 231 282 344 410
#
# _framework density 26.023503000000002
#
# number of rings (size 3 to 8) (size 9 to 14) (size 15 to 20)
#    0.000    1.714    2.857    0.857    2.000    4.571 
#    0.000    0.000   62.857    0.000    0.000    0.000 
#    0.000    0.000    0.000    0.000    0.000    0.000 
#
# Total GULP energy -156088.679588 kJ/mol
# GULP energy per Si atom -5574.595700 kJ/mol
# Density = 2.596427 g / cm^3
# Si number density = 26.023503 Si / 1000 Ang^3
#
#
#
# Elastic Constant Matrix: (Units=GPa)
#
#
# Indices 1 2 3 4 5 6 
#
# 1 95.1844 32.3161 29.5052 0.0000 0.0000 0.0000
# 2 32.3161 137.9124 71.9129 0.0000 0.0000 0.0000
# 3 29.5052 71.9129 132.6585 0.0000 0.0000 0.0000
# 4 0.0000 0.0000 0.0000 77.1715 0.0000 0.0000
# 5 0.0000 0.0000 0.0000 0.0000 32.6217 0.0000
# 6 0.0000 0.0000 0.0000 0.0000 0.0000 8.9082
#
#
#
# Elastic Compliance Matrix: (Units=1/GPa)
#
#
# Indices 1 2 3 4 5 6 
#
# 1 0.011637 -0.001920 -0.001548 0.000000 0.000000 0.000000
# 2 -0.001920 0.010425 -0.005224 0.000000 0.000000 0.000000
# 3 -0.001548 -0.005224 0.010714 0.000000 0.000000 0.000000
# 4 0.000000 0.000000 0.000000 0.012958 0.000000 0.000000
# 5 0.000000 0.000000 0.000000 0.000000 0.030654 0.000000
# 6 0.000000 0.000000 0.000000 0.000000 0.000000 0.112256
#
#
# Mechanical properties :
#
#
# Convention : Reuss Voigt Hill
#
# Bulk Modulus (GPa) = 64.96342 70.35820 67.66081
# Shear Modulus (GPa) = 23.67872 39.20835 31.44353
#
# Velocity S-wave (km/s) = 3.01972 3.88577 3.47980
# Velocity P-wave (km/s) = 6.09720 6.87222 6.49628
#
# Compressibility (1/GPa) = 0.01539328
#
# Stress axis : x y z
#
# Youngs Moduli (GPa) = 85.92924 95.92316 93.33259
#
# Poissons Ratio (x) = 0.18417 0.14444
# Poissons Ratio (y) = 0.16498 0.48759
# Poissons Ratio (z) = 0.13298 0.50113
#
# Static dielectric constant tensor:
#      x y z
#    x 2.148360 0.000000 0.000000 
#    y 0.000000 2.118280 0.000000 
#    z 0.000000 0.000000 2.041530 
# 
# From -- ./inp_files/999.got.cif
#   From: 2010.05.17/outbox.cif.g08.bks.cpg/sg29_1_cif.got.tgz:999.got - 2010.06.04 01:19:37.
