data_PCOD9340218
_publ_section_title
;
Structure prediction by ZEFSAII (Michael W. Deem and Ramdas Pophale) SiO2 
 PCOD9340218
Probable space group: P C A 21
;
_chemical_formula_sum "Si O2"
_cell_formula_units_Z 32
_cell_length_a 18.369624
_cell_length_b 5.638025
_cell_length_c 13.573767
_cell_angle_alpha 90.000000
_cell_angle_beta 90.000000
_cell_angle_gamma 90.000000
_cell_volume 1405.813321
_symmetry_space_group_name_H-M "P C A 21"
_symmetry_group_IT_number 29
_symmetry_cell_setting 'orthorhombic'
loop_
_space_group_symop_operation_xyz
x,y,z
-x,-y,1/2+z
1/2-x,y,1/2+z
1/2+x,-y,z
loop_
_atom_site_type_symbol
_atom_site_label
_atom_site_fract_x
_atom_site_fract_y
_atom_site_fract_z
Si Si1 0.066778 0.013449 0.849330
Si Si2 0.296741 0.638538 0.653524
Si Si3 0.708983 0.849435 0.936980
Si Si4 0.214265 0.648530 0.462119
Si Si5 0.943563 0.334841 0.534255
Si Si6 0.950484 0.272292 0.952448
Si Si7 0.159263 0.147585 0.166368
Si Si8 0.009503 0.956246 0.650947
O O1 0.060815 0.903006 0.742310
O O2 0.139371 0.163934 0.865091
O O3 0.068556 0.845213 0.944256
O O4 0.989439 0.145768 0.861443
O O5 0.227217 0.652639 0.581581
O O6 0.364762 0.612425 0.577144
O O7 0.303820 0.386272 0.708978
O O8 0.312392 0.891300 0.705563
O O9 0.751629 0.602027 0.928953
O O10 0.750406 0.102843 0.923949
O O11 0.682328 0.862340 0.051101
O O12 0.129956 0.643132 0.433982
O O13 0.991129 0.535094 0.485894
O O14 0.988078 0.227217 0.626238
O O15 0.950294 0.111008 0.049987
O O16 0.070928 0.158683 0.167547
#
# Coordination Sequence:
#
# PCOD9340218 Si02
#       8
#     4   4   4   4   4   4   4   4
#     4  11  22  38  67  91 126 173 224 269 323 396
#     4   9  15  32  57  80 107 164 200 238 298 387
#     4  10  19  39  62  88 117 182 214 247 323 414
#     4  10  21  34  65  87 124 166 212 261 327 385
#     4  10  19  38  62  87 121 166 213 265 321 394
#     4  11  22  39  62  96 129 166 215 281 333 376
#     4   9  15  32  56  81 112 149 205 249 294 371
#     4  10  21  36  61  96 124 156 219 278 317 381
#
# _framework density 22.762625
#
# number of rings (size 3 to 8) (size 9 to 14) (size 15 to 20)
#    0.000    2.000    6.250    0.750    3.500    1.000 
#    0.000    0.000    8.250    0.000    0.000    0.000 
#    0.000    0.000    0.000    0.000    0.000    0.000 
#
# Total GULP energy -178437.607341 kJ/mol
# GULP energy per Si atom -5576.175229 kJ/mol
# Density = 2.271082 g / cm^3
# Si number density = 22.762625 Si / 1000 Ang^3
#
#
#
# Elastic Constant Matrix: (Units=GPa)
#
#
# Indices 1 2 3 4 5 6 
#
# 1 47.5639 4.1090 4.4715 0.0000 0.0000 0.0000
# 2 4.1090 116.5791 7.9879 0.0000 0.0000 0.0000
# 3 4.4715 7.9879 71.9307 0.0000 0.0000 0.0000
# 4 0.0000 0.0000 0.0000 -8.8151 0.0000 0.0000
# 5 0.0000 0.0000 0.0000 0.0000 19.7071 0.0000
# 6 0.0000 0.0000 0.0000 0.0000 0.0000 74.0120
#
#
#
# Elastic Compliance Matrix: (Units=1/GPa)
#
#
# Indices 1 2 3 4 5 6 
#
# 1 0.021199 -0.000662 -0.001244 0.000000 0.000000 0.000000
# 2 -0.000662 0.008664 -0.000921 0.000000 0.000000 0.000000
# 3 -0.001244 -0.000921 0.014082 0.000000 0.000000 0.000000
# 4 0.000000 0.000000 0.000000 -0.113442 0.000000 0.000000
# 5 0.000000 0.000000 0.000000 0.000000 0.050743 0.000000
# 6 0.000000 0.000000 0.000000 0.000000 0.000000 0.013511
#
#
# Mechanical properties :
#
#
# Convention : Reuss Voigt Hill
#
# Bulk Modulus (GPa) = 26.11632 29.91231 28.01431
# Shear Modulus (GPa) = 379.49645 31.61448 205.55547
#
# Velocity S-wave (km/s) = 12.92598 3.73081 9.51315
# Velocity P-wave (km/s) = 15.30598 5.63277 11.53258
#
# Compressibility (1/GPa) = 0.03829024
#
# Stress axis : x y z
#
# Youngs Moduli (GPa) = 47.17312 115.41609 71.01316
#
# Poissons Ratio (x) = 0.07640 0.08836
# Poissons Ratio (y) = 0.03122 0.06540
# Poissons Ratio (z) = 0.05870 0.10630
#
# Static dielectric constant tensor:
#      x y z
#    x 1.821770 0.000000 0.000000 
#    y 0.000000 1.992590 0.000000 
#    z 0.000000 0.000000 1.823190 
# 
# From -- ./inp_files/4821.got.cif
#   From: 2010.05.17/outbox.cif.g08.bks.cpg/sg29_3_cif.got.tgz:4821.got - 2010.06.04 01:19:37.
