data_PCOD9340796
_publ_section_title
;
Structure prediction by ZEFSAII (Michael W. Deem and Ramdas Pophale) SiO2 
 PCOD9340796
Probable space group: P C A 21
;
_chemical_formula_sum "Si O2"
_cell_formula_units_Z 32
_cell_length_a 7.969444
_cell_length_b 7.044300
_cell_length_c 26.403554
_cell_angle_alpha 90.000000
_cell_angle_beta 90.000000
_cell_angle_gamma 90.000000
_cell_volume 1482.273194
_symmetry_space_group_name_H-M "P C A 21"
_symmetry_group_IT_number 29
_symmetry_cell_setting 'orthorhombic'
loop_
_space_group_symop_operation_xyz
x,y,z
-x,-y,1/2+z
1/2-x,y,1/2+z
1/2+x,-y,z
loop_
_atom_site_type_symbol
_atom_site_label
_atom_site_fract_x
_atom_site_fract_y
_atom_site_fract_z
Si Si1 0.667833 0.703309 0.194050
Si Si2 0.147216 0.637991 0.388854
Si Si3 0.352784 0.637991 0.615129
Si Si4 0.167833 0.296691 0.309933
Si Si5 0.537935 0.106464 0.194429
Si Si6 0.462065 0.893536 0.809554
Si Si7 0.126622 0.405701 0.963051
Si Si8 0.126623 0.405701 0.540932
O O1 0.628824 0.545486 0.152022
O O2 0.653276 0.629084 0.251992
O O3 0.856703 0.790837 0.189019
O O4 0.542523 0.880468 0.188410
O O5 0.128824 0.454514 0.351961
O O6 0.167655 0.807005 0.349692
O O7 0.280054 0.569613 0.430595
O O8 0.983385 0.697743 0.421252
O O9 0.332345 0.807005 0.654291
O O10 0.219946 0.569614 0.573388
O O11 0.516616 0.697743 0.582731
O O12 0.356703 0.209163 0.314965
O O13 0.042523 0.119532 0.315573
O O14 0.595385 0.142298 0.251992
O O15 0.250000 0.298289 0.001992
O O16 1.000000 0.500000 0.001992
#
# Coordination Sequence:
#
# PCOD9340796 Si02
#       8
#     4   4   4   4   4   4   4   4
#     4  10  22  37  56  88 123 152 188 231 276 340
#     4  11  19  38  63  84 111 157 192 228 291 346
#     4  11  19  38  63  84 111 157 192 228 291 346
#     4  10  22  37  56  88 123 152 188 231 276 340
#     4  10  22  37  56  88 123 153 188 230 277 341
#     4  10  22  37  56  88 123 153 188 230 277 341
#     4   9  20  36  60  86 108 145 195 247 291 330
#     4   9  20  36  60  86 108 145 195 247 291 330
#
# _framework density 21.588463000000001
#
# number of rings (size 3 to 8) (size 9 to 14) (size 15 to 20)
#    0.000    2.000    2.500    0.750    3.500    0.000 
#    0.000    0.000    0.000   30.000    0.000    0.000 
#    0.000    0.000    0.000    0.000    0.000    0.000 
#
# Total GULP energy -178273.840394 kJ/mol
# GULP energy per Si atom -5571.057512 kJ/mol
# Density = 2.153933 g / cm^3
# Si number density = 21.588463 Si / 1000 Ang^3
#
#
#
# Elastic Constant Matrix: (Units=GPa)
#
#
# Indices 1 2 3 4 5 6 
#
# 1 52.5915 6.9920 52.1642 0.0000 0.0000 0.0000
# 2 6.9920 45.9039 42.3442 0.0000 0.0000 0.0000
# 3 52.1642 42.3442 173.8103 0.0000 0.0000 0.0000
# 4 0.0000 0.0000 0.0000 -1.0379 0.0000 0.0000
# 5 0.0000 0.0000 0.0000 0.0000 17.8326 0.0000
# 6 0.0000 0.0000 0.0000 0.0000 0.0000 11.8573
#
#
#
# Elastic Compliance Matrix: (Units=1/GPa)
#
#
# Indices 1 2 3 4 5 6 
#
# 1 0.027764 0.004460 -0.009419 0.000000 0.000000 0.000000
# 2 0.004460 0.028816 -0.008359 0.000000 0.000000 0.000000
# 3 -0.009419 -0.008359 0.010617 0.000000 0.000000 0.000000
# 4 0.000000 0.000000 0.000000 -0.963470 0.000000 0.000000
# 5 0.000000 0.000000 0.000000 0.000000 0.056077 0.000000
# 6 0.000000 0.000000 0.000000 0.000000 0.000000 0.084336
#
#
# Mechanical properties :
#
#
# Convention : Reuss Voigt Hill
#
# Bulk Modulus (GPa) = 24.65458 52.81184 38.73321
# Shear Modulus (GPa) = -6.98613 17.11743 5.06565
#
# Velocity S-wave (km/s) = -1.80085 2.81890 1.53348
# Velocity P-wave (km/s) = 2.66851 5.92545 4.59521
#
# Compressibility (1/GPa) = 0.04056042
#
# Stress axis : x y z
#
# Youngs Moduli (GPa) = 36.01765 34.70325 94.19195
#
# Poissons Ratio (x) = -0.15476 0.88720
# Poissons Ratio (y) = -0.16063 0.78731
# Poissons Ratio (z) = 0.33925 0.29007
#
# Static dielectric constant tensor:
#      x y z
#    x 1.947900 0.000000 0.000000 
#    y 0.000000 1.734390 0.000000 
#    z 0.000000 0.000000 1.782800 
# 
# From -- ./inp_files/5686.got.cif
#   From: 2010.05.17/outbox.cif.g08.bks.cpg/sg29_3_cif.got.tgz:5686.got - 2010.06.04 01:19:37.
