data_PCOD9340787
_publ_section_title
;
Structure prediction by ZEFSAII (Michael W. Deem and Ramdas Pophale) SiO2 
 PCOD9340787
Probable space group: P C A 21
;
_chemical_formula_sum "Si O2"
_cell_formula_units_Z 28
_cell_length_a 13.003850
_cell_length_b 5.659104
_cell_length_c 13.471800
_cell_angle_alpha 90.000000
_cell_angle_beta 90.000000
_cell_angle_gamma 90.000000
_cell_volume 991.391642
_symmetry_space_group_name_H-M "P C A 21"
_symmetry_group_IT_number 29
_symmetry_cell_setting 'orthorhombic'
loop_
_space_group_symop_operation_xyz
x,y,z
-x,-y,1/2+z
1/2-x,y,1/2+z
1/2+x,-y,z
loop_
_atom_site_type_symbol
_atom_site_label
_atom_site_fract_x
_atom_site_fract_y
_atom_site_fract_z
Si Si1 0.724043 0.396315 0.359360
Si Si2 0.022486 0.381531 0.888220
Si Si3 0.970476 0.138044 0.600286
Si Si4 0.487814 0.123716 0.868010
Si Si5 0.744126 0.200418 0.651699
Si Si6 0.471848 0.637932 0.108220
Si Si7 0.254786 0.103720 0.330596
O O1 0.603857 0.394849 0.384529
O O2 0.728999 0.383931 0.239573
O O3 0.780400 0.644354 0.381608
O O4 0.769045 0.141891 0.390365
O O5 0.037624 0.379063 0.006769
O O6 0.046439 0.634962 0.839746
O O7 0.046182 0.121629 0.846567
O O8 0.019125 0.128172 0.489694
O O9 0.010862 0.377652 0.652129
O O10 0.848266 0.158164 0.594140
O O11 0.993311 0.888510 0.653477
O O12 0.371316 0.118000 0.829867
O O13 0.649082 0.310640 0.593918
O O14 0.717782 0.964755 0.716521
#
# Coordination Sequence:
#
# PCOD9340787 Si02
#       7
#     4   4   4   4   4   4   4
#     4   8  16  28  52  73 101 142 178 211 276 320
#     4   8  14  30  49  72  99 140 177 214 264 321
#     4  10  22  35  56  83 112 145 187 231 277 331
#     4   8  14  30  49  74  98 140 178 212 265 326
#     4  10  22  34  60  81 115 145 183 231 288 327
#     4  10  22  35  56  82 113 143 188 229 276 333
#     4   8  16  28  52  77  98 145 175 210 276 326
#
# _framework density 28.243126
#
# number of rings (size 3 to 8) (size 9 to 14) (size 15 to 20)
#    0.857    2.286    0.000    0.000    4.000    0.000 
#    0.000    0.000    3.143    0.000    0.000    0.000 
#    0.000    0.000    0.000    0.000    0.000    0.000 
#
# Total GULP energy -156480.907777 kJ/mol
# GULP energy per Si atom -5588.603849 kJ/mol
# Density = 2.817884 g / cm^3
# Si number density = 28.243126 Si / 1000 Ang^3
#
#
#
# Elastic Constant Matrix: (Units=GPa)
#
#
# Indices 1 2 3 4 5 6 
#
# 1 71.7588 29.1809 12.3677 0.0000 0.0000 0.0000
# 2 29.1809 310.5311 10.7758 0.0000 0.0000 0.0000
# 3 12.3677 10.7758 75.0012 0.0000 0.0000 0.0000
# 4 0.0000 0.0000 0.0000 33.6268 0.0000 0.0000
# 5 0.0000 0.0000 0.0000 0.0000 38.7193 0.0000
# 6 0.0000 0.0000 0.0000 0.0000 0.0000 53.4761
#
#
#
# Elastic Compliance Matrix: (Units=1/GPa)
#
#
# Indices 1 2 3 4 5 6 
#
# 1 0.014861 -0.001318 -0.002261 0.000000 0.000000 0.000000
# 2 -0.001318 0.003353 -0.000264 0.000000 0.000000 0.000000
# 3 -0.002261 -0.000264 0.013744 0.000000 0.000000 0.000000
# 4 0.000000 0.000000 0.000000 0.029738 0.000000 0.000000
# 5 0.000000 0.000000 0.000000 0.000000 0.025827 0.000000
# 6 0.000000 0.000000 0.000000 0.000000 0.000000 0.018700
#
#
# Mechanical properties :
#
#
# Convention : Reuss Voigt Hill
#
# Bulk Modulus (GPa) = 41.20129 62.43778 51.81953
# Shear Modulus (GPa) = 40.98309 52.16222 46.57265
#
# Velocity S-wave (km/s) = 3.81344 4.30222 4.06518
# Velocity P-wave (km/s) = 5.83177 6.84354 6.35781
#
# Compressibility (1/GPa) = 0.02427109
#
# Stress axis : x y z
#
# Youngs Moduli (GPa) = 67.28889 298.21138 72.75907
#
# Poissons Ratio (x) = 0.39306 0.16453
# Poissons Ratio (y) = 0.08869 0.01924
# Poissons Ratio (z) = 0.15216 0.07886
#
# Static dielectric constant tensor:
#      x y z
#    x 2.216420 0.000000 0.000000 
#    y 0.000000 2.308440 0.000000 
#    z 0.000000 0.000000 2.116460 
# 
# From -- ./inp_files/5469.got.cif
#   From: 2010.05.17/outbox.cif.g08.bks.cpg/sg29_3_cif.got.tgz:5469.got - 2010.06.04 01:19:37.
