data_PCOD9340433
_publ_section_title
;
Structure prediction by ZEFSAII (Michael W. Deem and Ramdas Pophale) SiO2 
 PCOD9340433
Probable space group: P C A 21
;
_chemical_formula_sum "Si O2"
_cell_formula_units_Z 32
_cell_length_a 20.307543
_cell_length_b 5.220286
_cell_length_c 12.758466
_cell_angle_alpha 90.000000
_cell_angle_beta 90.000000
_cell_angle_gamma 90.000000
_cell_volume 1352.540066
_symmetry_space_group_name_H-M "P C A 21"
_symmetry_group_IT_number 29
_symmetry_cell_setting 'orthorhombic'
loop_
_space_group_symop_operation_xyz
x,y,z
-x,-y,1/2+z
1/2-x,y,1/2+z
1/2+x,-y,z
loop_
_atom_site_type_symbol
_atom_site_label
_atom_site_fract_x
_atom_site_fract_y
_atom_site_fract_z
Si Si1 0.671081 0.229269 0.003100
Si Si2 0.958505 0.838717 0.750157
Si Si3 0.696078 0.388811 0.499351
Si Si4 0.825655 0.723929 0.642906
Si Si5 0.566608 0.207836 0.411968
Si Si6 0.469568 0.589932 0.449586
Si Si7 0.447328 0.119822 0.105694
Si Si8 0.691991 0.882453 0.634990
O O1 0.739211 0.279865 0.940566
O O2 0.679587 0.440589 0.095122
O O3 0.665300 0.946102 0.052747
O O4 0.604791 0.317703 0.946270
O O5 0.934859 0.112512 0.794940
O O6 0.013184 0.900271 0.664703
O O7 0.892415 0.717209 0.708140
O O8 0.992587 0.702175 0.848336
O O9 0.627873 0.389490 0.435932
O O10 0.703800 0.676799 0.541107
O O11 0.691069 0.177149 0.594848
O O12 0.758217 0.818118 0.700135
O O13 0.492431 0.297738 0.439120
O O14 0.580383 0.985554 0.495807
O O15 0.501092 0.674167 0.561616
O O16 0.382083 0.188961 0.171816
#
# Coordination Sequence:
#
# PCOD9340433 Si02
#       8
#     4   4   4   4   4   4   4   4
#     4  10  21  38  66  89 119 163 207 250 311 366
#     4  11  24  37  59  94 125 162 212 260 312 371
#     4   9  18  37  62  88 115 158 206 248 301 369
#     4  10  21  39  63  90 120 163 206 256 305 368
#     4  10  22  38  62  87 124 165 210 252 317 370
#     4  11  22  37  62  88 124 166 204 257 315 368
#     4  10  20  40  62  86 123 164 204 259 306 373
#     4   9  18  36  64  88 112 161 207 242 307 367
#
# _framework density 23.659189000000001
#
# number of rings (size 3 to 8) (size 9 to 14) (size 15 to 20)
#    0.000    2.000    2.500    0.750    3.500    1.000 
#    2.250    0.000    2.750    0.000    0.000    0.000 
#    0.000    0.000    0.000    0.000    0.000    0.000 
#
# Total GULP energy -178236.776375 kJ/mol
# GULP energy per Si atom -5569.899262 kJ/mol
# Density = 2.360534 g / cm^3
# Si number density = 23.659189 Si / 1000 Ang^3
#
#
#
# Elastic Constant Matrix: (Units=GPa)
#
#
# Indices 1 2 3 4 5 6 
#
# 1 85.1113 -8.5975 14.0750 0.0000 0.0000 0.0000
# 2 -8.5975 79.3598 5.5652 0.0000 0.0000 0.0000
# 3 14.0750 5.5652 32.4391 0.0000 0.0000 0.0000
# 4 0.0000 0.0000 0.0000 20.2889 0.0000 0.0000
# 5 0.0000 0.0000 0.0000 0.0000 3.8151 0.0000
# 6 0.0000 0.0000 0.0000 0.0000 0.0000 29.8216
#
#
#
# Elastic Compliance Matrix: (Units=1/GPa)
#
#
# Indices 1 2 3 4 5 6 
#
# 1 0.012910 0.001813 -0.005913 0.000000 0.000000 0.000000
# 2 0.001813 0.013009 -0.003019 0.000000 0.000000 0.000000
# 3 -0.005913 -0.003019 0.033910 0.000000 0.000000 0.000000
# 4 0.000000 0.000000 0.000000 0.049288 0.000000 0.000000
# 5 0.000000 0.000000 0.000000 0.000000 0.262118 0.000000
# 6 0.000000 0.000000 0.000000 0.000000 0.000000 0.033533
#
#
# Mechanical properties :
#
#
# Convention : Reuss Voigt Hill
#
# Bulk Modulus (GPa) = 21.93293 24.33286 23.13290
# Shear Modulus (GPa) = 11.51537 23.17629 17.34583
#
# Velocity S-wave (km/s) = 2.20856 3.13323 2.71062
# Velocity P-wave (km/s) = 3.97419 4.83700 4.42667
#
# Compressibility (1/GPa) = 0.04559354
#
# Stress axis : x y z
#
# Youngs Moduli (GPa) = 77.45760 76.87003 29.48949
#
# Poissons Ratio (x) = -0.13939 0.17436
# Poissons Ratio (y) = -0.14045 0.08902
# Poissons Ratio (z) = 0.45799 0.23204
#
# Static dielectric constant tensor:
#      x y z
#    x 2.064100 0.000000 0.000000 
#    y 0.000000 2.011160 0.000000 
#    z 0.000000 0.000000 1.886350 
# 
# From -- ./inp_files/3898.got.cif
#   From: 2010.05.17/outbox.cif.g08.bks.cpg/sg29_2_cif.got.tgz:3898.got - 2010.06.04 01:19:37.
