data_PCOD9340417
_publ_section_title
;
Structure prediction by ZEFSAII (Michael W. Deem and Ramdas Pophale) SiO2 
 PCOD9340417
Probable space group: P C A 21
;
_chemical_formula_sum "Si O2"
_cell_formula_units_Z 28
_cell_length_a 18.025591
_cell_length_b 7.619037
_cell_length_c 10.530871
_cell_angle_alpha 90.000000
_cell_angle_beta 90.000000
_cell_angle_gamma 90.000000
_cell_volume 1446.285021
_symmetry_space_group_name_H-M "P C A 21"
_symmetry_group_IT_number 29
_symmetry_cell_setting 'orthorhombic'
loop_
_space_group_symop_operation_xyz
x,y,z
-x,-y,1/2+z
1/2-x,y,1/2+z
1/2+x,-y,z
loop_
_atom_site_type_symbol
_atom_site_label
_atom_site_fract_x
_atom_site_fract_y
_atom_site_fract_z
Si Si1 0.366581 0.370941 0.025420
Si Si2 0.417848 0.805247 0.325699
Si Si3 0.782033 0.351975 0.196688
Si Si4 0.366581 0.629066 0.579522
Si Si5 0.917848 0.805244 0.279242
Si Si6 0.473207 0.500000 0.802471
Si Si7 0.782034 0.648019 0.408253
O O1 0.329882 0.541530 0.092542
O O2 0.405458 0.253751 0.133196
O O3 0.422952 0.433487 0.918069
O O4 0.294310 0.279100 0.963855
O O5 0.337511 0.784713 0.260247
O O6 0.405459 0.746257 0.471747
O O7 0.472782 0.660603 0.266823
O O8 0.446118 0.000001 0.302470
O O9 0.705689 0.279093 0.141087
O O10 0.762957 0.499999 0.302469
O O11 0.422953 0.566516 0.686872
O O12 0.329882 0.458480 0.512397
O O13 0.837511 0.784711 0.344696
O O14 0.972782 0.660602 0.338121
#
# Coordination Sequence:
#
# PCOD9340417 Si02
#       7
#     4   4   4   4   4   4   4
#     4  10  20  39  67  87 119 168 211 259 314 369
#     4  11  24  41  61  95 131 163 208 264 323 380
#     4   9  18  39  66  90 114 161 215 262 309 370
#     4  10  20  39  67  87 119 168 211 259 314 369
#     4  11  24  41  61  95 131 163 208 264 323 380
#     4  12  22  42  62  92 126 172 208 256 324 384
#     4   9  18  39  66  90 114 161 215 262 309 370
#
# _framework density 19.359946000000001
#
# number of rings (size 3 to 8) (size 9 to 14) (size 15 to 20)
#    0.000    1.714    5.714    0.857    0.000    1.143 
#   10.286    1.429    0.000    0.000    0.000    0.000 
#    0.000    0.000    0.000    0.000    0.000    0.000 
#
# Total GULP energy -156274.527831 kJ/mol
# GULP energy per Si atom -5581.233137 kJ/mol
# Density = 1.931588 g / cm^3
# Si number density = 19.359946 Si / 1000 Ang^3
#
#
#
# Elastic Constant Matrix: (Units=GPa)
#
#
# Indices 1 2 3 4 5 6 
#
# 1 110.7407 37.0429 53.8137 0.0000 0.0000 0.0000
# 2 37.0429 98.1138 14.8466 0.0000 0.0000 0.0000
# 3 53.8137 14.8466 86.7625 0.0000 0.0000 0.0000
# 4 0.0000 0.0000 0.0000 11.4639 0.0000 0.0000
# 5 0.0000 0.0000 0.0000 0.0000 20.8573 0.0000
# 6 0.0000 0.0000 0.0000 0.0000 0.0000 -0.0138
#
#
#
# Elastic Compliance Matrix: (Units=1/GPa)
#
#
# Indices 1 2 3 4 5 6 
#
# 1 0.014439 -0.004205 -0.008236 0.000000 0.000000 0.000000
# 2 -0.004205 0.011688 0.000608 0.000000 0.000000 0.000000
# 3 -0.008236 0.000608 0.016530 0.000000 0.000000 0.000000
# 4 0.000000 0.000000 0.000000 0.087230 0.000000 0.000000
# 5 0.000000 0.000000 0.000000 0.000000 0.047945 0.000000
# 6 0.000000 0.000000 0.000000 0.000000 0.000000-72.390774
#
#
# Mechanical properties :
#
#
# Convention : Reuss Voigt Hill
#
# Bulk Modulus (GPa) = 52.65707 56.33592 54.49650
# Shear Modulus (GPa) = -0.06927 19.12242 9.52657
#
# Velocity S-wave (km/s) = -0.18936 3.14623 2.22069
# Velocity P-wave (km/s) = 5.21634 6.50851 5.89792
#
# Compressibility (1/GPa) = 0.01899080
#
# Stress axis : x y z
#
# Youngs Moduli (GPa) = 69.25688 85.55879 60.49607
#
# Poissons Ratio (x) = 0.35979 0.49825
# Poissons Ratio (y) = 0.29124 -0.03679
# Poissons Ratio (z) = 0.57041 -0.05204
#
# Static dielectric constant tensor:
#      x y z
#    x 1.700130 0.000000 0.000000 
#    y 0.000000 1.639180 0.000000 
#    z 0.000000 0.000000 1.715320 
# 
# From -- ./inp_files/3650.got.cif
#   From: 2010.05.17/outbox.cif.g08.bks.cpg/sg29_2_cif.got.tgz:3650.got - 2010.06.04 01:19:37.
