data_PCOD9340818
_publ_section_title
;
Structure prediction by ZEFSAII (Michael W. Deem and Ramdas Pophale) SiO2 
 PCOD9340818
Probable space group: P C A 21
;
_chemical_formula_sum "Si O2"
_cell_formula_units_Z 32
_cell_length_a 30.780968
_cell_length_b 9.813481
_cell_length_c 5.136957
_cell_angle_alpha 90.000000
_cell_angle_beta 90.000000
_cell_angle_gamma 90.000000
_cell_volume 1551.712611
_symmetry_space_group_name_H-M "P C A 21"
_symmetry_group_IT_number 29
_symmetry_cell_setting 'orthorhombic'
loop_
_space_group_symop_operation_xyz
x,y,z
-x,-y,1/2+z
1/2-x,y,1/2+z
1/2+x,-y,z
loop_
_atom_site_type_symbol
_atom_site_label
_atom_site_fract_x
_atom_site_fract_y
_atom_site_fract_z
Si Si1 0.154438 0.739406 0.081100
Si Si2 0.221833 0.965380 0.092879
Si Si3 0.533450 0.673016 0.657014
Si Si4 0.411850 0.089828 0.961049
Si Si5 0.641436 0.839466 0.967676
Si Si6 0.887459 0.540726 0.495126
Si Si7 0.454903 0.585363 0.911408
Si Si8 0.102001 0.798017 0.605156
O O1 0.200443 0.814786 0.067745
O O2 0.146935 0.585365 0.973218
O O3 0.135859 0.761783 0.372606
O O4 0.125005 0.822903 0.877230
O O5 0.240128 0.980773 0.382567
O O6 0.185231 0.078508 0.030049
O O7 0.549534 0.805415 0.511582
O O8 0.490545 0.694656 0.822471
O O9 0.518292 0.549436 0.475010
O O10 0.575772 0.605374 0.798498
O O11 0.374436 0.133023 0.171703
O O12 0.422169 0.934009 0.019697
O O13 0.394536 0.105862 0.670358
O O14 0.641346 0.677429 0.032786
O O15 0.918248 0.476352 0.719768
O O16 0.428651 0.667076 0.130427
#
# Coordination Sequence:
#
# PCOD9340818 Si02
#       8
#     4   4   4   4   4   4   4   4
#     4  11  22  40  65  93 122 161 210 252 300 391
#     4  12  24  42  66  98 126 158 196 258 328 380
#     4  11  21  36  58  90 127 165 214 262 308 351
#     4  11  21  39  62  90 123 170 214 254 303 363
#     4  11  22  40  65  93 122 161 210 252 300 391
#     4  10  22  38  62  88 120 170 214 248 300 364
#     4  11  21  36  58  90 127 165 214 262 308 351
#     4  11  21  39  62  90 123 170 214 254 303 363
#
# _framework density 20.622375000000002
#
# number of rings (size 3 to 8) (size 9 to 14) (size 15 to 20)
#    0.000    1.000    6.250    1.500    0.000    0.000 
#    0.000    7.500    0.000    0.000    0.000    0.000 
#    0.000    0.000    0.000    0.000    0.000    0.000 
#
# Total GULP energy -178260.098088 kJ/mol
# GULP energy per Si atom -5570.628065 kJ/mol
# Density = 2.057544 g / cm^3
# Si number density = 20.622375 Si / 1000 Ang^3
#
#
#
# Elastic Constant Matrix: (Units=GPa)
#
#
# Indices 1 2 3 4 5 6 
#
# 1 44.5433 14.7677 -6.2410 0.0000 0.0000 0.0000
# 2 14.7677 120.3419 -10.3030 0.0000 0.0000 0.0000
# 3 -6.2410 -10.3030 41.6076 0.0000 0.0000 0.0000
# 4 0.0000 0.0000 0.0000 24.0737 0.0000 0.0000
# 5 0.0000 0.0000 0.0000 0.0000 30.9472 0.0000
# 6 0.0000 0.0000 0.0000 0.0000 0.0000 37.5654
#
#
#
# Elastic Compliance Matrix: (Units=1/GPa)
#
#
# Indices 1 2 3 4 5 6 
#
# 1 0.023740 -0.002665 0.002901 0.000000 0.000000 0.000000
# 2 -0.002665 0.008789 0.001777 0.000000 0.000000 0.000000
# 3 0.002901 0.001777 0.024909 0.000000 0.000000 0.000000
# 4 0.000000 0.000000 0.000000 0.041539 0.000000 0.000000
# 5 0.000000 0.000000 0.000000 0.000000 0.032313 0.000000
# 6 0.000000 0.000000 0.000000 0.000000 0.000000 0.026620
#
#
# Mechanical properties :
#
#
# Convention : Reuss Voigt Hill
#
# Bulk Modulus (GPa) = 16.26984 22.54890 19.40937
# Shear Modulus (GPa) = 28.67421 32.40187 30.53804
#
# Velocity S-wave (km/s) = 3.73291 3.96814 3.85232
# Velocity P-wave (km/s) = 5.14646 5.65268 5.40549
#
# Compressibility (1/GPa) = 0.06146344
#
# Stress axis : x y z
#
# Youngs Moduli (GPa) = 42.12296 113.78145 40.14590
#
# Poissons Ratio (x) = 0.30321 -0.11646
# Poissons Ratio (y) = 0.11225 -0.07132
# Poissons Ratio (z) = -0.12220 -0.20214
#
# Static dielectric constant tensor:
#      x y z
#    x 1.739640 0.000000 0.000000 
#    y 0.000000 1.773950 0.000000 
#    z 0.000000 0.000000 1.837950 
# 
# From -- ./inp_files/897.got.cif
#   From: 2010.05.17/outbox.cif.g08.bks.cpg/sg29_1_cif.got.tgz:897.got - 2010.06.04 01:19:37.
