data_PCOD9340951
_publ_section_title
;
Structure prediction by ZEFSAII (Michael W. Deem and Ramdas Pophale) SiO2 
 PCOD9340951
Probable space group: P C A 21
;
_chemical_formula_sum "Si O2"
_cell_formula_units_Z 24
_cell_length_a 9.382922
_cell_length_b 9.054141
_cell_length_c 11.690801
_cell_angle_alpha 90.000000
_cell_angle_beta 90.000000
_cell_angle_gamma 90.000000
_cell_volume 993.183801
_symmetry_space_group_name_H-M "P C A 21"
_symmetry_group_IT_number 29
_symmetry_cell_setting 'orthorhombic'
loop_
_space_group_symop_operation_xyz
x,y,z
-x,-y,1/2+z
1/2-x,y,1/2+z
1/2+x,-y,z
loop_
_atom_site_type_symbol
_atom_site_label
_atom_site_fract_x
_atom_site_fract_y
_atom_site_fract_z
Si Si1 0.533347 0.907978 0.629410
Si Si2 0.936653 0.572877 0.373042
Si Si3 0.421864 0.841599 0.973972
Si Si4 0.860048 0.391448 0.176845
Si Si5 0.753123 0.112886 0.273812
Si Si6 0.341994 0.383003 0.009208
O O1 0.384199 0.881387 0.691361
O O2 0.612640 0.769736 0.569207
O O3 0.496652 0.023625 0.529030
O O4 0.637904 0.995296 0.718316
O O5 0.961033 0.500186 0.249468
O O6 0.772682 0.605546 0.407145
O O7 0.003293 0.734398 0.384405
O O8 0.016587 0.464643 0.462249
O O9 0.293060 0.915047 0.903854
O O10 0.396133 0.729571 0.079730
O O11 0.807581 0.281767 0.275009
O O12 0.771973 0.512494 0.106815
#
# Coordination Sequence:
#
# PCOD9340951 Si02
#       6
#     4   4   4   4   4   4
#     4  11  25  43  70 102 139 181 228 281 346 415
#     4  11  23  42  68  99 135 179 229 282 339 405
#     4  10  24  43  65  98 137 179 226 279 341 410
#     4  10  22  42  67  96 132 178 226 279 338 402
#     4  11  24  45  68  97 136 180 226 284 344 411
#     4  11  24  41  68 102 137 179 229 283 340 409
#
# _framework density 24.164708999999998
#
# number of rings (size 3 to 8) (size 9 to 14) (size 15 to 20)
#    0.000    1.333    0.000    5.000    0.000   13.333 
#    0.000    0.000    0.000    0.000    0.000    0.000 
#    0.000    0.000    0.000    0.000    0.000    0.000 
#
# Total GULP energy -133802.666469 kJ/mol
# GULP energy per Si atom -5575.111103 kJ/mol
# Density = 2.410971 g / cm^3
# Si number density = 24.164709 Si / 1000 Ang^3
#
#
#
# Elastic Constant Matrix: (Units=GPa)
#
#
# Indices 1 2 3 4 5 6 
#
# 1 81.9469 28.2735 9.7446 0.0000 0.0000 0.0000
# 2 28.2735 132.4165 16.9060 0.0000 0.0000 0.0000
# 3 9.7446 16.9060 61.4786 0.0000 0.0000 0.0000
# 4 0.0000 0.0000 0.0000 56.5336 0.0000 0.0000
# 5 0.0000 0.0000 0.0000 0.0000 41.8811 0.0000
# 6 0.0000 0.0000 0.0000 0.0000 0.0000 13.4953
#
#
#
# Elastic Compliance Matrix: (Units=1/GPa)
#
#
# Indices 1 2 3 4 5 6 
#
# 1 0.013285 -0.002661 -0.001374 0.000000 0.000000 0.000000
# 2 -0.002661 0.008360 -0.001877 0.000000 0.000000 0.000000
# 3 -0.001374 -0.001877 0.017000 0.000000 0.000000 0.000000
# 4 0.000000 0.000000 0.000000 0.017689 0.000000 0.000000
# 5 0.000000 0.000000 0.000000 0.000000 0.023877 0.000000
# 6 0.000000 0.000000 0.000000 0.000000 0.000000 0.074100
#
#
# Mechanical properties :
#
#
# Convention : Reuss Voigt Hill
#
# Bulk Modulus (GPa) = 37.28560 42.85446 40.07003
# Shear Modulus (GPa) = 28.55942 37.10986 32.83464
#
# Velocity S-wave (km/s) = 3.44156 3.92306 3.69017
# Velocity P-wave (km/s) = 5.59068 6.18816 5.89699
#
# Compressibility (1/GPa) = 0.02682001
#
# Stress axis : x y z
#
# Youngs Moduli (GPa) = 75.27548 119.62041 58.82436
#
# Poissons Ratio (x) = 0.31832 0.08082
# Poissons Ratio (y) = 0.20032 0.11042
# Poissons Ratio (z) = 0.10342 0.22454
#
# Static dielectric constant tensor:
#      x y z
#    x 1.978650 0.000000 0.000000 
#    y 0.000000 1.875180 0.000000 
#    z 0.000000 0.000000 2.056060 
# 
# From -- ./inp_files/2812.got.cif
#   From: 2010.05.17/outbox.cif.g08.bks.cpg/sg29_2_cif.got.tgz:2812.got - 2010.06.04 01:19:37.
