data_PCOD9340586
_publ_section_title
;
Structure prediction by ZEFSAII (Michael W. Deem and Ramdas Pophale) SiO2 
 PCOD9340586
Probable space group: P C A 21
;
_chemical_formula_sum "Si O2"
_cell_formula_units_Z 28
_cell_length_a 13.051717
_cell_length_b 17.814481
_cell_length_c 5.137417
_cell_angle_alpha 90.000000
_cell_angle_beta 90.000000
_cell_angle_gamma 90.000000
_cell_volume 1194.498589
_symmetry_space_group_name_H-M "P C A 21"
_symmetry_group_IT_number 29
_symmetry_cell_setting 'orthorhombic'
loop_
_space_group_symop_operation_xyz
x,y,z
-x,-y,1/2+z
1/2-x,y,1/2+z
1/2+x,-y,z
loop_
_atom_site_type_symbol
_atom_site_label
_atom_site_fract_x
_atom_site_fract_y
_atom_site_fract_z
Si Si1 0.509810 0.451152 0.266060
Si Si2 0.323109 0.674764 0.799805
Si Si3 0.685356 0.124064 0.844102
Si Si4 0.972910 0.205610 0.034704
Si Si5 0.204268 0.232167 0.041381
Si Si6 0.031775 0.963076 0.546559
Si Si7 0.293073 0.402784 0.433647
O O1 0.502407 0.518734 0.473728
O O2 0.610083 0.401186 0.303033
O O3 0.408617 0.403319 0.336848
O O4 0.258839 0.679136 0.534339
O O5 0.408035 0.739452 0.853024
O O6 0.721876 0.131194 0.137719
O O7 0.601333 0.187479 0.778356
O O8 0.632359 0.048879 0.729070
O O9 0.992849 0.120311 0.938604
O O10 0.084547 0.235903 0.104505
O O11 0.229539 0.195020 0.766594
O O12 0.241866 0.317747 0.992822
O O13 0.956858 0.989033 0.782654
O O14 0.275689 0.440492 0.712077
#
# Coordination Sequence:
#
# PCOD9340586 Si02
#       7
#     4   4   4   4   4   4   4
#     4  12  26  44  67  99 136 176 221 276 343 404
#     4  12  27  46  71 107 142 180 234 293 350 416
#     4  10  21  38  66  97 126 174 222 263 333 418
#     4  10  24  43  74  94 145 174 228 287 353 406
#     4  10  22  40  64  95 123 164 221 269 323 391
#     4  10  23  41  64  93 137 177 223 275 337 407
#     4  10  21  40  64  87 119 165 211 253 311 384
#
# _framework density 23.440798000000001
#
# number of rings (size 3 to 8) (size 9 to 14) (size 15 to 20)
#    0.857    0.571    1.429    3.429    0.000    8.000 
#    0.000    4.286    0.000    0.000    0.000    0.000 
#    0.000    0.000    0.000    0.000    0.000    0.000 
#
# Total GULP energy -156160.268726 kJ/mol
# GULP energy per Si atom -5577.152455 kJ/mol
# Density = 2.338745 g / cm^3
# Si number density = 23.440798 Si / 1000 Ang^3
#
#
#
# Elastic Constant Matrix: (Units=GPa)
#
#
# Indices 1 2 3 4 5 6 
#
# 1 93.1010 9.5542 23.3467 0.0000 0.0000 0.0000
# 2 9.5542 58.1739 8.7474 0.0000 0.0000 0.0000
# 3 23.3467 8.7474 105.4457 0.0000 0.0000 0.0000
# 4 0.0000 0.0000 0.0000 10.7073 0.0000 0.0000
# 5 0.0000 0.0000 0.0000 0.0000 19.4183 0.0000
# 6 0.0000 0.0000 0.0000 0.0000 0.0000 32.7557
#
#
#
# Elastic Compliance Matrix: (Units=1/GPa)
#
#
# Indices 1 2 3 4 5 6 
#
# 1 0.011505 -0.001525 -0.002421 0.000000 0.000000 0.000000
# 2 -0.001525 0.017609 -0.001123 0.000000 0.000000 0.000000
# 3 -0.002421 -0.001123 0.010113 0.000000 0.000000 0.000000
# 4 0.000000 0.000000 0.000000 0.093394 0.000000 0.000000
# 5 0.000000 0.000000 0.000000 0.000000 0.051498 0.000000
# 6 0.000000 0.000000 0.000000 0.000000 0.000000 0.030529
#
#
# Mechanical properties :
#
#
# Convention : Reuss Voigt Hill
#
# Bulk Modulus (GPa) = 34.37831 37.77971 36.07901
# Shear Modulus (GPa) = 21.32359 26.91441 24.11900
#
# Velocity S-wave (km/s) = 3.01936 3.39217 3.21118
# Velocity P-wave (km/s) = 5.18201 5.61199 5.40128
#
# Compressibility (1/GPa) = 0.02908811
#
# Stress axis : x y z
#
# Youngs Moduli (GPa) = 86.92179 56.78840 98.88573
#
# Poissons Ratio (x) = 0.08663 0.23937
# Poissons Ratio (y) = 0.13260 0.11105
# Poissons Ratio (z) = 0.21041 0.06378
#
# Static dielectric constant tensor:
#      x y z
#    x 1.912330 0.000000 0.000000 
#    y 0.000000 1.961110 0.000000 
#    z 0.000000 0.000000 1.958770 
# 
# From -- ./inp_files/111.got.cif
#   From: 2010.05.17/outbox.cif.g08.bks.cpg/sg29_1_cif.got.tgz:111.got - 2010.06.04 01:19:37.
