data_PCOD9340069
_publ_section_title
;
Structure prediction by ZEFSAII (Michael W. Deem and Ramdas Pophale) SiO2 
 PCOD9340069
Probable space group: P C A 21
;
_chemical_formula_sum "Si O2"
_cell_formula_units_Z 32
_cell_length_a 8.031302
_cell_length_b 10.932688
_cell_length_c 17.855320
_cell_angle_alpha 90.000000
_cell_angle_beta 90.000000
_cell_angle_gamma 90.000000
_cell_volume 1567.763500
_symmetry_space_group_name_H-M "P C A 21"
_symmetry_group_IT_number 29
_symmetry_cell_setting 'orthorhombic'
loop_
_space_group_symop_operation_xyz
x,y,z
-x,-y,1/2+z
1/2-x,y,1/2+z
1/2+x,-y,z
loop_
_atom_site_type_symbol
_atom_site_label
_atom_site_fract_x
_atom_site_fract_y
_atom_site_fract_z
Si Si1 0.750551 0.650888 0.972770
Si Si2 0.441012 0.805185 0.432498
Si Si3 0.227065 0.858606 0.778512
Si Si4 0.139643 0.736290 0.633831
Si Si5 0.336007 0.957306 0.572382
Si Si6 0.236395 0.228898 0.121706
Si Si7 0.351126 0.620596 0.984325
Si Si8 0.951431 0.902657 0.222346
O O1 0.546396 0.658143 0.968020
O O2 0.812846 0.514808 0.955105
O O3 0.873656 0.747124 0.932047
O O4 0.796245 0.677203 0.059795
O O5 0.386099 0.843637 0.350071
O O6 0.422461 0.912304 0.495492
O O7 0.295720 0.707166 0.453296
O O8 0.423300 0.876935 0.789885
O O9 0.218917 0.752184 0.715487
O O10 0.163943 0.983931 0.741019
O O11 0.945380 0.736619 0.647687
O O12 0.188275 0.859227 0.586886
O O13 0.175386 0.629502 0.574782
O O14 0.449079 0.935605 0.646002
O O15 0.280919 0.097673 0.578310
O O16 0.347134 0.212045 0.194573
#
# Coordination Sequence:
#
# PCOD9340069 Si02
#       8
#     4   4   4   4   4   4   4   4
#     4  11  22  39  72  90 120 162 215 274 315 363
#     4  11  24  40  62  94 128 171 206 265 323 381
#     4  11  22  38  57  89 134 172 194 257 332 382
#     4   9  19  35  61  86 121 158 206 257 299 374
#     4  10  18  35  60  90 122 155 211 252 300 378
#     4  11  18  34  64  95 112 162 207 257 311 368
#     4  10  22  42  66  92 118 161 228 267 306 364
#     4  11  19  35  58  84 125 165 201 249 306 384
#
# _framework density 20.411242000000001
#
# number of rings (size 3 to 8) (size 9 to 14) (size 15 to 20)
#    0.000    1.500    6.250    0.000    0.000    1.000 
#    9.000    0.000    8.250    0.000    0.000    0.000 
#    0.000    0.000    0.000    0.000    0.000    0.000 
#
# Total GULP energy -178231.467483 kJ/mol
# GULP energy per Si atom -5569.733359 kJ/mol
# Density = 2.036479 g / cm^3
# Si number density = 20.411242 Si / 1000 Ang^3
#
#
#
# Elastic Constant Matrix: (Units=GPa)
#
#
# Indices 1 2 3 4 5 6 
#
# 1 49.9222 -10.9879 -10.5861 0.0000 0.0000 0.0000
# 2 -10.9879 24.6418 -9.2990 0.0000 0.0000 0.0000
# 3 -10.5861 -9.2990 25.1344 0.0000 0.0000 0.0000
# 4 0.0000 0.0000 0.0000 10.6682 0.0000 0.0000
# 5 0.0000 0.0000 0.0000 0.0000 16.2773 0.0000
# 6 0.0000 0.0000 0.0000 0.0000 0.0000 20.5402
#
#
#
# Elastic Compliance Matrix: (Units=1/GPa)
#
#
# Indices 1 2 3 4 5 6 
#
# 1 0.028583 0.020094 0.019473 0.000000 0.000000 0.000000
# 2 0.020094 0.061292 0.031139 0.000000 0.000000 0.000000
# 3 0.019473 0.031139 0.059508 0.000000 0.000000 0.000000
# 4 0.000000 0.000000 0.000000 0.093737 0.000000 0.000000
# 5 0.000000 0.000000 0.000000 0.000000 0.061435 0.000000
# 6 0.000000 0.000000 0.000000 0.000000 0.000000 0.048685
#
#
# Mechanical properties :
#
#
# Convention : Reuss Voigt Hill
#
# Bulk Modulus (GPa) = 3.43885 4.21693 3.82789
# Shear Modulus (GPa) = 16.19377 18.20189 17.19783
#
# Velocity S-wave (km/s) = 2.81975 2.98947 2.90585
# Velocity P-wave (km/s) = 3.50567 3.73984 3.62465
#
# Compressibility (1/GPa) = 0.29079511
#
# Stress axis : x y z
#
# Youngs Moduli (GPa) = 34.98580 16.31528 16.80436
#
# Poissons Ratio (x) = -0.32783 -0.32723
# Poissons Ratio (y) = -0.70299 -0.52328
# Poissons Ratio (z) = -0.68127 -0.50805
#
# Static dielectric constant tensor:
#      x y z
#    x 1.808820 0.000000 0.000000 
#    y 0.000000 1.772710 0.000000 
#    z 0.000000 0.000000 1.758280 
# 
# From -- ./inp_files/4321.got.cif
#   From: 2010.05.17/outbox.cif.g08.bks.cpg/sg29_3_cif.got.tgz:4321.got - 2010.06.04 01:19:37.
