data_PCOD9340369
_publ_section_title
;
Structure prediction by ZEFSAII (Michael W. Deem and Ramdas Pophale) SiO2 
 PCOD9340369
Probable space group: P C A 21
;
_chemical_formula_sum "Si O2"
_cell_formula_units_Z 32
_cell_length_a 18.889053
_cell_length_b 8.514084
_cell_length_c 10.314067
_cell_angle_alpha 90.000000
_cell_angle_beta 90.000000
_cell_angle_gamma 90.000000
_cell_volume 1658.739031
_symmetry_space_group_name_H-M "P C A 21"
_symmetry_group_IT_number 29
_symmetry_cell_setting 'orthorhombic'
loop_
_space_group_symop_operation_xyz
x,y,z
-x,-y,1/2+z
1/2-x,y,1/2+z
1/2+x,-y,z
loop_
_atom_site_type_symbol
_atom_site_label
_atom_site_fract_x
_atom_site_fract_y
_atom_site_fract_z
Si Si1 0.368945 0.121864 0.785140
Si Si2 0.554513 0.669701 0.073987
Si Si3 0.214674 0.158225 0.707359
Si Si4 0.078095 0.956557 0.685491
Si Si5 0.316434 0.392761 0.978276
Si Si6 0.913852 0.415431 0.158557
Si Si7 0.485435 0.938698 0.923052
Si Si8 0.329086 0.423439 0.389823
O O1 0.417343 0.199874 0.674249
O O2 0.291286 0.083469 0.729716
O O3 0.411235 0.978435 0.850908
O O4 0.353040 0.264667 0.885411
O O5 0.497823 0.556838 0.142751
O O6 0.512932 0.763582 0.958674
O O7 0.622450 0.584623 0.015999
O O8 0.217265 0.292035 0.596881
O O9 0.187523 0.248354 0.836070
O O10 0.153145 0.039661 0.671645
O O11 0.089966 0.771933 0.667292
O O12 0.028177 0.012919 0.566006
O O13 0.043096 0.990066 0.824842
O O14 0.373446 0.510460 0.036914
O O15 0.250501 0.483252 0.913242
O O16 0.875296 0.488641 0.282426
#
# Coordination Sequence:
#
# PCOD9340369 Si02
#       8
#     4   4   4   4   4   4   4   4
#     4  11  21  37  64  92 117 162 211 255 303 371
#     4  11  22  38  63  90 124 157 210 253 310 366
#     4  10  20  37  67  89 111 162 211 246 301 367
#     4  11  22  42  63  94 130 160 201 261 314 369
#     4  10  21  40  65  86 122 162 208 253 305 374
#     4  10  24  39  60  91 128 159 199 254 317 366
#     4  11  21  38  63  93 127 159 202 262 310 361
#     4  10  21  41  61  87 121 163 204 250 298 374
#
# _framework density 19.291761999999999
#
# number of rings (size 3 to 8) (size 9 to 14) (size 15 to 20)
#    0.000    1.500    6.250    0.000    1.750    0.000 
#    4.500    0.000    0.000    0.000    0.000    0.000 
#    0.000    0.000    0.000    0.000    0.000    0.000 
#
# Total GULP energy -178297.515114 kJ/mol
# GULP energy per Si atom -5571.797347 kJ/mol
# Density = 1.924785 g / cm^3
# Si number density = 19.291762 Si / 1000 Ang^3
#
#
#
# Elastic Constant Matrix: (Units=GPa)
#
#
# Indices 1 2 3 4 5 6 
#
# 1 129.3995 21.2115 32.8821 0.0000 0.0000 0.0000
# 2 21.2115 23.6945 7.1322 0.0000 0.0000 0.0000
# 3 32.8821 7.1322 64.6865 0.0000 0.0000 0.0000
# 4 0.0000 0.0000 0.0000 25.3465 0.0000 0.0000
# 5 0.0000 0.0000 0.0000 0.0000 38.6071 0.0000
# 6 0.0000 0.0000 0.0000 0.0000 0.0000 26.8662
#
#
#
# Elastic Compliance Matrix: (Units=1/GPa)
#
#
# Indices 1 2 3 4 5 6 
#
# 1 0.010082 -0.007740 -0.004272 0.000000 0.000000 0.000000
# 2 -0.007740 0.049594 -0.001534 0.000000 0.000000 0.000000
# 3 -0.004272 -0.001534 0.017800 0.000000 0.000000 0.000000
# 4 0.000000 0.000000 0.000000 0.039453 0.000000 0.000000
# 5 0.000000 0.000000 0.000000 0.000000 0.025902 0.000000
# 6 0.000000 0.000000 0.000000 0.000000 0.000000 0.037222
#
#
# Mechanical properties :
#
#
# Convention : Reuss Voigt Hill
#
# Bulk Modulus (GPa) = 19.84696 37.80359 28.82528
# Shear Modulus (GPa) = 22.32752 28.60093 25.46423
#
# Velocity S-wave (km/s) = 3.40569 3.85456 3.63706
# Velocity P-wave (km/s) = 5.07692 6.28080 5.71067
#
# Compressibility (1/GPa) = 0.05038554
#
# Stress axis : x y z
#
# Youngs Moduli (GPa) = 99.18423 20.16361 56.18065
#
# Poissons Ratio (x) = 0.15606 0.23999
# Poissons Ratio (y) = 0.76767 0.08617
# Poissons Ratio (z) = 0.42369 0.03093
#
# Static dielectric constant tensor:
#      x y z
#    x 1.712160 0.000000 0.000000 
#    y 0.000000 1.641120 0.000000 
#    z 0.000000 0.000000 1.731320 
# 
# From -- ./inp_files/3677.got.cif
#   From: 2010.05.17/outbox.cif.g08.bks.cpg/sg29_2_cif.got.tgz:3677.got - 2010.06.04 01:19:37.
