data_PCOD9340714
_publ_section_title
;
Structure prediction by ZEFSAII (Michael W. Deem and Ramdas Pophale) SiO2 
 PCOD9340714
Probable space group: P C A 21
;
_chemical_formula_sum "Si O2"
_cell_formula_units_Z 32
_cell_length_a 16.986704
_cell_length_b 6.818407
_cell_length_c 13.183691
_cell_angle_alpha 90.000000
_cell_angle_beta 90.000000
_cell_angle_gamma 90.000000
_cell_volume 1526.964906
_symmetry_space_group_name_H-M "P C A 21"
_symmetry_group_IT_number 29
_symmetry_cell_setting 'orthorhombic'
loop_
_space_group_symop_operation_xyz
x,y,z
-x,-y,1/2+z
1/2-x,y,1/2+z
1/2+x,-y,z
loop_
_atom_site_type_symbol
_atom_site_label
_atom_site_fract_x
_atom_site_fract_y
_atom_site_fract_z
Si Si1 0.159073 0.032282 0.524740
Si Si2 0.836811 0.638281 0.854982
Si Si3 0.588959 0.743483 0.819373
Si Si4 0.746777 0.917225 0.722234
Si Si5 0.753773 0.243234 0.887030
Si Si6 0.094284 0.928939 0.978572
Si Si7 0.495348 0.997557 0.163958
Si Si8 0.509603 0.343466 0.824018
O O1 0.161758 0.221435 0.452921
O O2 0.230241 0.052693 0.605002
O O3 0.175400 0.847808 0.453029
O O4 0.079095 0.006833 0.587426
O O5 0.816798 0.779492 0.760095
O O6 0.772953 0.468582 0.868575
O O7 0.924618 0.560056 0.840022
O O8 0.669490 0.805763 0.764978
O O9 0.592491 0.855930 0.926600
O O10 0.574161 0.513599 0.821926
O O11 0.520712 0.841477 0.750682
O O12 0.750323 0.122852 0.781824
O O13 0.674914 0.181377 0.947802
O O14 0.029392 0.801193 0.917302
O O15 0.070790 0.952589 0.095417
O O16 0.492615 0.791221 0.223499
#
# Coordination Sequence:
#
# PCOD9340714 Si02
#       8
#     4   4   4   4   4   4   4   4
#     4  10  22  42  65  90 126 171 209 265 323 387
#     4  11  23  39  62  98 126 161 214 271 318 386
#     4   9  21  39  61  87 121 168 210 261 317 381
#     4   9  21  42  61  83 127 166 208 259 323 382
#     4  10  23  39  65  92 124 169 216 261 323 381
#     4  10  21  42  63  88 127 171 210 264 321 392
#     4  10  22  39  62  91 129 168 212 260 331 382
#     4  11  23  38  65  95 128 166 213 269 322 385
#
# _framework density 20.956605
#
# number of rings (size 3 to 8) (size 9 to 14) (size 15 to 20)
#    0.000    2.000    1.250    1.500    3.500    5.000 
#    2.250    0.000    0.000    0.000    0.000    0.000 
#    0.000    0.000    0.000    0.000    0.000    0.000 
#
# Total GULP energy -178721.138766 kJ/mol
# GULP energy per Si atom -5585.035586 kJ/mol
# Density = 2.090891 g / cm^3
# Si number density = 20.956605 Si / 1000 Ang^3
#
#
#
# Elastic Constant Matrix: (Units=GPa)
#
#
# Indices 1 2 3 4 5 6 
#
# 1 53.7409 22.9879 6.7552 0.0000 0.0000 0.0000
# 2 22.9879 108.6681 36.8877 0.0000 0.0000 0.0000
# 3 6.7552 36.8877 70.1753 0.0000 0.0000 0.0000
# 4 0.0000 0.0000 0.0000 7.4474 0.0000 0.0000
# 5 0.0000 0.0000 0.0000 0.0000 29.6673 0.0000
# 6 0.0000 0.0000 0.0000 0.0000 0.0000 24.2661
#
#
#
# Elastic Compliance Matrix: (Units=1/GPa)
#
#
# Indices 1 2 3 4 5 6 
#
# 1 0.020467 -0.004456 0.000372 0.000000 0.000000 0.000000
# 2 -0.004456 0.012171 -0.005969 0.000000 0.000000 0.000000
# 3 0.000372 -0.005969 0.017352 0.000000 0.000000 0.000000
# 4 0.000000 0.000000 0.000000 0.134276 0.000000 0.000000
# 5 0.000000 0.000000 0.000000 0.000000 0.033707 0.000000
# 6 0.000000 0.000000 0.000000 0.000000 0.000000 0.041210
#
#
# Mechanical properties :
#
#
# Convention : Reuss Voigt Hill
#
# Bulk Modulus (GPa) = 33.46212 40.64954 37.05583
# Shear Modulus (GPa) = 17.28612 23.33971 20.31291
#
# Velocity S-wave (km/s) = 2.87514 3.34086 3.11671
# Velocity P-wave (km/s) = 5.19845 5.85840 5.53827
#
# Compressibility (1/GPa) = 0.02988454
#
# Stress axis : x y z
#
# Youngs Moduli (GPa) = 48.85892 82.16192 57.63115
#
# Poissons Ratio (x) = 0.36611 -0.02144
# Poissons Ratio (y) = 0.21771 0.34399
# Poissons Ratio (z) = -0.01818 0.49041
#
# Static dielectric constant tensor:
#      x y z
#    x 1.820530 0.000000 0.000000 
#    y 0.000000 1.712620 0.000000 
#    z 0.000000 0.000000 1.722880 
# 
# From -- ./inp_files/4786.got.cif
#   From: 2010.05.17/outbox.cif.g08.bks.cpg/sg29_3_cif.got.tgz:4786.got - 2010.06.04 01:19:37.
