data_PCOD9340394
_publ_section_title
;
Structure prediction by ZEFSAII (Michael W. Deem and Ramdas Pophale) SiO2 
 PCOD9340394
Probable space group: P C A 21
;
_chemical_formula_sum "Si O2"
_cell_formula_units_Z 24
_cell_length_a 16.981158
_cell_length_b 7.248246
_cell_length_c 9.635527
_cell_angle_alpha 90.000000
_cell_angle_beta 90.000000
_cell_angle_gamma 90.000000
_cell_volume 1185.975453
_symmetry_space_group_name_H-M "P C A 21"
_symmetry_group_IT_number 29
_symmetry_cell_setting 'orthorhombic'
loop_
_space_group_symop_operation_xyz
x,y,z
-x,-y,1/2+z
1/2-x,y,1/2+z
1/2+x,-y,z
loop_
_atom_site_type_symbol
_atom_site_label
_atom_site_fract_x
_atom_site_fract_y
_atom_site_fract_z
Si Si1 0.402483 0.045185 0.195270
Si Si2 0.153904 0.220529 0.960061
Si Si3 0.211436 0.739653 0.810428
Si Si4 0.183549 0.080920 0.411220
Si Si5 0.415843 0.950846 0.669004
Si Si6 0.335478 0.583822 0.602960
O O1 0.359977 0.857355 0.245668
O O2 0.397431 0.193701 0.320988
O O3 0.492001 0.018530 0.150027
O O4 0.350600 0.101929 0.063919
O O5 0.244137 0.224546 0.905566
O O6 0.137554 0.374753 0.076698
O O7 0.137643 0.032480 0.045502
O O8 0.272890 0.889435 0.871784
O O9 0.257661 0.617829 0.696441
O O10 0.181834 0.631374 0.942860
O O11 0.112065 0.065105 0.303834
O O12 0.396919 0.731697 0.666406
#
# Coordination Sequence:
#
# PCOD9340394 Si02
#       6
#     4   4   4   4   4   4
#     4  11  21  41  66  91 129 168 203 264 324 374
#     4  11  23  41  65  92 123 165 218 259 309 376
#     4  10  20  40  64  90 123 166 207 263 310 367
#     4  10  20  38  64  91 119 165 213 250 307 373
#     4  11  23  42  62  92 131 166 206 261 323 376
#     4  11  23  40  65  94 125 162 217 263 309 376
#
# _framework density 20.236508000000001
#
# number of rings (size 3 to 8) (size 9 to 14) (size 15 to 20)
#    0.000    1.333    5.000    3.000    4.667    0.000 
#    3.000    0.000    0.000    0.000    0.000    0.000 
#    0.000    0.000    0.000    0.000    0.000    0.000 
#
# Total GULP energy -133688.420500 kJ/mol
# GULP energy per Si atom -5570.350854 kJ/mol
# Density = 2.019045 g / cm^3
# Si number density = 20.236508 Si / 1000 Ang^3
#
#
#
# Elastic Constant Matrix: (Units=GPa)
#
#
# Indices 1 2 3 4 5 6 
#
# 1 50.1484 11.6619 -11.6881 0.0000 0.0000 0.0000
# 2 11.6619 72.8072 20.6261 0.0000 0.0000 0.0000
# 3 -11.6881 20.6261 72.3622 0.0000 0.0000 0.0000
# 4 0.0000 0.0000 0.0000 6.3119 0.0000 0.0000
# 5 0.0000 0.0000 0.0000 0.0000 19.1759 0.0000
# 6 0.0000 0.0000 0.0000 0.0000 0.0000 4.8782
#
#
#
# Elastic Compliance Matrix: (Units=1/GPa)
#
#
# Indices 1 2 3 4 5 6 
#
# 1 0.022271 -0.004989 0.005019 0.000000 0.000000 0.000000
# 2 -0.004989 0.016059 -0.005383 0.000000 0.000000 0.000000
# 3 0.005019 -0.005383 0.016165 0.000000 0.000000 0.000000
# 4 0.000000 0.000000 0.000000 0.158432 0.000000 0.000000
# 5 0.000000 0.000000 0.000000 0.000000 0.052149 0.000000
# 6 0.000000 0.000000 0.000000 0.000000 0.000000 0.204994
#
#
# Mechanical properties :
#
#
# Convention : Reuss Voigt Hill
#
# Bulk Modulus (GPa) = 22.83719 26.27973 24.55846
# Shear Modulus (GPa) = 10.09343 17.72104 13.90724
#
# Velocity S-wave (km/s) = 2.23575 2.96243 2.62436
# Velocity P-wave (km/s) = 4.23962 4.97150 4.62007
#
# Compressibility (1/GPa) = 0.04378823
#
# Stress axis : x y z
#
# Youngs Moduli (GPa) = 44.90161 62.26980 61.86364
#
# Poissons Ratio (x) = 0.31068 -0.31052
# Poissons Ratio (y) = 0.22402 0.33303
# Poissons Ratio (z) = -0.22538 0.33522
#
# Static dielectric constant tensor:
#      x y z
#    x 1.676090 0.000000 0.000000 
#    y 0.000000 1.820250 0.000000 
#    z 0.000000 0.000000 1.728460 
# 
# From -- ./inp_files/2031.got.cif
#   From: 2010.05.17/outbox.cif.g08.bks.cpg/sg29_2_cif.got.tgz:2031.got - 2010.06.04 01:19:37.
