data_PCOD9340206
_publ_section_title
;
Structure prediction by ZEFSAII (Michael W. Deem and Ramdas Pophale) SiO2 
 PCOD9340206
Probable space group: P C A 21
;
_chemical_formula_sum "Si O2"
_cell_formula_units_Z 20
_cell_length_a 9.613778
_cell_length_b 6.908564
_cell_length_c 13.190709
_cell_angle_alpha 90.000000
_cell_angle_beta 90.000000
_cell_angle_gamma 90.000000
_cell_volume 876.092604
_symmetry_space_group_name_H-M "P C A 21"
_symmetry_group_IT_number 29
_symmetry_cell_setting 'orthorhombic'
loop_
_space_group_symop_operation_xyz
x,y,z
-x,-y,1/2+z
1/2-x,y,1/2+z
1/2+x,-y,z
loop_
_atom_site_type_symbol
_atom_site_label
_atom_site_fract_x
_atom_site_fract_y
_atom_site_fract_z
Si Si1 0.388203 0.966240 0.106330
Si Si2 0.788846 0.749434 0.263087
Si Si3 0.673386 0.159683 0.812316
Si Si4 0.583619 0.421976 0.232543
Si Si5 0.373252 0.765858 0.526766
O O1 0.297274 0.143540 0.153538
O O2 0.420945 0.851992 0.210988
O O3 0.520661 0.060850 0.055067
O O4 0.286265 0.834045 0.041723
O O5 0.658880 0.611805 0.272330
O O6 0.927451 0.619911 0.265283
O O7 0.800381 0.932335 0.338192
O O8 0.819058 0.248011 0.774890
O O9 0.613409 0.270574 0.908041
O O10 0.595447 0.399419 0.109877
#
# Coordination Sequence:
#
# PCOD9340206 Si02
#       5
#     4   4   4   4   4
#     4   8  20  35  57  88 115 157 198 256 310 364
#     4   9  21  39  60  87 129 156 205 261 315 363
#     4   9  21  38  62  87 122 162 212 259 312 381
#     4  10  21  41  59  93 121 166 205 261 315 378
#     4  10  19  37  62  85 121 161 208 253 318 374
#
# _framework density 22.828637000000001
#
# number of rings (size 3 to 8) (size 9 to 14) (size 15 to 20)
#    1.200    1.600    0.000    0.000    2.800    4.800 
#    3.600    2.000    0.000    0.000    0.000    0.000 
#    0.000    0.000    0.000    0.000    0.000    0.000 
#
# Total GULP energy -111538.426063 kJ/mol
# GULP energy per Si atom -5576.921303 kJ/mol
# Density = 2.277668 g / cm^3
# Si number density = 22.828637 Si / 1000 Ang^3
#
#
#
# Elastic Constant Matrix: (Units=GPa)
#
#
# Indices 1 2 3 4 5 6 
#
# 1 78.7022 32.1115 10.6356 0.0000 0.0000 0.0000
# 2 32.1115 54.4313 6.5637 0.0000 0.0000 0.0000
# 3 10.6356 6.5637 106.8865 0.0000 0.0000 0.0000
# 4 0.0000 0.0000 0.0000 18.5866 0.0000 0.0000
# 5 0.0000 0.0000 0.0000 0.0000 14.4415 0.0000
# 6 0.0000 0.0000 0.0000 0.0000 0.0000 34.8320
#
#
#
# Elastic Compliance Matrix: (Units=1/GPa)
#
#
# Indices 1 2 3 4 5 6 
#
# 1 0.016856 -0.009814 -0.001075 0.000000 0.000000 0.000000
# 2 -0.009814 0.024223 -0.000511 0.000000 0.000000 0.000000
# 3 -0.001075 -0.000511 0.009494 0.000000 0.000000 0.000000
# 4 0.000000 0.000000 0.000000 0.053802 0.000000 0.000000
# 5 0.000000 0.000000 0.000000 0.000000 0.069245 0.000000
# 6 0.000000 0.000000 0.000000 0.000000 0.000000 0.028709
#
#
# Mechanical properties :
#
#
# Convention : Reuss Voigt Hill
#
# Bulk Modulus (GPa) = 36.00570 37.62685 36.81627
# Shear Modulus (GPa) = 21.33227 26.28598 23.80912
#
# Velocity S-wave (km/s) = 3.06020 3.39698 3.23298
# Velocity P-wave (km/s) = 5.31910 5.64837 5.48620
#
# Compressibility (1/GPa) = 0.02777338
#
# Stress axis : x y z
#
# Youngs Moduli (GPa) = 59.32701 41.28253 105.32953
#
# Poissons Ratio (x) = 0.40516 0.11318
# Poissons Ratio (y) = 0.58226 0.05382
# Poissons Ratio (z) = 0.06375 0.02109
#
# Static dielectric constant tensor:
#      x y z
#    x 1.807910 0.000000 0.000000 
#    y 0.000000 1.911080 0.000000 
#    z 0.000000 0.000000 1.841990 
# 
# From -- ./inp_files/4175.got.cif
#   From: 2010.05.17/outbox.cif.g08.bks.cpg/sg29_3_cif.got.tgz:4175.got - 2010.06.04 01:19:37.
