data_PCOD9340382
_publ_section_title
;
Structure prediction by ZEFSAII (Michael W. Deem and Ramdas Pophale) SiO2 
 PCOD9340382
Probable space group: P C A 21
;
_chemical_formula_sum "Si O2"
_cell_formula_units_Z 20
_cell_length_a 11.029429
_cell_length_b 7.658565
_cell_length_c 9.656825
_cell_angle_alpha 90.000000
_cell_angle_beta 90.000000
_cell_angle_gamma 90.000000
_cell_volume 815.708134
_symmetry_space_group_name_H-M "P C A 21"
_symmetry_group_IT_number 29
_symmetry_cell_setting 'orthorhombic'
loop_
_space_group_symop_operation_xyz
x,y,z
-x,-y,1/2+z
1/2-x,y,1/2+z
1/2+x,-y,z
loop_
_atom_site_type_symbol
_atom_site_label
_atom_site_fract_x
_atom_site_fract_y
_atom_site_fract_z
Si Si1 0.024959 0.956592 0.349780
Si Si2 0.209165 0.822313 0.145154
Si Si3 0.019754 0.578851 0.997628
Si Si4 0.369095 0.123184 0.106930
Si Si5 0.474354 0.684889 0.210347
O O1 0.041542 0.998964 0.511137
O O2 0.035496 0.148217 0.280226
O O3 0.133912 0.843152 0.287147
O O4 0.906718 0.885920 0.268961
O O5 0.128671 0.709784 0.040050
O O6 0.335642 0.729489 0.176874
O O7 0.244782 0.016857 0.091630
O O8 0.899216 0.683643 0.051639
O O9 0.034299 0.399698 0.078076
O O10 0.018250 0.547282 0.835510
#
# Coordination Sequence:
#
# PCOD9340382 Si02
#       5
#     4   4   4   4   4
#     4   9  19  36  58  83 110 144 189 234 279 336
#     4  10  20  38  62  84 110 152 196 240 284 334
#     4  10  22  38  58  87 119 151 189 235 287 341
#     4   9  19  36  58  83 110 144 189 234 279 336
#     4  10  22  38  58  87 119 151 189 235 287 341
#
# _framework density 24.518573
#
# number of rings (size 3 to 8) (size 9 to 14) (size 15 to 20)
#    0.000    2.400    0.000    1.200    0.000   11.200 
#    0.000    4.000    0.000    0.000    0.000    0.000 
#    0.000    0.000    0.000    0.000    0.000    0.000 
#
# Total GULP energy -111620.328598 kJ/mol
# GULP energy per Si atom -5581.016430 kJ/mol
# Density = 2.446277 g / cm^3
# Si number density = 24.518573 Si / 1000 Ang^3
#
#
#
# Elastic Constant Matrix: (Units=GPa)
#
#
# Indices 1 2 3 4 5 6 
#
# 1 70.3036 9.3279 -12.3254 0.0000 0.0000 0.0000
# 2 9.3279 54.9908 -17.2412 0.0000 0.0000 0.0000
# 3 -12.3254 -17.2412 77.9778 0.0000 0.0000 0.0000
# 4 0.0000 0.0000 0.0000 45.7905 0.0000 0.0000
# 5 0.0000 0.0000 0.0000 0.0000 19.5478 0.0000
# 6 0.0000 0.0000 0.0000 0.0000 0.0000 0.0646
#
#
#
# Elastic Compliance Matrix: (Units=1/GPa)
#
#
# Indices 1 2 3 4 5 6 
#
# 1 0.014814 -0.001911 0.001919 0.000000 0.000000 0.000000
# 2 -0.001911 0.019786 0.004073 0.000000 0.000000 0.000000
# 3 0.001919 0.004073 0.014028 0.000000 0.000000 0.000000
# 4 0.000000 0.000000 0.000000 0.021839 0.000000 0.000000
# 5 0.000000 0.000000 0.000000 0.000000 0.051157 0.000000
# 6 0.000000 0.000000 0.000000 0.000000 0.000000 15.482343
#
#
# Mechanical properties :
#
#
# Convention : Reuss Voigt Hill
#
# Bulk Modulus (GPa) = 17.60908 18.08829 17.84869
# Shear Modulus (GPa) = 0.32021 27.98130 14.15076
#
# Velocity S-wave (km/s) = 0.36178 3.38187 2.40499
# Velocity P-wave (km/s) = 2.71515 4.75845 3.87394
#
# Compressibility (1/GPa) = 0.05678888
#
# Stress axis : x y z
#
# Youngs Moduli (GPa) = 67.50352 50.54089 71.28612
#
# Poissons Ratio (x) = 0.09659 -0.13680
# Poissons Ratio (y) = 0.12901 -0.29033
# Poissons Ratio (z) = -0.12954 -0.20584
#
# Static dielectric constant tensor:
#      x y z
#    x 1.962880 0.000000 0.000000 
#    y 0.000000 1.999960 0.000000 
#    z 0.000000 0.000000 1.956290 
# 
# From -- ./inp_files/1316.got.cif
#   From: 2010.05.17/outbox.cif.g08.bks.cpg/sg29_1_cif.got.tgz:1316.got - 2010.06.04 01:19:37.
