data_PCOD9340684
_publ_section_title
;
Structure prediction by ZEFSAII (Michael W. Deem and Ramdas Pophale) SiO2 
 PCOD9340684
Probable space group: P C A 21
;
_chemical_formula_sum "Si O2"
_cell_formula_units_Z 28
_cell_length_a 26.118742
_cell_length_b 7.700829
_cell_length_c 5.906396
_cell_angle_alpha 90.000000
_cell_angle_beta 90.000000
_cell_angle_gamma 90.000000
_cell_volume 1187.988664
_symmetry_space_group_name_H-M "P C A 21"
_symmetry_group_IT_number 29
_symmetry_cell_setting 'orthorhombic'
loop_
_space_group_symop_operation_xyz
x,y,z
-x,-y,1/2+z
1/2-x,y,1/2+z
1/2+x,-y,z
loop_
_atom_site_type_symbol
_atom_site_label
_atom_site_fract_x
_atom_site_fract_y
_atom_site_fract_z
Si Si1 0.529930 0.879024 0.853440
Si Si2 0.620078 0.430821 0.879130
Si Si3 0.732270 0.303867 0.830568
Si Si4 0.235201 0.098207 0.815464
Si Si5 0.513023 0.270766 0.967449
Si Si6 0.588073 0.670229 0.244069
Si Si7 0.870119 0.801883 0.139983
O O1 0.488788 0.751153 0.739567
O O2 0.577486 0.901173 0.683803
O O3 0.509284 0.068005 0.901272
O O4 0.558940 0.782501 0.055142
O O5 0.670486 0.317698 0.842629
O O6 0.564400 0.343553 0.857659
O O7 0.625960 0.602669 0.725386
O O8 0.615773 0.507631 0.133323
O O9 0.748509 0.376490 0.578671
O O10 0.751464 0.103775 0.826885
O O11 0.254248 0.172834 0.569096
O O12 0.174818 0.109466 0.773050
O O13 0.461236 0.370861 0.900499
O O14 0.631077 0.783303 0.370468
#
# Coordination Sequence:
#
# PCOD9340684 Si02
#       7
#     4   4   4   4   4   4   4
#     4  10  21  41  63  91 129 175 230 275 328 396
#     4  11  26  40  68  98 137 182 217 277 355 412
#     4  10  24  49  71 102 137 176 235 288 342 409
#     4  10  23  44  75 102 132 179 233 294 340 402
#     4  11  22  41  65  94 131 179 226 282 330 403
#     4  10  24  41  61  95 135 172 224 273 336 416
#     4  10  24  42  63  98 133 175 221 275 347 418
#
# _framework density 23.56925
#
# number of rings (size 3 to 8) (size 9 to 14) (size 15 to 20)
#    0.000    1.714    1.429    0.857   12.000    1.143 
#    2.571    0.000    0.000    0.000    0.000    0.000 
#    0.000    0.000    0.000    0.000    0.000    0.000 
#
# Total GULP energy -155935.349258 kJ/mol
# GULP energy per Si atom -5569.119616 kJ/mol
# Density = 2.351561 g / cm^3
# Si number density = 23.569250 Si / 1000 Ang^3
#
#
#
# Elastic Constant Matrix: (Units=GPa)
#
#
# Indices 1 2 3 4 5 6 
#
# 1 79.9134 -5.1101 32.5657 0.0000 0.0000 0.0000
# 2 -5.1101 45.0843 17.6228 0.0000 0.0000 0.0000
# 3 32.5657 17.6228 133.5871 0.0000 0.0000 0.0000
# 4 0.0000 0.0000 0.0000 15.1950 0.0000 0.0000
# 5 0.0000 0.0000 0.0000 0.0000 28.9252 0.0000
# 6 0.0000 0.0000 0.0000 0.0000 0.0000 14.6059
#
#
#
# Elastic Compliance Matrix: (Units=1/GPa)
#
#
# Indices 1 2 3 4 5 6 
#
# 1 0.014305 0.003147 -0.003902 0.000000 0.000000 0.000000
# 2 0.003147 0.024079 -0.003944 0.000000 0.000000 0.000000
# 3 -0.003902 -0.003944 0.008957 0.000000 0.000000 0.000000
# 4 0.000000 0.000000 0.000000 0.065811 0.000000 0.000000
# 5 0.000000 0.000000 0.000000 0.000000 0.034572 0.000000
# 6 0.000000 0.000000 0.000000 0.000000 0.000000 0.068466
#
#
# Mechanical properties :
#
#
# Convention : Reuss Voigt Hill
#
# Bulk Modulus (GPa) = 26.35544 38.74906 32.55225
# Shear Modulus (GPa) = 20.98761 25.97897 23.48329
#
# Velocity S-wave (km/s) = 2.98730 3.32360 3.15993
# Velocity P-wave (km/s) = 4.80677 5.58611 5.21103
#
# Compressibility (1/GPa) = 0.03794283
#
# Stress axis : x y z
#
# Youngs Moduli (GPa) = 69.90537 41.53023 111.64062
#
# Poissons Ratio (x) = -0.13069 0.43567
# Poissons Ratio (y) = -0.21998 0.44027
# Poissons Ratio (z) = 0.27280 0.16378
#
# Static dielectric constant tensor:
#      x y z
#    x 1.864290 0.000000 0.000000 
#    y 0.000000 1.895900 0.000000 
#    z 0.000000 0.000000 2.290100 
# 
# From -- ./inp_files/665.got.cif
#   From: 2010.05.17/outbox.cif.g08.bks.cpg/sg29_1_cif.got.tgz:665.got - 2010.06.04 01:19:37.
