data_PCOD9340358
_publ_section_title
;
Structure prediction by ZEFSAII (Michael W. Deem and Ramdas Pophale) SiO2 
 PCOD9340358
Probable space group: P C A 21
;
_chemical_formula_sum "Si O2"
_cell_formula_units_Z 28
_cell_length_a 9.879182
_cell_length_b 8.327771
_cell_length_c 16.092697
_cell_angle_alpha 90.000000
_cell_angle_beta 90.000000
_cell_angle_gamma 90.000000
_cell_volume 1323.971373
_symmetry_space_group_name_H-M "P C A 21"
_symmetry_group_IT_number 29
_symmetry_cell_setting 'orthorhombic'
loop_
_space_group_symop_operation_xyz
x,y,z
-x,-y,1/2+z
1/2-x,y,1/2+z
1/2+x,-y,z
loop_
_atom_site_type_symbol
_atom_site_label
_atom_site_fract_x
_atom_site_fract_y
_atom_site_fract_z
Si Si1 0.118850 0.608940 0.496790
Si Si2 0.728188 0.820775 0.135011
Si Si3 0.165046 0.345877 0.959708
Si Si4 0.665046 0.654123 0.310313
Si Si5 0.012288 0.368112 0.635011
Si Si6 0.881150 0.391060 0.273231
Si Si7 0.236770 0.810391 0.635011
O O1 0.255309 0.516830 0.469384
O O2 0.154281 0.763583 0.552391
O O3 0.993763 0.648355 0.436334
O O4 0.049960 0.477368 0.557054
O O5 0.674337 0.739460 0.220004
O O6 0.888368 0.783203 0.135011
O O7 0.709544 0.010200 0.135011
O O8 0.674337 0.739460 0.050017
O O9 0.250000 0.264131 0.885011
O O10 0.744691 0.483170 0.300637
O O11 0.506237 0.648355 0.333687
O O12 0.859789 0.314644 0.635011
O O13 0.049960 0.477368 0.712967
O O14 0.845719 0.236417 0.217630
#
# Coordination Sequence:
#
# PCOD9340358 Si02
#       7
#     4   4   4   4   4   4   4
#     4  10  20  37  61  90 113 157 204 249 296 345
#     4  10  24  37  60  88 123 164 195 238 311 367
#     4  11  22  41  63  90 123 156 203 252 297 355
#     4  11  22  41  63  90 123 156 203 252 297 355
#     4   9  18  35  59  85 115 152 203 244 291 355
#     4  10  20  37  61  90 113 157 204 249 296 345
#     4  11  20  36  63  89 120 160 200 246 302 360
#
# _framework density 21.148493999999999
#
# number of rings (size 3 to 8) (size 9 to 14) (size 15 to 20)
#    0.000    1.714    2.857    3.429    4.000    0.000 
#    0.000    2.857    0.000    0.000    0.000    0.000 
#    0.000    0.000    0.000    0.000    0.000    0.000 
#
# Total GULP energy -156126.188672 kJ/mol
# GULP energy per Si atom -5575.935310 kJ/mol
# Density = 2.110036 g / cm^3
# Si number density = 21.148494 Si / 1000 Ang^3
#
#
#
# Elastic Constant Matrix: (Units=GPa)
#
#
# Indices 1 2 3 4 5 6 
#
# 1 75.5200 -9.2864 -13.0074 0.0000 0.0000 0.0000
# 2 -9.2864 74.4408 26.3624 0.0000 0.0000 0.0000
# 3 -13.0074 26.3624 85.3979 0.0000 0.0000 0.0000
# 4 0.0000 0.0000 0.0000 10.7130 0.0000 0.0000
# 5 0.0000 0.0000 0.0000 0.0000 27.7012 0.0000
# 6 0.0000 0.0000 0.0000 0.0000 0.0000 17.1518
#
#
#
# Elastic Compliance Matrix: (Units=1/GPa)
#
#
# Indices 1 2 3 4 5 6 
#
# 1 0.013676 0.001087 0.001747 0.000000 0.000000 0.000000
# 2 0.001087 0.015169 -0.004517 0.000000 0.000000 0.000000
# 3 0.001747 -0.004517 0.013370 0.000000 0.000000 0.000000
# 4 0.000000 0.000000 0.000000 0.093344 0.000000 0.000000
# 5 0.000000 0.000000 0.000000 0.000000 0.036099 0.000000
# 6 0.000000 0.000000 0.000000 0.000000 0.000000 0.058303
#
#
# Mechanical properties :
#
#
# Convention : Reuss Voigt Hill
#
# Bulk Modulus (GPa) = 25.73946 27.05508 26.39727
# Shear Modulus (GPa) = 20.30236 26.53256 23.41746
#
# Velocity S-wave (km/s) = 3.10173 3.54585 3.33120
# Velocity P-wave (km/s) = 5.00249 5.43919 5.22540
#
# Compressibility (1/GPa) = 0.03885085
#
# Stress axis : x y z
#
# Youngs Moduli (GPa) = 73.11973 65.92488 74.79175
#
# Poissons Ratio (x) = -0.07168 -0.13070
# Poissons Ratio (y) = -0.07950 0.33783
# Poissons Ratio (z) = -0.12777 0.29778
#
# Static dielectric constant tensor:
#      x y z
#    x 1.814370 0.000000 0.000000 
#    y 0.000000 1.723540 0.000000 
#    z 0.000000 0.000000 1.841040 
# 
# From -- ./inp_files/4991.got.cif
#   From: 2010.05.17/outbox.cif.g08.bks.cpg/sg29_3_cif.got.tgz:4991.got - 2010.06.04 01:19:37.
