data_PCOD9340983
_publ_section_title
;
Structure prediction by ZEFSAII (Michael W. Deem and Ramdas Pophale) SiO2 
 PCOD9340983
Probable space group: P C A 21
;
_chemical_formula_sum "Si O2"
_cell_formula_units_Z 28
_cell_length_a 4.947980
_cell_length_b 23.265371
_cell_length_c 8.874526
_cell_angle_alpha 90.000000
_cell_angle_beta 90.000000
_cell_angle_gamma 90.000000
_cell_volume 1021.605175
_symmetry_space_group_name_H-M "P C A 21"
_symmetry_group_IT_number 29
_symmetry_cell_setting 'orthorhombic'
loop_
_space_group_symop_operation_xyz
x,y,z
-x,-y,1/2+z
1/2-x,y,1/2+z
1/2+x,-y,z
loop_
_atom_site_type_symbol
_atom_site_label
_atom_site_fract_x
_atom_site_fract_y
_atom_site_fract_z
Si Si1 0.056149 0.311612 0.459380
Si Si2 0.237618 0.795356 0.804429
Si Si3 0.971787 0.461666 0.985859
Si Si4 0.841196 0.610148 0.208999
Si Si5 0.882136 0.893823 0.955371
Si Si6 0.015542 0.963421 0.242802
Si Si7 0.898672 0.788875 0.536672
O O1 0.966692 0.356519 0.588470
O O2 0.205813 0.346612 0.329216
O O3 0.258845 0.271220 0.553972
O O4 0.869475 0.264441 0.378010
O O5 0.095451 0.853867 0.864262
O O6 0.171207 0.791659 0.630791
O O7 0.542912 0.794625 0.858569
O O8 0.164056 0.518023 0.998681
O O9 0.012024 0.434456 0.820161
O O10 0.105085 0.419939 0.110507
O O11 0.638087 0.921292 0.858333
O O12 0.993232 0.940917 0.071869
O O13 0.760016 0.846166 0.069165
O O14 0.829572 0.020749 0.262538
#
# Coordination Sequence:
#
# PCOD9340983 Si02
#       7
#     4   4   4   4   4   4   4
#     4  10  22  46  60 102 142 172 236 282 362 416
#     4  11  25  42  70  99 140 184 233 292 348 446
#     4  11  24  47  70 102 138 187 246 291 350 416
#     4  10  22  43  68  96 140 183 228 304 350 418
#     4  11  26  45  70  98 140 187 234 287 362 424
#     4  12  28  47  72 104 142 183 238 300 352 420
#     4  11  25  42  70  99 140 184 233 292 348 446
#
# _framework density 27.407848000000001
#
# number of rings (size 3 to 8) (size 9 to 14) (size 15 to 20)
#    0.000    1.143    2.857    1.714    8.000    0.000 
#   15.429    0.000    0.000    0.000    0.000    0.000 
#    0.000    0.000    0.000    0.000    0.000    0.000 
#
# Total GULP energy -156846.202416 kJ/mol
# GULP energy per Si atom -5601.650086 kJ/mol
# Density = 2.734547 g / cm^3
# Si number density = 27.407848 Si / 1000 Ang^3
#
#
#
# Elastic Constant Matrix: (Units=GPa)
#
#
# Indices 1 2 3 4 5 6 
#
# 1 60.5870 6.0861 -5.3021 0.0000 0.0000 0.0000
# 2 6.0861 129.7884 35.5975 0.0000 0.0000 0.0000
# 3 -5.3021 35.5975 132.3725 0.0000 0.0000 0.0000
# 4 0.0000 0.0000 0.0000 48.6530 0.0000 0.0000
# 5 0.0000 0.0000 0.0000 0.0000 36.8419 0.0000
# 6 0.0000 0.0000 0.0000 0.0000 0.0000 30.2812
#
#
#
# Elastic Compliance Matrix: (Units=1/GPa)
#
#
# Indices 1 2 3 4 5 6 
#
# 1 0.016693 -0.001043 0.000949 0.000000 0.000000 0.000000
# 2 -0.001043 0.008384 -0.002296 0.000000 0.000000 0.000000
# 3 0.000949 -0.002296 0.008210 0.000000 0.000000 0.000000
# 4 0.000000 0.000000 0.000000 0.020554 0.000000 0.000000
# 5 0.000000 0.000000 0.000000 0.000000 0.027143 0.000000
# 6 0.000000 0.000000 0.000000 0.000000 0.000000 0.033024
#
#
# Mechanical properties :
#
#
# Convention : Reuss Voigt Hill
#
# Bulk Modulus (GPa) = 35.08022 43.94564 39.51293
# Shear Modulus (GPa) = 38.97434 42.24633 40.61033
#
# Velocity S-wave (km/s) = 3.77505 3.93032 3.85347
# Velocity P-wave (km/s) = 5.64167 6.05519 5.85208
#
# Compressibility (1/GPa) = 0.02850609
#
# Stress axis : x y z
#
# Youngs Moduli (GPa) = 59.90522 119.28088 121.80314
#
# Poissons Ratio (x) = 0.12442 -0.11561
# Poissons Ratio (y) = 0.06249 0.27969
# Poissons Ratio (z) = -0.05686 0.27390
#
# Static dielectric constant tensor:
#      x y z
#    x 2.114600 0.000000 0.000000 
#    y 0.000000 2.115940 0.000000 
#    z 0.000000 0.000000 2.040680 
# 
# From -- ./inp_files/998.got.cif
#   From: 2010.05.17/outbox.cif.g08.bks.cpg/sg29_1_cif.got.tgz:998.got - 2010.06.04 01:19:37.
