data_PCOD9340021
_publ_section_title
;
Structure prediction by ZEFSAII (Michael W. Deem and Ramdas Pophale) SiO2 
 PCOD9340021
Probable space group: P C A 21
;
_chemical_formula_sum "Si O2"
_cell_formula_units_Z 32
_cell_length_a 17.016998
_cell_length_b 19.264048
_cell_length_c 5.105676
_cell_angle_alpha 90.000000
_cell_angle_beta 90.000000
_cell_angle_gamma 90.000000
_cell_volume 1673.723643
_symmetry_space_group_name_H-M "P C A 21"
_symmetry_group_IT_number 29
_symmetry_cell_setting 'orthorhombic'
loop_
_space_group_symop_operation_xyz
x,y,z
-x,-y,1/2+z
1/2-x,y,1/2+z
1/2+x,-y,z
loop_
_atom_site_type_symbol
_atom_site_label
_atom_site_fract_x
_atom_site_fract_y
_atom_site_fract_z
Si Si1 0.436752 0.356822 0.011870
Si Si2 0.699049 0.538657 0.392436
Si Si3 0.969379 0.318378 0.018837
Si Si4 0.299681 0.627397 0.877429
Si Si5 0.991944 0.843234 0.566766
Si Si6 0.390288 0.120885 0.067059
Si Si7 0.797509 0.748681 0.040315
Si Si8 0.550067 0.017110 0.456658
O O1 0.474296 0.351523 0.297809
O O2 0.377120 0.292078 0.979604
O O3 0.381580 0.422739 0.958515
O O4 0.504633 0.349545 0.797002
O O5 0.763620 0.557636 0.612827
O O6 0.687447 0.455812 0.395925
O O7 0.880417 0.335616 0.947151
O O8 0.982737 0.235582 0.027127
O O9 0.266920 0.644346 0.591262
O O10 0.955626 0.855436 0.853544
O O11 0.058757 0.901402 0.513199
O O12 0.924583 0.861889 0.353534
O O13 0.382406 0.038523 0.020950
O O14 0.316021 0.169678 0.022338
O O15 0.767660 0.730115 0.327650
O O16 0.481089 0.994050 0.661809
#
# Coordination Sequence:
#
# PCOD9340021 Si02
#       8
#     4   4   4   4   4   4   4   4
#     4  12  23  36  55  85 114 144 193 229 271 326
#     4  10  21  40  59  79 114 156 187 223 265 332
#     4  12  22  36  60  85 115 141 177 247 280 321
#     4  10  23  42  62  82 108 144 186 223 289 353
#     4  10  17  33  51  79 106 134 174 232 279 308
#     4  10  18  33  49  73 106 139 189 225 256 321
#     4  12  22  33  50  74 113 156 182 219 274 331
#     4   8  16  27  50  71  96 134 174 220 264 310
#
# _framework density 19.119046000000001
#
# number of rings (size 3 to 8) (size 9 to 14) (size 15 to 20)
#    0.000    1.500    2.500    3.750    0.000    1.000 
#    0.000    0.000    0.000    1.500    0.000    0.000 
#    0.000    0.000    0.000    0.000    0.000    0.000 
#
# Total GULP energy -178690.615004 kJ/mol
# GULP energy per Si atom -5584.081719 kJ/mol
# Density = 1.907553 g / cm^3
# Si number density = 19.119046 Si / 1000 Ang^3
#
#
#
# Elastic Constant Matrix: (Units=GPa)
#
#
# Indices 1 2 3 4 5 6 
#
# 1 32.8308 5.5861 -15.1371 0.0000 0.0000 0.0000
# 2 5.5861 33.1563 1.0366 0.0000 0.0000 0.0000
# 3 -15.1371 1.0366 64.4299 0.0000 0.0000 0.0000
# 4 0.0000 0.0000 0.0000 20.5380 0.0000 0.0000
# 5 0.0000 0.0000 0.0000 0.0000 25.8966 0.0000
# 6 0.0000 0.0000 0.0000 0.0000 0.0000 27.8570
#
#
#
# Elastic Compliance Matrix: (Units=1/GPa)
#
#
# Indices 1 2 3 4 5 6 
#
# 1 0.035399 -0.006227 0.008417 0.000000 0.000000 0.000000
# 2 -0.006227 0.031271 -0.001966 0.000000 0.000000 0.000000
# 3 0.008417 -0.001966 0.017530 0.000000 0.000000 0.000000
# 4 0.000000 0.000000 0.000000 0.048690 0.000000 0.000000
# 5 0.000000 0.000000 0.000000 0.000000 0.038615 0.000000
# 6 0.000000 0.000000 0.000000 0.000000 0.000000 0.035898
#
#
# Mechanical properties :
#
#
# Convention : Reuss Voigt Hill
#
# Bulk Modulus (GPa) = 11.81373 12.59870 12.20622
# Shear Modulus (GPa) = 21.26106 24.12040 22.69073
#
# Velocity S-wave (km/s) = 3.33834 3.55574 3.44875
# Velocity P-wave (km/s) = 4.58822 4.84372 4.71770
#
# Compressibility (1/GPa) = 0.08464724
#
# Stress axis : x y z
#
# Youngs Moduli (GPa) = 28.24902 31.97873 57.04565
#
# Poissons Ratio (x) = 0.19914 -0.48015
# Poissons Ratio (y) = 0.17591 0.11216
# Poissons Ratio (z) = -0.23777 0.06287
#
# Static dielectric constant tensor:
#      x y z
#    x 1.621700 0.000000 0.000000 
#    y 0.000000 1.711620 0.000000 
#    z 0.000000 0.000000 1.658850 
# 
# From -- ./inp_files/286.got.cif
#   From: 2010.05.17/outbox.cif.g08.bks.cpg/sg29_1_cif.got.tgz:286.got - 2010.06.04 01:19:37.
