data_PCOD9340092
_publ_section_title
;
Structure prediction by ZEFSAII (Michael W. Deem and Ramdas Pophale) SiO2 
 PCOD9340092
Probable space group: P C A 21
;
_chemical_formula_sum "Si O2"
_cell_formula_units_Z 32
_cell_length_a 17.536536
_cell_length_b 5.232985
_cell_length_c 16.663717
_cell_angle_alpha 90.000000
_cell_angle_beta 90.000000
_cell_angle_gamma 90.000000
_cell_volume 1529.203144
_symmetry_space_group_name_H-M "P C A 21"
_symmetry_group_IT_number 29
_symmetry_cell_setting 'orthorhombic'
loop_
_space_group_symop_operation_xyz
x,y,z
-x,-y,1/2+z
1/2-x,y,1/2+z
1/2+x,-y,z
loop_
_atom_site_type_symbol
_atom_site_label
_atom_site_fract_x
_atom_site_fract_y
_atom_site_fract_z
Si Si1 0.899286 0.476578 0.979280
Si Si2 0.637299 0.012414 0.286217
Si Si3 0.556474 0.787303 0.138804
Si Si4 0.886378 0.553741 0.308037
Si Si5 0.951131 0.820082 0.468240
Si Si6 0.452058 0.291084 0.144899
Si Si7 0.499278 0.804978 0.366000
Si Si8 0.288043 0.492541 0.849419
O O1 0.816179 0.435140 0.940377
O O2 0.959704 0.245529 0.987019
O O3 0.939342 0.617543 0.903975
O O4 0.906899 0.630973 0.062733
O O5 0.619398 0.882943 0.201181
O O6 0.552793 0.017654 0.326372
O O7 0.690106 0.803352 0.331126
O O8 0.670532 0.295113 0.293401
O O9 0.516032 0.515490 0.155849
O O10 0.494798 0.020248 0.137286
O O11 0.590930 0.761495 0.049663
O O12 0.919374 0.691610 0.387818
O O13 0.899138 0.700382 0.224365
O O14 0.941208 0.307460 0.302987
O O15 0.800607 0.484778 0.329197
O O16 0.951004 0.113710 0.443371
#
# Coordination Sequence:
#
# PCOD9340092 Si02
#       8
#     4   4   4   4   4   4   4   4
#     4   9  20  38  60  91 121 166 213 259 314 388
#     4  11  22  41  65  88 124 166 218 261 317 386
#     4  11  22  39  66  99 120 160 219 277 313 372
#     4  11  25  39  62  97 131 172 213 273 329 392
#     4  10  20  38  65  92 123 160 218 272 319 371
#     4  11  22  38  65  95 124 162 219 270 320 377
#     4  10  18  38  65  87 118 164 215 265 311 367
#     4  11  25  41  62  91 133 174 207 259 333 399
#
# _framework density 20.925930999999999
#
# number of rings (size 3 to 8) (size 9 to 14) (size 15 to 20)
#    0.000    1.500    3.750    1.500    3.500    0.000 
#    2.250    0.000    0.000    0.000    0.000    0.000 
#    0.000    0.000    0.000    0.000    0.000    0.000 
#
# Total GULP energy -178162.688498 kJ/mol
# GULP energy per Si atom -5567.584016 kJ/mol
# Density = 2.087830 g / cm^3
# Si number density = 20.925931 Si / 1000 Ang^3
#
#
#
# Elastic Constant Matrix: (Units=GPa)
#
#
# Indices 1 2 3 4 5 6 
#
# 1 87.2574 14.5560 28.0576 0.0000 0.0000 0.0000
# 2 14.5560 71.7204 4.9525 0.0000 0.0000 0.0000
# 3 28.0576 4.9525 108.6158 0.0000 0.0000 0.0000
# 4 0.0000 0.0000 0.0000 32.2148 0.0000 0.0000
# 5 0.0000 0.0000 0.0000 0.0000 13.8206 0.0000
# 6 0.0000 0.0000 0.0000 0.0000 0.0000 15.9692
#
#
#
# Elastic Compliance Matrix: (Units=1/GPa)
#
#
# Indices 1 2 3 4 5 6 
#
# 1 0.012896 -0.002395 -0.003222 0.000000 0.000000 0.000000
# 2 -0.002395 0.014432 -0.000039 0.000000 0.000000 0.000000
# 3 -0.003222 -0.000039 0.010041 0.000000 0.000000 0.000000
# 4 0.000000 0.000000 0.000000 0.031042 0.000000 0.000000
# 5 0.000000 0.000000 0.000000 0.000000 0.072356 0.000000
# 6 0.000000 0.000000 0.000000 0.000000 0.000000 0.062621
#
#
# Mechanical properties :
#
#
# Convention : Reuss Voigt Hill
#
# Bulk Modulus (GPa) = 38.37886 40.30287 39.34087
# Shear Modulus (GPa) = 22.38296 27.06942 24.72619
#
# Velocity S-wave (km/s) = 3.27406 3.60054 3.44118
# Velocity P-wave (km/s) = 5.71601 6.04870 5.88471
#
# Compressibility (1/GPa) = 0.02605601
#
# Stress axis : x y z
#
# Youngs Moduli (GPa) = 77.54403 69.29147 99.59279
#
# Poissons Ratio (x) = 0.16594 0.32090
# Poissons Ratio (y) = 0.18570 0.00393
# Poissons Ratio (z) = 0.24985 0.00273
#
# Static dielectric constant tensor:
#      x y z
#    x 1.777390 0.000000 0.000000 
#    y 0.000000 1.853860 0.000000 
#    z 0.000000 0.000000 1.863020 
# 
# From -- ./inp_files/5246.got.cif
#   From: 2010.05.17/outbox.cif.g08.bks.cpg/sg29_3_cif.got.tgz:5246.got - 2010.06.04 01:19:37.
