data_PCOD9340381
_publ_section_title
;
Structure prediction by ZEFSAII (Michael W. Deem and Ramdas Pophale) SiO2 
 PCOD9340381
Probable space group: P C A 21
;
_chemical_formula_sum "Si O2"
_cell_formula_units_Z 32
_cell_length_a 8.766645
_cell_length_b 9.992869
_cell_length_c 17.051262
_cell_angle_alpha 90.000000
_cell_angle_beta 90.000000
_cell_angle_gamma 90.000000
_cell_volume 1493.757649
_symmetry_space_group_name_H-M "P C A 21"
_symmetry_group_IT_number 29
_symmetry_cell_setting 'orthorhombic'
loop_
_space_group_symop_operation_xyz
x,y,z
-x,-y,1/2+z
1/2-x,y,1/2+z
1/2+x,-y,z
loop_
_atom_site_type_symbol
_atom_site_label
_atom_site_fract_x
_atom_site_fract_y
_atom_site_fract_z
Si Si1 0.926133 0.862958 0.145320
Si Si2 0.324975 0.326288 0.898812
Si Si3 0.413426 0.651822 0.053364
Si Si4 0.264493 0.379492 0.081835
Si Si5 0.769817 0.074805 0.561122
Si Si6 0.212112 0.044162 0.887735
Si Si7 0.583261 0.151538 0.309711
Si Si8 0.487371 0.580564 0.873169
O O1 0.854383 0.715698 0.140717
O O2 0.059589 0.881017 0.081676
O O3 0.007559 0.885013 0.227672
O O4 0.794631 0.967463 0.122862
O O5 0.323055 0.171824 0.875260
O O6 0.453205 0.423955 0.865425
O O7 0.166273 0.390476 0.869728
O O8 0.316562 0.334579 0.993721
O O9 0.309229 0.534362 0.088894
O O10 0.584032 0.643342 0.087001
O O11 0.338192 0.795772 0.062878
O O12 0.430843 0.619449 0.960804
O O13 0.771107 0.007988 0.475790
O O14 0.042594 0.100567 0.873212
O O15 0.262824 0.926397 0.829701
O O16 0.594415 0.311800 0.317464
#
# Coordination Sequence:
#
# PCOD9340381 Si02
#       8
#     4   4   4   4   4   4   4   4
#     4  12  25  40  62  92 136 170 210 266 333 379
#     4   9  19  35  61  89 115 155 206 260 301 358
#     4  10  20  38  66  95 122 162 217 266 309 374
#     4  10  20  38  61  95 128 159 208 267 319 380
#     4  12  23  40  65  94 121 174 222 268 309 387
#     4  11  22  40  64  90 122 165 222 259 313 376
#     4  11  24  42  59  93 132 168 203 266 325 383
#     4   9  19  37  60  88 120 153 202 256 307 369
#
# _framework density 21.422481999999999
#
# number of rings (size 3 to 8) (size 9 to 14) (size 15 to 20)
#    0.000    1.500    2.500    3.000    1.750    2.000 
#    0.000    6.250    0.000    0.000    0.000    0.000 
#    0.000    0.000    0.000    0.000    0.000    0.000 
#
# Total GULP energy -178933.891941 kJ/mol
# GULP energy per Si atom -5591.684123 kJ/mol
# Density = 2.137372 g / cm^3
# Si number density = 21.422482 Si / 1000 Ang^3
#
#
#
# Elastic Constant Matrix: (Units=GPa)
#
#
# Indices 1 2 3 4 5 6 
#
# 1 57.1742 26.2272 4.4553 0.0000 0.0000 0.0000
# 2 26.2272 94.0107 25.5593 0.0000 0.0000 0.0000
# 3 4.4553 25.5593 19.1585 0.0000 0.0000 0.0000
# 4 0.0000 0.0000 0.0000 14.3355 0.0000 0.0000
# 5 0.0000 0.0000 0.0000 0.0000 16.5456 0.0000
# 6 0.0000 0.0000 0.0000 0.0000 0.0000 30.8228
#
#
#
# Elastic Compliance Matrix: (Units=1/GPa)
#
#
# Indices 1 2 3 4 5 6 
#
# 1 0.020296 -0.006871 0.004447 0.000000 0.000000 0.000000
# 2 -0.006871 0.019017 -0.023773 0.000000 0.000000 0.000000
# 3 0.004447 -0.023773 0.082877 0.000000 0.000000 0.000000
# 4 0.000000 0.000000 0.000000 0.069757 0.000000 0.000000
# 5 0.000000 0.000000 0.000000 0.000000 0.060439 0.000000
# 6 0.000000 0.000000 0.000000 0.000000 0.000000 0.032444
#
#
# Mechanical properties :
#
#
# Convention : Reuss Voigt Hill
#
# Bulk Modulus (GPa) = 14.32742 31.42524 22.87633
# Shear Modulus (GPa) = 13.87002 19.94756 16.90879
#
# Velocity S-wave (km/s) = 2.54727 3.05479 2.81250
# Velocity P-wave (km/s) = 3.91842 5.20993 4.60963
#
# Compressibility (1/GPa) = 0.06979621
#
# Stress axis : x y z
#
# Youngs Moduli (GPa) = 49.27111 52.58353 12.06602
#
# Poissons Ratio (x) = 0.36131 -0.05366
# Poissons Ratio (y) = 0.33855 0.28685
# Poissons Ratio (z) = -0.21911 1.25007
#
# Static dielectric constant tensor:
#      x y z
#    x 1.740920 0.000000 0.000000 
#    y 0.000000 1.779900 0.000000 
#    z 0.000000 0.000000 1.780890 
# 
# From -- ./inp_files/5415.got.cif
#   From: 2010.05.17/outbox.cif.g08.bks.cpg/sg29_3_cif.got.tgz:5415.got - 2010.06.04 01:19:37.
