data_PCOD9340541
_publ_section_title
;
Structure prediction by ZEFSAII (Michael W. Deem and Ramdas Pophale) SiO2 
 PCOD9340541
Probable space group: P C A 21
;
_chemical_formula_sum "Si O2"
_cell_formula_units_Z 32
_cell_length_a 9.573608
_cell_length_b 20.818448
_cell_length_c 8.145307
_cell_angle_alpha 90.000000
_cell_angle_beta 90.000000
_cell_angle_gamma 90.000000
_cell_volume 1623.422081
_symmetry_space_group_name_H-M "P C A 21"
_symmetry_group_IT_number 29
_symmetry_cell_setting 'orthorhombic'
loop_
_space_group_symop_operation_xyz
x,y,z
-x,-y,1/2+z
1/2-x,y,1/2+z
1/2+x,-y,z
loop_
_atom_site_type_symbol
_atom_site_label
_atom_site_fract_x
_atom_site_fract_y
_atom_site_fract_z
Si Si1 0.956204 0.445936 0.460500
Si Si2 0.042586 0.052660 0.873420
Si Si3 0.653016 0.444510 0.332956
Si Si4 0.156591 0.693599 0.500216
Si Si5 0.654765 0.801418 0.498675
Si Si6 0.956667 0.305442 0.369825
Si Si7 0.544520 0.800731 0.870640
Si Si8 0.160697 0.051468 0.505465
O O1 0.818859 0.456523 0.347629
O O2 0.899276 0.444893 0.646122
O O3 0.015278 0.375630 0.415716
O O4 0.067865 0.501082 0.429096
O O5 0.994627 0.126142 0.898361
O O6 0.106069 0.048064 0.691134
O O7 0.173938 0.040313 0.993091
O O8 0.922855 0.001339 0.903732
O O9 0.629010 0.374944 0.414565
O O10 0.104374 0.692208 0.686602
O O11 0.322330 0.705200 0.487016
O O12 0.073771 0.749512 0.407888
O O13 0.567625 0.750662 0.393745
O O14 0.601058 0.796150 0.684835
O O15 0.819644 0.788682 0.483678
O O16 0.635051 0.875556 0.443524
#
# Coordination Sequence:
#
# PCOD9340541 Si02
#       8
#     4   4   4   4   4   4   4   4
#     4  11  22  39  60  85 115 148 186 230 277 329
#     4  10  21  37  58  82 112 146 185 229 278 330
#     4  11  22  39  60  85 115 148 186 230 277 329
#     4  11  22  38  59  84 113 148 186 229 277 329
#     4  10  21  38  58  83 112 146 185 230 278 330
#     4  11  22  38  59  84 113 148 186 229 277 329
#     4  10  21  38  58  83 112 146 185 230 278 330
#     4  10  21  37  58  82 112 146 185 229 278 330
#
# _framework density 19.711445999999999
#
# number of rings (size 3 to 8) (size 9 to 14) (size 15 to 20)
#    0.000    1.500    0.000    7.500    0.000    5.000 
#    0.000    5.000    0.000    0.000    0.000    0.000 
#    0.000    0.000    0.000    0.000    0.000    0.000 
#
# Total GULP energy -178944.130291 kJ/mol
# GULP energy per Si atom -5592.004072 kJ/mol
# Density = 1.966658 g / cm^3
# Si number density = 19.711446 Si / 1000 Ang^3
#
#
#
# Elastic Constant Matrix: (Units=GPa)
#
#
# Indices 1 2 3 4 5 6 
#
# 1 46.8855 65.6220 -9.2928 0.0000 0.0000 0.0000
# 2 65.6220 116.1504 4.3700 0.0000 0.0000 0.0000
# 3 -9.2928 4.3700 49.2178 0.0000 0.0000 0.0000
# 4 0.0000 0.0000 0.0000 28.1394 0.0000 0.0000
# 5 0.0000 0.0000 0.0000 0.0000 41.8178 0.0000
# 6 0.0000 0.0000 0.0000 0.0000 0.0000 36.1871
#
#
#
# Elastic Compliance Matrix: (Units=1/GPa)
#
#
# Indices 1 2 3 4 5 6 
#
# 1 0.143049 -0.082110 0.034300 0.000000 0.000000 0.000000
# 2 -0.082110 0.055769 -0.020455 0.000000 0.000000 0.000000
# 3 0.034300 -0.020455 0.028610 0.000000 0.000000 0.000000
# 4 0.000000 0.000000 0.000000 0.035537 0.000000 0.000000
# 5 0.000000 0.000000 0.000000 0.000000 0.023913 0.000000
# 6 0.000000 0.000000 0.000000 0.000000 0.000000 0.027634
#
#
# Mechanical properties :
#
#
# Convention : Reuss Voigt Hill
#
# Bulk Modulus (GPa) = 11.00127 37.07245 24.03686
# Shear Modulus (GPa) = 10.38762 31.33250 20.86006
#
# Velocity S-wave (km/s) = 2.29810 3.99125 3.25664
# Velocity P-wave (km/s) = 3.55457 6.33155 5.13437
#
# Compressibility (1/GPa) = 0.09089858
#
# Stress axis : x y z
#
# Youngs Moduli (GPa) = 6.99060 17.93115 34.95271
#
# Poissons Ratio (x) = 1.47232 -1.19886
# Poissons Ratio (y) = 0.57400 0.71495
# Poissons Ratio (z) = -0.23977 0.36678
#
# Static dielectric constant tensor:
#      x y z
#    x 1.648900 0.000000 0.000000 
#    y 0.000000 1.668640 0.000000 
#    z 0.000000 0.000000 1.719740 
# 
# From -- ./inp_files/1277.got.cif
#   From: 2010.05.17/outbox.cif.g08.bks.cpg/sg29_1_cif.got.tgz:1277.got - 2010.06.04 01:19:37.
