data_PCOD9340974
_publ_section_title
;
Structure prediction by ZEFSAII (Michael W. Deem and Ramdas Pophale) SiO2 
 PCOD9340974
Probable space group: P C A 21
;
_chemical_formula_sum "Si O2"
_cell_formula_units_Z 20
_cell_length_a 13.628077
_cell_length_b 8.314349
_cell_length_c 8.630759
_cell_angle_alpha 90.000000
_cell_angle_beta 90.000000
_cell_angle_gamma 90.000000
_cell_volume 977.939119
_symmetry_space_group_name_H-M "P C A 21"
_symmetry_group_IT_number 29
_symmetry_cell_setting 'orthorhombic'
loop_
_space_group_symop_operation_xyz
x,y,z
-x,-y,1/2+z
1/2-x,y,1/2+z
1/2+x,-y,z
loop_
_atom_site_type_symbol
_atom_site_label
_atom_site_fract_x
_atom_site_fract_y
_atom_site_fract_z
Si Si1 0.188959 0.793077 0.072750
Si Si2 0.530917 0.398681 0.942079
Si Si3 0.372857 0.572284 0.106980
Si Si4 0.781093 0.980707 0.298395
Si Si5 0.344688 0.223812 0.021970
O O1 0.296547 0.711311 0.067146
O O2 0.195761 0.915505 0.214691
O O3 0.108717 0.653357 0.073331
O O4 0.169473 0.897628 0.918840
O O5 0.586212 0.416910 0.780797
O O6 0.466925 0.553035 0.993943
O O7 0.449266 0.257384 0.942594
O O8 0.318575 0.400268 0.087426
O O9 0.732875 0.840506 0.399342
O O10 0.845909 0.903226 0.162655
#
# Coordination Sequence:
#
# PCOD9340974 Si02
#       5
#     4   4   4   4   4
#     4  11  22  41  71  93 136 169 228 273 333 394
#     4  10  24  42  66 101 129 177 226 272 325 399
#     4  10  24  42  67  98 130 177 227 271 327 392
#     4  10  22  43  65  98 132 178 209 279 339 385
#     4   9  24  42  65  98 131 175 222 267 338 392
#
# _framework density 20.451170999999999
#
# number of rings (size 3 to 8) (size 9 to 14) (size 15 to 20)
#    1.200    0.800    2.000    0.000    5.600    3.200 
#    3.600    0.000    0.000    0.000    0.000    0.000 
#    0.000    0.000    0.000    0.000    0.000    0.000 
#
# Total GULP energy -111405.163353 kJ/mol
# GULP energy per Si atom -5570.258168 kJ/mol
# Density = 2.040462 g / cm^3
# Si number density = 20.451171 Si / 1000 Ang^3
#
#
#
# Elastic Constant Matrix: (Units=GPa)
#
#
# Indices 1 2 3 4 5 6 
#
# 1 42.2664 27.6023 -0.5486 0.0000 0.0000 0.0000
# 2 27.6023 84.1289 33.8959 0.0000 0.0000 0.0000
# 3 -0.5486 33.8959 44.1502 0.0000 0.0000 0.0000
# 4 0.0000 0.0000 0.0000 43.5974 0.0000 0.0000
# 5 0.0000 0.0000 0.0000 0.0000 22.2154 0.0000
# 6 0.0000 0.0000 0.0000 0.0000 0.0000 20.4125
#
#
#
# Elastic Compliance Matrix: (Units=1/GPa)
#
#
# Indices 1 2 3 4 5 6 
#
# 1 0.034790 -0.016778 0.013314 0.000000 0.000000 0.000000
# 2 -0.016778 0.025302 -0.019634 0.000000 0.000000 0.000000
# 3 0.013314 -0.019634 0.037889 0.000000 0.000000 0.000000
# 4 0.000000 0.000000 0.000000 0.022937 0.000000 0.000000
# 5 0.000000 0.000000 0.000000 0.000000 0.045014 0.000000
# 6 0.000000 0.000000 0.000000 0.000000 0.000000 0.048990
#
#
# Mechanical properties :
#
#
# Convention : Reuss Voigt Hill
#
# Bulk Modulus (GPa) = 19.31112 32.49383 25.90248
# Shear Modulus (GPa) = 17.96110 24.55146 21.25628
#
# Velocity S-wave (km/s) = 2.96673 3.46857 3.22742
# Velocity P-wave (km/s) = 4.60417 5.65370 5.15571
#
# Compressibility (1/GPa) = 0.05178364
#
# Stress axis : x y z
#
# Youngs Moduli (GPa) = 28.74425 39.52254 26.39282
#
# Poissons Ratio (x) = 0.66313 -0.35139
# Poissons Ratio (y) = 0.48228 0.51819
# Poissons Ratio (z) = -0.38270 0.77598
#
# Static dielectric constant tensor:
#      x y z
#    x 1.720020 0.000000 0.000000 
#    y 0.000000 1.725270 0.000000 
#    z 0.000000 0.000000 1.733790 
# 
# From -- ./inp_files/1338.got.cif
#   From: 2010.05.17/outbox.cif.g08.bks.cpg/sg29_1_cif.got.tgz:1338.got - 2010.06.04 01:19:37.
