data_PCOD9340803
_publ_section_title
;
Structure prediction by ZEFSAII (Michael W. Deem and Ramdas Pophale) SiO2 
 PCOD9340803
Probable space group: P C A 21
;
_chemical_formula_sum "Si O2"
_cell_formula_units_Z 24
_cell_length_a 13.723769
_cell_length_b 8.114886
_cell_length_c 9.372273
_cell_angle_alpha 90.000000
_cell_angle_beta 90.000000
_cell_angle_gamma 90.000000
_cell_volume 1043.760249
_symmetry_space_group_name_H-M "P C A 21"
_symmetry_group_IT_number 29
_symmetry_cell_setting 'orthorhombic'
loop_
_space_group_symop_operation_xyz
x,y,z
-x,-y,1/2+z
1/2-x,y,1/2+z
1/2+x,-y,z
loop_
_atom_site_type_symbol
_atom_site_label
_atom_site_fract_x
_atom_site_fract_y
_atom_site_fract_z
Si Si1 0.465432 0.065092 0.381710
Si Si2 0.740037 0.276329 0.553507
Si Si3 0.529909 0.220472 0.670996
Si Si4 0.169914 0.894969 0.289487
Si Si5 0.241764 0.218435 0.909387
Si Si6 0.329139 0.400685 0.672369
O O1 0.496115 0.090904 0.546820
O O2 0.556290 0.144368 0.297503
O O3 0.364599 0.159223 0.358527
O O4 0.456314 0.882142 0.316702
O O5 0.631286 0.296287 0.617294
O O6 0.786418 0.117444 0.632911
O O7 0.727412 0.233755 0.388815
O O8 0.808162 0.426038 0.598876
O O9 0.442253 0.350703 0.679758
O O10 0.185835 0.071116 0.365256
O O11 0.281409 0.377736 0.826465
O O12 0.226783 0.267329 0.072772
#
# Coordination Sequence:
#
# PCOD9340803 Si02
#       6
#     4   4   4   4   4   4
#     4  10  22  37  63  95 121 156 216 262 300 367
#     4  11  24  41  62  93 131 165 204 259 320 374
#     4  10  22  41  63  93 125 162 212 256 314 365
#     4  11  22  40  64  92 121 166 212 259 307 368
#     4  11  22  40  64  92 121 166 212 259 307 368
#     4  11  24  41  62  93 131 165 204 259 320 374
#
# _framework density 22.993787000000001
#
# number of rings (size 3 to 8) (size 9 to 14) (size 15 to 20)
#    0.000    1.333    3.333    2.000    4.667    1.333 
#    0.000    6.667    0.000    0.000    0.000    0.000 
#    0.000    0.000    0.000    0.000    0.000    0.000 
#
# Total GULP energy -134191.299205 kJ/mol
# GULP energy per Si atom -5591.304134 kJ/mol
# Density = 2.294145 g / cm^3
# Si number density = 22.993787 Si / 1000 Ang^3
#
#
#
# Elastic Constant Matrix: (Units=GPa)
#
#
# Indices 1 2 3 4 5 6 
#
# 1 85.3947 -20.8857 14.5206 0.0000 0.0000 0.0000
# 2 -20.8857 63.6886 -7.2928 0.0000 0.0000 0.0000
# 3 14.5206 -7.2928 44.2148 0.0000 0.0000 0.0000
# 4 0.0000 0.0000 0.0000 31.4088 0.0000 0.0000
# 5 0.0000 0.0000 0.0000 0.0000 25.5960 0.0000
# 6 0.0000 0.0000 0.0000 0.0000 0.0000 29.2085
#
#
#
# Elastic Compliance Matrix: (Units=1/GPa)
#
#
# Indices 1 2 3 4 5 6 
#
# 1 0.013306 0.003937 -0.003720 0.000000 0.000000 0.000000
# 2 0.003937 0.017169 0.001539 0.000000 0.000000 0.000000
# 3 -0.003720 0.001539 0.024092 0.000000 0.000000 0.000000
# 4 0.000000 0.000000 0.000000 0.031838 0.000000 0.000000
# 5 0.000000 0.000000 0.000000 0.000000 0.039069 0.000000
# 6 0.000000 0.000000 0.000000 0.000000 0.000000 0.034237
#
#
# Mechanical properties :
#
#
# Convention : Reuss Voigt Hill
#
# Bulk Modulus (GPa) = 17.21796 18.44248 17.83022
# Shear Modulus (GPa) = 28.48050 31.03972 29.76011
#
# Velocity S-wave (km/s) = 3.52322 3.67811 3.60150
# Velocity P-wave (km/s) = 4.90460 5.10647 5.00655
#
# Compressibility (1/GPa) = 0.05807889
#
# Stress axis : x y z
#
# Youngs Moduli (GPa) = 75.15423 58.24514 41.50671
#
# Poissons Ratio (x) = -0.22934 0.15442
# Poissons Ratio (y) = -0.29592 -0.06387
# Poissons Ratio (z) = 0.27960 -0.08962
#
# Static dielectric constant tensor:
#      x y z
#    x 1.822970 0.000000 0.000000 
#    y 0.000000 1.907500 0.000000 
#    z 0.000000 0.000000 1.843110 
# 
# From -- ./inp_files/1709.got.cif
#   From: 2010.05.17/outbox.cif.g08.bks.cpg/sg29_1_cif.got.tgz:1709.got - 2010.06.04 01:19:37.
