data_PCOD9340501
_publ_section_title
;
Structure prediction by ZEFSAII (Michael W. Deem and Ramdas Pophale) SiO2 
 PCOD9340501
Probable space group: P C A 21
;
_chemical_formula_sum "Si O2"
_cell_formula_units_Z 20
_cell_length_a 19.551891
_cell_length_b 6.978869
_cell_length_c 7.549169
_cell_angle_alpha 90.000000
_cell_angle_beta 90.000000
_cell_angle_gamma 90.000000
_cell_volume 1030.084759
_symmetry_space_group_name_H-M "P C A 21"
_symmetry_group_IT_number 29
_symmetry_cell_setting 'orthorhombic'
loop_
_space_group_symop_operation_xyz
x,y,z
-x,-y,1/2+z
1/2-x,y,1/2+z
1/2+x,-y,z
loop_
_atom_site_type_symbol
_atom_site_label
_atom_site_fract_x
_atom_site_fract_y
_atom_site_fract_z
Si Si1 0.662731 0.196009 0.268790
Si Si2 0.967601 0.282728 0.980051
Si Si3 0.687488 0.253765 0.865004
Si Si4 0.124270 0.032649 0.574489
Si Si5 0.588859 0.584023 0.750619
O O1 0.594139 0.303334 0.335504
O O2 0.732086 0.291070 0.341067
O O3 0.657031 0.999292 0.381108
O O4 0.669263 0.177621 0.059854
O O5 0.040017 0.312073 0.891165
O O6 0.955907 0.441391 0.129472
O O7 0.950258 0.072073 0.059006
O O8 0.645621 0.448066 0.835401
O O9 0.664644 0.099819 0.715814
O O10 0.120559 0.248669 0.632703
#
# Coordination Sequence:
#
# PCOD9340501 Si02
#       5
#     4   4   4   4   4
#     4  10  20  44  60  89 133 168 196 285 309 366
#     4   9  22  38  61  87 133 157 215 261 314 374
#     4  11  20  42  64  88 133 163 216 259 324 373
#     4   9  23  40  61  92 123 166 213 263 313 383
#     4  11  21  42  64  96 122 176 212 260 322 394
#
# _framework density 19.415879
#
# number of rings (size 3 to 8) (size 9 to 14) (size 15 to 20)
#    1.200    0.800    2.000    1.200    0.000    4.800 
#   14.400    0.000    0.000    0.000    0.000    0.000 
#    0.000    0.000    0.000    0.000    0.000    0.000 
#
# Total GULP energy -111434.075552 kJ/mol
# GULP energy per Si atom -5571.703778 kJ/mol
# Density = 1.937169 g / cm^3
# Si number density = 19.415879 Si / 1000 Ang^3
#
#
#
# Elastic Constant Matrix: (Units=GPa)
#
#
# Indices 1 2 3 4 5 6 
#
# 1 46.4158 9.8484 -5.4203 0.0000 0.0000 0.0000
# 2 9.8484 52.2749 42.3369 0.0000 0.0000 0.0000
# 3 -5.4203 42.3369 93.0160 0.0000 0.0000 0.0000
# 4 0.0000 0.0000 0.0000 22.9345 0.0000 0.0000
# 5 0.0000 0.0000 0.0000 0.0000 29.6037 0.0000
# 6 0.0000 0.0000 0.0000 0.0000 0.0000 -1.8976
#
#
#
# Elastic Compliance Matrix: (Units=1/GPa)
#
#
# Indices 1 2 3 4 5 6 
#
# 1 0.024094 -0.008990 0.005496 0.000000 0.000000 0.000000
# 2 -0.008990 0.033653 -0.015841 0.000000 0.000000 0.000000
# 3 0.005496 -0.015841 0.018281 0.000000 0.000000 0.000000
# 4 0.000000 0.000000 0.000000 0.043603 0.000000 0.000000
# 5 0.000000 0.000000 0.000000 0.000000 0.033780 0.000000
# 6 0.000000 0.000000 0.000000 0.000000 0.000000 -0.526979
#
#
# Mechanical properties :
#
#
# Convention : Reuss Voigt Hill
#
# Bulk Modulus (GPa) = 26.76880 31.69297 29.23088
# Shear Modulus (GPa) = -15.50653 19.79090 2.14218
#
# Velocity S-wave (km/s) = -2.82911 3.19614 1.05153
# Velocity P-wave (km/s) = 1.77347 5.47531 4.06966
#
# Compressibility (1/GPa) = 0.03735693
#
# Stress axis : x y z
#
# Youngs Moduli (GPa) = 41.50462 29.71495 54.70042
#
# Poissons Ratio (x) = 0.26715 -0.30063
# Poissons Ratio (y) = 0.37314 0.86653
# Poissons Ratio (z) = -0.22811 0.47072
#
# Static dielectric constant tensor:
#      x y z
#    x 1.695970 0.000000 0.000000 
#    y 0.000000 1.643090 0.000000 
#    z 0.000000 0.000000 1.703360 
# 
# From -- ./inp_files/1961.got.cif
#   From: 2010.05.17/outbox.cif.g08.bks.cpg/sg29_1_cif.got.tgz:1961.got - 2010.06.04 01:19:37.
