data_PCOD9340656
_publ_section_title
;
Structure prediction by ZEFSAII (Michael W. Deem and Ramdas Pophale) SiO2 
 PCOD9340656
Probable space group: P C A 21
;
_chemical_formula_sum "Si O2"
_cell_formula_units_Z 24
_cell_length_a 12.986739
_cell_length_b 12.417229
_cell_length_c 7.438478
_cell_angle_alpha 90.000000
_cell_angle_beta 90.000000
_cell_angle_gamma 90.000000
_cell_volume 1199.523846
_symmetry_space_group_name_H-M "P C A 21"
_symmetry_group_IT_number 29
_symmetry_cell_setting 'orthorhombic'
loop_
_space_group_symop_operation_xyz
x,y,z
-x,-y,1/2+z
1/2-x,y,1/2+z
1/2+x,-y,z
loop_
_atom_site_type_symbol
_atom_site_label
_atom_site_fract_x
_atom_site_fract_y
_atom_site_fract_z
Si Si1 0.400509 0.656829 0.268210
Si Si2 0.867812 0.596226 0.788313
Si Si3 0.614503 0.895152 0.727062
Si Si4 0.259154 0.544660 0.030289
Si Si5 0.982504 0.112123 0.367185
Si Si6 0.163287 0.173012 0.111551
O O1 0.509852 0.599042 0.288758
O O2 0.316855 0.602680 0.394502
O O3 0.420657 0.780168 0.315737
O O4 0.348662 0.629701 0.078008
O O5 0.821579 0.497520 0.677587
O O6 0.818183 0.566483 0.978732
O O7 0.833773 0.709813 0.705081
O O8 0.529167 0.878257 0.569667
O O9 0.725101 0.882709 0.628524
O O10 0.587450 0.009344 0.820689
O O11 0.624297 0.819437 0.904919
O O12 0.079944 0.109004 0.231239
#
# Coordination Sequence:
#
# PCOD9340656 Si02
#       6
#     4   4   4   4   4   4
#     4  10  23  42  61  95 131 171 221 268 336 407
#     4  10  21  40  65  96 127 170 225 275 327 402
#     4  12  23  43  67  97 136 174 229 284 340 405
#     4  10  21  41  64  92 133 174 212 271 344 396
#     4  11  25  43  64  99 134 177 228 281 342 406
#     4  11  23  41  67 101 129 176 229 281 339 404
#
# _framework density 20.007939
#
# number of rings (size 3 to 8) (size 9 to 14) (size 15 to 20)
#    0.000    1.333    3.333    2.000    2.333    1.333 
#   15.000    0.000    0.000    0.000    0.000    0.000 
#    0.000    0.000    0.000    0.000    0.000    0.000 
#
# Total GULP energy -133670.274664 kJ/mol
# GULP energy per Si atom -5569.594778 kJ/mol
# Density = 1.996240 g / cm^3
# Si number density = 20.007939 Si / 1000 Ang^3
#
#
#
# Elastic Constant Matrix: (Units=GPa)
#
#
# Indices 1 2 3 4 5 6 
#
# 1 145.1839 67.6673 41.4051 0.0000 0.0000 0.0000
# 2 67.6673 93.8046 26.6235 0.0000 0.0000 0.0000
# 3 41.4051 26.6235 83.2436 0.0000 0.0000 0.0000
# 4 0.0000 0.0000 0.0000 35.5401 0.0000 0.0000
# 5 0.0000 0.0000 0.0000 0.0000 21.5323 0.0000
# 6 0.0000 0.0000 0.0000 0.0000 0.0000 21.8423
#
#
#
# Elastic Compliance Matrix: (Units=1/GPa)
#
#
# Indices 1 2 3 4 5 6 
#
# 1 0.011128 -0.007101 -0.003264 0.000000 0.000000 0.000000
# 2 -0.007101 0.016256 -0.001667 0.000000 0.000000 0.000000
# 3 -0.003264 -0.001667 0.014170 0.000000 0.000000 0.000000
# 4 0.000000 0.000000 0.000000 0.028137 0.000000 0.000000
# 5 0.000000 0.000000 0.000000 0.000000 0.046442 0.000000
# 6 0.000000 0.000000 0.000000 0.000000 0.000000 0.045783
#
#
# Mechanical properties :
#
#
# Convention : Reuss Voigt Hill
#
# Bulk Modulus (GPa) = 57.17700 65.95822 61.56761
# Shear Modulus (GPa) = 26.06737 28.21869 27.14303
#
# Velocity S-wave (km/s) = 3.61342 3.75957 3.68722
# Velocity P-wave (km/s) = 6.78589 7.20301 6.99756
#
# Compressibility (1/GPa) = 0.01748955
#
# Stress axis : x y z
#
# Youngs Moduli (GPa) = 89.85967 61.51502 70.57346
#
# Poissons Ratio (x) = 0.43683 0.23036
# Poissons Ratio (y) = 0.63812 0.11765
# Poissons Ratio (z) = 0.29331 0.10255
#
# Static dielectric constant tensor:
#      x y z
#    x 1.676150 0.000000 0.000000 
#    y 0.000000 1.686050 0.000000 
#    z 0.000000 0.000000 2.086010 
# 
# From -- ./inp_files/1421.got.cif
#   From: 2010.05.17/outbox.cif.g08.bks.cpg/sg29_1_cif.got.tgz:1421.got - 2010.06.04 01:19:37.
