data_PCOD9340160
_publ_section_title
;
Structure prediction by ZEFSAII (Michael W. Deem and Ramdas Pophale) SiO2 
 PCOD9340160
Probable space group: P C A 21
;
_chemical_formula_sum "Si O2"
_cell_formula_units_Z 32
_cell_length_a 14.522259
_cell_length_b 8.604166
_cell_length_c 9.061386
_cell_angle_alpha 90.000000
_cell_angle_beta 90.000000
_cell_angle_gamma 90.000000
_cell_volume 1132.237643
_symmetry_space_group_name_H-M "P C A 21"
_symmetry_group_IT_number 29
_symmetry_cell_setting 'orthorhombic'
loop_
_space_group_symop_operation_xyz
x,y,z
-x,-y,1/2+z
1/2-x,y,1/2+z
1/2+x,-y,z
loop_
_atom_site_type_symbol
_atom_site_label
_atom_site_fract_x
_atom_site_fract_y
_atom_site_fract_z
Si Si1 0.908200 0.158250 0.643920
Si Si2 0.810169 0.211121 0.129710
Si Si3 0.489290 0.480969 0.080481
Si Si4 0.345995 0.091744 0.468879
Si Si5 0.094865 0.393845 0.840904
Si Si6 0.626137 0.691028 0.240870
Si Si7 0.747185 0.418896 0.376155
Si Si8 0.133719 0.028313 0.428160
O O1 0.798686 0.177796 0.628085
O O2 0.956464 0.321221 0.618144
O O3 0.922640 0.035210 0.512950
O O4 0.914621 0.077678 0.803440
O O5 0.816369 0.327035 0.989327
O O6 0.870539 0.061476 0.085836
O O7 0.811665 0.296666 0.286099
O O8 0.397506 0.443444 0.171427
O O9 0.534658 0.631285 0.159941
O O10 0.503147 0.532819 0.912711
O O11 0.389693 0.213206 0.356394
O O12 0.329516 0.187456 0.623059
O O13 0.246880 0.034889 0.410240
O O14 0.174528 0.470099 0.941694
O O15 0.688281 0.542024 0.281367
O O16 0.607850 0.794141 0.388176
#
# Coordination Sequence:
#
# PCOD9340160 Si02
#       8
#     4   4   4   4   4   4   4   4
#     4  10  19  37  63  87 124 165 197 259 319 374
#     4  11  20  35  61  95 125 155 203 259 326 373
#     4  11  23  44  64  90 129 175 214 263 318 378
#     4   9  20  38  61  91 128 159 204 259 327 372
#     4  11  24  43  64  91 128 172 215 266 315 384
#     4  10  20  37  63  90 128 161 208 265 322 367
#     4  12  21  38  65  96 122 163 210 268 319 373
#     4  10  19  34  63  96 122 158 201 261 322 383
#
# _framework density 28.262619999999998
#
# number of rings (size 3 to 8) (size 9 to 14) (size 15 to 20)
#    0.000    1.500    5.000    0.750    0.000    2.000 
#    0.000    3.750    0.000    0.000    0.000    0.000 
#    0.000    0.000    0.000    0.000    0.000    0.000 
#
# Total GULP energy -178851.480125 kJ/mol
# GULP energy per Si atom -5589.108754 kJ/mol
# Density = 2.819829 g / cm^3
# Si number density = 28.262620 Si / 1000 Ang^3
#
#
#
# Elastic Constant Matrix: (Units=GPa)
#
#
# Indices 1 2 3 4 5 6 
#
# 1 46.4019 6.2655 5.4376 0.0000 0.0000 0.0000
# 2 6.2655 131.7574 51.0462 0.0000 0.0000 0.0000
# 3 5.4376 51.0462 100.6380 0.0000 0.0000 0.0000
# 4 0.0000 0.0000 0.0000 69.3798 0.0000 0.0000
# 5 0.0000 0.0000 0.0000 0.0000 40.5176 0.0000
# 6 0.0000 0.0000 0.0000 0.0000 0.0000 36.2429
#
#
#
# Elastic Compliance Matrix: (Units=1/GPa)
#
#
# Indices 1 2 3 4 5 6 
#
# 1 0.021743 -0.000720 -0.000809 0.000000 0.000000 0.000000
# 2 -0.000720 0.009470 -0.004764 0.000000 0.000000 0.000000
# 3 -0.000809 -0.004764 0.012397 0.000000 0.000000 0.000000
# 4 0.000000 0.000000 0.000000 0.014413 0.000000 0.000000
# 5 0.000000 0.000000 0.000000 0.000000 0.024681 0.000000
# 6 0.000000 0.000000 0.000000 0.000000 0.000000 0.027592
#
#
# Mechanical properties :
#
#
# Convention : Reuss Voigt Hill
#
# Bulk Modulus (GPa) = 32.23585 44.92178 38.57881
# Shear Modulus (GPa) = 37.53070 43.63127 40.58098
#
# Velocity S-wave (km/s) = 3.64803 3.93336 3.79338
# Velocity P-wave (km/s) = 5.40136 6.04627 5.73289
#
# Compressibility (1/GPa) = 0.03102136
#
# Stress axis : x y z
#
# Youngs Moduli (GPa) = 45.99188 105.59864 80.66483
#
# Poissons Ratio (x) = 0.07607 0.06529
# Poissons Ratio (y) = 0.03313 0.38432
# Poissons Ratio (z) = 0.03723 0.50312
#
# Static dielectric constant tensor:
#      x y z
#    x 2.212540 0.000000 0.000000 
#    y 0.000000 2.339300 0.000000 
#    z 0.000000 0.000000 2.293790 
# 
# From -- ./inp_files/2287.got.cif
#   From: 2010.05.17/outbox.cif.g08.bks.cpg/sg29_2_cif.got.tgz:2287.got - 2010.06.04 01:19:37.
