data_PCOD9340663
_publ_section_title
;
Structure prediction by ZEFSAII (Michael W. Deem and Ramdas Pophale) SiO2 
 PCOD9340663
Probable space group: P C A 21
;
_chemical_formula_sum "Si O2"
_cell_formula_units_Z 28
_cell_length_a 16.314078
_cell_length_b 9.291484
_cell_length_c 8.636311
_cell_angle_alpha 90.000000
_cell_angle_beta 90.000000
_cell_angle_gamma 90.000000
_cell_volume 1309.109248
_symmetry_space_group_name_H-M "P C A 21"
_symmetry_group_IT_number 29
_symmetry_cell_setting 'orthorhombic'
loop_
_space_group_symop_operation_xyz
x,y,z
-x,-y,1/2+z
1/2-x,y,1/2+z
1/2+x,-y,z
loop_
_atom_site_type_symbol
_atom_site_label
_atom_site_fract_x
_atom_site_fract_y
_atom_site_fract_z
Si Si1 0.651674 0.745922 0.594200
Si Si2 0.134252 0.937300 0.615406
Si Si3 0.021346 0.429341 0.780518
Si Si4 0.843660 0.370094 0.662249
Si Si5 0.178300 0.298458 0.234461
Si Si6 0.270503 0.810565 0.392983
Si Si7 0.489625 0.288283 0.613711
O O1 0.599221 0.630611 0.688729
O O2 0.737660 0.771302 0.680749
O O3 0.668768 0.697152 0.419164
O O4 0.606648 0.899165 0.594950
O O5 0.208517 0.904188 0.496934
O O6 0.060100 0.827213 0.588103
O O7 0.171127 0.905249 0.784861
O O8 0.938388 0.361573 0.709762
O O9 0.014419 0.599450 0.748991
O O10 0.022913 0.383148 0.958901
O O11 0.821444 0.538675 0.668784
O O12 0.823260 0.294799 0.501055
O O13 0.786707 0.288456 0.785365
O O14 0.097933 0.223859 0.162559
#
# Coordination Sequence:
#
# PCOD9340663 Si02
#       7
#     4   4   4   4   4   4   4
#     4  12  26  45  67  99 139 179 226 278 350 419
#     4  11  25  44  67  99 138 180 223 275 346 415
#     4  11  24  43  66 100 135 173 231 288 337 401
#     4  10  21  40  67 100 126 172 227 283 335 387
#     4  11  25  42  70  98 134 179 224 285 343 407
#     4  10  22  40  68  95 132 175 225 278 334 409
#     4  11  25  44  69 101 136 178 234 285 345 400
#
# _framework density 21.388589
#
# number of rings (size 3 to 8) (size 9 to 14) (size 15 to 20)
#    0.000    1.143    1.429    4.286   10.000    1.143 
#    5.143    0.000    0.000    0.000    0.000    0.000 
#    0.000    0.000    0.000    0.000    0.000    0.000 
#
# Total GULP energy -156725.210591 kJ/mol
# GULP energy per Si atom -5597.328950 kJ/mol
# Density = 2.133991 g / cm^3
# Si number density = 21.388589 Si / 1000 Ang^3
#
#
#
# Elastic Constant Matrix: (Units=GPa)
#
#
# Indices 1 2 3 4 5 6 
#
# 1 76.1043 -1.4484 16.1085 0.0000 0.0000 0.0000
# 2 -1.4484 40.8061 -10.2253 0.0000 0.0000 0.0000
# 3 16.1085 -10.2253 87.4956 0.0000 0.0000 0.0000
# 4 0.0000 0.0000 0.0000 12.5538 0.0000 0.0000
# 5 0.0000 0.0000 0.0000 0.0000 31.2200 0.0000
# 6 0.0000 0.0000 0.0000 0.0000 0.0000 20.1194
#
#
#
# Elastic Compliance Matrix: (Units=1/GPa)
#
#
# Indices 1 2 3 4 5 6 
#
# 1 0.013674 -0.000150 -0.002535 0.000000 0.000000 0.000000
# 2 -0.000150 0.025247 0.002978 0.000000 0.000000 0.000000
# 3 -0.002535 0.002978 0.012244 0.000000 0.000000 0.000000
# 4 0.000000 0.000000 0.000000 0.079657 0.000000 0.000000
# 5 0.000000 0.000000 0.000000 0.000000 0.032031 0.000000
# 6 0.000000 0.000000 0.000000 0.000000 0.000000 0.049703
#
#
# Mechanical properties :
#
#
# Convention : Reuss Voigt Hill
#
# Bulk Modulus (GPa) = 19.32320 23.69729 21.51024
# Shear Modulus (GPa) = 21.81320 26.11007 23.96164
#
# Velocity S-wave (km/s) = 3.19698 3.49771 3.35072
# Velocity P-wave (km/s) = 4.76251 5.23597 5.00484
#
# Compressibility (1/GPa) = 0.05175126
#
# Stress axis : x y z
#
# Youngs Moduli (GPa) = 73.13388 39.60850 81.67350
#
# Poissons Ratio (x) = 0.00594 0.20703
# Poissons Ratio (y) = 0.01096 -0.24323
# Poissons Ratio (z) = 0.18539 -0.11796
#
# Static dielectric constant tensor:
#      x y z
#    x 1.773590 0.000000 0.000000 
#    y 0.000000 1.756360 0.000000 
#    z 0.000000 0.000000 1.764620 
# 
# From -- ./inp_files/1771.got.cif
#   From: 2010.05.17/outbox.cif.g08.bks.cpg/sg29_1_cif.got.tgz:1771.got - 2010.06.04 01:19:37.
