data_PCOD9340917
_publ_section_title
;
Structure prediction by ZEFSAII (Michael W. Deem and Ramdas Pophale) SiO2 
 PCOD9340917
Probable space group: P C A 21
;
_chemical_formula_sum "Si O2"
_cell_formula_units_Z 28
_cell_length_a 9.828661
_cell_length_b 10.002559
_cell_length_c 11.713470
_cell_angle_alpha 90.000000
_cell_angle_beta 90.000000
_cell_angle_gamma 90.000000
_cell_volume 1151.571869
_symmetry_space_group_name_H-M "P C A 21"
_symmetry_group_IT_number 29
_symmetry_cell_setting 'orthorhombic'
loop_
_space_group_symop_operation_xyz
x,y,z
-x,-y,1/2+z
1/2-x,y,1/2+z
1/2+x,-y,z
loop_
_atom_site_type_symbol
_atom_site_label
_atom_site_fract_x
_atom_site_fract_y
_atom_site_fract_z
Si Si1 0.995854 0.010953 0.095800
Si Si2 0.451690 0.724239 0.238695
Si Si3 0.035188 0.714451 0.158051
Si Si4 0.832678 0.193189 0.851499
Si Si5 0.198397 0.614050 0.547705
Si Si6 0.256586 0.063916 0.454134
Si Si7 0.351654 0.344667 0.946011
O O1 0.087205 0.035234 0.982969
O O2 0.004619 0.139639 0.177651
O O3 0.061136 0.873832 0.141329
O O4 0.841689 0.970029 0.062455
O O5 0.304164 0.759238 0.288673
O O6 0.422520 0.614222 0.140785
O O7 0.540478 0.671394 0.343738
O O8 0.043126 0.723455 0.294551
O O9 0.158610 0.625722 0.111514
O O10 0.913250 0.680600 0.073396
O O11 0.822006 0.248354 0.979649
O O12 0.809600 0.033939 0.860581
O O13 0.203165 0.493409 0.458450
O O14 0.245740 0.219372 0.426147
#
# Coordination Sequence:
#
# PCOD9340917 Si02
#       7
#     4   4   4   4   4   4   4
#     4  11  21  43  70 107 135 178 234 303 346 417
#     4  11  23  43  74  99 143 184 242 298 358 427
#     4  10  22  41  68  93 136 178 236 287 359 414
#     4  11  20  44  72  95 135 190 228 293 366 422
#     4  11  23  43  64  97 138 191 228 282 367 429
#     4  11  22  43  70 106 139 177 237 297 355 414
#     4  11  25  41  64 103 140 180 237 298 343 433
#
# _framework density 24.314591
#
# number of rings (size 3 to 8) (size 9 to 14) (size 15 to 20)
#    0.000    1.143    4.286    2.571    2.000    1.143 
#    2.571    1.429    0.000    0.000    0.000    0.000 
#    0.000    0.000    0.000    0.000    0.000    0.000 
#
# Total GULP energy -156238.524063 kJ/mol
# GULP energy per Si atom -5579.947288 kJ/mol
# Density = 2.425925 g / cm^3
# Si number density = 24.314591 Si / 1000 Ang^3
#
#
#
# Elastic Constant Matrix: (Units=GPa)
#
#
# Indices 1 2 3 4 5 6 
#
# 1 60.8722 8.0122 7.8398 0.0000 0.0000 0.0000
# 2 8.0122 130.7344 9.4931 0.0000 0.0000 0.0000
# 3 7.8398 9.4931 49.5932 0.0000 0.0000 0.0000
# 4 0.0000 0.0000 0.0000 40.8318 0.0000 0.0000
# 5 0.0000 0.0000 0.0000 0.0000 16.9923 0.0000
# 6 0.0000 0.0000 0.0000 0.0000 0.0000 21.0026
#
#
#
# Elastic Compliance Matrix: (Units=1/GPa)
#
#
# Indices 1 2 3 4 5 6 
#
# 1 0.016862 -0.000852 -0.002503 0.000000 0.000000 0.000000
# 2 -0.000852 0.007800 -0.001358 0.000000 0.000000 0.000000
# 3 -0.002503 -0.001358 0.020820 0.000000 0.000000 0.000000
# 4 0.000000 0.000000 0.000000 0.024491 0.000000 0.000000
# 5 0.000000 0.000000 0.000000 0.000000 0.058850 0.000000
# 6 0.000000 0.000000 0.000000 0.000000 0.000000 0.047613
#
#
# Mechanical properties :
#
#
# Convention : Reuss Voigt Hill
#
# Bulk Modulus (GPa) = 27.73425 32.43220 30.08323
# Shear Modulus (GPa) = 25.26784 30.15567 27.71175
#
# Velocity S-wave (km/s) = 3.22717 3.52551 3.37963
# Velocity P-wave (km/s) = 5.03163 5.47173 5.25629
#
# Compressibility (1/GPa) = 0.03605650
#
# Stress axis : x y z
#
# Youngs Moduli (GPa) = 59.30401 128.20620 48.03140
#
# Poissons Ratio (x) = 0.10919 0.12020
# Poissons Ratio (y) = 0.05051 0.06525
# Poissons Ratio (z) = 0.14841 0.17416
#
# Static dielectric constant tensor:
#      x y z
#    x 1.944900 0.000000 0.000000 
#    y 0.000000 1.967460 0.000000 
#    z 0.000000 0.000000 2.110890 
# 
# From -- ./inp_files/3119.got.cif
#   From: 2010.05.17/outbox.cif.g08.bks.cpg/sg29_2_cif.got.tgz:3119.got - 2010.06.04 01:19:37.
