data_PCOD9340105
_publ_section_title
;
Structure prediction by ZEFSAII (Michael W. Deem and Ramdas Pophale) SiO2 
 PCOD9340105
Probable space group: P C A 21
;
_chemical_formula_sum "Si O2"
_cell_formula_units_Z 20
_cell_length_a 19.363193
_cell_length_b 10.420351
_cell_length_c 4.937823
_cell_angle_alpha 90.000000
_cell_angle_beta 90.000000
_cell_angle_gamma 90.000000
_cell_volume 996.310806
_symmetry_space_group_name_H-M "P C A 21"
_symmetry_group_IT_number 29
_symmetry_cell_setting 'orthorhombic'
loop_
_space_group_symop_operation_xyz
x,y,z
-x,-y,1/2+z
1/2-x,y,1/2+z
1/2+x,-y,z
loop_
_atom_site_type_symbol
_atom_site_label
_atom_site_fract_x
_atom_site_fract_y
_atom_site_fract_z
Si Si1 0.457363 0.042759 0.272350
Si Si2 0.584669 0.525296 0.385955
Si Si3 0.700166 0.937609 0.635940
Si Si4 0.790231 0.634388 0.166057
Si Si5 0.025396 0.334085 0.881809
O O1 0.377170 0.009571 0.198196
O O2 0.459880 0.185041 0.402649
O O3 0.495676 0.957819 0.500937
O O4 0.658471 0.537721 0.521641
O O5 0.552116 0.384959 0.424898
O O6 0.541479 0.621733 0.577724
O O7 0.572042 0.582182 0.087891
O O8 0.741726 0.968407 0.361812
O O9 0.688122 0.782762 0.625225
O O10 0.777897 0.619567 0.482556
#
# Coordination Sequence:
#
# PCOD9340105 Si02
#       5
#     4   4   4   4   4
#     4  12  24  38  60  87 121 155 202 250 286 350
#     4  10  19  35  56  80 116 143 177 236 278 360
#     4  10  21  36  58  83 116 148 193 250 300 344
#     4  10  19  30  54  84 113 142 179 235 295 345
#     4  10  21  35  56  82 112 148 185 225 297 331
#
# _framework density 20.074057
#
# number of rings (size 3 to 8) (size 9 to 14) (size 15 to 20)
#    0.000    1.600    2.000    3.600    5.600    0.000 
#    0.000    0.000    0.000    7.200    0.000    0.000 
#    0.000    0.000    0.000    0.000    0.000    0.000 
#
# Total GULP energy -111370.507572 kJ/mol
# GULP energy per Si atom -5568.525379 kJ/mol
# Density = 2.002837 g / cm^3
# Si number density = 20.074057 Si / 1000 Ang^3
#
#
#
# Elastic Constant Matrix: (Units=GPa)
#
#
# Indices 1 2 3 4 5 6 
#
# 1 110.7205 4.4413 19.6269 0.0000 0.0000 0.0000
# 2 4.4413 17.6064 -1.3930 0.0000 0.0000 0.0000
# 3 19.6269 -1.3930 91.4966 0.0000 0.0000 0.0000
# 4 0.0000 0.0000 0.0000 20.8985 0.0000 0.0000
# 5 0.0000 0.0000 0.0000 0.0000 8.6310 0.0000
# 6 0.0000 0.0000 0.0000 0.0000 0.0000 14.6502
#
#
#
# Elastic Compliance Matrix: (Units=1/GPa)
#
#
# Indices 1 2 3 4 5 6 
#
# 1 0.009503 -0.002561 -0.002077 0.000000 0.000000 0.000000
# 2 -0.002561 0.057557 0.001426 0.000000 0.000000 0.000000
# 3 -0.002077 0.001426 0.011397 0.000000 0.000000 0.000000
# 4 0.000000 0.000000 0.000000 0.047850 0.000000 0.000000
# 5 0.000000 0.000000 0.000000 0.000000 0.115862 0.000000
# 6 0.000000 0.000000 0.000000 0.000000 0.000000 0.068258
#
#
# Mechanical properties :
#
#
# Convention : Reuss Voigt Hill
#
# Bulk Modulus (GPa) = 13.88316 29.46375 21.67345
# Shear Modulus (GPa) = 14.66867 21.97917 18.32392
#
# Velocity S-wave (km/s) = 2.70613 3.31252 3.02456
# Velocity P-wave (km/s) = 4.08597 5.41662 4.79765
#
# Compressibility (1/GPa) = 0.07202972
#
# Stress axis : x y z
#
# Youngs Moduli (GPa) = 105.23268 17.37422 87.74464
#
# Poissons Ratio (x) = 0.04450 0.18228
# Poissons Ratio (y) = 0.26955 -0.12510
# Poissons Ratio (z) = 0.21861 -0.02477
#
# Static dielectric constant tensor:
#      x y z
#    x 1.821710 0.000000 0.000000 
#    y 0.000000 1.691960 0.000000 
#    z 0.000000 0.000000 1.710660 
# 
# From -- ./inp_files/155.got.cif
#   From: 2010.05.17/outbox.cif.g08.bks.cpg/sg29_1_cif.got.tgz:155.got - 2010.06.04 01:19:37.
