data_PCOD9340674
_publ_section_title
;
Structure prediction by ZEFSAII (Michael W. Deem and Ramdas Pophale) SiO2 
 PCOD9340674
Probable space group: P C A 21
;
_chemical_formula_sum "Si O2"
_cell_formula_units_Z 32
_cell_length_a 11.748757
_cell_length_b 7.407927
_cell_length_c 15.180791
_cell_angle_alpha 90.000000
_cell_angle_beta 90.000000
_cell_angle_gamma 90.000000
_cell_volume 1321.243965
_symmetry_space_group_name_H-M "P C A 21"
_symmetry_group_IT_number 29
_symmetry_cell_setting 'orthorhombic'
loop_
_space_group_symop_operation_xyz
x,y,z
-x,-y,1/2+z
1/2-x,y,1/2+z
1/2+x,-y,z
loop_
_atom_site_type_symbol
_atom_site_label
_atom_site_fract_x
_atom_site_fract_y
_atom_site_fract_z
Si Si1 0.253413 0.285820 0.481550
Si Si2 0.321030 0.686259 0.542296
Si Si3 0.496650 0.343490 0.904444
Si Si4 0.187347 0.165944 0.664493
Si Si5 0.523460 0.780269 0.898483
Si Si6 0.576224 0.154372 0.580248
Si Si7 0.917452 0.700940 0.722900
Si Si8 0.960483 0.297256 0.712949
O O1 0.300770 0.472360 0.524014
O O2 0.127560 0.308122 0.444047
O O3 0.239147 0.163253 0.566588
O O4 0.340480 0.208190 0.409826
O O5 0.398856 0.736610 0.459227
O O6 0.194641 0.753519 0.556703
O O7 0.392921 0.759306 0.625916
O O8 0.504922 0.562474 0.906838
O O9 0.496359 0.264044 0.806695
O O10 0.298875 0.191577 0.723087
O O11 0.094131 0.321728 0.685676
O O12 0.105089 0.994866 0.654456
O O13 0.469222 0.817856 0.802869
O O14 0.473288 0.884473 0.982775
O O15 0.484060 0.274468 0.631497
O O16 0.897152 0.486194 0.732678
#
# Coordination Sequence:
#
# PCOD9340674 Si02
#       8
#     4   4   4   4   4   4   4   4
#     4  11  19  41  68  96 127 177 238 279 342 402
#     4  11  22  39  70  95 133 176 225 287 341 414
#     4  10  21  40  72 103 128 175 239 288 345 392
#     4  12  25  42  71  97 135 189 227 282 363 414
#     4  10  22  41  67  99 134 175 226 297 335 408
#     4  12  26  44  65  99 148 181 225 276 366 417
#     4  11  24  45  70 101 140 180 237 299 333 412
#     4  11  23  42  71 102 129 179 245 284 341 405
#
# _framework density 24.2196
#
# number of rings (size 3 to 8) (size 9 to 14) (size 15 to 20)
#    0.000    1.000    5.000    2.250    1.750    1.000 
#    2.250    2.500    0.000    0.000    0.000    0.000 
#    0.000    0.000    0.000    0.000    0.000    0.000 
#
# Total GULP energy -178566.619325 kJ/mol
# GULP energy per Si atom -5580.206854 kJ/mol
# Density = 2.416448 g / cm^3
# Si number density = 24.219600 Si / 1000 Ang^3
#
#
#
# Elastic Constant Matrix: (Units=GPa)
#
#
# Indices 1 2 3 4 5 6 
#
# 1 130.1694 3.8526 35.6588 0.0000 0.0000 0.0000
# 2 3.8526 58.0733 5.9048 0.0000 0.0000 0.0000
# 3 35.6588 5.9048 133.0364 0.0000 0.0000 0.0000
# 4 0.0000 0.0000 0.0000 10.9525 0.0000 0.0000
# 5 0.0000 0.0000 0.0000 0.0000 33.3050 0.0000
# 6 0.0000 0.0000 0.0000 0.0000 0.0000 14.7366
#
#
#
# Elastic Compliance Matrix: (Units=1/GPa)
#
#
# Indices 1 2 3 4 5 6 
#
# 1 0.008297 -0.000326 -0.002210 0.000000 0.000000 0.000000
# 2 -0.000326 0.017310 -0.000681 0.000000 0.000000 0.000000
# 3 -0.002210 -0.000681 0.008139 0.000000 0.000000 0.000000
# 4 0.000000 0.000000 0.000000 0.091303 0.000000 0.000000
# 5 0.000000 0.000000 0.000000 0.000000 0.030026 0.000000
# 6 0.000000 0.000000 0.000000 0.000000 0.000000 0.067858
#
#
# Mechanical properties :
#
#
# Convention : Reuss Voigt Hill
#
# Bulk Modulus (GPa) = 36.61085 45.79016 41.20050
# Shear Modulus (GPa) = 20.96687 30.18967 25.57827
#
# Velocity S-wave (km/s) = 2.94547 3.53441 3.25329
# Velocity P-wave (km/s) = 5.16882 5.96685 5.58212
#
# Compressibility (1/GPa) = 0.02731431
#
# Stress axis : x y z
#
# Youngs Moduli (GPa) = 120.52233 57.76848 122.86225
#
# Poissons Ratio (x) = 0.01882 0.27147
# Poissons Ratio (y) = 0.03926 0.08367
# Poissons Ratio (z) = 0.26630 0.03934
#
# Static dielectric constant tensor:
#      x y z
#    x 1.928890 0.000000 0.000000 
#    y 0.000000 2.098760 0.000000 
#    z 0.000000 0.000000 1.989200 
# 
# From -- ./inp_files/4559.got.cif
#   From: 2010.05.17/outbox.cif.g08.bks.cpg/sg29_3_cif.got.tgz:4559.got - 2010.06.04 01:19:37.
