data_PCOD9340304
_publ_section_title
;
Structure prediction by ZEFSAII (Michael W. Deem and Ramdas Pophale) SiO2 
 PCOD9340304
Probable space group: P C A 21
;
_chemical_formula_sum "Si O2"
_cell_formula_units_Z 32
_cell_length_a 15.811999
_cell_length_b 8.976344
_cell_length_c 11.044762
_cell_angle_alpha 90.000000
_cell_angle_beta 90.000000
_cell_angle_gamma 90.000000
_cell_volume 1567.626613
_symmetry_space_group_name_H-M "P C A 21"
_symmetry_group_IT_number 29
_symmetry_cell_setting 'orthorhombic'
loop_
_space_group_symop_operation_xyz
x,y,z
-x,-y,1/2+z
1/2-x,y,1/2+z
1/2+x,-y,z
loop_
_atom_site_type_symbol
_atom_site_label
_atom_site_fract_x
_atom_site_fract_y
_atom_site_fract_z
Si Si1 0.124032 0.270060 0.076580
Si Si2 0.015955 0.244643 0.679793
Si Si3 0.997113 0.500608 0.997347
Si Si4 0.789003 0.847380 0.168559
Si Si5 0.800436 0.969082 0.906277
Si Si6 0.540304 0.004411 0.989043
Si Si7 0.035756 0.221694 0.327908
Si Si8 0.589694 0.226163 0.423894
O O1 0.218512 0.278181 0.130207
O O2 0.060912 0.249595 0.190709
O O3 0.083712 0.403901 0.999396
O O4 0.114170 0.114903 0.003503
O O5 0.005860 0.405435 0.619673
O O6 0.115220 0.207818 0.682615
O O7 0.967053 0.126068 0.594259
O O8 0.970394 0.240972 0.807361
O O9 0.988328 0.624822 0.893225
O O10 0.919063 0.385077 0.986478
O O11 0.759337 0.920564 0.294769
O O12 0.783485 0.951906 0.049478
O O13 0.880180 0.855041 0.885198
O O14 0.825339 0.142559 0.887337
O O15 0.534034 0.096977 0.863796
O O16 0.458243 0.898972 0.002000
#
# Coordination Sequence:
#
# PCOD9340304 Si02
#       8
#     4   4   4   4   4   4   4   4
#     4  10  21  34  57  89 120 155 204 267 315 373
#     4  11  20  37  65  88 118 169 214 259 317 392
#     4  10  20  35  61  83 118 161 219 248 314 373
#     4  11  22  38  64  94 128 162 213 267 341 381
#     4  10  21  41  63  90 129 165 209 276 326 383
#     4   9  17  33  58  83 114 149 207 256 307 365
#     4   9  17  36  56  81 118 156 200 254 307 364
#     4  10  20  36  60  88 119 163 210 267 309 377
#
# _framework density 20.413022999999999
#
# number of rings (size 3 to 8) (size 9 to 14) (size 15 to 20)
#    0.000    2.000    3.750    3.000    3.500    0.000 
#    0.000    0.000   13.750    0.000    0.000    0.000 
#    0.000    0.000    0.000    0.000    0.000    0.000 
#
# Total GULP energy -178224.515648 kJ/mol
# GULP energy per Si atom -5569.516114 kJ/mol
# Density = 2.036656 g / cm^3
# Si number density = 20.413023 Si / 1000 Ang^3
#
#
#
# Elastic Constant Matrix: (Units=GPa)
#
#
# Indices 1 2 3 4 5 6 
#
# 1 62.3903 22.0915 23.2065 0.0000 0.0000 0.0000
# 2 22.0915 125.4123 27.5838 0.0000 0.0000 0.0000
# 3 23.2065 27.5838 101.0984 0.0000 0.0000 0.0000
# 4 0.0000 0.0000 0.0000 26.0218 0.0000 0.0000
# 5 0.0000 0.0000 0.0000 0.0000 16.3958 0.0000
# 6 0.0000 0.0000 0.0000 0.0000 0.0000 15.3076
#
#
#
# Elastic Compliance Matrix: (Units=1/GPa)
#
#
# Indices 1 2 3 4 5 6 
#
# 1 0.018196 -0.002433 -0.003513 0.000000 0.000000 0.000000
# 2 -0.002433 0.008808 -0.001845 0.000000 0.000000 0.000000
# 3 -0.003513 -0.001845 0.011201 0.000000 0.000000 0.000000
# 4 0.000000 0.000000 0.000000 0.038429 0.000000 0.000000
# 5 0.000000 0.000000 0.000000 0.000000 0.060991 0.000000
# 6 0.000000 0.000000 0.000000 0.000000 0.000000 0.065327
#
#
# Mechanical properties :
#
#
# Convention : Reuss Voigt Hill
#
# Bulk Modulus (GPa) = 44.20031 48.29608 46.24820
# Shear Modulus (GPa) = 22.11653 25.94632 24.03142
#
# Velocity S-wave (km/s) = 3.29515 3.56907 3.43484
# Velocity P-wave (km/s) = 6.01476 6.37928 6.19970
#
# Compressibility (1/GPa) = 0.02262427
#
# Stress axis : x y z
#
# Youngs Moduli (GPa) = 54.95656 113.53379 89.27695
#
# Poissons Ratio (x) = 0.27618 0.31364
# Poissons Ratio (y) = 0.13369 0.16470
# Poissons Ratio (z) = 0.19307 0.20945
#
# Static dielectric constant tensor:
#      x y z
#    x 1.815810 0.000000 0.000000 
#    y 0.000000 1.733870 0.000000 
#    z 0.000000 0.000000 1.765900 
# 
# From -- ./inp_files/3703.got.cif
#   From: 2010.05.17/outbox.cif.g08.bks.cpg/sg29_2_cif.got.tgz:3703.got - 2010.06.04 01:19:37.
