data_PCOD9340067
_publ_section_title
;
Structure prediction by ZEFSAII (Michael W. Deem and Ramdas Pophale) SiO2 
 PCOD9340067
Probable space group: P C A 21
;
_chemical_formula_sum "Si O2"
_cell_formula_units_Z 32
_cell_length_a 15.527461
_cell_length_b 12.035320
_cell_length_c 8.435002
_cell_angle_alpha 90.000000
_cell_angle_beta 90.000000
_cell_angle_gamma 90.000000
_cell_volume 1576.315983
_symmetry_space_group_name_H-M "P C A 21"
_symmetry_group_IT_number 29
_symmetry_cell_setting 'orthorhombic'
loop_
_space_group_symop_operation_xyz
x,y,z
-x,-y,1/2+z
1/2-x,y,1/2+z
1/2+x,-y,z
loop_
_atom_site_type_symbol
_atom_site_label
_atom_site_fract_x
_atom_site_fract_y
_atom_site_fract_z
Si Si1 0.991372 0.115055 0.456660
Si Si2 0.079309 0.091231 0.118847
Si Si3 0.292407 0.447944 0.863610
Si Si4 0.770822 0.010760 0.821732
Si Si5 0.703397 0.389383 0.613833
Si Si6 0.186706 0.298054 0.090262
Si Si7 0.660486 0.873644 0.621262
Si Si8 0.819556 0.237329 0.388276
O O1 0.903539 0.183278 0.464555
O O2 0.026106 0.119307 0.277575
O O3 0.063500 0.157569 0.580164
O O4 0.974812 0.987163 0.504945
O O5 0.160843 0.018674 0.183803
O O6 0.116801 0.205264 0.048333
O O7 0.253965 0.532114 0.735603
O O8 0.339660 0.356763 0.755546
O O9 0.341437 0.523841 0.992764
O O10 0.214641 0.385288 0.956241
O O11 0.683189 0.945813 0.775233
O O12 0.746417 0.138181 0.842691
O O13 0.811342 0.954092 0.975984
O O14 0.770093 0.318249 0.508693
O O15 0.654685 0.303744 0.728124
O O16 0.275521 0.230766 0.123304
#
# Coordination Sequence:
#
# PCOD9340067 Si02
#       8
#     4   4   4   4   4   4   4   4
#     4  11  22  34  51  82 123 150 172 213 269 330
#     4  10  22  35  52  83 115 146 180 216 261 325
#     4   9  18  34  59  82  98 127 190 246 263 296
#     4  10  19  33  53  78 108 148 188 218 254 319
#     4   9  20  34  55  80 101 135 186 234 272 314
#     4  10  18  35  60  80 104 141 183 221 267 315
#     4  10  20  33  53  83 112 142 180 217 262 326
#     4  11  19  34  55  78 111 147 179 219 276 327
#
# _framework density 20.300498999999999
#
# number of rings (size 3 to 8) (size 9 to 14) (size 15 to 20)
#    0.000    2.000    0.000    6.000    0.000    2.000 
#    0.000    0.000    0.000   24.000    0.000    0.000 
#    0.000    0.000    0.000    0.000    0.000    0.000 
#
# Total GULP energy -178525.070355 kJ/mol
# GULP energy per Si atom -5578.908449 kJ/mol
# Density = 2.025429 g / cm^3
# Si number density = 20.300499 Si / 1000 Ang^3
#
#
#
# Elastic Constant Matrix: (Units=GPa)
#
#
# Indices 1 2 3 4 5 6 
#
# 1 43.2271 16.3989 1.6334 0.0000 0.0000 0.0000
# 2 16.3989 105.5219 35.1118 0.0000 0.0000 0.0000
# 3 1.6334 35.1118 63.4190 0.0000 0.0000 0.0000
# 4 0.0000 0.0000 0.0000 52.2115 0.0000 0.0000
# 5 0.0000 0.0000 0.0000 0.0000 54.6504 0.0000
# 6 0.0000 0.0000 0.0000 0.0000 0.0000 4.3317
#
#
#
# Elastic Compliance Matrix: (Units=1/GPa)
#
#
# Indices 1 2 3 4 5 6 
#
# 1 0.024755 -0.004456 0.001829 0.000000 0.000000 0.000000
# 2 -0.004456 0.012419 -0.006761 0.000000 0.000000 0.000000
# 3 0.001829 -0.006761 0.019464 0.000000 0.000000 0.000000
# 4 0.000000 0.000000 0.000000 0.019153 0.000000 0.000000
# 5 0.000000 0.000000 0.000000 0.000000 0.018298 0.000000
# 6 0.000000 0.000000 0.000000 0.000000 0.000000 0.230854
#
#
# Mechanical properties :
#
#
# Convention : Reuss Voigt Hill
#
# Bulk Modulus (GPa) = 26.41084 35.38401 30.89743
# Shear Modulus (GPa) = 14.03161 32.84031 23.43596
#
# Velocity S-wave (km/s) = 2.63191 4.02644 3.40141
# Velocity P-wave (km/s) = 4.71955 6.25174 5.53888
#
# Compressibility (1/GPa) = 0.03786324
#
# Stress axis : x y z
#
# Youngs Moduli (GPa) = 40.39607 80.52295 51.37643
#
# Poissons Ratio (x) = 0.35879 -0.09399
# Poissons Ratio (y) = 0.18000 0.34735
# Poissons Ratio (z) = -0.07390 0.54441
#
# Static dielectric constant tensor:
#      x y z
#    x 1.547860 0.000000 0.000000 
#    y 0.000000 1.755510 0.000000 
#    z 0.000000 0.000000 1.789930 
# 
# From -- ./inp_files/1837.got.cif
#   From: 2010.05.17/outbox.cif.g08.bks.cpg/sg29_1_cif.got.tgz:1837.got - 2010.06.04 01:19:37.
