data_PCOD9340324
_publ_section_title
;
Structure prediction by ZEFSAII (Michael W. Deem and Ramdas Pophale) SiO2 
 PCOD9340324
Probable space group: P C A 21
;
_chemical_formula_sum "Si O2"
_cell_formula_units_Z 24
_cell_length_a 9.622318
_cell_length_b 13.922764
_cell_length_c 8.791389
_cell_angle_alpha 90.000000
_cell_angle_beta 90.000000
_cell_angle_gamma 90.000000
_cell_volume 1177.775902
_symmetry_space_group_name_H-M "P C A 21"
_symmetry_group_IT_number 29
_symmetry_cell_setting 'orthorhombic'
loop_
_space_group_symop_operation_xyz
x,y,z
-x,-y,1/2+z
1/2-x,y,1/2+z
1/2+x,-y,z
loop_
_atom_site_type_symbol
_atom_site_label
_atom_site_fract_x
_atom_site_fract_y
_atom_site_fract_z
Si Si1 0.228084 0.230605 0.291520
Si Si2 0.109067 0.475218 0.483082
Si Si3 0.547396 0.724171 0.579694
Si Si4 0.412096 0.916379 0.533461
Si Si5 0.894009 0.588000 0.641740
Si Si6 0.329144 0.014428 0.841197
O O1 0.382915 0.263263 0.245239
O O2 0.172595 0.249279 0.461234
O O3 0.130191 0.301279 0.191615
O O4 0.219535 0.116616 0.270490
O O5 0.015702 0.385691 0.544885
O O6 0.106577 0.468693 0.302026
O O7 0.262694 0.450897 0.545044
O O8 0.035627 0.568091 0.552145
O O9 0.430064 0.801495 0.543320
O O10 0.553223 0.959092 0.463263
O O11 0.389790 0.954321 0.702543
O O12 0.290902 0.955675 0.425441
#
# Coordination Sequence:
#
# PCOD9340324 Si02
#       6
#     4   4   4   4   4   4
#     4   9  18  34  57  80 108 148 191 228 282 349
#     4  10  20  37  58  84 114 148 192 240 291 345
#     4   9  19  35  56  82 112 147 189 236 286 350
#     4  11  22  37  58  84 116 150 190 234 289 346
#     4  10  20  36  59  83 113 150 193 242 291 347
#     4  11  21  37  58  83 113 149 191 240 285 347
#
# _framework density 20.377392
#
# number of rings (size 3 to 8) (size 9 to 14) (size 15 to 20)
#    0.000    2.000    0.000    5.000    0.000    1.333 
#    0.000    8.333    0.000    0.000    0.000    0.000 
#    0.000    0.000    0.000    0.000    0.000    0.000 
#
# Total GULP energy -133904.388384 kJ/mol
# GULP energy per Si atom -5579.349516 kJ/mol
# Density = 2.033101 g / cm^3
# Si number density = 20.377392 Si / 1000 Ang^3
#
#
#
# Elastic Constant Matrix: (Units=GPa)
#
#
# Indices 1 2 3 4 5 6 
#
# 1 45.3235 16.7287 -3.1729 0.0000 0.0000 0.0000
# 2 16.7287 59.1081 14.1529 0.0000 0.0000 0.0000
# 3 -3.1729 14.1529 39.7693 0.0000 0.0000 0.0000
# 4 0.0000 0.0000 0.0000 21.2807 0.0000 0.0000
# 5 0.0000 0.0000 0.0000 0.0000 35.8632 0.0000
# 6 0.0000 0.0000 0.0000 0.0000 0.0000 29.0185
#
#
#
# Elastic Compliance Matrix: (Units=1/GPa)
#
#
# Indices 1 2 3 4 5 6 
#
# 1 0.025528 -0.008431 0.005037 0.000000 0.000000 0.000000
# 2 -0.008431 0.021279 -0.008245 0.000000 0.000000 0.000000
# 3 0.005037 -0.008245 0.028481 0.000000 0.000000 0.000000
# 4 0.000000 0.000000 0.000000 0.046991 0.000000 0.000000
# 5 0.000000 0.000000 0.000000 0.000000 0.027884 0.000000
# 6 0.000000 0.000000 0.000000 0.000000 0.000000 0.034461
#
#
# Mechanical properties :
#
#
# Convention : Reuss Voigt Hill
#
# Bulk Modulus (GPa) = 19.22724 22.17981 20.70352
# Shear Modulus (GPa) = 22.19877 24.99863 23.59870
#
# Velocity S-wave (km/s) = 3.30416 3.50635 3.40675
# Velocity P-wave (km/s) = 4.90027 5.22501 5.06525
#
# Compressibility (1/GPa) = 0.05200955
#
# Stress axis : x y z
#
# Youngs Moduli (GPa) = 39.17259 46.99578 35.11101
#
# Poissons Ratio (x) = 0.39622 -0.17686
# Poissons Ratio (y) = 0.33026 0.28949
# Poissons Ratio (z) = -0.19731 0.38749
#
# Static dielectric constant tensor:
#      x y z
#    x 1.718010 0.000000 0.000000 
#    y 0.000000 1.757980 0.000000 
#    z 0.000000 0.000000 1.736610 
# 
# From -- ./inp_files/1145.got.cif
#   From: 2010.05.17/outbox.cif.g08.bks.cpg/sg29_1_cif.got.tgz:1145.got - 2010.06.04 01:19:37.
