data_PCOD9340997
_publ_section_title
;
Structure prediction by ZEFSAII (Michael W. Deem and Ramdas Pophale) SiO2 
 PCOD9340997
Probable space group: P C A 21
;
_chemical_formula_sum "Si O2"
_cell_formula_units_Z 32
_cell_length_a 9.201086
_cell_length_b 9.061486
_cell_length_c 13.751413
_cell_angle_alpha 90.000000
_cell_angle_beta 90.000000
_cell_angle_gamma 90.000000
_cell_volume 1146.531099
_symmetry_space_group_name_H-M "P C A 21"
_symmetry_group_IT_number 29
_symmetry_cell_setting 'orthorhombic'
loop_
_space_group_symop_operation_xyz
x,y,z
-x,-y,1/2+z
1/2-x,y,1/2+z
1/2+x,-y,z
loop_
_atom_site_type_symbol
_atom_site_label
_atom_site_fract_x
_atom_site_fract_y
_atom_site_fract_z
Si Si1 0.522304 0.082854 0.141450
Si Si2 0.626356 0.395967 0.795628
Si Si3 0.580225 0.101529 0.454298
Si Si4 0.861522 0.676759 0.694896
Si Si5 0.789724 0.065924 0.280521
Si Si6 0.801333 0.708865 0.377930
Si Si7 0.131256 0.668704 0.592211
Si Si8 0.110685 0.352983 0.548214
O O1 0.422751 0.021595 0.230382
O O2 0.504153 0.756359 0.141853
O O3 0.491209 0.253481 0.113879
O O4 0.483221 0.007460 0.036998
O O5 0.461238 0.430110 0.760863
O O6 0.647377 0.224689 0.821167
O O7 0.667289 0.531942 0.863445
O O8 0.708509 0.391075 0.689918
O O9 0.682134 0.028663 0.371711
O O10 0.442515 0.197412 0.411428
O O11 0.682675 0.221505 0.510503
O O12 0.758687 0.754409 0.772109
O O13 0.762831 0.641469 0.604744
O O14 0.817496 0.075996 0.686820
O O15 0.662229 0.715758 0.448015
O O16 0.065412 0.522612 0.541926
#
# Coordination Sequence:
#
# PCOD9340997 Si02
#       8
#     4   4   4   4   4   4   4   4
#     4  12  30  55  81 118 174 219 282 347 424 504
#     4  10  24  44  77 114 159 200 266 352 405 489
#     4  12  27  55  78 120 163 218 281 340 420 511
#     4  10  22  43  72 111 157 191 266 328 419 467
#     4  12  29  53  85 114 163 226 277 344 421 508
#     4  12  24  43  82 113 158 208 277 338 421 494
#     4  10  23  45  75 114 160 200 263 352 402 491
#     4  12  25  44  80 110 154 214 268 343 418 492
#
# _framework density 27.910274000000001
#
# number of rings (size 3 to 8) (size 9 to 14) (size 15 to 20)
#    0.750    0.000    3.750    2.250    7.000    3.000 
#    2.250    0.000    0.000    0.000    0.000    0.000 
#    0.000    0.000    0.000    0.000    0.000    0.000 
#
# Total GULP energy -178440.558138 kJ/mol
# GULP energy per Si atom -5576.267442 kJ/mol
# Density = 2.784675 g / cm^3
# Si number density = 27.910274 Si / 1000 Ang^3
#
#
#
# Elastic Constant Matrix: (Units=GPa)
#
#
# Indices 1 2 3 4 5 6 
#
# 1 94.3980 19.7210 24.1917 0.0000 0.0000 0.0000
# 2 19.7210 113.1138 45.3507 0.0000 0.0000 0.0000
# 3 24.1917 45.3507 135.8276 0.0000 0.0000 0.0000
# 4 0.0000 0.0000 0.0000 54.1201 0.0000 0.0000
# 5 0.0000 0.0000 0.0000 0.0000 61.3369 0.0000
# 6 0.0000 0.0000 0.0000 0.0000 0.0000 30.3638
#
#
#
# Elastic Compliance Matrix: (Units=1/GPa)
#
#
# Indices 1 2 3 4 5 6 
#
# 1 0.011273 -0.001340 -0.001560 0.000000 0.000000 0.000000
# 2 -0.001340 0.010366 -0.003222 0.000000 0.000000 0.000000
# 3 -0.001560 -0.003222 0.008716 0.000000 0.000000 0.000000
# 4 0.000000 0.000000 0.000000 0.018477 0.000000 0.000000
# 5 0.000000 0.000000 0.000000 0.000000 0.016303 0.000000
# 6 0.000000 0.000000 0.000000 0.000000 0.000000 0.032934
#
#
# Mechanical properties :
#
#
# Convention : Reuss Voigt Hill
#
# Bulk Modulus (GPa) = 55.21793 57.98512 56.60153
# Shear Modulus (GPa) = 42.97279 46.10257 44.53768
#
# Velocity S-wave (km/s) = 3.92813 4.06866 3.99901
# Velocity P-wave (km/s) = 6.35615 6.54925 6.45342
#
# Compressibility (1/GPa) = 0.01811006
#
# Stress axis : x y z
#
# Youngs Moduli (GPa) = 88.70553 96.46699 114.72964
#
# Poissons Ratio (x) = 0.12925 0.17903
# Poissons Ratio (y) = 0.11885 0.36972
# Poissons Ratio (z) = 0.13842 0.31086
#
# Static dielectric constant tensor:
#      x y z
#    x 2.132910 0.000000 0.000000 
#    y 0.000000 2.441530 0.000000 
#    z 0.000000 0.000000 2.186650 
# 
# From -- ./inp_files/4590.got.cif
#   From: 2010.05.17/outbox.cif.g08.bks.cpg/sg29_3_cif.got.tgz:4590.got - 2010.06.04 01:19:37.
