data_PCOD9340813
_publ_section_title
;
Structure prediction by ZEFSAII (Michael W. Deem and Ramdas Pophale) SiO2 
 PCOD9340813
Probable space group: P C A 21
;
_chemical_formula_sum "Si O2"
_cell_formula_units_Z 28
_cell_length_a 4.681649
_cell_length_b 25.256757
_cell_length_c 8.162316
_cell_angle_alpha 90.000000
_cell_angle_beta 90.000000
_cell_angle_gamma 90.000000
_cell_volume 965.138944
_symmetry_space_group_name_H-M "P C A 21"
_symmetry_group_IT_number 29
_symmetry_cell_setting 'orthorhombic'
loop_
_space_group_symop_operation_xyz
x,y,z
-x,-y,1/2+z
1/2-x,y,1/2+z
1/2+x,-y,z
loop_
_atom_site_type_symbol
_atom_site_label
_atom_site_fract_x
_atom_site_fract_y
_atom_site_fract_z
Si Si1 0.635983 0.104438 0.109960
Si Si2 0.924414 0.752450 0.122829
Si Si3 0.073459 0.537076 0.954365
Si Si4 0.492861 0.821854 0.339800
Si Si5 0.945153 0.677793 0.389584
Si Si6 0.924066 0.962076 0.406647
Si Si7 0.386525 0.398649 0.652839
O O1 0.474857 0.066060 0.233363
O O2 0.762298 0.152138 0.221467
O O3 0.442796 0.129160 0.963955
O O4 0.910925 0.074560 0.036593
O O5 0.734421 0.793675 0.230580
O O6 0.090359 0.713969 0.248748
O O7 0.103570 0.779687 0.977573
O O8 0.707936 0.717392 0.014697
O O9 0.898657 0.481558 0.967471
O O10 0.037485 0.560497 0.773481
O O11 0.900376 0.574949 0.078073
O O12 0.715007 0.646343 0.280598
O O13 0.063740 0.631449 0.508318
O O14 0.102956 0.017232 0.415146
#
# Coordination Sequence:
#
# PCOD9340813 Si02
#       7
#     4   4   4   4   4   4   4
#     4  10  24  40  61  96 142 180 229 284 352 412
#     4   9  18  36  67  92 122 172 227 276 346 411
#     4  11  22  37  60  90 128 172 219 278 342 407
#     4  10  22  38  60  95 127 169 219 284 341 412
#     4   8  16  33  61  91 119 169 219 280 336 403
#     4  11  24  44  69 100 140 186 233 286 343 414
#     4   9  18  34  58  84 124 168 222 276 338 405
#
# _framework density 29.011365000000001
#
# number of rings (size 3 to 8) (size 9 to 14) (size 15 to 20)
#    0.000    2.286    0.000    1.714    0.000    9.143 
#    0.000    0.000    0.000   96.000    0.000    0.000 
#    0.000    0.000    0.000    0.000    0.000    0.000 
#
# Total GULP energy -156863.121178 kJ/mol
# GULP energy per Si atom -5602.254328 kJ/mol
# Density = 2.894533 g / cm^3
# Si number density = 29.011365 Si / 1000 Ang^3
#
#
#
# Elastic Constant Matrix: (Units=GPa)
#
#
# Indices 1 2 3 4 5 6 
#
# 1 99.0908 29.9253 43.6968 0.0000 0.0000 0.0000
# 2 29.9253 131.4602 73.3326 0.0000 0.0000 0.0000
# 3 43.6968 73.3326 201.7852 0.0000 0.0000 0.0000
# 4 0.0000 0.0000 0.0000 92.1973 0.0000 0.0000
# 5 0.0000 0.0000 0.0000 0.0000 41.4292 0.0000
# 6 0.0000 0.0000 0.0000 0.0000 0.0000 27.8282
#
#
#
# Elastic Compliance Matrix: (Units=1/GPa)
#
#
# Indices 1 2 3 4 5 6 
#
# 1 0.011397 -0.001527 -0.001913 0.000000 0.000000 0.000000
# 2 -0.001527 0.009746 -0.003211 0.000000 0.000000 0.000000
# 3 -0.001913 -0.003211 0.006537 0.000000 0.000000 0.000000
# 4 0.000000 0.000000 0.000000 0.010846 0.000000 0.000000
# 5 0.000000 0.000000 0.000000 0.000000 0.024138 0.000000
# 6 0.000000 0.000000 0.000000 0.000000 0.000000 0.035935
#
#
# Mechanical properties :
#
#
# Convention : Reuss Voigt Hill
#
# Bulk Modulus (GPa) = 69.55615 80.69394 75.12505
# Shear Modulus (GPa) = 42.84763 51.31637 47.08200
#
# Velocity S-wave (km/s) = 3.84725 4.21032 4.03287
# Velocity P-wave (km/s) = 6.61533 7.17709 6.90193
#
# Compressibility (1/GPa) = 0.01437687
#
# Stress axis : x y z
#
# Youngs Moduli (GPa) = 87.74613 102.60884 152.97597
#
# Poissons Ratio (x) = 0.15670 0.29263
# Poissons Ratio (y) = 0.13400 0.49122
# Poissons Ratio (z) = 0.16785 0.32948
#
# Static dielectric constant tensor:
#      x y z
#    x 2.152810 0.000000 0.000000 
#    y 0.000000 2.411620 0.000000 
#    z 0.000000 0.000000 2.194030 
# 
# From -- ./inp_files/1010.got.cif
#   From: 2010.05.17/outbox.cif.g08.bks.cpg/sg29_1_cif.got.tgz:1010.got - 2010.06.04 01:19:37.
