data_PCOD9340388
_publ_section_title
;
Structure prediction by ZEFSAII (Michael W. Deem and Ramdas Pophale) SiO2 
 PCOD9340388
Probable space group: P C A 21
;
_chemical_formula_sum "Si O2"
_cell_formula_units_Z 28
_cell_length_a 16.172640
_cell_length_b 5.986764
_cell_length_c 13.675499
_cell_angle_alpha 90.000000
_cell_angle_beta 90.000000
_cell_angle_gamma 90.000000
_cell_volume 1324.086141
_symmetry_space_group_name_H-M "P C A 21"
_symmetry_group_IT_number 29
_symmetry_cell_setting 'orthorhombic'
loop_
_space_group_symop_operation_xyz
x,y,z
-x,-y,1/2+z
1/2-x,y,1/2+z
1/2+x,-y,z
loop_
_atom_site_type_symbol
_atom_site_label
_atom_site_fract_x
_atom_site_fract_y
_atom_site_fract_z
Si Si1 0.655147 0.760846 0.497680
Si Si2 0.655148 0.239155 0.027823
Si Si3 0.000001 0.084216 0.012751
Si Si4 0.581832 0.621439 0.164689
Si Si5 0.418169 0.621439 0.860815
Si Si6 0.744558 0.099376 0.359093
Si Si7 0.744559 0.900624 0.166411
O O1 0.617899 0.550647 0.441282
O O2 0.702201 0.732036 0.600213
O O3 0.580418 0.930577 0.519139
O O4 0.718658 0.889112 0.426233
O O5 0.702204 0.267968 0.925291
O O6 0.580420 0.069424 0.006362
O O7 0.617899 0.449353 0.084222
O O8 0.718658 0.110888 0.099271
O O9 0.986712 0.235461 0.917031
O O10 0.013290 0.235458 0.108472
O O11 0.552425 0.500000 0.262751
O O12 0.659061 0.778261 0.194527
O O13 0.340941 0.778263 0.830977
O O14 0.786128 0.000001 0.262752
#
# Coordination Sequence:
#
# PCOD9340388 Si02
#       7
#     4   4   4   4   4   4   4
#     4  10  21  40  61  87 126 157 213 258 314 379
#     4  10  21  40  61  87 126 157 213 258 314 379
#     4  10  24  40  58  90 126 170 204 262 318 380
#     4  11  21  40  67  89 124 170 212 257 324 379
#     4  11  21  40  67  89 124 170 212 257 324 379
#     4  10  20  38  63  92 118 161 206 265 313 371
#     4  10  20  38  63  92 118 161 206 265 313 371
#
# _framework density 21.146661999999999
#
# number of rings (size 3 to 8) (size 9 to 14) (size 15 to 20)
#    0.000    1.714    2.857    1.714    0.000    0.000 
#   10.286    0.000    0.000    0.000    0.000    0.000 
#    0.000    0.000    0.000    0.000    0.000    0.000 
#
# Total GULP energy -156421.081134 kJ/mol
# GULP energy per Si atom -5586.467183 kJ/mol
# Density = 2.109853 g / cm^3
# Si number density = 21.146662 Si / 1000 Ang^3
#
#
#
# Elastic Constant Matrix: (Units=GPa)
#
#
# Indices 1 2 3 4 5 6 
#
# 1 33.3665 1.7870 34.2109 0.0000 0.0000 0.0000
# 2 1.7870 62.7756 24.8565 0.0000 0.0000 0.0000
# 3 34.2109 24.8565 117.2360 0.0000 0.0000 0.0000
# 4 0.0000 0.0000 0.0000 34.5801 0.0000 0.0000
# 5 0.0000 0.0000 0.0000 0.0000 27.9523 0.0000
# 6 0.0000 0.0000 0.0000 0.0000 0.0000 8.9529
#
#
#
# Elastic Compliance Matrix: (Units=1/GPa)
#
#
# Indices 1 2 3 4 5 6 
#
# 1 0.043737 0.004158 -0.013645 0.000000 0.000000 0.000000
# 2 0.004158 0.017785 -0.004984 0.000000 0.000000 0.000000
# 3 -0.013645 -0.004984 0.013568 0.000000 0.000000 0.000000
# 4 0.000000 0.000000 0.000000 0.028918 0.000000 0.000000
# 5 0.000000 0.000000 0.000000 0.000000 0.035775 0.000000
# 6 0.000000 0.000000 0.000000 0.000000 0.000000 0.111695
#
#
# Mechanical properties :
#
#
# Convention : Reuss Voigt Hill
#
# Bulk Modulus (GPa) = 21.66918 37.23190 29.45054
# Shear Modulus (GPa) = 16.90307 24.46530 20.68418
#
# Velocity S-wave (km/s) = 2.83030 3.40506 3.13090
# Velocity P-wave (km/s) = 4.57713 5.75361 5.19876
#
# Compressibility (1/GPa) = 0.04614849
#
# Stress axis : x y z
#
# Youngs Moduli (GPa) = 22.86368 56.22756 73.70172
#
# Poissons Ratio (x) = -0.23377 1.00563
# Poissons Ratio (y) = -0.09506 0.36733
# Poissons Ratio (z) = 0.31197 0.28024
#
# Static dielectric constant tensor:
#      x y z
#    x 1.745820 0.000000 0.000000 
#    y 0.000000 1.780730 0.000000 
#    z 0.000000 0.000000 1.774730 
# 
# From -- ./inp_files/3598.got.cif
#   From: 2010.05.17/outbox.cif.g08.bks.cpg/sg29_2_cif.got.tgz:3598.got - 2010.06.04 01:19:37.
