data_PCOD9340996
_publ_section_title
;
Structure prediction by ZEFSAII (Michael W. Deem and Ramdas Pophale) SiO2 
 PCOD9340996
Probable space group: P C A 21
;
_chemical_formula_sum "Si O2"
_cell_formula_units_Z 20
_cell_length_a 7.795556
_cell_length_b 10.438914
_cell_length_c 9.179545
_cell_angle_alpha 90.000000
_cell_angle_beta 90.000000
_cell_angle_gamma 90.000000
_cell_volume 747.005106
_symmetry_space_group_name_H-M "P C A 21"
_symmetry_group_IT_number 29
_symmetry_cell_setting 'orthorhombic'
loop_
_space_group_symop_operation_xyz
x,y,z
-x,-y,1/2+z
1/2-x,y,1/2+z
1/2+x,-y,z
loop_
_atom_site_type_symbol
_atom_site_label
_atom_site_fract_x
_atom_site_fract_y
_atom_site_fract_z
Si Si1 0.633458 0.633880 0.736840
Si Si2 0.096713 0.871273 0.946175
Si Si3 0.099134 0.270003 0.017993
Si Si4 0.093776 0.967262 0.636085
Si Si5 0.713778 0.373605 0.350501
O O1 0.761120 0.651226 0.605735
O O2 0.427156 0.638702 0.718512
O O3 0.686590 0.503540 0.820274
O O4 0.667652 0.745539 0.854198
O O5 0.096581 0.968399 0.809431
O O6 0.145894 0.737329 0.871664
O O7 0.243117 0.902784 0.062603
O O8 0.935396 0.901124 0.048308
O O9 0.051110 0.137907 0.094069
O O10 0.922138 0.352464 0.985146
#
# Coordination Sequence:
#
# PCOD9340996 Si02
#       5
#     4   4   4   4   4
#     4  10  22  43  72 105 150 194 239 306 372 439
#     4  11  25  50  73 113 145 199 249 315 377 448
#     4   9  24  42  68 108 140 195 242 306 363 445
#     4  11  25  49  75 103 152 192 254 310 377 451
#     4   9  24  42  74 109 151 190 252 309 367 453
#
# _framework density 26.773578000000001
#
# number of rings (size 3 to 8) (size 9 to 14) (size 15 to 20)
#    1.200    0.800    0.000    1.200    5.600    4.800 
#    7.200    0.000    0.000    0.000    0.000    0.000 
#    0.000    0.000    0.000    0.000    0.000    0.000 
#
# Total GULP energy -111795.538199 kJ/mol
# GULP energy per Si atom -5589.776910 kJ/mol
# Density = 2.671264 g / cm^3
# Si number density = 26.773578 Si / 1000 Ang^3
#
#
#
# Elastic Constant Matrix: (Units=GPa)
#
#
# Indices 1 2 3 4 5 6 
#
# 1 78.6840 32.6054 12.0751 0.0000 0.0000 0.0000
# 2 32.6054 123.1458 14.1512 0.0000 0.0000 0.0000
# 3 12.0751 14.1512 127.4044 0.0000 0.0000 0.0000
# 4 0.0000 0.0000 0.0000 30.3491 0.0000 0.0000
# 5 0.0000 0.0000 0.0000 0.0000 44.6087 0.0000
# 6 0.0000 0.0000 0.0000 0.0000 0.0000 50.0644
#
#
#
# Elastic Compliance Matrix: (Units=1/GPa)
#
#
# Indices 1 2 3 4 5 6 
#
# 1 0.014389 -0.003700 -0.000953 0.000000 0.000000 0.000000
# 2 -0.003700 0.009177 -0.000669 0.000000 0.000000 0.000000
# 3 -0.000953 -0.000669 0.008014 0.000000 0.000000 0.000000
# 4 0.000000 0.000000 0.000000 0.032950 0.000000 0.000000
# 5 0.000000 0.000000 0.000000 0.000000 0.022417 0.000000
# 6 0.000000 0.000000 0.000000 0.000000 0.000000 0.019974
#
#
# Mechanical properties :
#
#
# Convention : Reuss Voigt Hill
#
# Bulk Modulus (GPa) = 47.76445 49.65529 48.70987
# Shear Modulus (GPa) = 40.14702 43.03128 41.58915
#
# Velocity S-wave (km/s) = 3.87654 4.01338 3.94555
# Velocity P-wave (km/s) = 6.15757 6.32953 6.24414
#
# Compressibility (1/GPa) = 0.02093607
#
# Stress axis : x y z
#
# Youngs Moduli (GPa) = 69.49963 108.96819 124.78813
#
# Poissons Ratio (x) = 0.40320 0.11889
# Poissons Ratio (y) = 0.25716 0.08344
# Poissons Ratio (z) = 0.06621 0.07286
#
# Static dielectric constant tensor:
#      x y z
#    x 2.231360 0.000000 0.000000 
#    y 0.000000 2.119070 0.000000 
#    z 0.000000 0.000000 2.116690 
# 
# From -- ./inp_files/1110.got.cif
#   From: 2010.05.17/outbox.cif.g08.bks.cpg/sg29_1_cif.got.tgz:1110.got - 2010.06.04 01:19:37.
