data_PCOD9340231
_publ_section_title
;
Structure prediction by ZEFSAII (Michael W. Deem and Ramdas Pophale) SiO2 
 PCOD9340231
Probable space group: P C A 21
;
_chemical_formula_sum "Si O2"
_cell_formula_units_Z 32
_cell_length_a 10.293296
_cell_length_b 14.658570
_cell_length_c 9.014092
_cell_angle_alpha 90.000000
_cell_angle_beta 90.000000
_cell_angle_gamma 90.000000
_cell_volume 1360.091271
_symmetry_space_group_name_H-M "P C A 21"
_symmetry_group_IT_number 29
_symmetry_cell_setting 'orthorhombic'
loop_
_space_group_symop_operation_xyz
x,y,z
-x,-y,1/2+z
1/2-x,y,1/2+z
1/2+x,-y,z
loop_
_atom_site_type_symbol
_atom_site_label
_atom_site_fract_x
_atom_site_fract_y
_atom_site_fract_z
Si Si1 0.087563 0.448248 0.485800
Si Si2 0.536276 0.698605 0.280565
Si Si3 0.231852 0.739001 0.891919
Si Si4 0.384848 0.154507 0.999103
Si Si5 0.662173 0.077357 0.990765
Si Si6 0.885720 0.372588 0.670348
Si Si7 0.867892 0.568790 0.570087
Si Si8 0.235789 0.048824 0.751765
O O1 0.015537 0.402067 0.347340
O O2 0.010245 0.542399 0.506876
O O3 0.240426 0.438736 0.469023
O O4 0.036571 0.388041 0.627383
O O5 0.393439 0.742663 0.278246
O O6 0.616456 0.752623 0.405499
O O7 0.615717 0.670237 0.136068
O O8 0.260144 0.842735 0.938915
O O9 0.346673 0.686603 0.810243
O O10 0.182251 0.679824 0.031908
O O11 0.533795 0.132292 0.032280
O O12 0.335350 0.082914 0.875638
O O13 0.311976 0.133858 0.152307
O O14 0.708298 0.020717 0.131211
O O15 0.636063 0.008720 0.853396
O O16 0.837166 0.477738 0.672231
#
# Coordination Sequence:
#
# PCOD9340231 Si02
#       8
#     4   4   4   4   4   4   4   4
#     4   9  22  37  59  84 118 161 205 255 303 360
#     4  10  22  37  59  84 124 164 201 257 312 359
#     4  10  19  39  58  90 118 158 197 262 303 365
#     4  10  22  38  62  88 130 158 209 260 315 384
#     4  10  20  37  65  88 123 160 205 257 321 383
#     4   9  21  35  59  84 121 155 200 250 306 353
#     4  10  21  37  60  83 117 164 207 246 302 372
#     4  10  21  38  62  93 119 166 202 255 320 394
#
# _framework density 23.527833999999999
#
# number of rings (size 3 to 8) (size 9 to 14) (size 15 to 20)
#    0.750    1.500    0.000    2.250    3.500    1.000 
#    0.000    0.000    2.750    0.000    0.000    0.000 
#    0.000    0.000    0.000    0.000    0.000    0.000 
#
# Total GULP energy -178185.981879 kJ/mol
# GULP energy per Si atom -5568.311934 kJ/mol
# Density = 2.347428 g / cm^3
# Si number density = 23.527834 Si / 1000 Ang^3
#
#
#
# Elastic Constant Matrix: (Units=GPa)
#
#
# Indices 1 2 3 4 5 6 
#
# 1 51.2451 -6.7396 11.7185 0.0000 0.0000 0.0000
# 2 -6.7396 63.8079 9.7699 0.0000 0.0000 0.0000
# 3 11.7185 9.7699 66.0390 0.0000 0.0000 0.0000
# 4 0.0000 0.0000 0.0000 43.7565 0.0000 0.0000
# 5 0.0000 0.0000 0.0000 0.0000 16.6773 0.0000
# 6 0.0000 0.0000 0.0000 0.0000 0.0000 28.0739
#
#
#
# Elastic Compliance Matrix: (Units=1/GPa)
#
#
# Indices 1 2 3 4 5 6 
#
# 1 0.020827 0.002830 -0.004114 0.000000 0.000000 0.000000
# 2 0.002830 0.016420 -0.002931 0.000000 0.000000 0.000000
# 3 -0.004114 -0.002931 0.016306 0.000000 0.000000 0.000000
# 4 0.000000 0.000000 0.000000 0.022854 0.000000 0.000000
# 5 0.000000 0.000000 0.000000 0.000000 0.059962 0.000000
# 6 0.000000 0.000000 0.000000 0.000000 0.000000 0.035620
#
#
# Mechanical properties :
#
#
# Convention : Reuss Voigt Hill
#
# Bulk Modulus (GPa) = 22.16243 23.39884 22.78064
# Shear Modulus (GPa) = 25.58056 28.79110 27.18583
#
# Velocity S-wave (km/s) = 3.30092 3.50194 3.40292
# Velocity P-wave (km/s) = 4.89573 5.13013 5.01430
#
# Compressibility (1/GPa) = 0.04512140
#
# Stress axis : x y z
#
# Youngs Moduli (GPa) = 48.01442 60.90219 61.32593
#
# Poissons Ratio (x) = -0.17234 0.25232
# Poissons Ratio (y) = -0.13587 0.17977
# Poissons Ratio (z) = 0.19755 0.17852
#
# Static dielectric constant tensor:
#      x y z
#    x 1.929580 0.000000 0.000000 
#    y 0.000000 1.965850 0.000000 
#    z 0.000000 0.000000 1.988770 
# 
# From -- ./inp_files/1532.got.cif
#   From: 2010.05.17/outbox.cif.g08.bks.cpg/sg29_1_cif.got.tgz:1532.got - 2010.06.04 01:19:37.
