data_PCOD9340225
_publ_section_title
;
Structure prediction by ZEFSAII (Michael W. Deem and Ramdas Pophale) SiO2 
 PCOD9340225
Probable space group: P C A 21
;
_chemical_formula_sum "Si O2"
_cell_formula_units_Z 32
_cell_length_a 14.455592
_cell_length_b 12.064723
_cell_length_c 8.506564
_cell_angle_alpha 90.000000
_cell_angle_beta 90.000000
_cell_angle_gamma 90.000000
_cell_volume 1483.567842
_symmetry_space_group_name_H-M "P C A 21"
_symmetry_group_IT_number 29
_symmetry_cell_setting 'orthorhombic'
loop_
_space_group_symop_operation_xyz
x,y,z
-x,-y,1/2+z
1/2-x,y,1/2+z
1/2+x,-y,z
loop_
_atom_site_type_symbol
_atom_site_label
_atom_site_fract_x
_atom_site_fract_y
_atom_site_fract_z
Si Si1 0.509370 0.210582 0.053770
Si Si2 0.863984 0.013454 0.611823
Si Si3 0.823526 0.704687 0.933617
Si Si4 0.633771 0.754384 0.080706
Si Si5 0.796150 0.127733 0.916260
Si Si6 0.835203 0.333749 0.365412
Si Si7 0.820718 0.455835 0.038708
Si Si8 0.049443 0.710591 0.408532
O O1 0.552227 0.087899 0.046360
O O2 0.528072 0.252618 0.231100
O O3 0.402803 0.219027 0.009182
O O4 0.569782 0.287574 0.936752
O O5 0.842539 0.049337 0.788761
O O6 0.771611 0.055358 0.522241
O O7 0.884244 0.884879 0.602006
O O8 0.841877 0.700323 0.747853
O O9 0.721114 0.747397 0.965822
O O10 0.828156 0.586083 0.018973
O O11 0.544211 0.700451 0.004140
O O12 0.731566 0.225734 0.841079
O O13 0.881538 0.197892 0.987273
O O14 0.844683 0.406218 0.208973
O O15 0.780186 0.409527 0.491057
O O16 0.892194 0.401374 0.915996
#
# Coordination Sequence:
#
# PCOD9340225 Si02
#       8
#     4   4   4   4   4   4   4   4
#     4  10  23  41  63  95 125 160 214 262 310 382
#     4  10  21  38  64  90 125 166 202 263 321 364
#     4  12  27  43  60  90 125 165 214 262 315 383
#     4  12  26  43  61  89 126 167 214 261 317 382
#     4   9  18  37  64  95 122 156 210 258 311 379
#     4  10  19  38  66  96 124 159 211 258 311 380
#     4  11  22  39  65  91 125 167 200 259 319 363
#     4  10  22  41  63  92 124 162 211 259 310 379
#
# _framework density 21.569623
#
# number of rings (size 3 to 8) (size 9 to 14) (size 15 to 20)
#    0.000    1.500    0.000    6.750    0.000    7.000 
#    0.000    0.000    0.000    0.000    0.000    0.000 
#    0.000    0.000    0.000    0.000    0.000    0.000 
#
# Total GULP energy -178977.165782 kJ/mol
# GULP energy per Si atom -5593.036431 kJ/mol
# Density = 2.152053 g / cm^3
# Si number density = 21.569623 Si / 1000 Ang^3
#
#
#
# Elastic Constant Matrix: (Units=GPa)
#
#
# Indices 1 2 3 4 5 6 
#
# 1 77.5003 -3.3244 -13.5411 0.0000 0.0000 0.0000
# 2 -3.3244 64.8362 2.0755 0.0000 0.0000 0.0000
# 3 -13.5411 2.0755 61.2057 0.0000 0.0000 0.0000
# 4 0.0000 0.0000 0.0000 6.0031 0.0000 0.0000
# 5 0.0000 0.0000 0.0000 0.0000 28.2436 0.0000
# 6 0.0000 0.0000 0.0000 0.0000 0.0000 -13.9744
#
#
#
# Elastic Compliance Matrix: (Units=1/GPa)
#
#
# Indices 1 2 3 4 5 6 
#
# 1 0.013445 0.000595 0.002954 0.000000 0.000000 0.000000
# 2 0.000595 0.015467 -0.000393 0.000000 0.000000 0.000000
# 3 0.002954 -0.000393 0.017005 0.000000 0.000000 0.000000
# 4 0.000000 0.000000 0.000000 0.166581 0.000000 0.000000
# 5 0.000000 0.000000 0.000000 0.000000 0.035406 0.000000
# 6 0.000000 0.000000 0.000000 0.000000 0.000000 -0.071559
#
#
# Mechanical properties :
#
#
# Convention : Reuss Voigt Hill
#
# Bulk Modulus (GPa) = 19.14635 19.32914 19.23774
# Shear Modulus (GPa) = 26.67496 18.60993 22.64244
#
# Velocity S-wave (km/s) = 3.52048 2.94051 3.24348
# Velocity P-wave (km/s) = 5.04191 4.52874 4.79220
#
# Compressibility (1/GPa) = 0.05222929
#
# Stress axis : x y z
#
# Youngs Moduli (GPa) = 74.37771 64.65565 58.80523
#
# Poissons Ratio (x) = -0.03846 -0.17373
# Poissons Ratio (y) = -0.04424 0.02310
# Poissons Ratio (z) = -0.21974 0.02540
#
# Static dielectric constant tensor:
#      x y z
#    x 1.757790 0.000000 0.000000 
#    y 0.000000 1.774090 0.000000 
#    z 0.000000 0.000000 1.787180 
# 
# From -- ./inp_files/1822.got.cif
#   From: 2010.05.17/outbox.cif.g08.bks.cpg/sg29_1_cif.got.tgz:1822.got - 2010.06.04 01:19:37.
