data_PCOD9340297
_publ_section_title
;
Structure prediction by ZEFSAII (Michael W. Deem and Ramdas Pophale) SiO2 
 PCOD9340297
Probable space group: P C A 21
;
_chemical_formula_sum "Si O2"
_cell_formula_units_Z 24
_cell_length_a 15.973037
_cell_length_b 14.917587
_cell_length_c 4.978208
_cell_angle_alpha 90.000000
_cell_angle_beta 90.000000
_cell_angle_gamma 90.000000
_cell_volume 1186.203266
_symmetry_space_group_name_H-M "P C A 21"
_symmetry_group_IT_number 29
_symmetry_cell_setting 'orthorhombic'
loop_
_space_group_symop_operation_xyz
x,y,z
-x,-y,1/2+z
1/2-x,y,1/2+z
1/2+x,-y,z
loop_
_atom_site_type_symbol
_atom_site_label
_atom_site_fract_x
_atom_site_fract_y
_atom_site_fract_z
Si Si1 0.303577 0.126172 0.442260
Si Si2 0.309311 0.671935 0.463881
Si Si3 0.031487 0.048416 0.711248
Si Si4 0.413669 0.299779 0.452084
Si Si5 0.307824 0.471106 0.587986
Si Si6 0.985515 0.241762 0.471693
O O1 0.275978 0.114174 0.748547
O O2 0.376830 0.061546 0.339212
O O3 0.339885 0.226712 0.411367
O O4 0.264662 0.682991 0.178922
O O5 0.341150 0.570364 0.519764
O O6 0.387754 0.737083 0.482815
O O7 0.004266 0.142134 0.577826
O O8 0.025525 0.978715 0.465866
O O9 0.373614 0.393380 0.534048
O O10 0.465422 0.305677 0.178832
O O11 0.474507 0.259460 0.680768
O O12 0.228296 0.462503 0.387454
#
# Coordination Sequence:
#
# PCOD9340297 Si02
#       6
#     4   4   4   4   4   4
#     4  11  21  37  60  88 117 147 186 233 288 348
#     4  10  22  40  59  82 117 157 199 242 280 335
#     4  11  23  42  62  84 118 153 189 243 300 353
#     4  11  21  35  59  89 120 152 189 237 290 354
#     4  10  20  35  56  85 121 159 193 232 285 337
#     4  11  23  39  60  86 113 154 198 239 301 351
#
# _framework density 20.232621000000002
#
# number of rings (size 3 to 8) (size 9 to 14) (size 15 to 20)
#    0.000    1.333    0.000    8.000    0.000    1.333 
#    0.000    5.000    0.000    0.000    0.000    0.000 
#    0.000    0.000    0.000    0.000    0.000    0.000 
#
# Total GULP energy -134160.863669 kJ/mol
# GULP energy per Si atom -5590.035986 kJ/mol
# Density = 2.018657 g / cm^3
# Si number density = 20.232621 Si / 1000 Ang^3
#
#
#
# Elastic Constant Matrix: (Units=GPa)
#
#
# Indices 1 2 3 4 5 6 
#
# 1 47.2496 28.0528 -13.5857 0.0000 0.0000 0.0000
# 2 28.0528 33.4956 -2.0761 0.0000 0.0000 0.0000
# 3 -13.5857 -2.0761 61.7638 0.0000 0.0000 0.0000
# 4 0.0000 0.0000 0.0000 11.2990 0.0000 0.0000
# 5 0.0000 0.0000 0.0000 0.0000 27.3463 0.0000
# 6 0.0000 0.0000 0.0000 0.0000 0.0000 18.8989
#
#
#
# Elastic Compliance Matrix: (Units=1/GPa)
#
#
# Indices 1 2 3 4 5 6 
#
# 1 0.046559 -0.038439 0.008949 0.000000 0.000000 0.000000
# 2 -0.038439 0.061652 -0.006383 0.000000 0.000000 0.000000
# 3 0.008949 -0.006383 0.017945 0.000000 0.000000 0.000000
# 4 0.000000 0.000000 0.000000 0.088503 0.000000 0.000000
# 5 0.000000 0.000000 0.000000 0.000000 0.036568 0.000000
# 6 0.000000 0.000000 0.000000 0.000000 0.000000 0.052913
#
#
# Mechanical properties :
#
#
# Convention : Reuss Voigt Hill
#
# Bulk Modulus (GPa) = 18.37875 18.58789 18.48332
# Shear Modulus (GPa) = 12.68965 20.18338 16.43651
#
# Velocity S-wave (km/s) = 2.50709 3.16185 2.85331
# Velocity P-wave (km/s) = 4.18140 4.74729 4.47330
#
# Compressibility (1/GPa) = 0.05441067
#
# Stress axis : x y z
#
# Youngs Moduli (GPa) = 21.47810 16.22011 55.72699
#
# Poissons Ratio (x) = 0.62348 -0.49871
# Poissons Ratio (y) = 0.82559 0.35569
# Poissons Ratio (z) = -0.19221 0.10353
#
# Static dielectric constant tensor:
#      x y z
#    x 1.690940 0.000000 0.000000 
#    y 0.000000 1.722050 0.000000 
#    z 0.000000 0.000000 1.699540 
# 
# From -- ./inp_files/215.got.cif
#   From: 2010.05.17/outbox.cif.g08.bks.cpg/sg29_1_cif.got.tgz:215.got - 2010.06.04 01:19:37.
