data_PCOD9340009
_publ_section_title
;
Structure prediction by ZEFSAII (Michael W. Deem and Ramdas Pophale) SiO2 
 PCOD9340009
Probable space group: P C A 21
;
_chemical_formula_sum "Si O2"
_cell_formula_units_Z 28
_cell_length_a 11.805513
_cell_length_b 17.928453
_cell_length_c 5.241473
_cell_angle_alpha 90.000000
_cell_angle_beta 90.000000
_cell_angle_gamma 90.000000
_cell_volume 1109.381792
_symmetry_space_group_name_H-M "P C A 21"
_symmetry_group_IT_number 29
_symmetry_cell_setting 'orthorhombic'
loop_
_space_group_symop_operation_xyz
x,y,z
-x,-y,1/2+z
1/2-x,y,1/2+z
1/2+x,-y,z
loop_
_atom_site_type_symbol
_atom_site_label
_atom_site_fract_x
_atom_site_fract_y
_atom_site_fract_z
Si Si1 0.129233 0.319554 0.529860
Si Si2 0.683648 0.108279 0.168792
Si Si3 0.559612 0.971106 0.110439
Si Si4 0.387349 0.382547 0.524030
Si Si5 0.819989 0.294546 0.324720
Si Si6 0.817781 0.469847 0.302645
Si Si7 0.014955 0.181141 0.364987
O O1 0.256901 0.351390 0.554874
O O2 0.074123 0.369589 0.308871
O O3 0.118087 0.232985 0.458816
O O4 0.065762 0.331626 0.797396
O O5 0.727909 0.128733 0.446314
O O6 0.562723 0.141961 0.083082
O O7 0.672114 0.018336 0.162506
O O8 0.555326 0.883813 0.175538
O O9 0.523983 0.992667 0.824504
O O10 0.398413 0.465662 0.412854
O O11 0.724496 0.280334 0.111157
O O12 0.842806 0.382987 0.318565
O O13 0.925916 0.242199 0.260590
O O14 0.785532 0.482688 0.006790
#
# Coordination Sequence:
#
# PCOD9340009 Si02
#       7
#     4   4   4   4   4   4   4
#     4  10  21  34  60  88 121 165 210 255 330 363
#     4  11  23  43  69  93 124 169 214 247 317 395
#     4  10  23  43  67  92 125 167 207 259 329 382
#     4  10  18  38  57  84 121 172 211 255 313 382
#     4  10  23  38  62  94 122 167 217 254 321 382
#     4  10  16  33  62  80 117 168 215 259 303 371
#     4  11  24  43  63  97 134 162 202 283 317 381
#
# _framework density 25.239281999999999
#
# number of rings (size 3 to 8) (size 9 to 14) (size 15 to 20)
#    0.000    1.714    2.857    2.571    0.000    6.857 
#    5.143    1.429    0.000    0.000    0.000    0.000 
#    0.000    0.000    0.000    0.000    0.000    0.000 
#
# Total GULP energy -156311.459241 kJ/mol
# GULP energy per Si atom -5582.552116 kJ/mol
# Density = 2.518184 g / cm^3
# Si number density = 25.239282 Si / 1000 Ang^3
#
#
#
# Elastic Constant Matrix: (Units=GPa)
#
#
# Indices 1 2 3 4 5 6 
#
# 1 54.9694 21.6372 12.8496 0.0000 0.0000 0.0000
# 2 21.6372 144.0711 -12.7622 0.0000 0.0000 0.0000
# 3 12.8496 -12.7622 83.4192 0.0000 0.0000 0.0000
# 4 0.0000 0.0000 0.0000 42.9021 0.0000 0.0000
# 5 0.0000 0.0000 0.0000 0.0000 8.7249 0.0000
# 6 0.0000 0.0000 0.0000 0.0000 0.0000 -25.0116
#
#
#
# Elastic Compliance Matrix: (Units=1/GPa)
#
#
# Indices 1 2 3 4 5 6 
#
# 1 0.020379 -0.003385 -0.003657 0.000000 0.000000 0.000000
# 2 -0.003385 0.007598 0.001684 0.000000 0.000000 0.000000
# 3 -0.003657 0.001684 0.012809 0.000000 0.000000 0.000000
# 4 0.000000 0.000000 0.000000 0.023309 0.000000 0.000000
# 5 0.000000 0.000000 0.000000 0.000000 0.114615 0.000000
# 6 0.000000 0.000000 0.000000 0.000000 0.000000 -0.039981
#
#
# Mechanical properties :
#
#
# Convention : Reuss Voigt Hill
#
# Bulk Modulus (GPa) = 33.25487 36.21209 34.73348
# Shear Modulus (GPa) = 31.35437 22.70541 27.02989
#
# Velocity S-wave (km/s) = 3.52843 3.00260 3.27608
# Velocity P-wave (km/s) = 5.45932 5.13804 5.30111
#
# Compressibility (1/GPa) = 0.03007079
#
# Stress axis : x y z
#
# Youngs Moduli (GPa) = 49.07014 131.60521 78.07287
#
# Poissons Ratio (x) = 0.44542 0.28550
# Poissons Ratio (y) = 0.16608 -0.13146
# Poissons Ratio (z) = 0.17944 -0.22160
#
# Static dielectric constant tensor:
#      x y z
#    x 2.181240 0.000000 0.000000 
#    y 0.000000 2.037190 0.000000 
#    z 0.000000 0.000000 2.049250 
# 
# From -- ./inp_files/260.got.cif
#   From: 2010.05.17/outbox.cif.g08.bks.cpg/sg29_1_cif.got.tgz:260.got - 2010.06.04 01:19:37.
