data_PCOD9340192
_publ_section_title
;
Structure prediction by ZEFSAII (Michael W. Deem and Ramdas Pophale) SiO2 
 PCOD9340192
Probable space group: P C A 21
;
_chemical_formula_sum "Si O2"
_cell_formula_units_Z 28
_cell_length_a 14.875467
_cell_length_b 7.892507
_cell_length_c 11.041586
_cell_angle_alpha 90.000000
_cell_angle_beta 90.000000
_cell_angle_gamma 90.000000
_cell_volume 1296.334395
_symmetry_space_group_name_H-M "P C A 21"
_symmetry_group_IT_number 29
_symmetry_cell_setting 'orthorhombic'
loop_
_space_group_symop_operation_xyz
x,y,z
-x,-y,1/2+z
1/2-x,y,1/2+z
1/2+x,-y,z
loop_
_atom_site_type_symbol
_atom_site_label
_atom_site_fract_x
_atom_site_fract_y
_atom_site_fract_z
Si Si1 0.141875 0.627647 0.660200
Si Si2 0.559341 0.267745 0.295629
Si Si3 0.969444 0.904339 0.066945
Si Si4 0.825225 0.501745 0.632371
Si Si5 0.527579 0.710279 0.046988
Si Si6 0.187875 0.927765 0.470823
Si Si7 0.631234 0.223554 0.926519
O O1 0.219507 0.488727 0.654827
O O2 0.174342 0.774594 0.567425
O O3 0.137945 0.704184 0.793001
O O4 0.042301 0.584353 0.615146
O O5 0.500507 0.191526 0.187124
O O6 0.623356 0.417618 0.246706
O O7 0.493271 0.315751 0.405548
O O8 0.629382 0.131119 0.353834
O O9 0.499752 0.899865 0.081706
O O10 0.865026 0.914201 0.029028
O O11 0.031667 0.837122 0.958268
O O12 0.873666 0.671375 0.591766
O O13 0.845326 0.370596 0.522635
O O14 0.293485 0.923994 0.442518
#
# Coordination Sequence:
#
# PCOD9340192 Si02
#       7
#     4   4   4   4   4   4   4
#     4   9  19  35  59  84 110 153 197 229 289 359
#     4   9  18  37  55  83 117 148 199 245 274 361
#     4   9  20  35  59  84 117 151 196 241 297 336
#     4  10  20  37  58  84 114 153 197 236 291 349
#     4  10  23  35  58  90 117 154 192 247 296 337
#     4   9  19  33  57  85 109 150 198 236 285 349
#     4  10  19  36  62  84 108 161 197 234 292 359
#
# _framework density 21.599364999999999
#
# number of rings (size 3 to 8) (size 9 to 14) (size 15 to 20)
#    0.000    2.857    1.429    0.000   10.000    0.000 
#    0.000    2.857    3.143    0.000    0.000    0.000 
#    0.000    0.000    0.000    0.000    0.000    0.000 
#
# Total GULP energy -156196.958350 kJ/mol
# GULP energy per Si atom -5578.462798 kJ/mol
# Density = 2.155020 g / cm^3
# Si number density = 21.599365 Si / 1000 Ang^3
#
#
#
# Elastic Constant Matrix: (Units=GPa)
#
#
# Indices 1 2 3 4 5 6 
#
# 1 71.9142 8.5787 38.1942 0.0000 0.0000 0.0000
# 2 8.5787 28.3524 7.7710 0.0000 0.0000 0.0000
# 3 38.1942 7.7710 85.4352 0.0000 0.0000 0.0000
# 4 0.0000 0.0000 0.0000 12.7291 0.0000 0.0000
# 5 0.0000 0.0000 0.0000 0.0000 -4.9200 0.0000
# 6 0.0000 0.0000 0.0000 0.0000 0.0000 39.5751
#
#
#
# Elastic Compliance Matrix: (Units=1/GPa)
#
#
# Indices 1 2 3 4 5 6 
#
# 1 0.018554 -0.003426 -0.007983 0.000000 0.000000 0.000000
# 2 -0.003426 0.036805 -0.001816 0.000000 0.000000 0.000000
# 3 -0.007983 -0.001816 0.015439 0.000000 0.000000 0.000000
# 4 0.000000 0.000000 0.000000 0.078560 0.000000 0.000000
# 5 0.000000 0.000000 0.000000 0.000000 -0.203254 0.000000
# 6 0.000000 0.000000 0.000000 0.000000 0.000000 0.025268
#
#
# Mechanical properties :
#
#
# Convention : Reuss Voigt Hill
#
# Bulk Modulus (GPa) = 22.54921 32.75438 27.65180
# Shear Modulus (GPa) = 396.66776 18.22071 207.44423
#
# Velocity S-wave (km/s) = 13.56638 2.90759 9.81072
# Velocity P-wave (km/s) = 15.99556 5.14485 11.88123
#
# Compressibility (1/GPa) = 0.04434745
#
# Stress axis : x y z
#
# Youngs Moduli (GPa) = 53.89674 27.17043 64.77176
#
# Poissons Ratio (x) = 0.09308 0.51708
# Poissons Ratio (y) = 0.18464 0.11763
# Poissons Ratio (z) = 0.43026 0.04934
#
# Static dielectric constant tensor:
#      x y z
#    x 1.853970 0.000000 0.000000 
#    y 0.000000 1.828020 0.000000 
#    z 0.000000 0.000000 1.768520 
# 
# From -- ./inp_files/3196.got.cif
#   From: 2010.05.17/outbox.cif.g08.bks.cpg/sg29_2_cif.got.tgz:3196.got - 2010.06.04 01:19:37.
