data_PCOD9340068
_publ_section_title
;
Structure prediction by ZEFSAII (Michael W. Deem and Ramdas Pophale) SiO2 
 PCOD9340068
Probable space group: P C A 21
;
_chemical_formula_sum "Si O2"
_cell_formula_units_Z 20
_cell_length_a 5.473479
_cell_length_b 8.012029
_cell_length_c 18.298370
_cell_angle_alpha 90.000000
_cell_angle_beta 90.000000
_cell_angle_gamma 90.000000
_cell_volume 802.450725
_symmetry_space_group_name_H-M "P C A 21"
_symmetry_group_IT_number 29
_symmetry_cell_setting 'orthorhombic'
loop_
_space_group_symop_operation_xyz
x,y,z
-x,-y,1/2+z
1/2-x,y,1/2+z
1/2+x,-y,z
loop_
_atom_site_type_symbol
_atom_site_label
_atom_site_fract_x
_atom_site_fract_y
_atom_site_fract_z
Si Si1 0.756778 0.092358 0.555850
Si Si2 0.369568 0.695375 0.181650
Si Si3 0.704688 0.594966 0.909806
Si Si4 0.630702 0.676381 0.738710
Si Si5 0.754099 0.968557 0.399503
O O1 0.696616 0.259634 0.599015
O O2 0.526374 0.973471 0.576092
O O3 0.754007 0.095425 0.467904
O O4 0.394036 0.498153 0.195067
O O5 0.631482 0.767136 0.206670
O O6 0.136752 0.755094 0.229381
O O7 0.449294 0.506752 0.929280
O O8 0.690037 0.624056 0.821732
O O9 0.732563 0.785379 0.935244
O O10 0.502788 0.994471 0.357904
#
# Coordination Sequence:
#
# PCOD9340068 Si02
#       5
#     4   4   4   4   4
#     4  10  21  39  63  81 127 169 213 255 314 377
#     4  10  18  35  60  89 120 162 202 260 311 379
#     4  12  21  40  70  97 133 168 219 276 324 390
#     4  10  19  35  61  91 125 154 208 260 320 373
#     4  10  23  43  66  90 135 173 220 271 323 391
#
# _framework density 24.923649999999999
#
# number of rings (size 3 to 8) (size 9 to 14) (size 15 to 20)
#    0.000    1.600    4.000    2.400    0.000    0.000 
#    0.000    6.000  105.600    0.000    0.000    0.000 
#    0.000    0.000    0.000    0.000    0.000    0.000 
#
# Total GULP energy -111700.542591 kJ/mol
# GULP energy per Si atom -5585.027130 kJ/mol
# Density = 2.486692 g / cm^3
# Si number density = 24.923650 Si / 1000 Ang^3
#
#
#
# Elastic Constant Matrix: (Units=GPa)
#
#
# Indices 1 2 3 4 5 6 
#
# 1 287.0822 30.4602 -8.7775 0.0000 0.0000 0.0000
# 2 30.4602 49.3472 13.0537 0.0000 0.0000 0.0000
# 3 -8.7775 13.0537 42.6145 0.0000 0.0000 0.0000
# 4 0.0000 0.0000 0.0000 40.3125 0.0000 0.0000
# 5 0.0000 0.0000 0.0000 0.0000 17.6266 0.0000
# 6 0.0000 0.0000 0.0000 0.0000 0.0000 31.4561
#
#
#
# Elastic Compliance Matrix: (Units=1/GPa)
#
#
# Indices 1 2 3 4 5 6 
#
# 1 0.003831 -0.002800 0.001647 0.000000 0.000000 0.000000
# 2 -0.002800 0.024098 -0.007959 0.000000 0.000000 0.000000
# 3 0.001647 -0.007959 0.026243 0.000000 0.000000 0.000000
# 4 0.000000 0.000000 0.000000 0.024806 0.000000 0.000000
# 5 0.000000 0.000000 0.000000 0.000000 0.056732 0.000000
# 6 0.000000 0.000000 0.000000 0.000000 0.000000 0.031790
#
#
# Mechanical properties :
#
#
# Convention : Reuss Voigt Hill
#
# Bulk Modulus (GPa) = 27.81770 49.83520 38.82645
# Shear Modulus (GPa) = 25.28981 40.83288 33.06134
#
# Velocity S-wave (km/s) = 3.18888 4.05201 3.64607
# Velocity P-wave (km/s) = 4.97433 6.47536 5.77383
#
# Compressibility (1/GPa) = 0.03594834
#
# Stress axis : x y z
#
# Youngs Moduli (GPa) = 261.04292 41.49660 38.10502
#
# Poissons Ratio (x) = 0.11620 -0.06275
# Poissons Ratio (y) = 0.73098 0.30326
# Poissons Ratio (z) = -0.42989 0.33026
#
# Static dielectric constant tensor:
#      x y z
#    x 2.090900 0.000000 0.000000 
#    y 0.000000 1.966150 0.000000 
#    z 0.000000 0.000000 1.942990 
# 
# From -- ./inp_files/4876.got.cif
#   From: 2010.05.17/outbox.cif.g08.bks.cpg/sg29_3_cif.got.tgz:4876.got - 2010.06.04 01:19:37.
