data_PCOD9340158
_publ_section_title
;
Structure prediction by ZEFSAII (Michael W. Deem and Ramdas Pophale) SiO2 
 PCOD9340158
Probable space group: P C A 21
;
_chemical_formula_sum "Si O2"
_cell_formula_units_Z 28
_cell_length_a 5.715015
_cell_length_b 15.106405
_cell_length_c 13.960650
_cell_angle_alpha 90.000000
_cell_angle_beta 90.000000
_cell_angle_gamma 90.000000
_cell_volume 1205.269420
_symmetry_space_group_name_H-M "P C A 21"
_symmetry_group_IT_number 29
_symmetry_cell_setting 'orthorhombic'
loop_
_space_group_symop_operation_xyz
x,y,z
-x,-y,1/2+z
1/2-x,y,1/2+z
1/2+x,-y,z
loop_
_atom_site_type_symbol
_atom_site_label
_atom_site_fract_x
_atom_site_fract_y
_atom_site_fract_z
Si Si1 0.563696 0.459713 0.863520
Si Si2 0.868147 0.015858 0.155648
Si Si3 0.382202 0.153912 0.033980
Si Si4 0.024498 0.294769 0.030456
Si Si5 0.833801 0.267749 0.381015
Si Si6 0.339806 0.476984 0.581084
Si Si7 0.785199 0.209615 0.675131
O O1 0.323749 0.508233 0.827934
O O2 0.515687 0.353978 0.852390
O O3 0.601089 0.478519 0.977852
O O4 0.833932 0.118918 0.138212
O O5 0.620282 0.993106 0.205888
O O6 0.876187 0.949752 0.062770
O O7 0.143650 0.201251 0.008319
O O8 0.453974 0.198283 0.136176
O O9 0.555231 0.195013 0.953680
O O10 0.195577 0.373124 0.058299
O O11 0.842693 0.285690 0.117129
O O12 0.879789 0.314197 0.935911
O O13 0.747431 0.219773 0.286290
O O14 0.599490 0.487978 0.627554
#
# Coordination Sequence:
#
# PCOD9340158 Si02
#       7
#     4   4   4   4   4   4   4
#     4  10  19  37  61  92 139 180 222 290 339 402
#     4  10  20  44  68  90 135 178 216 277 355 399
#     4  10  22  41  71  93 135 182 226 290 350 421
#     4  11  21  40  68  94 132 183 230 276 350 412
#     4  11  23  40  68 104 133 186 241 280 354 422
#     4  10  19  34  62  92 127 178 223 276 336 402
#     4  10  24  42  64 101 139 179 226 301 340 418
#
# _framework density 23.231321000000001
#
# number of rings (size 3 to 8) (size 9 to 14) (size 15 to 20)
#    0.000    1.714    4.286    1.714    2.000    1.143 
#    0.000   10.000    0.000    0.000    0.000    0.000 
#    0.000    0.000    0.000    0.000    0.000    0.000 
#
# Total GULP energy -155887.073354 kJ/mol
# GULP energy per Si atom -5567.395477 kJ/mol
# Density = 2.317845 g / cm^3
# Si number density = 23.231321 Si / 1000 Ang^3
#
#
#
# Elastic Constant Matrix: (Units=GPa)
#
#
# Indices 1 2 3 4 5 6 
#
# 1 131.6139 4.7025 17.6266 0.0000 0.0000 0.0000
# 2 4.7025 123.3707 23.8432 0.0000 0.0000 0.0000
# 3 17.6266 23.8432 70.2372 0.0000 0.0000 0.0000
# 4 0.0000 0.0000 0.0000 -1.7538 0.0000 0.0000
# 5 0.0000 0.0000 0.0000 0.0000 13.2359 0.0000
# 6 0.0000 0.0000 0.0000 0.0000 0.0000 39.0972
#
#
#
# Elastic Compliance Matrix: (Units=1/GPa)
#
#
# Indices 1 2 3 4 5 6 
#
# 1 0.007863 0.000087 -0.002003 0.000000 0.000000 0.000000
# 2 0.000087 0.008676 -0.002967 0.000000 0.000000 0.000000
# 3 -0.002003 -0.002967 0.015747 0.000000 0.000000 0.000000
# 4 0.000000 0.000000 0.000000 -0.570203 0.000000 0.000000
# 5 0.000000 0.000000 0.000000 0.000000 0.075552 0.000000
# 6 0.000000 0.000000 0.000000 0.000000 0.000000 0.025577
#
#
# Mechanical properties :
#
#
# Convention : Reuss Voigt Hill
#
# Bulk Modulus (GPa) = 44.40319 46.39628 45.39974
# Shear Modulus (GPa) = -11.91854 28.71916 8.40031
#
# Velocity S-wave (km/s) = -2.26749 3.51981 1.90363
# Velocity P-wave (km/s) = 3.50709 6.04430 4.94132
#
# Compressibility (1/GPa) = 0.02252091
#
# Stress axis : x y z
#
# Youngs Moduli (GPa) = 127.17606 115.26377 63.50269
#
# Poissons Ratio (x) = -0.01007 0.12719
# Poissons Ratio (y) = -0.01111 0.18842
# Poissons Ratio (z) = 0.25473 0.34200
#
# Static dielectric constant tensor:
#      x y z
#    x 2.031340 0.000000 0.000000 
#    y 0.000000 1.955890 0.000000 
#    z 0.000000 0.000000 1.829970 
# 
# From -- ./inp_files/4052.got.cif
#   From: 2010.05.17/outbox.cif.g08.bks.cpg/sg29_3_cif.got.tgz:4052.got - 2010.06.04 01:19:37.
