data_PCOD9340349
_publ_section_title
;
Structure prediction by ZEFSAII (Michael W. Deem and Ramdas Pophale) SiO2 
 PCOD9340349
Probable space group: P C A 21
;
_chemical_formula_sum "Si O2"
_cell_formula_units_Z 32
_cell_length_a 13.384411
_cell_length_b 13.998822
_cell_length_c 7.942342
_cell_angle_alpha 90.000000
_cell_angle_beta 90.000000
_cell_angle_gamma 90.000000
_cell_volume 1488.124749
_symmetry_space_group_name_H-M "P C A 21"
_symmetry_group_IT_number 29
_symmetry_cell_setting 'orthorhombic'
loop_
_space_group_symop_operation_xyz
x,y,z
-x,-y,1/2+z
1/2-x,y,1/2+z
1/2+x,-y,z
loop_
_atom_site_type_symbol
_atom_site_label
_atom_site_fract_x
_atom_site_fract_y
_atom_site_fract_z
Si Si1 0.957610 0.867583 0.841590
Si Si2 0.487619 0.532546 0.238304
Si Si3 0.111503 0.986665 0.614566
Si Si4 0.369424 0.312148 0.723090
Si Si5 0.858637 0.427660 0.562807
Si Si6 0.689608 0.579912 0.554119
Si Si7 0.710602 0.100227 0.292890
Si Si8 0.143626 0.783644 0.992983
O O1 0.019797 0.942792 0.724285
O O2 0.883445 0.801504 0.733478
O O3 0.036356 0.790064 0.909172
O O4 0.913802 0.918194 0.008812
O O5 0.534144 0.628652 0.150193
O O6 0.440113 0.559375 0.415921
O O7 0.398266 0.471422 0.156417
O O8 0.585768 0.464964 0.230242
O O9 0.209632 0.981817 0.736363
O O10 0.143752 0.921012 0.455055
O O11 0.265944 0.345083 0.639940
O O12 0.358638 0.359209 0.906314
O O13 0.765458 0.493168 0.513348
O O14 0.832695 0.317471 0.571740
O O15 0.779438 0.188566 0.347573
O O16 0.649684 0.132084 0.130529
#
# Coordination Sequence:
#
# PCOD9340349 Si02
#       8
#     4   4   4   4   4   4   4   4
#     4  11  22  41  64  90 125 160 210 263 331 393
#     4  11  21  40  58  86 126 167 209 253 308 361
#     4  10  22  41  66  89 124 163 201 269 335 395
#     4  11  24  41  62  91 125 168 217 262 304 387
#     4  11  23  37  61  86 125 170 208 257 305 367
#     4  11  23  40  60  90 129 170 210 254 315 365
#     4   9  21  39  61  92 121 154 212 266 324 383
#     4  10  20  37  58  90 121 158 211 262 306 379
#
# _framework density 21.503574
#
# number of rings (size 3 to 8) (size 9 to 14) (size 15 to 20)
#    0.000    1.500    3.750    0.750    1.750    2.000 
#    4.500    1.250    0.000    0.000    0.000    0.000 
#    0.000    0.000    0.000    0.000    0.000    0.000 
#
# Total GULP energy -178285.958401 kJ/mol
# GULP energy per Si atom -5571.436200 kJ/mol
# Density = 2.145463 g / cm^3
# Si number density = 21.503574 Si / 1000 Ang^3
#
#
#
# Elastic Constant Matrix: (Units=GPa)
#
#
# Indices 1 2 3 4 5 6 
#
# 1 76.6886 20.2944 10.8375 0.0000 0.0000 0.0000
# 2 20.2944 85.9828 -3.3435 0.0000 0.0000 0.0000
# 3 10.8375 -3.3435 49.4292 0.0000 0.0000 0.0000
# 4 0.0000 0.0000 0.0000 32.5639 0.0000 0.0000
# 5 0.0000 0.0000 0.0000 0.0000 28.9182 0.0000
# 6 0.0000 0.0000 0.0000 0.0000 0.0000 10.6962
#
#
#
# Elastic Compliance Matrix: (Units=1/GPa)
#
#
# Indices 1 2 3 4 5 6 
#
# 1 0.014460 -0.003546 -0.003410 0.000000 0.000000 0.000000
# 2 -0.003546 0.012530 0.001625 0.000000 0.000000 0.000000
# 3 -0.003410 0.001625 0.021089 0.000000 0.000000 0.000000
# 4 0.000000 0.000000 0.000000 0.030709 0.000000 0.000000
# 5 0.000000 0.000000 0.000000 0.000000 0.034580 0.000000
# 6 0.000000 0.000000 0.000000 0.000000 0.000000 0.093491
#
#
# Mechanical properties :
#
#
# Convention : Reuss Voigt Hill
#
# Bulk Modulus (GPa) = 26.72572 29.74192 28.23382
# Shear Modulus (GPa) = 21.73981 26.72314 24.23148
#
# Velocity S-wave (km/s) = 3.18305 3.52906 3.36051
# Velocity P-wave (km/s) = 5.09554 5.51968 5.31185
#
# Compressibility (1/GPa) = 0.03741714
#
# Stress axis : x y z
#
# Youngs Moduli (GPa) = 69.15651 79.80669 47.41901
#
# Poissons Ratio (x) = 0.28296 0.16171
# Poissons Ratio (y) = 0.24520 -0.07705
# Poissons Ratio (z) = 0.23584 -0.12968
#
# Static dielectric constant tensor:
#      x y z
#    x 1.846510 0.000000 0.000000 
#    y 0.000000 1.809530 0.000000 
#    z 0.000000 0.000000 1.817440 
# 
# From -- ./inp_files/1872.got.cif
#   From: 2010.05.17/outbox.cif.g08.bks.cpg/sg29_1_cif.got.tgz:1872.got - 2010.06.04 01:19:37.
