data_PCOD9340884
_publ_section_title
;
Structure prediction by ZEFSAII (Michael W. Deem and Ramdas Pophale) SiO2 
 PCOD9340884
Probable space group: P C A 21
;
_chemical_formula_sum "Si O2"
_cell_formula_units_Z 32
_cell_length_a 15.127740
_cell_length_b 8.584457
_cell_length_c 9.536038
_cell_angle_alpha 90.000000
_cell_angle_beta 90.000000
_cell_angle_gamma 90.000000
_cell_volume 1238.382637
_symmetry_space_group_name_H-M "P C A 21"
_symmetry_group_IT_number 29
_symmetry_cell_setting 'orthorhombic'
loop_
_space_group_symop_operation_xyz
x,y,z
-x,-y,1/2+z
1/2-x,y,1/2+z
1/2+x,-y,z
loop_
_atom_site_type_symbol
_atom_site_label
_atom_site_fract_x
_atom_site_fract_y
_atom_site_fract_z
Si Si1 0.341036 0.597301 0.269390
Si Si2 0.480763 0.544879 0.695195
Si Si3 0.623290 0.074043 0.657540
Si Si4 0.676584 0.013182 0.150352
Si Si5 0.239413 0.497879 0.505900
Si Si6 0.607701 0.243501 0.392766
Si Si7 0.006223 0.856158 0.043255
Si Si8 0.626583 0.730354 0.324936
O O1 0.422156 0.522431 0.186417
O O2 0.359360 0.783387 0.265885
O O3 0.329164 0.517684 0.419358
O O4 0.259982 0.536685 0.170587
O O5 0.467852 0.646307 0.835419
O O6 0.467829 0.677376 0.579388
O O7 0.417961 0.399500 0.726670
O O8 0.574223 0.150016 0.524961
O O9 0.722756 0.038071 0.603990
O O10 0.560098 0.922965 0.667312
O O11 0.677193 0.845508 0.222427
O O12 0.648465 0.135233 0.272230
O O13 0.596445 0.042877 0.041943
O O14 0.186063 0.646762 0.445879
O O15 0.187273 0.347918 0.446118
O O16 0.948585 0.833434 0.903005
#
# Coordination Sequence:
#
# PCOD9340884 Si02
#       8
#     4   4   4   4   4   4   4   4
#     4  11  22  42  69 104 140 199 241 310 374 455
#     4  10  23  43  70  97 139 195 243 302 375 438
#     4  11  23  43  74 103 147 188 247 306 380 447
#     4  11  23  43  70 100 140 189 242 301 378 439
#     4  10  22  40  67  99 145 183 240 302 373 437
#     4   9  20  43  64  96 137 184 238 300 356 446
#     4  11  24  46  69 103 142 189 246 309 371 451
#     4  11  23  44  69  98 144 185 245 312 367 453
#
# _framework density 25.840154999999999
#
# number of rings (size 3 to 8) (size 9 to 14) (size 15 to 20)
#    0.000    1.500    3.750    0.750    1.750    2.000 
#    2.250    1.250    0.000    0.000    0.000    0.000 
#    0.000    0.000    0.000    0.000    0.000    0.000 
#
# Total GULP energy -178850.363068 kJ/mol
# GULP energy per Si atom -5589.073846 kJ/mol
# Density = 2.578134 g / cm^3
# Si number density = 25.840155 Si / 1000 Ang^3
#
#
#
# Elastic Constant Matrix: (Units=GPa)
#
#
# Indices 1 2 3 4 5 6 
#
# 1 88.5727 37.6076 9.6258 0.0000 0.0000 0.0000
# 2 37.6076 113.1005 9.6781 0.0000 0.0000 0.0000
# 3 9.6258 9.6781 53.2541 0.0000 0.0000 0.0000
# 4 0.0000 0.0000 0.0000 43.3139 0.0000 0.0000
# 5 0.0000 0.0000 0.0000 0.0000 36.9776 0.0000
# 6 0.0000 0.0000 0.0000 0.0000 0.0000 32.7247
#
#
#
# Elastic Compliance Matrix: (Units=1/GPa)
#
#
# Indices 1 2 3 4 5 6 
#
# 1 0.013283 -0.004278 -0.001623 0.000000 0.000000 0.000000
# 2 -0.004278 0.010359 -0.001109 0.000000 0.000000 0.000000
# 3 -0.001623 -0.001109 0.019273 0.000000 0.000000 0.000000
# 4 0.000000 0.000000 0.000000 0.023087 0.000000 0.000000
# 5 0.000000 0.000000 0.000000 0.000000 0.027043 0.000000
# 6 0.000000 0.000000 0.000000 0.000000 0.000000 0.030558
#
#
# Mechanical properties :
#
#
# Convention : Reuss Voigt Hill
#
# Bulk Modulus (GPa) = 34.60980 40.97226 37.79103
# Shear Modulus (GPa) = 33.95442 35.80430 34.87936
#
# Velocity S-wave (km/s) = 3.62887 3.72641 3.67797
# Velocity P-wave (km/s) = 5.56607 5.86561 5.71780
#
# Compressibility (1/GPa) = 0.02889355
#
# Stress axis : x y z
#
# Youngs Moduli (GPa) = 75.28445 96.53369 51.88619
#
# Poissons Ratio (x) = 0.41296 0.08424
# Poissons Ratio (y) = 0.32206 0.05756
# Poissons Ratio (z) = 0.12222 0.10709
#
# Static dielectric constant tensor:
#      x y z
#    x 2.038290 0.000000 0.000000 
#    y 0.000000 2.037520 0.000000 
#    z 0.000000 0.000000 2.145350 
# 
# From -- ./inp_files/3474.got.cif
#   From: 2010.05.17/outbox.cif.g08.bks.cpg/sg29_2_cif.got.tgz:3474.got - 2010.06.04 01:19:37.
