data_PCOD9340431
_publ_section_title
;
Structure prediction by ZEFSAII (Michael W. Deem and Ramdas Pophale) SiO2 
 PCOD9340431
Probable space group: P C A 21
;
_chemical_formula_sum "Si O2"
_cell_formula_units_Z 32
_cell_length_a 15.784327
_cell_length_b 6.917806
_cell_length_c 13.485994
_cell_angle_alpha 90.000000
_cell_angle_beta 90.000000
_cell_angle_gamma 90.000000
_cell_volume 1472.574956
_symmetry_space_group_name_H-M "P C A 21"
_symmetry_group_IT_number 29
_symmetry_cell_setting 'orthorhombic'
loop_
_space_group_symop_operation_xyz
x,y,z
-x,-y,1/2+z
1/2-x,y,1/2+z
1/2+x,-y,z
loop_
_atom_site_type_symbol
_atom_site_label
_atom_site_fract_x
_atom_site_fract_y
_atom_site_fract_z
Si Si1 0.755122 0.362482 0.657390
Si Si2 0.585394 0.491423 0.571882
Si Si3 0.501057 0.425290 0.774119
Si Si4 0.918872 0.833252 0.924550
Si Si5 0.653902 0.623349 0.027089
Si Si6 0.184763 0.673422 0.865868
Si Si7 0.984217 0.246566 0.917895
Si Si8 0.253231 0.989876 0.510388
O O1 0.676535 0.500660 0.624708
O O2 0.837805 0.472843 0.617554
O O3 0.748265 0.330570 0.773699
O O4 0.740133 0.160832 0.600247
O O5 0.521610 0.426336 0.658430
O O6 0.559461 0.686262 0.514567
O O7 0.591595 0.331871 0.484958
O O8 0.429225 0.290455 0.823536
O O9 0.589375 0.351146 0.824545
O O10 0.485961 0.642822 0.813721
O O11 0.828616 0.922944 0.954641
O O12 0.979293 0.018374 0.914255
O O13 0.564405 0.674726 0.978981
O O14 0.696336 0.826172 0.050546
O O15 0.701775 0.506389 0.939036
O O16 0.194901 0.867114 0.929123
#
# Coordination Sequence:
#
# PCOD9340431 Si02
#       8
#     4   4   4   4   4   4   4   4
#     4  10  20  40  62  86 118 156 198 240 295 356
#     4  10  20  40  62  85 117 160 198 236 293 359
#     4   9  21  39  61  85 119 161 196 239 298 361
#     4  11  21  37  63  87 120 157 198 250 295 353
#     4  10  21  39  60  84 118 156 191 245 298 349
#     4   9  21  39  61  85 119 157 198 243 294 360
#     4  10  21  39  59  88 119 152 195 245 298 348
#     4  11  21  37  62  90 118 153 198 250 295 350
#
# _framework density 21.730644999999999
#
# number of rings (size 3 to 8) (size 9 to 14) (size 15 to 20)
#    0.000    2.000    2.500    0.750    0.000    3.000 
#    9.000    0.000    0.000    0.000    0.000    0.000 
#    0.000    0.000    0.000    0.000    0.000    0.000 
#
# Total GULP energy -178637.327160 kJ/mol
# GULP energy per Si atom -5582.416474 kJ/mol
# Density = 2.168118 g / cm^3
# Si number density = 21.730645 Si / 1000 Ang^3
#
#
#
# Elastic Constant Matrix: (Units=GPa)
#
#
# Indices 1 2 3 4 5 6 
#
# 1 28.0073 2.6911 -14.5651 0.0000 0.0000 0.0000
# 2 2.6911 135.3194 30.0455 0.0000 0.0000 0.0000
# 3 -14.5651 30.0455 78.4777 0.0000 0.0000 0.0000
# 4 0.0000 0.0000 0.0000 15.0576 0.0000 0.0000
# 5 0.0000 0.0000 0.0000 0.0000 24.9668 0.0000
# 6 0.0000 0.0000 0.0000 0.0000 0.0000 33.4491
#
#
#
# Elastic Compliance Matrix: (Units=1/GPa)
#
#
# Indices 1 2 3 4 5 6 
#
# 1 0.040401 -0.002698 0.008531 0.000000 0.000000 0.000000
# 2 -0.002698 0.008257 -0.003662 0.000000 0.000000 0.000000
# 3 0.008531 -0.003662 0.015728 0.000000 0.000000 0.000000
# 4 0.000000 0.000000 0.000000 0.066412 0.000000 0.000000
# 5 0.000000 0.000000 0.000000 0.000000 0.040053 0.000000
# 6 0.000000 0.000000 0.000000 0.000000 0.000000 0.029896
#
#
# Mechanical properties :
#
#
# Convention : Reuss Voigt Hill
#
# Bulk Modulus (GPa) = 14.55008 30.90528 22.72768
# Shear Modulus (GPa) = 22.79854 29.60354 26.20104
#
# Velocity S-wave (km/s) = 3.24256 3.69493 3.47611
# Velocity P-wave (km/s) = 4.55292 5.69704 5.15681
#
# Compressibility (1/GPa) = 0.06872812
#
# Stress axis : x y z
#
# Youngs Moduli (GPa) = 24.75210 121.11516 63.58210
#
# Poissons Ratio (x) = 0.32672 -0.54242
# Poissons Ratio (y) = 0.06677 0.23282
# Poissons Ratio (z) = -0.21116 0.44349
#
# Static dielectric constant tensor:
#      x y z
#    x 1.898310 0.000000 0.000000 
#    y 0.000000 1.758960 0.000000 
#    z 0.000000 0.000000 1.763660 
# 
# From -- ./inp_files/4781.got.cif
#   From: 2010.05.17/outbox.cif.g08.bks.cpg/sg29_3_cif.got.tgz:4781.got - 2010.06.04 01:19:37.
