data_PCOD9340658
_publ_section_title
;
Structure prediction by ZEFSAII (Michael W. Deem and Ramdas Pophale) SiO2 
 PCOD9340658
Probable space group: P C A 21
;
_chemical_formula_sum "Si O2"
_cell_formula_units_Z 24
_cell_length_a 15.309101
_cell_length_b 7.629860
_cell_length_c 8.631325
_cell_angle_alpha 90.000000
_cell_angle_beta 90.000000
_cell_angle_gamma 90.000000
_cell_volume 1008.193115
_symmetry_space_group_name_H-M "P C A 21"
_symmetry_group_IT_number 29
_symmetry_cell_setting 'orthorhombic'
loop_
_space_group_symop_operation_xyz
x,y,z
-x,-y,1/2+z
1/2-x,y,1/2+z
1/2+x,-y,z
loop_
_atom_site_type_symbol
_atom_site_label
_atom_site_fract_x
_atom_site_fract_y
_atom_site_fract_z
Si Si1 0.090800 0.686609 0.425660
Si Si2 0.254827 0.903539 0.361828
Si Si3 0.650706 0.944416 0.106887
Si Si4 0.973219 0.871102 0.175003
Si Si5 0.598616 0.688735 0.388294
Si Si6 0.081374 0.742435 0.773938
O O1 0.162054 0.840903 0.426991
O O2 0.012292 0.748270 0.312245
O O3 0.135921 0.505354 0.376317
O O4 0.068441 0.659327 0.604851
O O5 0.324593 0.745903 0.353603
O O6 0.301470 0.072736 0.441526
O O7 0.226108 0.941736 0.187503
O O8 0.629033 0.799317 0.237629
O O9 0.561740 0.056290 0.090075
O O10 0.937349 0.051306 0.245123
O O11 0.903578 0.787258 0.054861
O O12 0.494198 0.658870 0.374525
#
# Coordination Sequence:
#
# PCOD9340658 Si02
#       6
#     4   4   4   4   4   4
#     4  11  24  41  63  97 139 168 214 286 343 389
#     4  11  21  41  64  90 125 181 221 269 326 405
#     4  10  22  39  64  91 125 172 226 263 325 408
#     4  10  21  40  66  92 123 170 225 266 321 404
#     4  11  23  41  64 100 131 166 220 285 342 384
#     4  11  21  40  69  90 125 177 228 267 323 410
#
# _framework density 23.804966
#
# number of rings (size 3 to 8) (size 9 to 14) (size 15 to 20)
#    0.000    1.333    3.333    4.000    2.333    0.000 
#    3.000    1.667    0.000    0.000    0.000    0.000 
#    0.000    0.000    0.000    0.000    0.000    0.000 
#
# Total GULP energy -133697.749466 kJ/mol
# GULP energy per Si atom -5570.739561 kJ/mol
# Density = 2.375078 g / cm^3
# Si number density = 23.804966 Si / 1000 Ang^3
#
#
#
# Elastic Constant Matrix: (Units=GPa)
#
#
# Indices 1 2 3 4 5 6 
#
# 1 56.1202 -7.8383 -2.0277 0.0000 0.0000 0.0000
# 2 -7.8383 86.8239 8.6700 0.0000 0.0000 0.0000
# 3 -2.0277 8.6700 61.3865 0.0000 0.0000 0.0000
# 4 0.0000 0.0000 0.0000 23.6329 0.0000 0.0000
# 5 0.0000 0.0000 0.0000 0.0000 27.7026 0.0000
# 6 0.0000 0.0000 0.0000 0.0000 0.0000 17.0307
#
#
#
# Elastic Compliance Matrix: (Units=1/GPa)
#
#
# Indices 1 2 3 4 5 6 
#
# 1 0.018055 0.001593 0.000371 0.000000 0.000000 0.000000
# 2 0.001593 0.011823 -0.001617 0.000000 0.000000 0.000000
# 3 0.000371 -0.001617 0.016531 0.000000 0.000000 0.000000
# 4 0.000000 0.000000 0.000000 0.042314 0.000000 0.000000
# 5 0.000000 0.000000 0.000000 0.000000 0.036098 0.000000
# 6 0.000000 0.000000 0.000000 0.000000 0.000000 0.058717
#
#
# Mechanical properties :
#
#
# Convention : Reuss Voigt Hill
#
# Bulk Modulus (GPa) = 21.23022 22.43764 21.83393
# Shear Modulus (GPa) = 25.18329 27.37501 26.27915
#
# Velocity S-wave (km/s) = 3.25607 3.39480 3.32616
# Velocity P-wave (km/s) = 4.80351 4.98119 4.89316
#
# Compressibility (1/GPa) = 0.04710267
#
# Stress axis : x y z
#
# Youngs Moduli (GPa) = 55.38692 84.58195 60.49280
#
# Poissons Ratio (x) = -0.13473 -0.02247
# Poissons Ratio (y) = -0.08822 0.09783
# Poissons Ratio (z) = -0.02057 0.13679
#
# Static dielectric constant tensor:
#      x y z
#    x 1.936480 0.000000 0.000000 
#    y 0.000000 1.916800 0.000000 
#    z 0.000000 0.000000 2.029940 
# 
# From -- ./inp_files/1714.got.cif
#   From: 2010.05.17/outbox.cif.g08.bks.cpg/sg29_1_cif.got.tgz:1714.got - 2010.06.04 01:19:37.
