data_PCOD9340653
_publ_section_title
;
Structure prediction by ZEFSAII (Michael W. Deem and Ramdas Pophale) SiO2 
 PCOD9340653
Probable space group: P C A 21
;
_chemical_formula_sum "Si O2"
_cell_formula_units_Z 32
_cell_length_a 21.866967
_cell_length_b 5.100320
_cell_length_c 12.581828
_cell_angle_alpha 90.000000
_cell_angle_beta 90.000000
_cell_angle_gamma 90.000000
_cell_volume 1403.232771
_symmetry_space_group_name_H-M "P C A 21"
_symmetry_group_IT_number 29
_symmetry_cell_setting 'orthorhombic'
loop_
_space_group_symop_operation_xyz
x,y,z
-x,-y,1/2+z
1/2-x,y,1/2+z
1/2+x,-y,z
loop_
_atom_site_type_symbol
_atom_site_label
_atom_site_fract_x
_atom_site_fract_y
_atom_site_fract_z
Si Si1 0.940906 0.750002 0.848560
Si Si2 0.955746 0.564667 0.446562
Si Si3 0.654001 0.249999 0.848561
Si Si4 0.311499 0.906504 0.570189
Si Si5 0.881956 0.589793 0.643684
Si Si6 0.118044 0.089799 0.553437
Si Si7 0.688501 0.406498 0.626932
Si Si8 0.044254 0.064672 0.750558
O O1 0.898230 0.589579 0.768120
O O2 0.987455 0.627750 0.935204
O O3 0.898229 0.910416 0.929001
O O4 0.987454 0.872260 0.761915
O O5 0.891673 0.444156 0.408193
O O6 0.938122 0.662606 0.563070
O O7 0.971952 0.749998 0.348560
O O8 0.687964 0.405633 0.755656
O O9 0.608326 0.055845 0.788928
O O10 0.687963 0.094362 0.941465
O O11 0.362935 0.706457 0.614409
O O12 0.250000 0.750004 0.598561
O O13 0.329165 0.192983 0.616218
O O14 0.170836 0.307023 0.580903
O O15 0.061879 0.162613 0.634051
O O16 0.137065 0.793549 0.582712
#
# Coordination Sequence:
#
# PCOD9340653 Si02
#       8
#     4   4   4   4   4   4   4   4
#     4  11  28  38  68 100 140 176 206 289 334 392
#     4  10  21  40  65  89 130 175 214 256 325 404
#     4   9  20  40  62  96 122 174 220 273 314 406
#     4  11  24  44  69  95 130 177 225 281 334 386
#     4  11  26  44  65 101 134 169 230 271 331 403
#     4  11  26  44  65 101 134 169 230 271 331 403
#     4  11  24  44  69  95 130 177 225 281 334 386
#     4  10  21  40  65  89 130 175 214 256 325 404
#
# _framework density 22.804486000000001
#
# number of rings (size 3 to 8) (size 9 to 14) (size 15 to 20)
#    0.000    1.500    2.500    0.750    7.000    2.000 
#    0.000    0.000    0.000    0.000    0.000    0.000 
#    0.000    0.000    0.000    0.000    0.000    0.000 
#
# Total GULP energy -178179.409493 kJ/mol
# GULP energy per Si atom -5568.106547 kJ/mol
# Density = 2.275258 g / cm^3
# Si number density = 22.804486 Si / 1000 Ang^3
#
#
#
# Elastic Constant Matrix: (Units=GPa)
#
#
# Indices 1 2 3 4 5 6 
#
# 1 33.7396 -6.4369 26.1222 0.0000 0.0000 0.0000
# 2 -6.4369 55.3853 -3.3116 0.0000 0.0000 0.0000
# 3 26.1222 -3.3116 150.4420 0.0000 0.0000 0.0000
# 4 0.0000 0.0000 0.0000 29.1884 0.0000 0.0000
# 5 0.0000 0.0000 0.0000 0.0000 -17.9995 0.0000
# 6 0.0000 0.0000 0.0000 0.0000 0.0000 60.2256
#
#
#
# Elastic Compliance Matrix: (Units=1/GPa)
#
#
# Indices 1 2 3 4 5 6 
#
# 1 0.034986 0.003708 -0.005993 0.000000 0.000000 0.000000
# 2 0.003708 0.018472 -0.000237 0.000000 0.000000 0.000000
# 3 -0.005993 -0.000237 0.007683 0.000000 0.000000 0.000000
# 4 0.000000 0.000000 0.000000 0.034260 0.000000 0.000000
# 5 0.000000 0.000000 0.000000 0.000000 -0.055557 0.000000
# 6 0.000000 0.000000 0.000000 0.000000 0.000000 0.016604
#
#
# Mechanical properties :
#
#
# Convention : Reuss Voigt Hill
#
# Bulk Modulus (GPa) = 17.82673 30.25714 24.04193
# Shear Modulus (GPa) = 62.35030 29.16245 45.75638
#
# Velocity S-wave (km/s) = 5.23456 3.57992 4.48422
# Velocity P-wave (km/s) = 6.66095 5.51222 6.11363
#
# Compressibility (1/GPa) = 0.05609555
#
# Stress axis : x y z
#
# Youngs Moduli (GPa) = 28.58256 54.13581 130.16577
#
# Poissons Ratio (x) = -0.20072 0.78012
# Poissons Ratio (y) = -0.10598 0.03087
# Poissons Ratio (z) = 0.17130 0.01284
#
# Static dielectric constant tensor:
#      x y z
#    x 1.891970 0.000000 0.000000 
#    y 0.000000 1.892440 0.000000 
#    z 0.000000 0.000000 1.950850 
# 
# From -- ./inp_files/3974.got.cif
#   From: 2010.05.17/outbox.cif.g08.bks.cpg/sg29_2_cif.got.tgz:3974.got - 2010.06.04 01:19:37.
