data_PCOD9340162
_publ_section_title
;
Structure prediction by ZEFSAII (Michael W. Deem and Ramdas Pophale) SiO2 
 PCOD9340162
Probable space group: P C A 21
;
_chemical_formula_sum "Si O2"
_cell_formula_units_Z 20
_cell_length_a 16.302201
_cell_length_b 10.467013
_cell_length_c 5.332793
_cell_angle_alpha 90.000000
_cell_angle_beta 90.000000
_cell_angle_gamma 90.000000
_cell_volume 909.962999
_symmetry_space_group_name_H-M "P C A 21"
_symmetry_group_IT_number 29
_symmetry_cell_setting 'orthorhombic'
loop_
_space_group_symop_operation_xyz
x,y,z
-x,-y,1/2+z
1/2-x,y,1/2+z
1/2+x,-y,z
loop_
_atom_site_type_symbol
_atom_site_label
_atom_site_fract_x
_atom_site_fract_y
_atom_site_fract_z
Si Si1 0.043284 0.552956 0.744110
Si Si2 0.845346 0.658288 0.372860
Si Si3 0.063174 0.855351 0.741986
Si Si4 0.663393 0.761352 0.375588
Si Si5 0.891644 0.014907 0.741721
O O1 0.130630 0.482031 0.789072
O O2 0.053894 0.703965 0.766628
O O3 0.011089 0.505882 0.472233
O O4 0.749881 0.689825 0.407745
O O5 0.881105 0.691298 0.645289
O O6 0.877889 0.749846 0.148577
O O7 0.103261 0.890691 0.476185
O O8 0.111890 0.913728 0.978384
O O9 0.975248 0.928765 0.746484
O O10 0.676095 0.906431 0.291131
#
# Coordination Sequence:
#
# PCOD9340162 Si02
#       5
#     4   4   4   4   4
#     4  12  23  37  59  89 124 159 197 250 307 357
#     4  10  21  36  59  86 111 150 204 244 288 357
#     4  10  21  33  54  86 117 146 185 239 294 345
#     4  10  20  37  61  82 111 154 199 246 289 355
#     4  10  19  35  55  81 115 149 187 235 292 350
#
# _framework density 21.978914
#
# number of rings (size 3 to 8) (size 9 to 14) (size 15 to 20)
#    0.000    1.600    0.000    6.000    0.000    3.200 
#    0.000    0.000    0.000   28.800    0.000    0.000 
#    0.000    0.000    0.000    0.000    0.000    0.000 
#
# Total GULP energy -111673.144019 kJ/mol
# GULP energy per Si atom -5583.657201 kJ/mol
# Density = 2.192889 g / cm^3
# Si number density = 21.978914 Si / 1000 Ang^3
#
#
#
# Elastic Constant Matrix: (Units=GPa)
#
#
# Indices 1 2 3 4 5 6 
#
# 1 43.4540 14.8603 -4.0797 0.0000 0.0000 0.0000
# 2 14.8603 131.1764 15.2438 0.0000 0.0000 0.0000
# 3 -4.0797 15.2438 145.2094 0.0000 0.0000 0.0000
# 4 0.0000 0.0000 0.0000 39.1338 0.0000 0.0000
# 5 0.0000 0.0000 0.0000 0.0000 17.3159 0.0000
# 6 0.0000 0.0000 0.0000 0.0000 0.0000 22.6118
#
#
#
# Elastic Compliance Matrix: (Units=1/GPa)
#
#
# Indices 1 2 3 4 5 6 
#
# 1 0.024076 -0.002841 0.000975 0.000000 0.000000 0.000000
# 2 -0.002841 0.008053 -0.000925 0.000000 0.000000 0.000000
# 3 0.000975 -0.000925 0.007011 0.000000 0.000000 0.000000
# 4 0.000000 0.000000 0.000000 0.025553 0.000000 0.000000
# 5 0.000000 0.000000 0.000000 0.000000 0.057751 0.000000
# 6 0.000000 0.000000 0.000000 0.000000 0.000000 0.044225
#
#
# Mechanical properties :
#
#
# Convention : Reuss Voigt Hill
#
# Bulk Modulus (GPa) = 29.79995 41.32097 35.56046
# Shear Modulus (GPa) = 27.25743 35.39998 31.32871
#
# Velocity S-wave (km/s) = 3.52541 4.01762 3.77954
# Velocity P-wave (km/s) = 5.49174 6.35317 5.93810
#
# Compressibility (1/GPa) = 0.03355710
#
# Stress axis : x y z
#
# Youngs Moduli (GPa) = 41.53548 124.18290 142.63074
#
# Poissons Ratio (x) = 0.35276 -0.13901
# Poissons Ratio (y) = 0.11799 0.13196
# Poissons Ratio (z) = -0.04048 0.11489
#
# Static dielectric constant tensor:
#      x y z
#    x 1.950200 0.000000 0.000000 
#    y 0.000000 1.793260 0.000000 
#    z 0.000000 0.000000 1.896420 
# 
# From -- ./inp_files/330.got.cif
#   From: 2010.05.17/outbox.cif.g08.bks.cpg/sg29_1_cif.got.tgz:330.got - 2010.06.04 01:19:37.
