data_PCOD9340950
_publ_section_title
;
Structure prediction by ZEFSAII (Michael W. Deem and Ramdas Pophale) SiO2 
 PCOD9340950
Probable space group: P C A 21
;
_chemical_formula_sum "Si O2"
_cell_formula_units_Z 32
_cell_length_a 13.176077
_cell_length_b 10.431441
_cell_length_c 9.290714
_cell_angle_alpha 90.000000
_cell_angle_beta 90.000000
_cell_angle_gamma 90.000000
_cell_volume 1276.966551
_symmetry_space_group_name_H-M "P C A 21"
_symmetry_group_IT_number 29
_symmetry_cell_setting 'orthorhombic'
loop_
_space_group_symop_operation_xyz
x,y,z
-x,-y,1/2+z
1/2-x,y,1/2+z
1/2+x,-y,z
loop_
_atom_site_type_symbol
_atom_site_label
_atom_site_fract_x
_atom_site_fract_y
_atom_site_fract_z
Si Si1 0.538345 0.004072 0.013940
Si Si2 0.771066 0.259249 0.768757
Si Si3 0.432915 0.470118 0.664507
Si Si4 0.713490 0.621951 0.624461
Si Si5 0.358530 0.006623 0.817657
Si Si6 0.190815 0.203427 0.876035
Si Si7 0.926486 0.425024 0.949874
Si Si8 0.381465 0.711179 0.486132
O O1 0.564394 0.992065 0.182771
O O2 0.562688 0.153218 0.977565
O O3 0.423248 0.987089 0.962237
O O4 0.609877 0.901863 0.930112
O O5 0.779977 0.109419 0.800757
O O6 0.864143 0.321982 0.857472
O O7 0.788219 0.270768 0.599417
O O8 0.669487 0.318187 0.833802
O O9 0.314580 0.442038 0.690947
O O10 0.491311 0.370612 0.562320
O O11 0.477053 0.492768 0.820742
O O12 0.439873 0.598585 0.567597
O O13 0.763233 0.714949 0.506461
O O14 0.655647 0.702083 0.747712
O O15 0.647580 0.515594 0.543101
O O16 0.290361 0.131806 0.815694
#
# Coordination Sequence:
#
# PCOD9340950 Si02
#       8
#     4   4   4   4   4   4   4   4
#     4  11  26  44  70 103 137 184 231 290 351 419
#     4  10  22  42  67  94 129 171 224 275 337 407
#     4  11  26  44  68 103 138 181 234 286 354 416
#     4  12  26  45  71 100 143 188 235 288 356 423
#     4  11  26  44  68 103 138 181 234 286 354 416
#     4  12  26  45  71 100 143 188 235 288 356 423
#     4  11  26  44  70 103 137 184 231 290 351 419
#     4  10  22  42  67  94 129 171 224 275 337 407
#
# _framework density 25.059387999999998
#
# number of rings (size 3 to 8) (size 9 to 14) (size 15 to 20)
#    0.000    1.000    5.000    0.000    7.000    3.000 
#    0.000    0.000    0.000    0.000    0.000    0.000 
#    0.000    0.000    0.000    0.000    0.000    0.000 
#
# Total GULP energy -179120.940497 kJ/mol
# GULP energy per Si atom -5597.529391 kJ/mol
# Density = 2.500235 g / cm^3
# Si number density = 25.059388 Si / 1000 Ang^3
#
#
#
# Elastic Constant Matrix: (Units=GPa)
#
#
# Indices 1 2 3 4 5 6 
#
# 1 56.6826 5.7754 11.5173 0.0000 0.0000 0.0000
# 2 5.7754 75.1173 15.6196 0.0000 0.0000 0.0000
# 3 11.5173 15.6196 100.5639 0.0000 0.0000 0.0000
# 4 0.0000 0.0000 0.0000 39.7609 0.0000 0.0000
# 5 0.0000 0.0000 0.0000 0.0000 44.4950 0.0000
# 6 0.0000 0.0000 0.0000 0.0000 0.0000 23.4424
#
#
#
# Elastic Compliance Matrix: (Units=1/GPa)
#
#
# Indices 1 2 3 4 5 6 
#
# 1 0.018134 -0.000995 -0.001922 0.000000 0.000000 0.000000
# 2 -0.000995 0.013811 -0.002031 0.000000 0.000000 0.000000
# 3 -0.001922 -0.002031 0.010480 0.000000 0.000000 0.000000
# 4 0.000000 0.000000 0.000000 0.025150 0.000000 0.000000
# 5 0.000000 0.000000 0.000000 0.000000 0.022474 0.000000
# 6 0.000000 0.000000 0.000000 0.000000 0.000000 0.042658
#
#
# Mechanical properties :
#
#
# Convention : Reuss Voigt Hill
#
# Bulk Modulus (GPa) = 30.74214 33.13205 31.93709
# Shear Modulus (GPa) = 32.58462 34.83643 33.71053
#
# Velocity S-wave (km/s) = 3.60987 3.73252 3.67171
# Velocity P-wave (km/s) = 5.44695 5.64143 5.54504
#
# Compressibility (1/GPa) = 0.03252864
#
# Stress axis : x y z
#
# Youngs Moduli (GPa) = 55.14494 72.40421 95.42361
#
# Poissons Ratio (x) = 0.07201 0.18344
# Poissons Ratio (y) = 0.05484 0.19383
# Poissons Ratio (z) = 0.10601 0.14707
#
# Static dielectric constant tensor:
#      x y z
#    x 1.970140 0.000000 0.000000 
#    y 0.000000 2.011890 0.000000 
#    z 0.000000 0.000000 1.932880 
# 
# From -- ./inp_files/1868.got.cif
#   From: 2010.05.17/outbox.cif.g08.bks.cpg/sg29_1_cif.got.tgz:1868.got - 2010.06.04 01:19:37.
