data_PCOD9340611
_publ_section_title
;
Structure prediction by ZEFSAII (Michael W. Deem and Ramdas Pophale) SiO2 
 PCOD9340611
Probable space group: P C A 21
;
_chemical_formula_sum "Si O2"
_cell_formula_units_Z 32
_cell_length_a 10.467165
_cell_length_b 13.717769
_cell_length_c 8.854407
_cell_angle_alpha 90.000000
_cell_angle_beta 90.000000
_cell_angle_gamma 90.000000
_cell_volume 1271.370225
_symmetry_space_group_name_H-M "P C A 21"
_symmetry_group_IT_number 29
_symmetry_cell_setting 'orthorhombic'
loop_
_space_group_symop_operation_xyz
x,y,z
-x,-y,1/2+z
1/2-x,y,1/2+z
1/2+x,-y,z
loop_
_atom_site_type_symbol
_atom_site_label
_atom_site_fract_x
_atom_site_fract_y
_atom_site_fract_z
Si Si1 0.587718 0.683403 0.381870
Si Si2 0.837787 0.246108 0.298755
Si Si3 0.640220 0.067844 0.633031
Si Si4 0.498057 0.488064 0.290163
Si Si5 0.251989 0.443303 0.594112
Si Si6 0.651248 0.363298 0.493728
Si Si7 0.622712 0.825907 0.128514
Si Si8 0.769269 0.942136 0.373796
O O1 0.471658 0.763982 0.393740
O O2 0.501147 0.585713 0.390080
O O3 0.704063 0.649343 0.490421
O O4 0.638069 0.723068 0.217669
O O5 0.780730 0.150027 0.221017
O O6 0.730243 0.284111 0.406551
O O7 0.865519 0.323251 0.162561
O O8 0.518822 0.134486 0.592703
O O9 0.707629 0.017508 0.492236
O O10 0.620132 0.988925 0.768385
O O11 0.615027 0.524087 0.178099
O O12 0.368092 0.459395 0.207988
O O13 0.529580 0.395420 0.396270
O O14 0.231252 0.537404 0.488086
O O15 0.671704 0.904346 0.249798
O O16 0.695251 0.848266 0.974028
#
# Coordination Sequence:
#
# PCOD9340611 Si02
#       8
#     4   4   4   4   4   4   4   4
#     4  10  23  37  61  89 126 165 211 261 315 371
#     4  11  21  40  61  94 124 160 211 265 320 374
#     4  10  21  39  65  92 124 161 204 262 317 387
#     4  11  22  41  62  91 125 173 216 263 319 379
#     4  11  23  41  65  87 130 168 219 260 321 376
#     4  11  21  37  62  87 125 162 206 261 316 371
#     4  10  22  39  64  89 129 161 206 262 309 387
#     4  10  21  40  64  91 121 164 207 248 331 375
#
# _framework density 25.169695000000001
#
# number of rings (size 3 to 8) (size 9 to 14) (size 15 to 20)
#    0.000    1.500    2.500    2.250    1.750    3.000 
#    0.000    0.000    2.750    0.000    0.000    0.000 
#    0.000    0.000    0.000    0.000    0.000    0.000 
#
# Total GULP energy -178160.170767 kJ/mol
# GULP energy per Si atom -5567.505336 kJ/mol
# Density = 2.511241 g / cm^3
# Si number density = 25.169695 Si / 1000 Ang^3
#
#
#
# Elastic Constant Matrix: (Units=GPa)
#
#
# Indices 1 2 3 4 5 6 
#
# 1 80.9770 -3.9720 45.5360 0.0000 0.0000 0.0000
# 2 -3.9720 49.1261 11.4756 0.0000 0.0000 0.0000
# 3 45.5360 11.4756 105.2654 0.0000 0.0000 0.0000
# 4 0.0000 0.0000 0.0000 42.3074 0.0000 0.0000
# 5 0.0000 0.0000 0.0000 0.0000 43.9891 0.0000
# 6 0.0000 0.0000 0.0000 0.0000 0.0000 25.9894
#
#
#
# Elastic Compliance Matrix: (Units=1/GPa)
#
#
# Indices 1 2 3 4 5 6 
#
# 1 0.016775 0.003131 -0.007598 0.000000 0.000000 0.000000
# 2 0.003131 0.021472 -0.003695 0.000000 0.000000 0.000000
# 3 -0.007598 -0.003695 0.013189 0.000000 0.000000 0.000000
# 4 0.000000 0.000000 0.000000 0.023637 0.000000 0.000000
# 5 0.000000 0.000000 0.000000 0.000000 0.022733 0.000000
# 6 0.000000 0.000000 0.000000 0.000000 0.000000 0.038477
#
#
# Mechanical properties :
#
#
# Convention : Reuss Voigt Hill
#
# Bulk Modulus (GPa) = 28.47980 37.93865 33.20923
# Shear Modulus (GPa) = 30.42984 34.61244 32.52114
#
# Velocity S-wave (km/s) = 3.48082 3.71234 3.59844
# Velocity P-wave (km/s) = 5.24352 5.78629 5.52158
#
# Compressibility (1/GPa) = 0.03511260
#
# Stress axis : x y z
#
# Youngs Moduli (GPa) = 59.61088 46.57198 75.81805
#
# Poissons Ratio (x) = -0.14583 0.57608
# Poissons Ratio (y) = -0.18665 0.28017
# Poissons Ratio (z) = 0.45293 0.17210
#
# Static dielectric constant tensor:
#      x y z
#    x 2.089670 0.000000 0.000000 
#    y 0.000000 2.130350 0.000000 
#    z 0.000000 0.000000 2.098110 
# 
# From -- ./inp_files/1548.got.cif
#   From: 2010.05.17/outbox.cif.g08.bks.cpg/sg29_1_cif.got.tgz:1548.got - 2010.06.04 01:19:37.
