data_PCOD9340858
_publ_section_title
;
Structure prediction by ZEFSAII (Michael W. Deem and Ramdas Pophale) SiO2 
 PCOD9340858
Probable space group: P C A 21
;
_chemical_formula_sum "Si O2"
_cell_formula_units_Z 28
_cell_length_a 12.171014
_cell_length_b 5.209559
_cell_length_c 18.696952
_cell_angle_alpha 90.000000
_cell_angle_beta 90.000000
_cell_angle_gamma 90.000000
_cell_volume 1185.491750
_symmetry_space_group_name_H-M "P C A 21"
_symmetry_group_IT_number 29
_symmetry_cell_setting 'orthorhombic'
loop_
_space_group_symop_operation_xyz
x,y,z
-x,-y,1/2+z
1/2-x,y,1/2+z
1/2+x,-y,z
loop_
_atom_site_type_symbol
_atom_site_label
_atom_site_fract_x
_atom_site_fract_y
_atom_site_fract_z
Si Si1 0.723400 0.136287 0.610560
Si Si2 0.654121 0.548407 0.054046
Si Si3 0.701139 0.730962 0.817307
Si Si4 0.389174 0.747712 0.251278
Si Si5 0.626904 0.740212 0.199001
Si Si6 0.549595 0.162814 0.490767
Si Si7 0.661150 0.672475 0.455746
O O1 0.807826 0.252225 0.551027
O O2 0.678985 0.306568 0.677992
O O3 0.611029 0.108628 0.566123
O O4 0.794280 0.931118 0.654450
O O5 0.607752 0.541046 0.135092
O O6 0.564358 0.698376 0.008690
O O7 0.771376 0.674124 0.031172
O O8 0.613035 0.510227 0.798651
O O9 0.805299 0.657595 0.767782
O O10 0.747371 0.726285 0.896675
O O11 0.662218 0.012971 0.793961
O O12 0.510108 0.832306 0.226801
O O13 0.614452 0.386181 0.448601
O O14 0.566008 0.887987 0.453036
#
# Coordination Sequence:
#
# PCOD9340858 Si02
#       7
#     4   4   4   4   4   4   4
#     4  10  22  40  62 100 132 162 218 284 336 388
#     4  11  23  40  69  96 135 169 226 279 334 391
#     4  11  26  45  64  97 139 177 222 272 331 405
#     4  11  24  40  70  94 129 176 221 272 338 394
#     4  11  23  40  69  96 135 169 226 279 334 391
#     4  11  24  40  70  94 129 176 221 272 338 394
#     4  11  26  45  64  97 139 177 222 272 331 405
#
# _framework density 23.618891000000001
#
# number of rings (size 3 to 8) (size 9 to 14) (size 15 to 20)
#    0.000    1.143    4.286    0.857    4.000    2.286 
#    0.000    0.000    0.000    0.000    0.000    0.000 
#    0.000    0.000    0.000    0.000    0.000    0.000 
#
# Total GULP energy -155956.685165 kJ/mol
# GULP energy per Si atom -5569.881613 kJ/mol
# Density = 2.356513 g / cm^3
# Si number density = 23.618891 Si / 1000 Ang^3
#
#
#
# Elastic Constant Matrix: (Units=GPa)
#
#
# Indices 1 2 3 4 5 6 
#
# 1 48.5778 -10.5523 6.2176 0.0000 0.0000 0.0000
# 2 -10.5523 74.2923 14.5273 0.0000 0.0000 0.0000
# 3 6.2176 14.5273 65.7720 0.0000 0.0000 0.0000
# 4 0.0000 0.0000 0.0000 21.9809 0.0000 0.0000
# 5 0.0000 0.0000 0.0000 0.0000 21.7754 0.0000
# 6 0.0000 0.0000 0.0000 0.0000 0.0000 14.9561
#
#
#
# Elastic Compliance Matrix: (Units=1/GPa)
#
#
# Indices 1 2 3 4 5 6 
#
# 1 0.021744 0.003648 -0.002861 0.000000 0.000000 0.000000
# 2 0.003648 0.014680 -0.003587 0.000000 0.000000 0.000000
# 3 -0.002861 -0.003587 0.016267 0.000000 0.000000 0.000000
# 4 0.000000 0.000000 0.000000 0.045494 0.000000 0.000000
# 5 0.000000 0.000000 0.000000 0.000000 0.045923 0.000000
# 6 0.000000 0.000000 0.000000 0.000000 0.000000 0.066862
#
#
# Mechanical properties :
#
#
# Convention : Reuss Voigt Hill
#
# Bulk Modulus (GPa) = 21.23599 23.22527 22.23063
# Shear Modulus (GPa) = 21.52680 23.63911 22.58295
#
# Velocity S-wave (km/s) = 3.02225 3.16706 3.09550
# Velocity P-wave (km/s) = 4.60318 4.81959 4.71263
#
# Compressibility (1/GPa) = 0.04708987
#
# Stress axis : x y z
#
# Youngs Moduli (GPa) = 45.98929 68.12011 61.47473
#
# Poissons Ratio (x) = -0.24850 0.17590
# Poissons Ratio (y) = -0.16777 0.22053
# Poissons Ratio (z) = 0.13159 0.24436
#
# Static dielectric constant tensor:
#      x y z
#    x 1.948160 0.000000 0.000000 
#    y 0.000000 2.082430 0.000000 
#    z 0.000000 0.000000 1.978790 
# 
# From -- ./inp_files/5111.got.cif
#   From: 2010.05.17/outbox.cif.g08.bks.cpg/sg29_3_cif.got.tgz:5111.got - 2010.06.04 01:19:37.
