data_PCOD9340842
_publ_section_title
;
Structure prediction by ZEFSAII (Michael W. Deem and Ramdas Pophale) SiO2 
 PCOD9340842
Probable space group: P C A 21
;
_chemical_formula_sum "Si O2"
_cell_formula_units_Z 32
_cell_length_a 12.353539
_cell_length_b 22.348550
_cell_length_c 4.932337
_cell_angle_alpha 90.000000
_cell_angle_beta 90.000000
_cell_angle_gamma 90.000000
_cell_volume 1361.737770
_symmetry_space_group_name_H-M "P C A 21"
_symmetry_group_IT_number 29
_symmetry_cell_setting 'orthorhombic'
loop_
_space_group_symop_operation_xyz
x,y,z
-x,-y,1/2+z
1/2-x,y,1/2+z
1/2+x,-y,z
loop_
_atom_site_type_symbol
_atom_site_label
_atom_site_fract_x
_atom_site_fract_y
_atom_site_fract_z
Si Si1 0.675176 0.634020 0.022430
Si Si2 0.686766 0.080497 0.337660
Si Si3 0.500426 0.849900 0.146974
Si Si4 0.562432 0.973252 0.347389
Si Si5 0.001268 0.539473 0.625910
Si Si6 0.673501 0.235531 0.905208
Si Si7 0.674873 0.765678 0.888390
Si Si8 0.321197 0.624895 0.391569
O O1 0.721744 0.630036 0.324843
O O2 0.628438 0.699485 0.951807
O O3 0.589531 0.581732 0.993138
O O4 0.787640 0.096100 0.530128
O O5 0.583892 0.114814 0.454663
O O6 0.671407 0.009791 0.397766
O O7 0.560878 0.902620 0.312094
O O8 0.429171 0.804255 0.325188
O O9 0.587087 0.814054 0.970915
O O10 0.480542 0.993725 0.578973
O O11 0.089224 0.580778 0.775857
O O12 0.955124 0.499470 0.873919
O O13 0.774753 0.225345 0.700185
O O14 0.644220 0.305613 0.869990
O O15 0.779979 0.770719 0.085140
O O16 0.283914 0.616057 0.699823
#
# Coordination Sequence:
#
# PCOD9340842 Si02
#       8
#     4   4   4   4   4   4   4   4
#     4  10  22  43  64  87 124 165 204 255 311 362
#     4  11  23  40  62  91 125 161 199 243 301 372
#     4  11  23  41  67  93 126 159 206 262 309 360
#     4  10  23  40  58  84 120 165 202 241 299 357
#     4  12  25  38  61  94 121 160 213 254 301 363
#     4  10  22  39  63  95 124 159 200 247 312 380
#     4  10  24  42  64  92 121 161 211 257 308 364
#     4  10  22  41  61  86 127 164 197 249 313 370
#
# _framework density 23.499382000000001
#
# number of rings (size 3 to 8) (size 9 to 14) (size 15 to 20)
#    0.000    1.500    0.000    4.500    0.000   10.000 
#    0.000    7.500    0.000    0.000    0.000    0.000 
#    0.000    0.000    0.000    0.000    0.000    0.000 
#
# Total GULP energy -179147.163741 kJ/mol
# GULP energy per Si atom -5598.348867 kJ/mol
# Density = 2.344590 g / cm^3
# Si number density = 23.499382 Si / 1000 Ang^3
#
#
#
# Elastic Constant Matrix: (Units=GPa)
#
#
# Indices 1 2 3 4 5 6 
#
# 1 40.9868 43.7841 -19.9223 0.0000 0.0000 0.0000
# 2 43.7841 141.0862 -20.3098 0.0000 0.0000 0.0000
# 3 -19.9223 -20.3098 105.1658 0.0000 0.0000 0.0000
# 4 0.0000 0.0000 0.0000 19.0208 0.0000 0.0000
# 5 0.0000 0.0000 0.0000 0.0000 16.1264 0.0000
# 6 0.0000 0.0000 0.0000 0.0000 0.0000 47.6469
#
#
#
# Elastic Compliance Matrix: (Units=1/GPa)
#
#
# Indices 1 2 3 4 5 6 
#
# 1 0.039086 -0.011380 0.005207 0.000000 0.000000 0.000000
# 2 -0.011380 0.010604 -0.000108 0.000000 0.000000 0.000000
# 3 0.005207 -0.000108 0.010474 0.000000 0.000000 0.000000
# 4 0.000000 0.000000 0.000000 0.052574 0.000000 0.000000
# 5 0.000000 0.000000 0.000000 0.000000 0.062010 0.000000
# 6 0.000000 0.000000 0.000000 0.000000 0.000000 0.020988
#
#
# Mechanical properties :
#
#
# Convention : Reuss Voigt Hill
#
# Bulk Modulus (GPa) = 21.00809 32.70475 26.85642
# Shear Modulus (GPa) = 22.30491 35.47128 28.88810
#
# Velocity S-wave (km/s) = 3.08420 3.88939 3.50996
# Velocity P-wave (km/s) = 4.65213 5.84100 5.28013
#
# Compressibility (1/GPa) = 0.04760070
#
# Stress axis : x y z
#
# Youngs Moduli (GPa) = 25.58481 94.30407 95.47221
#
# Poissons Ratio (x) = 1.07320 -0.49708
# Poissons Ratio (y) = 0.29116 0.01031
# Poissons Ratio (z) = -0.13321 0.01018
#
# Static dielectric constant tensor:
#      x y z
#    x 1.864560 0.000000 0.000000 
#    y 0.000000 1.944210 0.000000 
#    z 0.000000 0.000000 1.857130 
# 
# From -- ./inp_files/120.got.cif
#   From: 2010.05.17/outbox.cif.g08.bks.cpg/sg29_1_cif.got.tgz:120.got - 2010.06.04 01:19:37.
