data_PCOD9340072
_publ_section_title
;
Structure prediction by ZEFSAII (Michael W. Deem and Ramdas Pophale) SiO2 
 PCOD9340072
Probable space group: P C A 21
;
_chemical_formula_sum "Si O2"
_cell_formula_units_Z 24
_cell_length_a 6.963971
_cell_length_b 14.106853
_cell_length_c 9.415954
_cell_angle_alpha 90.000000
_cell_angle_beta 90.000000
_cell_angle_gamma 90.000000
_cell_volume 925.020639
_symmetry_space_group_name_H-M "P C A 21"
_symmetry_group_IT_number 29
_symmetry_cell_setting 'orthorhombic'
loop_
_space_group_symop_operation_xyz
x,y,z
-x,-y,1/2+z
1/2-x,y,1/2+z
1/2+x,-y,z
loop_
_atom_site_type_symbol
_atom_site_label
_atom_site_fract_x
_atom_site_fract_y
_atom_site_fract_z
Si Si1 0.076796 0.781120 0.366950
Si Si2 0.605050 0.083365 0.138622
Si Si3 0.052247 0.135148 0.123554
Si Si4 0.140367 0.595223 0.217390
Si Si5 0.012422 0.575682 0.898834
Si Si6 0.461030 0.222058 0.919136
O O1 0.054637 0.885403 0.297940
O O2 0.933342 0.787674 0.499016
O O3 0.043398 0.696374 0.254634
O O4 0.301560 0.766125 0.408906
O O5 0.820319 0.122490 0.127641
O O6 0.615745 0.973101 0.107250
O O7 0.457480 0.141955 0.040551
O O8 0.112185 0.176522 0.273950
O O9 0.362371 0.604315 0.259154
O O10 0.078950 0.519748 0.338325
O O11 0.107674 0.562668 0.055694
O O12 0.889953 0.670120 0.928949
#
# Coordination Sequence:
#
# PCOD9340072 Si02
#       6
#     4   4   4   4   4   4
#     4   9  19  34  57  80 109 148 195 230 281 350
#     4  10  18  36  51  82 108 146 189 234 281 340
#     4  10  20  32  57  78 110 146 189 236 283 342
#     4  11  23  40  64  90 120 155 200 248 299 357
#     4  11  23  40  64  90 120 155 200 248 299 357
#     4   9  19  34  57  80 109 148 195 230 281 350
#
# _framework density 25.945367000000001
#
# number of rings (size 3 to 8) (size 9 to 14) (size 15 to 20)
#    0.000    2.000    1.667    2.000    9.333    0.000 
#    0.000    3.333    0.000    0.000    0.000    0.000 
#    0.000    0.000    0.000    0.000    0.000    0.000 
#
# Total GULP energy -133961.663439 kJ/mol
# GULP energy per Si atom -5581.735977 kJ/mol
# Density = 2.588631 g / cm^3
# Si number density = 25.945367 Si / 1000 Ang^3
#
#
#
# Elastic Constant Matrix: (Units=GPa)
#
#
# Indices 1 2 3 4 5 6 
#
# 1 32.5966 4.6192 -11.2651 0.0000 0.0000 0.0000
# 2 4.6192 135.7332 35.3662 0.0000 0.0000 0.0000
# 3 -11.2651 35.3662 99.1570 0.0000 0.0000 0.0000
# 4 0.0000 0.0000 0.0000 27.2214 0.0000 0.0000
# 5 0.0000 0.0000 0.0000 0.0000 20.3875 0.0000
# 6 0.0000 0.0000 0.0000 0.0000 0.0000 35.3374
#
#
#
# Elastic Compliance Matrix: (Units=1/GPa)
#
#
# Indices 1 2 3 4 5 6 
#
# 1 0.032562 -0.002284 0.004514 0.000000 0.000000 0.000000
# 2 -0.002284 0.008282 -0.003214 0.000000 0.000000 0.000000
# 3 0.004514 -0.003214 0.011744 0.000000 0.000000 0.000000
# 4 0.000000 0.000000 0.000000 0.036736 0.000000 0.000000
# 5 0.000000 0.000000 0.000000 0.000000 0.049050 0.000000
# 6 0.000000 0.000000 0.000000 0.000000 0.000000 0.028299
#
#
# Mechanical properties :
#
#
# Convention : Reuss Voigt Hill
#
# Bulk Modulus (GPa) = 19.75481 36.10302 27.92891
# Shear Modulus (GPa) = 26.95220 32.50703 29.72962
#
# Velocity S-wave (km/s) = 3.22655 3.54348 3.38872
# Velocity P-wave (km/s) = 4.63803 5.53957 5.10873
#
# Compressibility (1/GPa) = 0.05062059
#
# Stress axis : x y z
#
# Youngs Moduli (GPa) = 30.71084 120.73707 85.14953
#
# Poissons Ratio (x) = 0.27580 -0.38437
# Poissons Ratio (y) = 0.07015 0.27364
# Poissons Ratio (z) = -0.13863 0.38800
#
# Static dielectric constant tensor:
#      x y z
#    x 2.214090 0.000000 0.000000 
#    y 0.000000 2.015780 0.000000 
#    z 0.000000 0.000000 2.126130 
# 
# From -- ./inp_files/1163.got.cif
#   From: 2010.05.17/outbox.cif.g08.bks.cpg/sg29_1_cif.got.tgz:1163.got - 2010.06.04 01:19:37.
