data_PCOD9340063
_publ_section_title
;
Structure prediction by ZEFSAII (Michael W. Deem and Ramdas Pophale) SiO2 
 PCOD9340063
Probable space group: P C A 21
;
_chemical_formula_sum "Si O2"
_cell_formula_units_Z 28
_cell_length_a 26.639378
_cell_length_b 5.288596
_cell_length_c 7.911112
_cell_angle_alpha 90.000000
_cell_angle_beta 90.000000
_cell_angle_gamma 90.000000
_cell_volume 1114.556286
_symmetry_space_group_name_H-M "P C A 21"
_symmetry_group_IT_number 29
_symmetry_cell_setting 'orthorhombic'
loop_
_space_group_symop_operation_xyz
x,y,z
-x,-y,1/2+z
1/2-x,y,1/2+z
1/2+x,-y,z
loop_
_atom_site_type_symbol
_atom_site_label
_atom_site_fract_x
_atom_site_fract_y
_atom_site_fract_z
Si Si1 0.984989 0.247242 0.449280
Si Si2 0.756810 0.320592 0.221904
Si Si3 0.676204 0.177229 0.478406
Si Si4 0.752569 0.821313 0.531047
Si Si5 0.355569 0.281347 0.454452
Si Si6 0.886109 0.219279 0.655403
Si Si7 0.047377 0.254967 0.750422
O O1 0.944187 0.252893 0.602660
O O2 0.976480 0.494156 0.335401
O O3 0.036967 0.245762 0.550969
O O4 0.974660 0.997537 0.339296
O O5 0.816085 0.272906 0.172953
O O6 0.742181 0.586033 0.149674
O O7 0.733149 0.069843 0.138387
O O8 0.725911 0.311973 0.395728
O O9 0.695739 0.886720 0.477461
O O10 0.630635 0.228327 0.352611
O O11 0.798631 0.781722 0.402862
O O12 0.360465 0.549870 0.550932
O O13 0.394271 0.267981 0.300524
O O14 0.372179 0.056205 0.581312
#
# Coordination Sequence:
#
# PCOD9340063 Si02
#       7
#     4   4   4   4   4   4   4
#     4  10  21  38  61  91 115 155 191 244 298 355
#     4  10  22  30  54  72 109 135 183 223 278 315
#     4  10  21  34  53  77 106 145 180 236 267 328
#     4  10  20  32  53  76 104 140 182 231 262 321
#     4  10  18  35  55  82 104 150 193 226 269 356
#     4  10  19  32  58  79 109 142 198 225 275 345
#     4  10  21  37  64  87 119 151 195 241 299 352
#
# _framework density 25.122104
#
# number of rings (size 3 to 8) (size 9 to 14) (size 15 to 20)
#    0.857    1.143    2.857    0.857    4.000    0.000 
#    0.000    1.429    3.143    0.000    0.000    0.000 
#    0.000    0.000    0.000    0.000    0.000    0.000 
#
# Total GULP energy -156115.352007 kJ/mol
# GULP energy per Si atom -5575.548286 kJ/mol
# Density = 2.506493 g / cm^3
# Si number density = 25.122104 Si / 1000 Ang^3
#
#
#
# Elastic Constant Matrix: (Units=GPa)
#
#
# Indices 1 2 3 4 5 6 
#
# 1 33.2997 19.8091 8.3268 0.0000 0.0000 0.0000
# 2 19.8091 176.8203 33.9266 0.0000 0.0000 0.0000
# 3 8.3268 33.9266 39.9753 0.0000 0.0000 0.0000
# 4 0.0000 0.0000 0.0000 25.1507 0.0000 0.0000
# 5 0.0000 0.0000 0.0000 0.0000 47.8835 0.0000
# 6 0.0000 0.0000 0.0000 0.0000 0.0000 14.5101
#
#
#
# Elastic Compliance Matrix: (Units=1/GPa)
#
#
# Indices 1 2 3 4 5 6 
#
# 1 0.032821 -0.002825 -0.004439 0.000000 0.000000 0.000000
# 2 -0.002825 0.006999 -0.005351 0.000000 0.000000 0.000000
# 3 -0.004439 -0.005351 0.030482 0.000000 0.000000 0.000000
# 4 0.000000 0.000000 0.000000 0.039760 0.000000 0.000000
# 5 0.000000 0.000000 0.000000 0.000000 0.020884 0.000000
# 6 0.000000 0.000000 0.000000 0.000000 0.000000 0.068918
#
#
# Mechanical properties :
#
#
# Convention : Reuss Voigt Hill
#
# Bulk Modulus (GPa) = 22.18738 41.58003 31.88371
# Shear Modulus (GPa) = 20.82316 30.04437 25.43376
#
# Velocity S-wave (km/s) = 2.88215 3.46198 3.18528
# Velocity P-wave (km/s) = 4.46393 5.70679 5.12319
#
# Compressibility (1/GPa) = 0.04507066
#
# Stress axis : x y z
#
# Youngs Moduli (GPa) = 30.46840 142.88333 32.80671
#
# Poissons Ratio (x) = 0.40368 0.14562
# Poissons Ratio (y) = 0.08608 0.17556
# Poissons Ratio (z) = 0.13524 0.76460
#
# Static dielectric constant tensor:
#      x y z
#    x 2.090960 0.000000 0.000000 
#    y 0.000000 1.963430 0.000000 
#    z 0.000000 0.000000 2.140290 
# 
# From -- ./inp_files/2522.got.cif
#   From: 2010.05.17/outbox.cif.g08.bks.cpg/sg29_2_cif.got.tgz:2522.got - 2010.06.04 01:19:37.
