data_PCOD9340864
_publ_section_title
;
Structure prediction by ZEFSAII (Michael W. Deem and Ramdas Pophale) SiO2 
 PCOD9340864
Probable space group: P C A 21
;
_chemical_formula_sum "Si O2"
_cell_formula_units_Z 32
_cell_length_a 7.896784
_cell_length_b 11.476949
_cell_length_c 15.392475
_cell_angle_alpha 90.000000
_cell_angle_beta 90.000000
_cell_angle_gamma 90.000000
_cell_volume 1395.035205
_symmetry_space_group_name_H-M "P C A 21"
_symmetry_group_IT_number 29
_symmetry_cell_setting 'orthorhombic'
loop_
_space_group_symop_operation_xyz
x,y,z
-x,-y,1/2+z
1/2-x,y,1/2+z
1/2+x,-y,z
loop_
_atom_site_type_symbol
_atom_site_label
_atom_site_fract_x
_atom_site_fract_y
_atom_site_fract_z
Si Si1 0.739337 0.243878 0.539750
Si Si2 0.224696 0.170337 0.417067
Si Si3 0.653521 0.682741 0.072514
Si Si4 0.424350 0.321239 0.762658
Si Si5 0.397141 0.921558 0.892003
Si Si6 0.952094 0.420755 0.825421
Si Si7 0.183221 0.537286 0.964993
Si Si8 0.202236 0.784497 0.233596
O O1 0.552006 0.304191 0.556307
O O2 0.707092 0.149283 0.465294
O O3 0.873853 0.344906 0.513175
O O4 0.797176 0.190729 0.631483
O O5 0.251108 0.226926 0.510964
O O6 0.155505 0.262298 0.347223
O O7 0.412439 0.126620 0.391913
O O8 0.107961 0.056973 0.414296
O O9 0.673756 0.706021 0.174043
O O10 0.715333 0.554817 0.041616
O O11 0.424607 0.460711 0.772648
O O12 0.616263 0.275721 0.753381
O O13 0.320260 0.893377 0.797462
O O14 0.813274 0.401460 0.899731
O O15 0.938460 0.310996 0.762886
O O16 0.099237 0.454480 0.892438
#
# Coordination Sequence:
#
# PCOD9340864 Si02
#       8
#     4   4   4   4   4   4   4   4
#     4  10  22  41  64  91 127 168 210 261 314 377
#     4  11  24  43  67  88 121 165 211 268 324 380
#     4  10  22  40  62  92 129 166 210 260 315 376
#     4  11  23  40  63  94 128 168 211 260 316 379
#     4  11  23  44  65  89 120 163 211 266 324 381
#     4  12  21  36  65  90 132 170 204 250 309 373
#     4  12  20  39  62  92 130 171 205 249 310 370
#     4  11  23  41  64  94 129 167 212 262 316 378
#
# _framework density 22.938489000000001
#
# number of rings (size 3 to 8) (size 9 to 14) (size 15 to 20)
#    0.000    1.000    5.000    2.250    0.000    1.000 
#    2.250    2.500    0.000    0.000    0.000    0.000 
#    0.000    0.000    0.000    0.000    0.000    0.000 
#
# Total GULP energy -178663.016343 kJ/mol
# GULP energy per Si atom -5583.219261 kJ/mol
# Density = 2.288628 g / cm^3
# Si number density = 22.938489 Si / 1000 Ang^3
#
#
#
# Elastic Constant Matrix: (Units=GPa)
#
#
# Indices 1 2 3 4 5 6 
#
# 1 38.8890 4.9943 38.4407 0.0000 0.0000 0.0000
# 2 4.9943 57.4191 -25.5598 0.0000 0.0000 0.0000
# 3 38.4407 -25.5598 -13.0517 0.0000 0.0000 0.0000
# 4 0.0000 0.0000 0.0000 8.9704 0.0000 0.0000
# 5 0.0000 0.0000 0.0000 0.0000 -4.5795 0.0000
# 6 0.0000 0.0000 0.0000 0.0000 0.0000 -1.0056
#
#
#
# Elastic Compliance Matrix: (Units=1/GPa)
#
#
# Indices 1 2 3 4 5 6 
#
# 1 0.009421 0.006161 0.015682 0.000000 0.000000 0.000000
# 2 0.006161 0.013334 -0.007966 0.000000 0.000000 0.000000
# 3 0.015682 -0.007966 -0.014830 0.000000 0.000000 0.000000
# 4 0.000000 0.000000 0.000000 0.111478 0.000000 0.000000
# 5 0.000000 0.000000 0.000000 0.000000 -0.218366 0.000000
# 6 0.000000 0.000000 0.000000 0.000000 0.000000 -0.994410
#
#
# Mechanical properties :
#
#
# Convention : Reuss Voigt Hill
#
# Bulk Modulus (GPa) = 28.02589 13.22298 20.62443
# Shear Modulus (GPa) = -4.50761 5.03580 0.26410
#
# Velocity S-wave (km/s) = -1.40334 1.48328 0.33968
# Velocity P-wave (km/s) = 3.10138 2.95136 3.02730
#
# Compressibility (1/GPa) = 0.03568129
#
# Stress axis : x y z
#
# Youngs Moduli (GPa) = 106.14137 74.99611 -67.42965
#
# Poissons Ratio (x) = -0.46208 1.05745
# Poissons Ratio (y) = -0.65398 -0.53712
# Poissons Ratio (z) = -1.66454 0.59739
#
# Static dielectric constant tensor:
#      x y z
#    x 2.101060 0.000000 0.000000 
#    y 0.000000 1.857460 0.000000 
#    z 0.000000 0.000000 1.843110 
# 
# From -- ./inp_files/4348.got.cif
#   From: 2010.05.17/outbox.cif.g08.bks.cpg/sg29_3_cif.got.tgz:4348.got - 2010.06.04 01:19:37.
