data_PCOD9340533
_publ_section_title
;
Structure prediction by ZEFSAII (Michael W. Deem and Ramdas Pophale) SiO2 
 PCOD9340533
Probable space group: P C A 21
;
_chemical_formula_sum "Si O2"
_cell_formula_units_Z 28
_cell_length_a 12.480569
_cell_length_b 9.855568
_cell_length_c 9.086779
_cell_angle_alpha 90.000000
_cell_angle_beta 90.000000
_cell_angle_gamma 90.000000
_cell_volume 1117.701954
_symmetry_space_group_name_H-M "P C A 21"
_symmetry_group_IT_number 29
_symmetry_cell_setting 'orthorhombic'
loop_
_space_group_symop_operation_xyz
x,y,z
-x,-y,1/2+z
1/2-x,y,1/2+z
1/2+x,-y,z
loop_
_atom_site_type_symbol
_atom_site_label
_atom_site_fract_x
_atom_site_fract_y
_atom_site_fract_z
Si Si1 0.961210 0.303438 0.244680
Si Si2 0.449811 0.292340 0.447129
Si Si3 0.202053 0.898968 0.839546
Si Si4 0.809497 0.474704 0.459813
Si Si5 0.642891 0.346111 0.276160
Si Si6 0.876355 0.898061 0.850243
Si Si7 0.537598 0.012060 0.063841
O O1 0.882414 0.171110 0.228269
O O2 0.896602 0.402232 0.351386
O O3 0.074685 0.247902 0.307525
O O4 0.985210 0.359283 0.084322
O O5 0.337399 0.367081 0.455393
O O6 0.517551 0.322144 0.301316
O O7 0.446954 0.135793 0.490604
O O8 0.298308 0.791863 0.829747
O O9 0.256250 0.047326 0.827047
O O10 0.132625 0.898949 0.989898
O O11 0.694143 0.451596 0.390378
O O12 0.824199 0.401841 0.616805
O O13 0.940656 0.994148 0.734291
O O14 0.924202 0.929940 0.010665
#
# Coordination Sequence:
#
# PCOD9340533 Si02
#       7
#     4   4   4   4   4   4   4
#     4   9  22  40  64  94 126 171 216 267 324 390
#     4  11  22  44  64  95 131 167 221 274 323 383
#     4  10  21  36  64  92 126 162 215 256 329 395
#     4  11  24  43  66  94 127 174 226 263 321 395
#     4  11  23  39  71  89 124 173 219 268 327 395
#     4  10  21  38  63  91 133 158 211 265 328 389
#     4  10  23  38  62  97 125 167 206 273 324 387
#
# _framework density 25.051403000000001
#
# number of rings (size 3 to 8) (size 9 to 14) (size 15 to 20)
#    0.000    1.714    1.429    2.571    8.000    1.143 
#    7.714    0.000    0.000    0.000    0.000    0.000 
#    0.000    0.000    0.000    0.000    0.000    0.000 
#
# Total GULP energy -156331.647414 kJ/mol
# GULP energy per Si atom -5583.273122 kJ/mol
# Density = 2.499439 g / cm^3
# Si number density = 25.051403 Si / 1000 Ang^3
#
#
#
# Elastic Constant Matrix: (Units=GPa)
#
#
# Indices 1 2 3 4 5 6 
#
# 1 63.8666 19.6739 -13.6283 0.0000 0.0000 0.0000
# 2 19.6739 68.9471 -17.7299 0.0000 0.0000 0.0000
# 3 -13.6283 -17.7299 65.5201 0.0000 0.0000 0.0000
# 4 0.0000 0.0000 0.0000 12.3698 0.0000 0.0000
# 5 0.0000 0.0000 0.0000 0.0000 25.3937 0.0000
# 6 0.0000 0.0000 0.0000 0.0000 0.0000 54.4293
#
#
#
# Elastic Compliance Matrix: (Units=1/GPa)
#
#
# Indices 1 2 3 4 5 6 
#
# 1 0.017529 -0.004368 0.002464 0.000000 0.000000 0.000000
# 2 -0.004368 0.016677 0.003604 0.000000 0.000000 0.000000
# 3 0.002464 0.003604 0.016750 0.000000 0.000000 0.000000
# 4 0.000000 0.000000 0.000000 0.080842 0.000000 0.000000
# 5 0.000000 0.000000 0.000000 0.000000 0.039380 0.000000
# 6 0.000000 0.000000 0.000000 0.000000 0.000000 0.018372
#
#
# Mechanical properties :
#
#
# Convention : Reuss Voigt Hill
#
# Bulk Modulus (GPa) = 18.39700 19.44058 18.91879
# Shear Modulus (GPa) = 24.47743 32.43976 28.45859
#
# Velocity S-wave (km/s) = 3.12923 3.60241 3.37413
# Velocity P-wave (km/s) = 4.51838 5.00802 4.76949
#
# Compressibility (1/GPa) = 0.05435669
#
# Stress axis : x y z
#
# Youngs Moduli (GPa) = 57.04813 59.96217 59.70026
#
# Poissons Ratio (x) = 0.26193 -0.14710
# Poissons Ratio (y) = 0.24920 -0.21518
# Poissons Ratio (z) = -0.14057 -0.21612
#
# Static dielectric constant tensor:
#      x y z
#    x 2.038350 0.000000 0.000000 
#    y 0.000000 2.068930 0.000000 
#    z 0.000000 0.000000 1.984850 
# 
# From -- ./inp_files/1467.got.cif
#   From: 2010.05.17/outbox.cif.g08.bks.cpg/sg29_1_cif.got.tgz:1467.got - 2010.06.04 01:19:37.
