data_PCOD9340812
_publ_section_title
;
Structure prediction by ZEFSAII (Michael W. Deem and Ramdas Pophale) SiO2 
 PCOD9340812
Probable space group: P C A 21
;
_chemical_formula_sum "Si O2"
_cell_formula_units_Z 28
_cell_length_a 8.097143
_cell_length_b 4.643436
_cell_length_c 26.082175
_cell_angle_alpha 90.000000
_cell_angle_beta 90.000000
_cell_angle_gamma 90.000000
_cell_volume 980.652360
_symmetry_space_group_name_H-M "P C A 21"
_symmetry_group_IT_number 29
_symmetry_cell_setting 'orthorhombic'
loop_
_space_group_symop_operation_xyz
x,y,z
-x,-y,1/2+z
1/2-x,y,1/2+z
1/2+x,-y,z
loop_
_atom_site_type_symbol
_atom_site_label
_atom_site_fract_x
_atom_site_fract_y
_atom_site_fract_z
Si Si1 0.782285 0.706012 0.256010
Si Si2 0.449220 0.679152 0.828539
Si Si3 0.831070 0.250828 0.397526
Si Si4 0.772608 0.744261 0.538456
Si Si5 0.766871 0.244576 0.613393
Si Si6 0.054917 0.851041 0.467964
Si Si7 0.984307 0.667467 0.682786
O O1 0.660484 0.532405 0.293520
O O2 0.893221 0.488643 0.222548
O O3 0.655797 0.840485 0.214554
O O4 0.922506 0.848443 0.292079
O O5 0.306222 0.859577 0.856693
O O6 0.558028 0.486331 0.868261
O O7 0.699968 0.336248 0.442095
O O8 0.946776 0.020161 0.425183
O O9 0.712432 0.470813 0.569601
O O10 0.927129 0.677487 0.502206
O O11 0.828545 0.971792 0.582087
O O12 0.640785 0.911643 0.503829
O O13 0.608601 0.159145 0.647003
O O14 0.893633 0.423395 0.648732
#
# Coordination Sequence:
#
# PCOD9340812 Si02
#       7
#     4   4   4   4   4   4   4
#     4   8  16  33  61  95 126 169 218 284 340 407
#     4   9  18  36  67  92 124 176 231 278 346 413
#     4  10  22  38  60  91 122 175 226 284 341 412
#     4  11  24  42  64  96 136 182 229 288 346 410
#     4  11  22  39  65  94 134 180 229 282 345 417
#     4  10  24  40  58  90 138 178 234 288 348 410
#     4   9  18  34  61  90 128 174 225 278 344 411
#
# _framework density 28.552422
#
# number of rings (size 3 to 8) (size 9 to 14) (size 15 to 20)
#    0.000    2.286    0.000    1.714    0.000    9.143 
#    0.000    0.000    0.000   96.000    0.000    0.000 
#    0.000    0.000    0.000    0.000    0.000    0.000 
#
# Total GULP energy -156928.524309 kJ/mol
# GULP energy per Si atom -5604.590154 kJ/mol
# Density = 2.848744 g / cm^3
# Si number density = 28.552422 Si / 1000 Ang^3
#
#
#
# Elastic Constant Matrix: (Units=GPa)
#
#
# Indices 1 2 3 4 5 6 
#
# 1 203.3132 43.0121 121.8327 0.0000 0.0000 0.0000
# 2 43.0121 62.2262 65.7349 0.0000 0.0000 0.0000
# 3 121.8327 65.7349 155.0851 0.0000 0.0000 0.0000
# 4 0.0000 0.0000 0.0000 8.4620 0.0000 0.0000
# 5 0.0000 0.0000 0.0000 0.0000 120.3241 0.0000
# 6 0.0000 0.0000 0.0000 0.0000 0.0000 -100.5815
#
#
#
# Elastic Compliance Matrix: (Units=1/GPa)
#
#
# Indices 1 2 3 4 5 6 
#
# 1 0.009484 0.002381 -0.008460 0.000000 0.000000 0.000000
# 2 0.002381 0.029699 -0.014459 0.000000 0.000000 0.000000
# 3 -0.008460 -0.014459 0.019223 0.000000 0.000000 0.000000
# 4 0.000000 0.000000 0.000000 0.118175 0.000000 0.000000
# 5 0.000000 0.000000 0.000000 0.000000 0.008311 0.000000
# 6 0.000000 0.000000 0.000000 0.000000 0.000000 -0.009942
#
#
# Mechanical properties :
#
#
# Convention : Reuss Voigt Hill
#
# Bulk Modulus (GPa) = 57.70205 97.97600 77.83902
# Shear Modulus (GPa) = 22.54266 18.31056 20.42661
#
# Velocity S-wave (km/s) = 2.81288 2.53513 2.67761
# Velocity P-wave (km/s) = 5.55003 6.55424 6.07293
#
# Compressibility (1/GPa) = 0.01733041
#
# Stress axis : x y z
#
# Youngs Moduli (GPa) = 105.43667 33.67165 52.02129
#
# Poissons Ratio (x) = -0.08019 0.44011
# Poissons Ratio (y) = -0.25109 0.75217
# Poissons Ratio (z) = 0.89201 0.48686
#
# Static dielectric constant tensor:
#      x y z
#    x 2.125610 0.000000 0.000000 
#    y 0.000000 2.147490 0.000000 
#    z 0.000000 0.000000 2.315430 
# 
# From -- ./inp_files/5771.got.cif
#   From: 2010.05.17/outbox.cif.g08.bks.cpg/sg29_3_cif.got.tgz:5771.got - 2010.06.04 01:19:37.
