data_PCOD9340151
_publ_section_title
;
Structure prediction by ZEFSAII (Michael W. Deem and Ramdas Pophale) SiO2 
 PCOD9340151
Probable space group: P C A 21
;
_chemical_formula_sum "Si O2"
_cell_formula_units_Z 32
_cell_length_a 31.286995
_cell_length_b 5.229862
_cell_length_c 7.717164
_cell_angle_alpha 90.000000
_cell_angle_beta 90.000000
_cell_angle_gamma 90.000000
_cell_volume 1262.733818
_symmetry_space_group_name_H-M "P C A 21"
_symmetry_group_IT_number 29
_symmetry_cell_setting 'orthorhombic'
loop_
_space_group_symop_operation_xyz
x,y,z
-x,-y,1/2+z
1/2-x,y,1/2+z
1/2+x,-y,z
loop_
_atom_site_type_symbol
_atom_site_label
_atom_site_fract_x
_atom_site_fract_y
_atom_site_fract_z
Si Si1 0.183168 0.408185 0.900670
Si Si2 0.392365 0.081045 0.696840
Si Si3 0.438500 0.067055 0.066359
Si Si4 0.351150 0.886872 0.231418
Si Si5 0.020132 0.570324 0.479710
Si Si6 0.695769 0.007271 0.387386
Si Si7 0.566616 0.418526 0.103117
Si Si8 0.751279 0.724262 0.655730
O O1 0.152043 0.630636 0.842373
O O2 0.225886 0.451728 0.786205
O O3 0.168007 0.125895 0.840433
O O4 0.204867 0.401658 0.088720
O O5 0.398725 0.355149 0.610088
O O6 0.411693 0.854792 0.582784
O O7 0.420296 0.079170 0.871451
O O8 0.345279 0.028391 0.765876
O O9 0.398646 0.973777 0.178828
O O10 0.474696 0.848727 0.066571
O O11 0.456107 0.350830 0.091525
O O12 0.325156 0.835537 0.049137
O O13 0.042896 0.580311 0.292321
O O14 0.971103 0.486432 0.472517
O O15 0.716781 0.783122 0.505911
O O16 0.734228 0.995687 0.244327
#
# Coordination Sequence:
#
# PCOD9340151 Si02
#       8
#     4   4   4   4   4   4   4   4
#     4  10  21  36  55  80 113 148 188 237 288 346
#     4   9  19  35  56  80 111 149 186 223 277 342
#     4   9  18  33  56  81 108 145 184 224 276 337
#     4  10  20  37  59  83 112 150 192 234 286 351
#     4  10  19  34  56  81 109 141 183 229 272 327
#     4   9  19  37  61  85 114 152 195 240 288 347
#     4  10  20  36  57  82 110 145 185 227 275 332
#     4   9  20  38  58  84 113 148 191 240 292 342
#
# _framework density 25.341840000000001
#
# number of rings (size 3 to 8) (size 9 to 14) (size 15 to 20)
#    0.000    2.500    0.000    1.500    0.000   10.000 
#    0.000   11.250    0.000    0.000    0.000    0.000 
#    0.000    0.000    0.000    0.000    0.000    0.000 
#
# Total GULP energy -178583.821355 kJ/mol
# GULP energy per Si atom -5580.744417 kJ/mol
# Density = 2.528416 g / cm^3
# Si number density = 25.341840 Si / 1000 Ang^3
#
#
#
# Elastic Constant Matrix: (Units=GPa)
#
#
# Indices 1 2 3 4 5 6 
#
# 1 56.5327 2.1658 15.6449 0.0000 0.0000 0.0000
# 2 2.1658 94.3731 24.6723 0.0000 0.0000 0.0000
# 3 15.6449 24.6723 75.9288 0.0000 0.0000 0.0000
# 4 0.0000 0.0000 0.0000 22.5533 0.0000 0.0000
# 5 0.0000 0.0000 0.0000 0.0000 35.1451 0.0000
# 6 0.0000 0.0000 0.0000 0.0000 0.0000 24.4482
#
#
#
# Elastic Compliance Matrix: (Units=1/GPa)
#
#
# Indices 1 2 3 4 5 6 
#
# 1 0.018793 0.000635 -0.004079 0.000000 0.000000 0.000000
# 2 0.000635 0.011601 -0.003901 0.000000 0.000000 0.000000
# 3 -0.004079 -0.003901 0.015278 0.000000 0.000000 0.000000
# 4 0.000000 0.000000 0.000000 0.044339 0.000000 0.000000
# 5 0.000000 0.000000 0.000000 0.000000 0.028453 0.000000
# 6 0.000000 0.000000 0.000000 0.000000 0.000000 0.040903
#
#
# Mechanical properties :
#
#
# Convention : Reuss Voigt Hill
#
# Bulk Modulus (GPa) = 32.27441 34.64451 33.45946
# Shear Modulus (GPa) = 27.11719 28.71944 27.91832
#
# Velocity S-wave (km/s) = 3.27472 3.37008 3.32274
# Velocity P-wave (km/s) = 5.20208 5.37064 5.28703
#
# Compressibility (1/GPa) = 0.03098430
#
# Stress axis : x y z
#
# Youngs Moduli (GPa) = 53.21051 86.19633 65.45321
#
# Poissons Ratio (x) = -0.05473 0.26696
# Poissons Ratio (y) = -0.03379 0.25531
# Poissons Ratio (z) = 0.21703 0.33622
#
# Static dielectric constant tensor:
#      x y z
#    x 2.011340 0.000000 0.000000 
#    y 0.000000 1.977700 0.000000 
#    z 0.000000 0.000000 2.111810 
# 
# From -- ./inp_files/2641.got.cif
#   From: 2010.05.17/outbox.cif.g08.bks.cpg/sg29_2_cif.got.tgz:2641.got - 2010.06.04 01:19:37.
