data_PCOD9340758
_publ_section_title
;
Structure prediction by ZEFSAII (Michael W. Deem and Ramdas Pophale) SiO2 
 PCOD9340758
Probable space group: P C A 21
;
_chemical_formula_sum "Si O2"
_cell_formula_units_Z 32
_cell_length_a 11.614830
_cell_length_b 6.528368
_cell_length_c 18.205538
_cell_angle_alpha 90.000000
_cell_angle_beta 90.000000
_cell_angle_gamma 90.000000
_cell_volume 1380.451022
_symmetry_space_group_name_H-M "P C A 21"
_symmetry_group_IT_number 29
_symmetry_cell_setting 'orthorhombic'
loop_
_space_group_symop_operation_xyz
x,y,z
-x,-y,1/2+z
1/2-x,y,1/2+z
1/2+x,-y,z
loop_
_atom_site_type_symbol
_atom_site_label
_atom_site_fract_x
_atom_site_fract_y
_atom_site_fract_z
Si Si1 0.380676 0.629423 0.818980
Si Si2 0.117230 0.057067 0.377006
Si Si3 0.100014 0.514836 0.566777
Si Si4 0.198818 0.265339 0.233238
Si Si5 0.207146 0.313670 0.975863
Si Si6 0.950886 0.860676 0.597349
Si Si7 0.534863 0.367871 0.928522
Si Si8 0.051103 0.222473 0.693156
O O1 0.293573 0.492461 0.769908
O O2 0.446897 0.477832 0.873209
O O3 0.471497 0.720756 0.760932
O O4 0.349543 0.819495 0.871126
O O5 0.131402 0.134947 0.293932
O O6 0.208504 0.172922 0.428508
O O7 0.991037 0.130915 0.407010
O O8 0.220284 0.448386 0.533676
O O9 0.069828 0.751467 0.573820
O O10 0.008085 0.411271 0.511260
O O11 0.082085 0.422079 0.646332
O O12 0.321876 0.157494 0.220232
O O13 0.122635 0.261237 0.159564
O O14 0.125460 0.165527 0.024099
O O15 0.146715 0.487264 0.925269
O O16 0.986499 0.069172 0.637513
#
# Coordination Sequence:
#
# PCOD9340758 Si02
#       8
#     4   4   4   4   4   4   4   4
#     4  11  23  44  71 100 142 180 236 300 353 424
#     4  10  22  44  71 104 138 188 240 286 364 429
#     4  10  22  42  66  97 140 183 238 290 351 421
#     4  11  23  44  67 102 141 180 233 292 363 424
#     4  10  21  44  69 101 146 189 237 294 361 424
#     4  11  23  44  67 103 140 186 238 295 355 424
#     4   9  22  42  66  94 139 179 233 296 350 427
#     4  12  24  42  69 103 140 183 235 291 355 431
#
# _framework density 23.180828999999999
#
# number of rings (size 3 to 8) (size 9 to 14) (size 15 to 20)
#    0.000    1.500    3.750    0.750    0.000    5.000 
#    4.500   16.250    0.000    0.000    0.000    0.000 
#    0.000    0.000    0.000    0.000    0.000    0.000 
#
# Total GULP energy -178529.568038 kJ/mol
# GULP energy per Si atom -5579.049001 kJ/mol
# Density = 2.312807 g / cm^3
# Si number density = 23.180829 Si / 1000 Ang^3
#
#
#
# Elastic Constant Matrix: (Units=GPa)
#
#
# Indices 1 2 3 4 5 6 
#
# 1 72.4380 31.9529 32.0252 0.0000 0.0000 0.0000
# 2 31.9529 81.5848 32.9877 0.0000 0.0000 0.0000
# 3 32.0252 32.9877 97.8422 0.0000 0.0000 0.0000
# 4 0.0000 0.0000 0.0000 26.5388 0.0000 0.0000
# 5 0.0000 0.0000 0.0000 0.0000 35.3160 0.0000
# 6 0.0000 0.0000 0.0000 0.0000 0.0000 26.2948
#
#
#
# Elastic Compliance Matrix: (Units=1/GPa)
#
#
# Indices 1 2 3 4 5 6 
#
# 1 0.017984 -0.005400 -0.004066 0.000000 0.000000 0.000000
# 2 -0.005400 0.015813 -0.003564 0.000000 0.000000 0.000000
# 3 -0.004066 -0.003564 0.012753 0.000000 0.000000 0.000000
# 4 0.000000 0.000000 0.000000 0.037681 0.000000 0.000000
# 5 0.000000 0.000000 0.000000 0.000000 0.028316 0.000000
# 6 0.000000 0.000000 0.000000 0.000000 0.000000 0.038030
#
#
# Mechanical properties :
#
#
# Convention : Reuss Voigt Hill
#
# Bulk Modulus (GPa) = 48.80176 49.53296 49.16736
# Shear Modulus (GPa) = 27.25288 27.95652 27.60470
#
# Velocity S-wave (km/s) = 3.43252 3.47655 3.45460
# Velocity P-wave (km/s) = 6.06695 6.12614 6.09662
#
# Compressibility (1/GPa) = 0.02049106
#
# Stress axis : x y z
#
# Youngs Moduli (GPa) = 55.60400 63.23911 78.41264
#
# Poissons Ratio (x) = 0.34146 0.31883
# Poissons Ratio (y) = 0.30024 0.27946
# Poissons Ratio (z) = 0.22609 0.22539
#
# Static dielectric constant tensor:
#      x y z
#    x 1.941860 0.000000 0.000000 
#    y 0.000000 1.952420 0.000000 
#    z 0.000000 0.000000 1.822690 
# 
# From -- ./inp_files/5593.got.cif
#   From: 2010.05.17/outbox.cif.g08.bks.cpg/sg29_3_cif.got.tgz:5593.got - 2010.06.04 01:19:37.
