data_PCOD9340739
_publ_section_title
;
Structure prediction by ZEFSAII (Michael W. Deem and Ramdas Pophale) SiO2 
 PCOD9340739
Probable space group: P C A 21
;
_chemical_formula_sum "Si O2"
_cell_formula_units_Z 32
_cell_length_a 18.781128
_cell_length_b 7.006798
_cell_length_c 11.246978
_cell_angle_alpha 90.000000
_cell_angle_beta 90.000000
_cell_angle_gamma 90.000000
_cell_volume 1480.052482
_symmetry_space_group_name_H-M "P C A 21"
_symmetry_group_IT_number 29
_symmetry_cell_setting 'orthorhombic'
loop_
_space_group_symop_operation_xyz
x,y,z
-x,-y,1/2+z
1/2-x,y,1/2+z
1/2+x,-y,z
loop_
_atom_site_type_symbol
_atom_site_label
_atom_site_fract_x
_atom_site_fract_y
_atom_site_fract_z
Si Si1 0.533365 0.652815 0.337280
Si Si2 0.292629 0.594156 0.197761
Si Si3 0.876748 0.445333 0.427239
Si Si4 0.932056 0.339116 0.660399
Si Si5 0.184222 0.271460 0.107071
Si Si6 0.806342 0.013003 0.055839
Si Si7 0.614717 0.996594 0.308419
Si Si8 0.593317 0.681575 0.588299
O O1 0.454650 0.572873 0.365524
O O2 0.562708 0.547569 0.220346
O O3 0.540412 0.881521 0.328618
O O4 0.586173 0.623306 0.449334
O O5 0.312603 0.605201 0.338061
O O6 0.227135 0.453142 0.164772
O O7 0.362139 0.484564 0.148479
O O8 0.289290 0.797475 0.131023
O O9 0.886399 0.310388 0.541538
O O10 0.862877 0.644161 0.497815
O O11 0.012998 0.295071 0.628816
O O12 0.901958 0.199718 0.756540
O O13 0.240213 0.128811 0.046538
O O14 0.153276 0.139971 0.212776
O O15 0.866537 0.878693 0.115839
O O16 0.838939 0.036257 0.924894
#
# Coordination Sequence:
#
# PCOD9340739 Si02
#       8
#     4   4   4   4   4   4   4   4
#     4  10  21  43  67  95 135 171 222 283 349 413
#     4  11  23  44  69  94 136 182 229 287 341 415
#     4  11  24  44  68 100 138 180 226 285 350 419
#     4  11  22  41  67  99 133 180 219 284 352 414
#     4  11  25  45  66 101 136 180 237 286 344 419
#     4  10  24  43  68  96 129 181 230 282 341 406
#     4  11  24  44  68  99 139 176 231 293 345 417
#     4   9  21  40  63  98 126 168 228 276 344 407
#
# _framework density 21.620857000000001
#
# number of rings (size 3 to 8) (size 9 to 14) (size 15 to 20)
#    0.000    1.500    2.500    1.500    3.500    1.000 
#   11.250    0.000    0.000    0.000    0.000    0.000 
#    0.000    0.000    0.000    0.000    0.000    0.000 
#
# Total GULP energy -178415.994445 kJ/mol
# GULP energy per Si atom -5575.499826 kJ/mol
# Density = 2.157165 g / cm^3
# Si number density = 21.620857 Si / 1000 Ang^3
#
#
#
# Elastic Constant Matrix: (Units=GPa)
#
#
# Indices 1 2 3 4 5 6 
#
# 1 45.2672 3.1849 3.0261 0.0000 0.0000 0.0000
# 2 3.1849 49.9163 4.5097 0.0000 0.0000 0.0000
# 3 3.0261 4.5097 69.4628 0.0000 0.0000 0.0000
# 4 0.0000 0.0000 0.0000 35.5984 0.0000 0.0000
# 5 0.0000 0.0000 0.0000 0.0000 27.9400 0.0000
# 6 0.0000 0.0000 0.0000 0.0000 0.0000 18.8399
#
#
#
# Elastic Compliance Matrix: (Units=1/GPa)
#
#
# Indices 1 2 3 4 5 6 
#
# 1 0.022244 -0.001340 -0.000882 0.000000 0.000000 0.000000
# 2 -0.001340 0.020232 -0.001255 0.000000 0.000000 0.000000
# 3 -0.000882 -0.001255 0.014516 0.000000 0.000000 0.000000
# 4 0.000000 0.000000 0.000000 0.028091 0.000000 0.000000
# 5 0.000000 0.000000 0.000000 0.000000 0.035791 0.000000
# 6 0.000000 0.000000 0.000000 0.000000 0.000000 0.053079
#
#
# Mechanical properties :
#
#
# Convention : Reuss Voigt Hill
#
# Bulk Modulus (GPa) = 19.98439 20.67641 20.33040
# Shear Modulus (GPa) = 25.30529 26.73736 26.02133
#
# Velocity S-wave (km/s) = 3.42484 3.52041 3.47296
# Velocity P-wave (km/s) = 4.99024 5.10963 5.05029
#
# Compressibility (1/GPa) = 0.05003906
#
# Stress axis : x y z
#
# Youngs Moduli (GPa) = 44.95537 49.42565 68.88899
#
# Poissons Ratio (x) = 0.06621 0.06077
# Poissons Ratio (y) = 0.06022 0.08647
# Poissons Ratio (z) = 0.03965 0.06204
#
# Static dielectric constant tensor:
#      x y z
#    x 1.828520 0.000000 0.000000 
#    y 0.000000 1.799240 0.000000 
#    z 0.000000 0.000000 1.842820 
# 
# From -- ./inp_files/3852.got.cif
#   From: 2010.05.17/outbox.cif.g08.bks.cpg/sg29_2_cif.got.tgz:3852.got - 2010.06.04 01:19:37.
