data_PCOD9340994
_publ_section_title
;
Structure prediction by ZEFSAII (Michael W. Deem and Ramdas Pophale) SiO2 
 PCOD9340994
Probable space group: P C A 21
;
_chemical_formula_sum "Si O2"
_cell_formula_units_Z 28
_cell_length_a 11.031105
_cell_length_b 9.987081
_cell_length_c 10.625031
_cell_angle_alpha 90.000000
_cell_angle_beta 90.000000
_cell_angle_gamma 90.000000
_cell_volume 1170.544144
_symmetry_space_group_name_H-M "P C A 21"
_symmetry_group_IT_number 29
_symmetry_cell_setting 'orthorhombic'
loop_
_space_group_symop_operation_xyz
x,y,z
-x,-y,1/2+z
1/2-x,y,1/2+z
1/2+x,-y,z
loop_
_atom_site_type_symbol
_atom_site_label
_atom_site_fract_x
_atom_site_fract_y
_atom_site_fract_z
Si Si1 0.183114 0.082134 0.190570
Si Si2 0.790124 0.593686 0.406031
Si Si3 0.177376 0.692495 0.453196
Si Si4 0.908282 0.162590 0.539585
Si Si5 0.657344 0.857242 0.454027
Si Si6 0.468086 0.348005 0.636193
Si Si7 0.001094 0.633397 0.237940
O O1 0.221990 0.073240 0.335379
O O2 0.094225 0.211512 0.181846
O O3 0.115252 0.951032 0.142294
O O4 0.289660 0.102026 0.088957
O O5 0.740896 0.445354 0.412856
O O6 0.687819 0.701179 0.436370
O O7 0.890089 0.607493 0.515178
O O8 0.859999 0.632950 0.277644
O O9 0.283845 0.798008 0.472446
O O10 0.077807 0.711168 0.344557
O O11 0.103592 0.676730 0.583917
O O12 0.963058 0.293311 0.609710
O O13 0.015193 0.113818 0.449162
O O14 0.466811 0.475314 0.728725
#
# Coordination Sequence:
#
# PCOD9340994 Si02
#       7
#     4   4   4   4   4   4   4
#     4  11  28  47  78 103 152 200 248 307 373 450
#     4  10  22  43  71 103 141 193 242 309 368 446
#     4  11  25  41  71 108 145 183 251 306 374 439
#     4  12  28  44  72 112 146 198 243 314 372 448
#     4  11  26  50  74 106 151 199 252 303 384 445
#     4  10  23  45  67 104 141 192 243 306 364 441
#     4  11  24  42  73 106 144 189 251 307 375 439
#
# _framework density 23.920497999999998
#
# number of rings (size 3 to 8) (size 9 to 14) (size 15 to 20)
#    0.000    1.143    1.429    2.571   10.000    5.714 
#    0.000    0.000    0.000    0.000    0.000    0.000 
#    0.000    0.000    0.000    0.000    0.000    0.000 
#
# Total GULP energy -156736.174932 kJ/mol
# GULP energy per Si atom -5597.720533 kJ/mol
# Density = 2.386605 g / cm^3
# Si number density = 23.920498 Si / 1000 Ang^3
#
#
#
# Elastic Constant Matrix: (Units=GPa)
#
#
# Indices 1 2 3 4 5 6 
#
# 1 81.2900 23.6905 35.1146 0.0000 0.0000 0.0000
# 2 23.6905 93.7354 10.0773 0.0000 0.0000 0.0000
# 3 35.1146 10.0773 95.8525 0.0000 0.0000 0.0000
# 4 0.0000 0.0000 0.0000 37.2426 0.0000 0.0000
# 5 0.0000 0.0000 0.0000 0.0000 25.5292 0.0000
# 6 0.0000 0.0000 0.0000 0.0000 0.0000 15.3261
#
#
#
# Elastic Compliance Matrix: (Units=1/GPa)
#
#
# Indices 1 2 3 4 5 6 
#
# 1 0.015598 -0.003366 -0.005360 0.000000 0.000000 0.000000
# 2 -0.003366 0.011517 0.000022 0.000000 0.000000 0.000000
# 3 -0.005360 0.000022 0.012394 0.000000 0.000000 0.000000
# 4 0.000000 0.000000 0.000000 0.026851 0.000000 0.000000
# 5 0.000000 0.000000 0.000000 0.000000 0.039171 0.000000
# 6 0.000000 0.000000 0.000000 0.000000 0.000000 0.065248
#
#
# Mechanical properties :
#
#
# Convention : Reuss Voigt Hill
#
# Bulk Modulus (GPa) = 45.24723 45.40476 45.32600
# Shear Modulus (GPa) = 25.56844 29.08595 27.32719
#
# Velocity S-wave (km/s) = 3.27294 3.49082 3.38363
# Velocity P-wave (km/s) = 5.76538 5.93890 5.85278
#
# Compressibility (1/GPa) = 0.02210080
#
# Stress axis : x y z
#
# Youngs Moduli (GPa) = 64.11054 86.83093 80.68392
#
# Poissons Ratio (x) = 0.29227 0.43249
# Poissons Ratio (y) = 0.21579 -0.00180
# Poissons Ratio (z) = 0.34365 -0.00194
#
# Static dielectric constant tensor:
#      x y z
#    x 1.918410 0.000000 0.000000 
#    y 0.000000 1.866030 0.000000 
#    z 0.000000 0.000000 1.948830 
# 
# From -- ./inp_files/3138.got.cif
#   From: 2010.05.17/outbox.cif.g08.bks.cpg/sg29_2_cif.got.tgz:3138.got - 2010.06.04 01:19:37.
