data_PCOD9340862
_publ_section_title
;
Structure prediction by ZEFSAII (Michael W. Deem and Ramdas Pophale) SiO2 
 PCOD9340862
Probable space group: P C A 21
;
_chemical_formula_sum "Si O2"
_cell_formula_units_Z 28
_cell_length_a 12.670188
_cell_length_b 12.665379
_cell_length_c 7.265557
_cell_angle_alpha 90.000000
_cell_angle_beta 90.000000
_cell_angle_gamma 90.000000
_cell_volume 1165.923789
_symmetry_space_group_name_H-M "P C A 21"
_symmetry_group_IT_number 29
_symmetry_cell_setting 'orthorhombic'
loop_
_space_group_symop_operation_xyz
x,y,z
-x,-y,1/2+z
1/2-x,y,1/2+z
1/2+x,-y,z
loop_
_atom_site_type_symbol
_atom_site_label
_atom_site_fract_x
_atom_site_fract_y
_atom_site_fract_z
Si Si1 0.792727 0.250000 0.188740
Si Si2 0.890773 0.836924 0.407344
Si Si3 0.341979 0.110371 0.817824
Si Si4 0.882218 0.378748 0.511975
Si Si5 0.617782 0.121252 0.365505
Si Si6 0.341979 0.389629 0.559656
Si Si7 0.390773 0.336924 0.970136
O O1 0.864815 0.292988 0.351065
O O2 0.712327 0.154030 0.229971
O O3 0.712327 0.345971 0.147509
O O4 0.864815 0.207012 0.026416
O O5 0.783882 0.870941 0.306563
O O6 0.887995 0.891273 0.610336
O O7 0.884474 0.712808 0.454048
O O8 0.997751 0.865367 0.303802
O O9 0.384474 0.212809 0.923433
O O10 0.365860 0.000234 0.914766
O O11 0.865860 0.500234 0.462714
O O12 0.002249 0.365366 0.573678
O O13 0.387995 0.391273 0.767144
O O14 0.216118 0.370942 0.570917
#
# Coordination Sequence:
#
# PCOD9340862 Si02
#       7
#     4   4   4   4   4   4   4
#     4  10  24  40  60  96 122 160 216 246 300 392
#     4  10  23  40  62  91 120 155 206 252 302 367
#     4  10  22  40  62  89 119 157 205 251 301 365
#     4  11  23  42  64  88 128 165 201 259 313 360
#     4  11  23  42  64  88 128 165 201 259 313 360
#     4  10  22  40  62  89 119 157 205 251 301 365
#     4  10  23  40  62  91 120 155 206 252 302 367
#
# _framework density 24.015291000000001
#
# number of rings (size 3 to 8) (size 9 to 14) (size 15 to 20)
#    0.000    1.714    0.000    3.429    0.000   16.000 
#    0.000    0.000    0.000    0.000    0.000    0.000 
#    0.000    0.000    0.000    0.000    0.000    0.000 
#
# Total GULP energy -156717.843916 kJ/mol
# GULP energy per Si atom -5597.065854 kJ/mol
# Density = 2.396063 g / cm^3
# Si number density = 24.015291 Si / 1000 Ang^3
#
#
#
# Elastic Constant Matrix: (Units=GPa)
#
#
# Indices 1 2 3 4 5 6 
#
# 1 129.4769 39.9697 4.3201 0.0000 0.0000 0.0000
# 2 39.9697 118.9255 -5.9202 0.0000 0.0000 0.0000
# 3 4.3201 -5.9202 38.3922 0.0000 0.0000 0.0000
# 4 0.0000 0.0000 0.0000 16.8692 0.0000 0.0000
# 5 0.0000 0.0000 0.0000 0.0000 -0.2439 0.0000
# 6 0.0000 0.0000 0.0000 0.0000 0.0000 12.7207
#
#
#
# Elastic Compliance Matrix: (Units=1/GPa)
#
#
# Indices 1 2 3 4 5 6 
#
# 1 0.008696 -0.002994 -0.001440 0.000000 0.000000 0.000000
# 2 -0.002994 0.009505 0.001803 0.000000 0.000000 0.000000
# 3 -0.001440 0.001803 0.026487 0.000000 0.000000 0.000000
# 4 0.000000 0.000000 0.000000 0.059279 0.000000 0.000000
# 5 0.000000 0.000000 0.000000 0.000000 -4.100764 0.000000
# 6 0.000000 0.000000 0.000000 0.000000 0.000000 0.078612
#
#
# Mechanical properties :
#
#
# Convention : Reuss Voigt Hill
#
# Bulk Modulus (GPa) = 25.36547 40.39265 32.87906
# Shear Modulus (GPa) = -1.28212 22.43087 10.57437
#
# Velocity S-wave (km/s) = -0.73146 3.05950 2.10065
# Velocity P-wave (km/s) = 3.14194 5.41634 4.42767
#
# Compressibility (1/GPa) = 0.03942368
#
# Stress axis : x y z
#
# Youngs Moduli (GPa) = 114.99842 105.21106 37.75436
#
# Poissons Ratio (x) = 0.31503 0.05437
# Poissons Ratio (y) = 0.34434 -0.06806
# Poissons Ratio (z) = 0.16562 -0.18965
#
# Static dielectric constant tensor:
#      x y z
#    x 1.854610 0.000000 0.000000 
#    y 0.000000 1.876440 0.000000 
#    z 0.000000 0.000000 1.967600 
# 
# From -- ./inp_files/1464.got.cif
#   From: 2010.05.17/outbox.cif.g08.bks.cpg/sg29_1_cif.got.tgz:1464.got - 2010.06.04 01:19:37.
