data_PCOD9340876
_publ_section_title
;
Structure prediction by ZEFSAII (Michael W. Deem and Ramdas Pophale) SiO2 
 PCOD9340876
Probable space group: P C A 21
;
_chemical_formula_sum "Si O2"
_cell_formula_units_Z 20
_cell_length_a 14.791942
_cell_length_b 9.250390
_cell_length_c 6.627896
_cell_angle_alpha 90.000000
_cell_angle_beta 90.000000
_cell_angle_gamma 90.000000
_cell_volume 906.903178
_symmetry_space_group_name_H-M "P C A 21"
_symmetry_group_IT_number 29
_symmetry_cell_setting 'orthorhombic'
loop_
_space_group_symop_operation_xyz
x,y,z
-x,-y,1/2+z
1/2-x,y,1/2+z
1/2+x,-y,z
loop_
_atom_site_type_symbol
_atom_site_label
_atom_site_fract_x
_atom_site_fract_y
_atom_site_fract_z
Si Si1 0.948938 0.659172 0.766070
Si Si2 0.141603 0.552418 0.030692
Si Si3 0.586081 0.857564 0.878570
Si Si4 0.322197 0.384173 0.147959
Si Si5 0.922107 0.167485 0.556689
O O1 0.946069 0.505150 0.652702
O O2 0.930199 0.767477 0.581650
O O3 0.874278 0.639530 0.939956
O O4 0.029107 0.734858 0.886836
O O5 0.224976 0.450401 0.098841
O O6 0.156915 0.717026 0.103307
O O7 0.134903 0.503600 0.797867
O O8 0.664574 0.770560 0.759757
O O9 0.495566 0.858180 0.735745
O O10 0.606672 0.018747 0.953874
#
# Coordination Sequence:
#
# PCOD9340876 Si02
#       5
#     4   4   4   4   4
#     4  10  22  40  65  94 133 169 222 280 340 397
#     4  11  23  40  67  94 131 178 225 276 336 410
#     4  10  22  43  66  99 136 172 223 286 349 400
#     4  10  22  43  65  91 136 181 221 273 342 410
#     4  11  23  40  69 100 130 174 229 285 341 409
#
# _framework density 22.053072
#
# number of rings (size 3 to 8) (size 9 to 14) (size 15 to 20)
#    0.000    1.600    4.000    0.000    8.400    0.000 
#    0.000    4.000    0.000    0.000    0.000    0.000 
#    0.000    0.000    0.000    0.000    0.000    0.000 
#
# Total GULP energy -111420.825811 kJ/mol
# GULP energy per Si atom -5571.041291 kJ/mol
# Density = 2.200288 g / cm^3
# Si number density = 22.053072 Si / 1000 Ang^3
#
#
#
# Elastic Constant Matrix: (Units=GPa)
#
#
# Indices 1 2 3 4 5 6 
#
# 1 61.3868 21.3060 14.0651 0.0000 0.0000 0.0000
# 2 21.3060 193.4111 38.5275 0.0000 0.0000 0.0000
# 3 14.0651 38.5275 115.0475 0.0000 0.0000 0.0000
# 4 0.0000 0.0000 0.0000 9.3753 0.0000 0.0000
# 5 0.0000 0.0000 0.0000 0.0000 28.8055 0.0000
# 6 0.0000 0.0000 0.0000 0.0000 0.0000 31.3849
#
#
#
# Elastic Compliance Matrix: (Units=1/GPa)
#
#
# Indices 1 2 3 4 5 6 
#
# 1 0.017199 -0.001581 -0.001573 0.000000 0.000000 0.000000
# 2 -0.001581 0.005685 -0.001711 0.000000 0.000000 0.000000
# 3 -0.001573 -0.001711 0.009457 0.000000 0.000000 0.000000
# 4 0.000000 0.000000 0.000000 0.106664 0.000000 0.000000
# 5 0.000000 0.000000 0.000000 0.000000 0.034716 0.000000
# 6 0.000000 0.000000 0.000000 0.000000 0.000000 0.031862
#
#
# Mechanical properties :
#
#
# Convention : Reuss Voigt Hill
#
# Bulk Modulus (GPa) = 44.22459 57.51584 50.87021
# Shear Modulus (GPa) = 22.43651 33.64292 28.03972
#
# Velocity S-wave (km/s) = 3.19311 3.91006 3.56963
# Velocity P-wave (km/s) = 5.80447 6.82070 6.33300
#
# Compressibility (1/GPa) = 0.02261186
#
# Stress axis : x y z
#
# Youngs Moduli (GPa) = 58.14146 175.89298 105.73911
#
# Poissons Ratio (x) = 0.27814 0.16634
# Poissons Ratio (y) = 0.09194 0.18088
# Poissons Ratio (z) = 0.09147 0.30088
#
# Static dielectric constant tensor:
#      x y z
#    x 2.018260 0.000000 0.000000 
#    y 0.000000 2.050220 0.000000 
#    z 0.000000 0.000000 1.884900 
# 
# From -- ./inp_files/355.got.cif
#   From: 2010.05.17/outbox.cif.g08.bks.cpg/sg29_1_cif.got.tgz:355.got - 2010.06.04 01:19:37.
