data_PCOD9340252
_publ_section_title
;
Structure prediction by ZEFSAII (Michael W. Deem and Ramdas Pophale) SiO2 
 PCOD9340252
Probable space group: P C A 21
;
_chemical_formula_sum "Si O2"
_cell_formula_units_Z 32
_cell_length_a 12.686235
_cell_length_b 10.240551
_cell_length_c 10.146208
_cell_angle_alpha 90.000000
_cell_angle_beta 90.000000
_cell_angle_gamma 90.000000
_cell_volume 1318.134837
_symmetry_space_group_name_H-M "P C A 21"
_symmetry_group_IT_number 29
_symmetry_cell_setting 'orthorhombic'
loop_
_space_group_symop_operation_xyz
x,y,z
-x,-y,1/2+z
1/2-x,y,1/2+z
1/2+x,-y,z
loop_
_atom_site_type_symbol
_atom_site_label
_atom_site_fract_x
_atom_site_fract_y
_atom_site_fract_z
Si Si1 0.367688 0.437198 0.188970
Si Si2 0.861809 0.837682 0.120758
Si Si3 0.509201 0.200377 0.773115
Si Si4 0.298107 0.086468 0.856074
Si Si5 0.876087 0.369919 0.945191
Si Si6 0.370802 0.620066 0.441084
Si Si7 0.378117 0.448970 0.694430
Si Si8 0.388339 0.895421 0.031968
O O1 0.415652 0.294164 0.169129
O O2 0.383786 0.517066 0.321908
O O3 0.555132 0.681381 0.206325
O O4 0.390155 0.535234 0.069696
O O5 0.785857 0.888294 0.240634
O O6 0.743113 0.593002 0.189219
O O7 0.798731 0.811584 0.980867
O O8 0.416802 0.094901 0.795408
O O9 0.555205 0.258714 0.907244
O O10 0.608033 0.166441 0.678837
O O11 0.793779 0.048486 0.940174
O O12 0.433284 0.038781 0.074444
O O13 0.751020 0.338043 0.947341
O O14 0.895462 0.457936 0.819073
O O15 0.933515 0.229228 0.952844
O O16 0.396125 0.539472 0.569902
#
# Coordination Sequence:
#
# PCOD9340252 Si02
#       8
#     4   4   4   4   4   4   4   4
#     4  10  19  41  69  97 128 178 229 275 331 419
#     4  10  23  44  69 101 129 188 240 273 337 430
#     4  12  23  46  61 104 145 173 219 302 348 412
#     4  10  25  45  71  95 139 185 234 282 344 416
#     4  10  21  44  69  98 129 175 234 271 341 421
#     4  10  24  37  70  99 131 174 224 292 344 398
#     4  10  23  37  68  97 132 174 224 283 344 403
#     4  10  26  44  67 101 139 181 220 290 349 417
#
# _framework density 24.276726
#
# number of rings (size 3 to 8) (size 9 to 14) (size 15 to 20)
#    0.750    1.000    2.500    0.750    7.000    1.000 
#    9.000    0.000    0.000    0.000    0.000    0.000 
#    0.000    0.000    0.000    0.000    0.000    0.000 
#
# Total GULP energy -178260.279585 kJ/mol
# GULP energy per Si atom -5570.633737 kJ/mol
# Density = 2.422147 g / cm^3
# Si number density = 24.276726 Si / 1000 Ang^3
#
#
#
# Elastic Constant Matrix: (Units=GPa)
#
#
# Indices 1 2 3 4 5 6 
#
# 1 82.3185 4.7177 2.8662 0.0000 0.0000 0.0000
# 2 4.7177 150.2418 37.9730 0.0000 0.0000 0.0000
# 3 2.8662 37.9730 169.6534 0.0000 0.0000 0.0000
# 4 0.0000 0.0000 0.0000 46.7878 0.0000 0.0000
# 5 0.0000 0.0000 0.0000 0.0000 33.0542 0.0000
# 6 0.0000 0.0000 0.0000 0.0000 0.0000 1.6078
#
#
#
# Elastic Compliance Matrix: (Units=1/GPa)
#
#
# Indices 1 2 3 4 5 6 
#
# 1 0.012172 -0.000350 -0.000127 0.000000 0.000000 0.000000
# 2 -0.000350 0.007065 -0.001575 0.000000 0.000000 0.000000
# 3 -0.000127 -0.001575 0.006249 0.000000 0.000000 0.000000
# 4 0.000000 0.000000 0.000000 0.021373 0.000000 0.000000
# 5 0.000000 0.000000 0.000000 0.000000 0.030253 0.000000
# 6 0.000000 0.000000 0.000000 0.000000 0.000000 0.621979
#
#
# Mechanical properties :
#
#
# Convention : Reuss Voigt Hill
#
# Bulk Modulus (GPa) = 46.77026 54.81416 50.79221
# Shear Modulus (GPa) = 7.03903 40.06709 23.55306
#
# Velocity S-wave (km/s) = 1.70464 4.06696 3.11817
# Velocity P-wave (km/s) = 4.81474 6.68442 5.82508
#
# Compressibility (1/GPa) = 0.02138111
#
# Stress axis : x y z
#
# Youngs Moduli (GPa) = 82.15289 141.54049 160.02172
#
# Poissons Ratio (x) = 0.04955 0.02037
# Poissons Ratio (y) = 0.02876 0.25211
# Poissons Ratio (z) = 0.01046 0.22299
#
# Static dielectric constant tensor:
#      x y z
#    x 2.001720 0.000000 0.000000 
#    y 0.000000 1.927230 0.000000 
#    z 0.000000 0.000000 1.959990 
# 
# From -- ./inp_files/1885.got.cif
#   From: 2010.05.17/outbox.cif.g08.bks.cpg/sg29_1_cif.got.tgz:1885.got - 2010.06.04 01:19:37.
