data_PCOD9340255
_publ_section_title
;
Structure prediction by ZEFSAII (Michael W. Deem and Ramdas Pophale) SiO2 
 PCOD9340255
Probable space group: P C A 21
;
_chemical_formula_sum "Si O2"
_cell_formula_units_Z 32
_cell_length_a 12.926101
_cell_length_b 8.427083
_cell_length_c 12.303886
_cell_angle_alpha 90.000000
_cell_angle_beta 90.000000
_cell_angle_gamma 90.000000
_cell_volume 1340.254009
_symmetry_space_group_name_H-M "P C A 21"
_symmetry_group_IT_number 29
_symmetry_cell_setting 'orthorhombic'
loop_
_space_group_symop_operation_xyz
x,y,z
-x,-y,1/2+z
1/2-x,y,1/2+z
1/2+x,-y,z
loop_
_atom_site_type_symbol
_atom_site_label
_atom_site_fract_x
_atom_site_fract_y
_atom_site_fract_z
Si Si1 0.192621 0.399930 0.143740
Si Si2 0.579655 0.893865 0.057845
Si Si3 0.126160 0.466738 0.771283
Si Si4 0.303369 0.959111 0.735634
Si Si5 0.080307 0.805514 0.739943
Si Si6 0.042760 0.760816 0.373818
Si Si7 0.284523 0.542850 0.962365
Si Si8 0.611947 0.728316 0.351159
O O1 0.137836 0.275439 0.065735
O O2 0.304306 0.356348 0.194033
O O3 0.123685 0.399188 0.251550
O O4 0.216961 0.551819 0.071515
O O5 0.490508 0.891893 0.150398
O O6 0.666677 0.008169 0.109331
O O7 0.522950 0.889138 0.942933
O O8 0.096018 0.622844 0.704683
O O9 0.202800 0.537537 0.863683
O O10 0.036895 0.366353 0.826044
O O11 0.188464 0.893831 0.752273
O O12 0.388485 0.838683 0.780919
O O13 0.323056 0.119828 0.807883
O O14 0.007162 0.781351 0.846675
O O15 0.127624 0.673553 0.449179
O O16 0.342650 0.369920 0.951219
#
# Coordination Sequence:
#
# PCOD9340255 Si02
#       8
#     4   4   4   4   4   4   4   4
#     4   9  20  38  62  93 126 177 210 267 336 383
#     4  10  24  44  65  95 137 179 222 278 332 415
#     4  11  21  37  69  96 135 167 224 282 326 398
#     4  10  23  42  66  94 138 176 217 273 343 399
#     4  10  19  42  64  94 134 170 222 278 330 384
#     4  12  23  42  70 102 133 176 229 280 340 399
#     4  11  20  39  68  99 128 173 226 269 336 399
#     4   9  22  40  64  93 135 176 218 277 329 399
#
# _framework density 23.876069999999999
#
# number of rings (size 3 to 8) (size 9 to 14) (size 15 to 20)
#    0.000    2.000    3.750    0.750    0.000    6.000 
#    6.750    0.000    0.000    0.000    0.000    0.000 
#    0.000    0.000    0.000    0.000    0.000    0.000 
#
# Total GULP energy -178466.335335 kJ/mol
# GULP energy per Si atom -5577.072979 kJ/mol
# Density = 2.382173 g / cm^3
# Si number density = 23.876070 Si / 1000 Ang^3
#
#
#
# Elastic Constant Matrix: (Units=GPa)
#
#
# Indices 1 2 3 4 5 6 
#
# 1 125.2634 39.2220 17.7735 0.0000 0.0000 0.0000
# 2 39.2220 71.7433 6.5208 0.0000 0.0000 0.0000
# 3 17.7735 6.5208 56.7465 0.0000 0.0000 0.0000
# 4 0.0000 0.0000 0.0000 25.6541 0.0000 0.0000
# 5 0.0000 0.0000 0.0000 0.0000 25.6221 0.0000
# 6 0.0000 0.0000 0.0000 0.0000 0.0000 41.4009
#
#
#
# Elastic Compliance Matrix: (Units=1/GPa)
#
#
# Indices 1 2 3 4 5 6 
#
# 1 0.009977 -0.005225 -0.002525 0.000000 0.000000 0.000000
# 2 -0.005225 0.016822 -0.000296 0.000000 0.000000 0.000000
# 3 -0.002525 -0.000296 0.018447 0.000000 0.000000 0.000000
# 4 0.000000 0.000000 0.000000 0.038980 0.000000 0.000000
# 5 0.000000 0.000000 0.000000 0.000000 0.039029 0.000000
# 6 0.000000 0.000000 0.000000 0.000000 0.000000 0.024154
#
#
# Mechanical properties :
#
#
# Convention : Reuss Voigt Hill
#
# Bulk Modulus (GPa) = 34.30052 42.30953 38.30503
# Shear Modulus (GPa) = 28.86497 31.21787 30.04142
#
# Velocity S-wave (km/s) = 3.48077 3.61985 3.55099
# Velocity P-wave (km/s) = 5.52735 5.93549 5.73505
#
# Compressibility (1/GPa) = 0.02915408
#
# Stress axis : x y z
#
# Youngs Moduli (GPa) = 100.22556 59.44543 54.20930
#
# Poissons Ratio (x) = 0.31062 0.13686
# Poissons Ratio (y) = 0.52370 0.01607
# Poissons Ratio (z) = 0.25303 0.01762
#
# Static dielectric constant tensor:
#      x y z
#    x 1.939930 0.000000 0.000000 
#    y 0.000000 1.953330 0.000000 
#    z 0.000000 0.000000 1.977500 
# 
# From -- ./inp_files/4584.got.cif
#   From: 2010.05.17/outbox.cif.g08.bks.cpg/sg29_3_cif.got.tgz:4584.got - 2010.06.04 01:19:37.
