data_PCOD9340296
_publ_section_title
;
Structure prediction by ZEFSAII (Michael W. Deem and Ramdas Pophale) SiO2 
 PCOD9340296
Probable space group: P C A 21
;
_chemical_formula_sum "Si O2"
_cell_formula_units_Z 32
_cell_length_a 11.847998
_cell_length_b 9.503298
_cell_length_c 12.193978
_cell_angle_alpha 90.000000
_cell_angle_beta 90.000000
_cell_angle_gamma 90.000000
_cell_volume 1372.981632
_symmetry_space_group_name_H-M "P C A 21"
_symmetry_group_IT_number 29
_symmetry_cell_setting 'orthorhombic'
loop_
_space_group_symop_operation_xyz
x,y,z
-x,-y,1/2+z
1/2-x,y,1/2+z
1/2+x,-y,z
loop_
_atom_site_type_symbol
_atom_site_label
_atom_site_fract_x
_atom_site_fract_y
_atom_site_fract_z
Si Si1 0.856867 0.968529 0.229490
Si Si2 0.850667 0.805294 0.644907
Si Si3 0.029061 0.291724 0.818687
Si Si4 0.177942 0.442950 0.629596
Si Si5 0.977227 0.475678 0.478356
Si Si6 0.837421 0.316347 0.658220
Si Si7 0.042598 0.776537 0.822827
Si Si8 0.542803 0.059372 0.042284
O O1 0.734424 0.906028 0.212788
O O2 0.925447 0.865795 0.310811
O O3 0.932023 0.951628 0.119275
O O4 0.857967 0.128624 0.270759
O O5 0.776031 0.672003 0.612754
O O6 0.949934 0.763096 0.728066
O O7 0.899711 0.907474 0.551756
O O8 0.104038 0.375721 0.728003
O O9 0.037803 0.368471 0.933967
O O10 0.900986 0.303065 0.774015
O O11 0.104948 0.452393 0.518816
O O12 0.219824 0.599929 0.661035
O O13 0.941285 0.372930 0.379537
O O14 0.906750 0.426805 0.582376
O O15 0.866030 0.170371 0.595235
O O16 0.006950 0.873632 0.927181
#
# Coordination Sequence:
#
# PCOD9340296 Si02
#       8
#     4   4   4   4   4   4   4   4
#     4   9  20  37  56  80 109 146 186 227 280 332
#     4  10  20  36  59  82 108 146 188 228 274 333
#     4   9  19  37  56  78 112 143 177 231 278 329
#     4  10  21  37  59  83 107 145 189 225 274 335
#     4  10  21  36  54  81 113 142 181 231 278 330
#     4   9  19  36  54  77 110 144 179 225 281 332
#     4  10  20  35  56  82 111 145 185 228 278 332
#     4   9  20  38  54  77 116 145 177 233 281 327
#
# _framework density 23.306940000000001
#
# number of rings (size 3 to 8) (size 9 to 14) (size 15 to 20)
#    0.000    2.500    0.000    3.000    0.000    7.000 
#    0.000   11.250    0.000    0.000    0.000    0.000 
#    0.000    0.000    0.000    0.000    0.000    0.000 
#
# Total GULP energy -178677.793936 kJ/mol
# GULP energy per Si atom -5583.681060 kJ/mol
# Density = 2.325389 g / cm^3
# Si number density = 23.306940 Si / 1000 Ang^3
#
#
#
# Elastic Constant Matrix: (Units=GPa)
#
#
# Indices 1 2 3 4 5 6 
#
# 1 25.6823 9.3318 -13.8988 0.0000 0.0000 0.0000
# 2 9.3318 125.2918 11.1793 0.0000 0.0000 0.0000
# 3 -13.8988 11.1793 48.1429 0.0000 0.0000 0.0000
# 4 0.0000 0.0000 0.0000 33.1687 0.0000 0.0000
# 5 0.0000 0.0000 0.0000 0.0000 7.0988 0.0000
# 6 0.0000 0.0000 0.0000 0.0000 0.0000 55.8338
#
#
#
# Elastic Compliance Matrix: (Units=1/GPa)
#
#
# Indices 1 2 3 4 5 6 
#
# 1 0.049058 -0.005022 0.015329 0.000000 0.000000 0.000000
# 2 -0.005022 0.008664 -0.003462 0.000000 0.000000 0.000000
# 3 0.015329 -0.003462 0.026001 0.000000 0.000000 0.000000
# 4 0.000000 0.000000 0.000000 0.030149 0.000000 0.000000
# 5 0.000000 0.000000 0.000000 0.000000 0.140870 0.000000
# 6 0.000000 0.000000 0.000000 0.000000 0.000000 0.017910
#
#
# Mechanical properties :
#
#
# Convention : Reuss Voigt Hill
#
# Bulk Modulus (GPa) = 10.26542 23.59350 16.92946
# Shear Modulus (GPa) = 17.15668 32.05390 24.60529
#
# Velocity S-wave (km/s) = 2.71609 3.71252 3.25269
# Velocity P-wave (km/s) = 3.77495 5.34060 4.62451
#
# Compressibility (1/GPa) = 0.09741442
#
# Stress axis : x y z
#
# Youngs Moduli (GPa) = 20.38412 115.41687 38.46036
#
# Poissons Ratio (x) = 0.57958 -0.58956
# Poissons Ratio (y) = 0.10236 0.13314
# Poissons Ratio (z) = -0.31247 0.39953
#
# Static dielectric constant tensor:
#      x y z
#    x 1.934660 0.000000 0.000000 
#    y 0.000000 1.911990 0.000000 
#    z 0.000000 0.000000 1.861310 
# 
# From -- ./inp_files/3225.got.cif
#   From: 2010.05.17/outbox.cif.g08.bks.cpg/sg29_2_cif.got.tgz:3225.got - 2010.06.04 01:19:37.
