data_PCOD9340979
_publ_section_title
;
Structure prediction by ZEFSAII (Michael W. Deem and Ramdas Pophale) SiO2 
 PCOD9340979
Probable space group: P C A 21
;
_chemical_formula_sum "Si O2"
_cell_formula_units_Z 28
_cell_length_a 20.984317
_cell_length_b 5.350873
_cell_length_c 10.616126
_cell_angle_alpha 90.000000
_cell_angle_beta 90.000000
_cell_angle_gamma 90.000000
_cell_volume 1192.025500
_symmetry_space_group_name_H-M "P C A 21"
_symmetry_group_IT_number 29
_symmetry_cell_setting 'orthorhombic'
loop_
_space_group_symop_operation_xyz
x,y,z
-x,-y,1/2+z
1/2-x,y,1/2+z
1/2+x,-y,z
loop_
_atom_site_type_symbol
_atom_site_label
_atom_site_fract_x
_atom_site_fract_y
_atom_site_fract_z
Si Si1 0.446707 0.032595 0.995000
Si Si2 0.685496 0.747493 0.522261
Si Si3 0.978821 0.196388 0.743475
Si Si4 0.153562 0.757159 0.633495
Si Si5 0.585584 0.499775 0.850843
Si Si6 0.868044 0.341583 0.593791
Si Si7 0.819109 0.828956 0.480940
O O1 0.481891 0.982359 0.864894
O O2 0.489605 0.085641 0.117379
O O3 0.406884 0.789376 0.040347
O O4 0.387289 0.223234 0.974461
O O5 0.692217 0.477170 0.582808
O O6 0.746403 0.799588 0.435042
O O7 0.688071 0.977402 0.622186
O O8 0.905735 0.270546 0.718499
O O9 0.022111 0.431339 0.779785
O O10 0.128222 0.686708 0.769961
O O11 0.628880 0.747484 0.876496
O O12 0.576436 0.395745 0.989870
O O13 0.830697 0.604016 0.584176
O O14 0.831641 0.098911 0.541115
#
# Coordination Sequence:
#
# PCOD9340979 Si02
#       7
#     4   4   4   4   4   4   4
#     4  10  27  42  78 106 153 194 243 307 371 431
#     4  10  22  46  69 102 147 189 248 297 369 433
#     4  12  24  50  71 116 149 198 246 312 365 466
#     4  10  22  43  67 108 134 191 240 292 375 423
#     4  10  24  40  75 102 145 191 239 296 382 428
#     4  10  26  43  71 107 138 194 236 301 370 429
#     4  10  23  48  69 105 144 187 250 301 366 446
#
# _framework density 23.489429999999999
#
# number of rings (size 3 to 8) (size 9 to 14) (size 15 to 20)
#    1.714    0.000    1.429    1.714    8.000    0.000 
#    5.143    2.857    0.000    0.000    0.000    0.000 
#    0.000    0.000    0.000    0.000    0.000    0.000 
#
# Total GULP energy -156027.352215 kJ/mol
# GULP energy per Si atom -5572.405436 kJ/mol
# Density = 2.343597 g / cm^3
# Si number density = 23.489430 Si / 1000 Ang^3
#
#
#
# Elastic Constant Matrix: (Units=GPa)
#
#
# Indices 1 2 3 4 5 6 
#
# 1 58.7926 2.4414 21.6308 0.0000 0.0000 0.0000
# 2 2.4414 110.1777 -1.3553 0.0000 0.0000 0.0000
# 3 21.6308 -1.3553 72.2007 0.0000 0.0000 0.0000
# 4 0.0000 0.0000 0.0000 18.2344 0.0000 0.0000
# 5 0.0000 0.0000 0.0000 0.0000 14.5373 0.0000
# 6 0.0000 0.0000 0.0000 0.0000 0.0000 16.1014
#
#
#
# Elastic Compliance Matrix: (Units=1/GPa)
#
#
# Indices 1 2 3 4 5 6 
#
# 1 0.019143 -0.000495 -0.005744 0.000000 0.000000 0.000000
# 2 -0.000495 0.009091 0.000319 0.000000 0.000000 0.000000
# 3 -0.005744 0.000319 0.015577 0.000000 0.000000 0.000000
# 4 0.000000 0.000000 0.000000 0.054841 0.000000 0.000000
# 5 0.000000 0.000000 0.000000 0.000000 0.068788 0.000000
# 6 0.000000 0.000000 0.000000 0.000000 0.000000 0.062106
#
#
# Mechanical properties :
#
#
# Convention : Reuss Voigt Hill
#
# Bulk Modulus (GPa) = 31.27865 31.84498 31.56182
# Shear Modulus (GPa) = 19.83773 24.33824 22.08798
#
# Velocity S-wave (km/s) = 2.90925 3.22240 3.06982
# Velocity P-wave (km/s) = 4.96285 5.23753 5.10204
#
# Compressibility (1/GPa) = 0.03197068
#
# Stress axis : x y z
#
# Youngs Moduli (GPa) = 52.23857 109.99729 64.19625
#
# Poissons Ratio (x) = 0.05443 0.36877
# Poissons Ratio (y) = 0.02585 -0.02047
# Poissons Ratio (z) = 0.30008 -0.03508
#
# Static dielectric constant tensor:
#      x y z
#    x 1.968620 0.000000 0.000000 
#    y 0.000000 1.923400 0.000000 
#    z 0.000000 0.000000 1.866340 
# 
# From -- ./inp_files/3782.got.cif
#   From: 2010.05.17/outbox.cif.g08.bks.cpg/sg29_2_cif.got.tgz:3782.got - 2010.06.04 01:19:37.
