data_PCOD9340561
_publ_section_title
;
Structure prediction by ZEFSAII (Michael W. Deem and Ramdas Pophale) SiO2 
 PCOD9340561
Probable space group: P C A 21
;
_chemical_formula_sum "Si O2"
_cell_formula_units_Z 24
_cell_length_a 10.184269
_cell_length_b 17.469627
_cell_length_c 4.875184
_cell_angle_alpha 90.000000
_cell_angle_beta 90.000000
_cell_angle_gamma 90.000000
_cell_volume 867.370217
_symmetry_space_group_name_H-M "P C A 21"
_symmetry_group_IT_number 29
_symmetry_cell_setting 'orthorhombic'
loop_
_space_group_symop_operation_xyz
x,y,z
-x,-y,1/2+z
1/2-x,y,1/2+z
1/2+x,-y,z
loop_
_atom_site_type_symbol
_atom_site_label
_atom_site_fract_x
_atom_site_fract_y
_atom_site_fract_z
Si Si1 0.667261 0.834585 0.023460
Si Si2 0.345009 0.643972 0.634348
Si Si3 0.655576 0.673937 0.160772
Si Si4 0.345683 0.483495 0.500611
Si Si5 0.658497 0.195995 0.967482
Si Si6 0.997611 0.951155 0.863486
O O1 0.801339 0.832066 0.203972
O O2 0.592924 0.755869 0.097378
O O3 0.899290 0.906831 0.660480
O O4 0.216632 0.643745 0.434689
O O5 0.415304 0.563480 0.570707
O O6 0.411754 0.724368 0.555568
O O7 0.715201 0.672467 0.462640
O O8 0.583774 0.596164 0.074035
O O9 0.282281 0.483886 0.201852
O O10 0.787147 0.196436 0.160108
O O11 0.585377 0.115567 0.998002
O O12 0.936705 0.995760 0.124940
#
# Coordination Sequence:
#
# PCOD9340561 Si02
#       6
#     4   4   4   4   4   4
#     4  10  21  38  58  81 111 145 181 226 279 334
#     4   8  14  25  44  71 101 134 169 206 255 310
#     4   8  14  25  44  71 101 134 169 206 255 310
#     4   8  12  20  38  68 100 128 166 206 242 304
#     4  10  21  38  58  81 111 145 181 226 279 334
#     4  12  26  40  58  84 108 142 190 236 288 340
#
# _framework density 27.669844000000001
#
# number of rings (size 3 to 8) (size 9 to 14) (size 15 to 20)
#    0.000    2.667    0.000    2.000    0.000    4.000 
#    0.000    0.000    0.000    0.000    0.000   37.333 
#    0.000    0.000    0.000    0.000    0.000    0.000 
#
# Total GULP energy -134236.174619 kJ/mol
# GULP energy per Si atom -5593.173942 kJ/mol
# Density = 2.760687 g / cm^3
# Si number density = 27.669844 Si / 1000 Ang^3
#
#
#
# Elastic Constant Matrix: (Units=GPa)
#
#
# Indices 1 2 3 4 5 6 
#
# 1 53.2419 16.1670 22.7071 0.0000 0.0000 0.0000
# 2 16.1670 196.1640 30.2844 0.0000 0.0000 0.0000
# 3 22.7071 30.2844 129.5094 0.0000 0.0000 0.0000
# 4 0.0000 0.0000 0.0000 54.4861 0.0000 0.0000
# 5 0.0000 0.0000 0.0000 0.0000 40.0288 0.0000
# 6 0.0000 0.0000 0.0000 0.0000 0.0000 -80.2516
#
#
#
# Elastic Compliance Matrix: (Units=1/GPa)
#
#
# Indices 1 2 3 4 5 6 
#
# 1 0.020560 -0.001181 -0.003329 0.000000 0.000000 0.000000
# 2 -0.001181 0.005356 -0.001046 0.000000 0.000000 0.000000
# 3 -0.003329 -0.001046 0.008550 0.000000 0.000000 0.000000
# 4 0.000000 0.000000 0.000000 0.018353 0.000000 0.000000
# 5 0.000000 0.000000 0.000000 0.000000 0.024982 0.000000
# 6 0.000000 0.000000 0.000000 0.000000 0.000000 -0.012461
#
#
# Mechanical properties :
#
#
# Convention : Reuss Voigt Hill
#
# Bulk Modulus (GPa) = 42.81461 57.47027 50.14244
# Shear Modulus (GPa) = 59.35676 23.50311 41.42994
#
# Velocity S-wave (km/s) = 4.63663 2.91763 3.87369
# Velocity P-wave (km/s) = 6.64616 5.67144 6.17805
#
# Compressibility (1/GPa) = 0.02335652
#
# Stress axis : x y z
#
# Youngs Moduli (GPa) = 48.63722 186.68931 116.96465
#
# Poissons Ratio (x) = 0.22040 0.38935
# Poissons Ratio (y) = 0.05742 0.12229
# Poissons Ratio (z) = 0.16190 0.19520
#
# Static dielectric constant tensor:
#      x y z
#    x 2.165600 0.000000 0.000000 
#    y 0.000000 2.336450 0.000000 
#    z 0.000000 0.000000 2.040690 
# 
# From -- ./inp_files/93.got.cif
#   From: 2010.05.17/outbox.cif.g08.bks.cpg/sg29_1_cif.got.tgz:93.got - 2010.06.04 01:19:37.
