data_PCOD9340465
_publ_section_title
;
Structure prediction by ZEFSAII (Michael W. Deem and Ramdas Pophale) SiO2 
 PCOD9340465
Probable space group: P C A 21
;
_chemical_formula_sum "Si O2"
_cell_formula_units_Z 32
_cell_length_a 8.907645
_cell_length_b 11.790183
_cell_length_c 12.265855
_cell_angle_alpha 90.000000
_cell_angle_beta 90.000000
_cell_angle_gamma 90.000000
_cell_volume 1288.194003
_symmetry_space_group_name_H-M "P C A 21"
_symmetry_group_IT_number 29
_symmetry_cell_setting 'orthorhombic'
loop_
_space_group_symop_operation_xyz
x,y,z
-x,-y,1/2+z
1/2-x,y,1/2+z
1/2+x,-y,z
loop_
_atom_site_type_symbol
_atom_site_label
_atom_site_fract_x
_atom_site_fract_y
_atom_site_fract_z
Si Si1 0.007198 0.446295 0.525870
Si Si2 0.945732 0.951976 0.088714
Si Si3 0.829067 0.742170 0.350359
Si Si4 0.352630 0.123265 0.709373
Si Si5 0.610254 0.297327 0.219619
Si Si6 0.256866 0.504616 0.363024
Si Si7 0.244869 0.840517 0.049694
Si Si8 0.994478 0.696922 0.564917
O O1 0.966093 0.348577 0.609667
O O2 0.905995 0.444231 0.416687
O O3 0.986988 0.565051 0.588679
O O4 0.167002 0.463698 0.470457
O O5 0.075508 0.883372 0.022517
O O6 0.802238 0.887786 0.139183
O O7 0.046160 0.014570 0.182852
O O8 0.861128 0.056979 0.029856
O O9 0.708244 0.838710 0.326607
O O10 0.786171 0.616333 0.305331
O O11 0.871665 0.728335 0.474921
O O12 0.985611 0.763829 0.290555
O O13 0.450937 0.227787 0.666743
O O14 0.680776 0.402058 0.286217
O O15 0.723199 0.202045 0.175277
O O16 0.343334 0.731524 0.012176
#
# Coordination Sequence:
#
# PCOD9340465 Si02
#       8
#     4   4   4   4   4   4   4   4
#     4  11  25  39  63  95 137 176 211 267 320 384
#     4   9  20  40  66  96 118 166 219 268 337 379
#     4  11  24  39  64  96 133 169 219 262 317 398
#     4  10  20  41  66  88 129 168 207 273 327 380
#     4  12  24  39  67  96 131 180 216 256 340 379
#     4  11  24  42  59  99 139 168 225 265 300 405
#     4  10  21  39  71  88 129 171 211 277 329 388
#     4  10  22  41  64  96 132 166 220 262 318 393
#
# _framework density 24.840978
#
# number of rings (size 3 to 8) (size 9 to 14) (size 15 to 20)
#    0.000    1.500    3.750    1.500    7.000    2.000 
#    0.000    5.000    5.500    0.000    0.000    0.000 
#    0.000    0.000    0.000    0.000    0.000    0.000 
#
# Total GULP energy -178457.239557 kJ/mol
# GULP energy per Si atom -5576.788736 kJ/mol
# Density = 2.478444 g / cm^3
# Si number density = 24.840978 Si / 1000 Ang^3
#
#
#
# Elastic Constant Matrix: (Units=GPa)
#
#
# Indices 1 2 3 4 5 6 
#
# 1 111.1362 30.0980 7.4273 0.0000 0.0000 0.0000
# 2 30.0980 59.8439 8.4276 0.0000 0.0000 0.0000
# 3 7.4273 8.4276 21.5193 0.0000 0.0000 0.0000
# 4 0.0000 0.0000 0.0000 16.0973 0.0000 0.0000
# 5 0.0000 0.0000 0.0000 0.0000 36.6120 0.0000
# 6 0.0000 0.0000 0.0000 0.0000 0.0000 47.4874
#
#
#
# Elastic Compliance Matrix: (Units=1/GPa)
#
#
# Indices 1 2 3 4 5 6 
#
# 1 0.010471 -0.005035 -0.001642 0.000000 0.000000 0.000000
# 2 -0.005035 0.020107 -0.006137 0.000000 0.000000 0.000000
# 3 -0.001642 -0.006137 0.049440 0.000000 0.000000 0.000000
# 4 0.000000 0.000000 0.000000 0.062122 0.000000 0.000000
# 5 0.000000 0.000000 0.000000 0.000000 0.027313 0.000000
# 6 0.000000 0.000000 0.000000 0.000000 0.000000 0.021058
#
#
# Mechanical properties :
#
#
# Convention : Reuss Voigt Hill
#
# Bulk Modulus (GPa) = 18.38570 31.60059 24.99315
# Shear Modulus (GPa) = 21.34290 29.80910 25.57600
#
# Velocity S-wave (km/s) = 2.93436 3.46786 3.21220
# Velocity P-wave (km/s) = 4.34719 5.36502 4.88270
#
# Compressibility (1/GPa) = 0.05439009
#
# Stress axis : x y z
#
# Youngs Moduli (GPa) = 95.49861 49.73452 20.22659
#
# Poissons Ratio (x) = 0.25042 0.03322
# Poissons Ratio (y) = 0.48086 0.12412
# Poissons Ratio (z) = 0.15682 0.30520
#
# Static dielectric constant tensor:
#      x y z
#    x 2.016460 0.000000 0.000000 
#    y 0.000000 2.013580 0.000000 
#    z 0.000000 0.000000 1.986490 
# 
# From -- ./inp_files/4285.got.cif
#   From: 2010.05.17/outbox.cif.g08.bks.cpg/sg29_3_cif.got.tgz:4285.got - 2010.06.04 01:19:37.
