data_PCOD9340203
_publ_section_title
;
Structure prediction by ZEFSAII (Michael W. Deem and Ramdas Pophale) SiO2 
 PCOD9340203
Probable space group: P C A 21
;
_chemical_formula_sum "Si O2"
_cell_formula_units_Z 28
_cell_length_a 8.730172
_cell_length_b 16.117486
_cell_length_c 9.146263
_cell_angle_alpha 90.000000
_cell_angle_beta 90.000000
_cell_angle_gamma 90.000000
_cell_volume 1286.956261
_symmetry_space_group_name_H-M "P C A 21"
_symmetry_group_IT_number 29
_symmetry_cell_setting 'orthorhombic'
loop_
_space_group_symop_operation_xyz
x,y,z
-x,-y,1/2+z
1/2-x,y,1/2+z
1/2+x,-y,z
loop_
_atom_site_type_symbol
_atom_site_label
_atom_site_fract_x
_atom_site_fract_y
_atom_site_fract_z
Si Si1 0.603105 0.884129 0.045760
Si Si2 0.799466 0.486908 0.420469
Si Si3 0.192154 0.971631 0.662171
Si Si4 0.815904 0.659694 0.796884
Si Si5 0.477118 0.880731 0.753956
Si Si6 0.138849 0.242897 0.589137
Si Si7 0.451352 0.572246 0.118027
O O1 0.437270 0.909821 0.104541
O O2 0.715797 0.818169 0.119019
O O3 0.702508 0.970925 0.053366
O O4 0.553135 0.840977 0.895166
O O5 0.712345 0.571857 0.376621
O O6 0.681290 0.422894 0.495825
O O7 0.874753 0.458212 0.269006
O O8 0.925274 0.510449 0.543118
O O9 0.309640 0.919323 0.759408
O O10 0.088474 0.040362 0.738661
O O11 0.664079 0.684677 0.706739
O O12 0.947311 0.649450 0.673527
O O13 0.858170 0.722650 0.926005
O O14 0.495295 0.816143 0.622512
#
# Coordination Sequence:
#
# PCOD9340203 Si02
#       7
#     4   4   4   4   4   4   4
#     4  10  19  37  60  90 123 162 219 264 320 372
#     4  12  23  42  71 101 127 167 216 282 325 391
#     4   9  20  34  60  92 116 163 214 280 308 358
#     4  12  23  42  68  94 130 169 213 256 335 400
#     4  10  19  37  60  88 122 162 218 260 319 373
#     4  11  23  40  64  88 125 180 206 253 326 406
#     4  12  23  42  71 101 131 163 218 275 327 398
#
# _framework density 21.756761999999998
#
# number of rings (size 3 to 8) (size 9 to 14) (size 15 to 20)
#    0.000    1.143    5.714    0.857    0.000    0.000 
#    5.143    1.429    0.000    0.000    0.000    0.000 
#    0.000    0.000    0.000    0.000    0.000    0.000 
#
# Total GULP energy -155976.193503 kJ/mol
# GULP energy per Si atom -5570.578339 kJ/mol
# Density = 2.170724 g / cm^3
# Si number density = 21.756762 Si / 1000 Ang^3
#
#
#
# Elastic Constant Matrix: (Units=GPa)
#
#
# Indices 1 2 3 4 5 6 
#
# 1 100.9540 8.9676 11.3630 0.0000 0.0000 0.0000
# 2 8.9676 43.1595 5.6819 0.0000 0.0000 0.0000
# 3 11.3630 5.6819 60.4804 0.0000 0.0000 0.0000
# 4 0.0000 0.0000 0.0000 30.6541 0.0000 0.0000
# 5 0.0000 0.0000 0.0000 0.0000 31.1770 0.0000
# 6 0.0000 0.0000 0.0000 0.0000 0.0000 12.5941
#
#
#
# Elastic Compliance Matrix: (Units=1/GPa)
#
#
# Indices 1 2 3 4 5 6 
#
# 1 0.010272 -0.001904 -0.001751 0.000000 0.000000 0.000000
# 2 -0.001904 0.023813 -0.001879 0.000000 0.000000 0.000000
# 3 -0.001751 -0.001879 0.017040 0.000000 0.000000 0.000000
# 4 0.000000 0.000000 0.000000 0.032622 0.000000 0.000000
# 5 0.000000 0.000000 0.000000 0.000000 0.032075 0.000000
# 6 0.000000 0.000000 0.000000 0.000000 0.000000 0.079402
#
#
# Mechanical properties :
#
#
# Convention : Reuss Voigt Hill
#
# Bulk Modulus (GPa) = 24.96502 28.51321 26.73912
# Shear Modulus (GPa) = 22.76411 26.79047 24.77729
#
# Velocity S-wave (km/s) = 3.23817 3.51289 3.37832
# Velocity P-wave (km/s) = 5.04782 5.43946 5.24729
#
# Compressibility (1/GPa) = 0.04005604
#
# Stress axis : x y z
#
# Youngs Moduli (GPa) = 97.35495 41.99415 58.68604
#
# Poissons Ratio (x) = 0.07994 0.10276
# Poissons Ratio (y) = 0.18534 0.11030
# Poissons Ratio (z) = 0.17047 0.07893
#
# Static dielectric constant tensor:
#      x y z
#    x 1.825230 0.000000 0.000000 
#    y 0.000000 1.799880 0.000000 
#    z 0.000000 0.000000 1.925310 
# 
# From -- ./inp_files/1216.got.cif
#   From: 2010.05.17/outbox.cif.g08.bks.cpg/sg29_1_cif.got.tgz:1216.got - 2010.06.04 01:19:37.
