data_PCOD9340042
_publ_section_title
;
Structure prediction by ZEFSAII (Michael W. Deem and Ramdas Pophale) SiO2 
 PCOD9340042
Probable space group: P C A 21
;
_chemical_formula_sum "Si O2"
_cell_formula_units_Z 32
_cell_length_a 21.404526
_cell_length_b 15.292858
_cell_length_c 5.482038
_cell_angle_alpha 90.000000
_cell_angle_beta 90.000000
_cell_angle_gamma 90.000000
_cell_volume 1794.470456
_symmetry_space_group_name_H-M "P C A 21"
_symmetry_group_IT_number 29
_symmetry_cell_setting 'orthorhombic'
loop_
_space_group_symop_operation_xyz
x,y,z
-x,-y,1/2+z
1/2-x,y,1/2+z
1/2+x,-y,z
loop_
_atom_site_type_symbol
_atom_site_label
_atom_site_fract_x
_atom_site_fract_y
_atom_site_fract_z
Si Si1 0.784024 0.702269 0.765450
Si Si2 0.960457 0.484484 0.147160
Si Si3 0.470608 0.883085 0.420424
Si Si4 0.587845 0.955456 0.136877
Si Si5 0.214833 0.087261 0.318466
Si Si6 0.401610 0.347183 0.001367
Si Si7 0.064081 0.200618 0.811331
Si Si8 0.022008 0.706308 0.704310
O O1 0.752508 0.675915 0.512054
O O2 0.789254 0.807318 0.792895
O O3 0.852325 0.659845 0.786545
O O4 0.003221 0.493679 0.900960
O O5 0.907290 0.557676 0.117128
O O6 0.940988 0.382522 0.153570
O O7 0.519155 0.932595 0.242112
O O8 0.516654 0.850386 0.634514
O O9 0.445045 0.794306 0.298069
O O10 0.419670 0.951339 0.510282
O O11 0.644557 0.950941 0.324857
O O12 0.600161 0.874180 0.956748
O O13 0.251201 0.061104 0.564710
O O14 0.470466 0.322242 0.904581
O O15 0.388184 0.266379 0.181546
O O16 0.020298 0.260957 0.979932
#
# Coordination Sequence:
#
# PCOD9340042 Si02
#       8
#     4   4   4   4   4   4   4   4
#     4  10  22  34  50  73 104 140 184 215 256 310
#     4  10  19  33  52  77 104 136 170 207 257 321
#     4  10  20  32  51  77 105 142 174 225 276 325
#     4  11  21  33  52  77 107 141 187 219 274 330
#     4  10  23  37  53  74 105 147 186 226 264 318
#     4  10  20  32  52  74 103 142 170 214 263 312
#     4  10  18  31  49  72 108 134 171 209 274 318
#     4   9  19  32  49  76 104 136 170 211 266 328
#
# _framework density 17.832559
#
# number of rings (size 3 to 8) (size 9 to 14) (size 15 to 20)
#    0.000    2.000    2.500    2.250    8.750    0.000 
#    0.000    0.000    0.000    0.000    0.000    1.750 
#    0.000    0.000    0.000    0.000    0.000    0.000 
#
# Total GULP energy -178385.078255 kJ/mol
# GULP energy per Si atom -5574.533695 kJ/mol
# Density = 1.779197 g / cm^3
# Si number density = 17.832559 Si / 1000 Ang^3
#
#
#
# Elastic Constant Matrix: (Units=GPa)
#
#
# Indices 1 2 3 4 5 6 
#
# 1 30.7347 19.1046 7.2352 0.0000 0.0000 0.0000
# 2 19.1046 102.3681 23.7562 0.0000 0.0000 0.0000
# 3 7.2352 23.7562 74.1717 0.0000 0.0000 0.0000
# 4 0.0000 0.0000 0.0000 19.2026 0.0000 0.0000
# 5 0.0000 0.0000 0.0000 0.0000 12.4537 0.0000
# 6 0.0000 0.0000 0.0000 0.0000 0.0000 8.3553
#
#
#
# Elastic Compliance Matrix: (Units=1/GPa)
#
#
# Indices 1 2 3 4 5 6 
#
# 1 0.036962 -0.006548 -0.001508 0.000000 0.000000 0.000000
# 2 -0.006548 0.011713 -0.003113 0.000000 0.000000 0.000000
# 3 -0.001508 -0.003113 0.014626 0.000000 0.000000 0.000000
# 4 0.000000 0.000000 0.000000 0.052076 0.000000 0.000000
# 5 0.000000 0.000000 0.000000 0.000000 0.080297 0.000000
# 6 0.000000 0.000000 0.000000 0.000000 0.000000 0.119684
#
#
# Mechanical properties :
#
#
# Convention : Reuss Voigt Hill
#
# Bulk Modulus (GPa) = 24.41225 34.16293 29.28759
# Shear Modulus (GPa) = 14.23078 18.48091 16.35584
#
# Velocity S-wave (km/s) = 2.82799 3.22274 3.03180
# Velocity P-wave (km/s) = 4.93790 5.74868 5.35864
#
# Compressibility (1/GPa) = 0.04096304
#
# Stress axis : x y z
#
# Youngs Moduli (GPa) = 27.05499 85.37464 68.36979
#
# Poissons Ratio (x) = 0.55903 0.10312
# Poissons Ratio (y) = 0.17716 0.21282
# Poissons Ratio (z) = 0.04081 0.26575
#
# Static dielectric constant tensor:
#      x y z
#    x 1.581560 0.000000 0.000000 
#    y 0.000000 1.632900 0.000000 
#    z 0.000000 0.000000 1.729780 
# 
# From -- ./inp_files/580.got.cif
#   From: 2010.05.17/outbox.cif.g08.bks.cpg/sg29_1_cif.got.tgz:580.got - 2010.06.04 01:19:37.
