data_PCOD9340632
_publ_section_title
;
Structure prediction by ZEFSAII (Michael W. Deem and Ramdas Pophale) SiO2 
 PCOD9340632
Probable space group: P C A 21
;
_chemical_formula_sum "Si O2"
_cell_formula_units_Z 32
_cell_length_a 5.573418
_cell_length_b 15.954426
_cell_length_c 13.684932
_cell_angle_alpha 90.000000
_cell_angle_beta 90.000000
_cell_angle_gamma 90.000000
_cell_volume 1216.873528
_symmetry_space_group_name_H-M "P C A 21"
_symmetry_group_IT_number 29
_symmetry_cell_setting 'orthorhombic'
loop_
_space_group_symop_operation_xyz
x,y,z
-x,-y,1/2+z
1/2-x,y,1/2+z
1/2+x,-y,z
loop_
_atom_site_type_symbol
_atom_site_label
_atom_site_fract_x
_atom_site_fract_y
_atom_site_fract_z
Si Si1 0.668085 0.956374 0.045210
Si Si2 0.720288 0.298030 0.399736
Si Si3 0.781575 0.788355 0.927625
Si Si4 0.707754 0.207457 0.196616
Si Si5 0.596814 0.411985 0.037644
Si Si6 0.178578 0.982924 0.265995
Si Si7 0.706846 0.755709 0.202982
Si Si8 0.093911 0.398012 0.111342
O O1 0.392672 0.981454 0.022488
O O2 0.678164 0.961675 0.165536
O O3 0.735052 0.872446 0.987254
O O4 0.459173 0.269549 0.437692
O O5 0.715314 0.274041 0.286137
O O6 0.794461 0.393617 0.429354
O O7 0.946475 0.246019 0.442132
O O8 0.784579 0.798249 0.808636
O O9 0.684711 0.114063 0.237659
O O10 0.452662 0.224677 0.148521
O O11 0.968806 0.212242 0.149531
O O12 0.326379 0.379245 0.043759
O O13 0.573161 0.502951 0.088644
O O14 0.817887 0.370014 0.095512
O O15 0.428317 0.000233 0.318552
O O16 0.677743 0.653953 0.206889
#
# Coordination Sequence:
#
# PCOD9340632 Si02
#       8
#     4   4   4   4   4   4   4   4
#     4  10  21  40  59  89 131 167 211 263 318 379
#     4  10  21  40  62  96 124 167 215 258 314 383
#     4  10  21  40  65  90 132 167 215 262 318 381
#     4  10  21  40  65  90 132 167 215 262 318 381
#     4  10  21  40  65  95 131 163 209 263 320 379
#     4  10  21  40  59  89 131 167 211 263 318 379
#     4  10  21  40  62  96 124 167 215 258 314 383
#     4  10  21  40  65  95 131 163 209 263 320 379
#
# _framework density 26.296901999999999
#
# number of rings (size 3 to 8) (size 9 to 14) (size 15 to 20)
#    0.000    2.000    0.000    3.000    0.000    0.000 
#   27.000   15.000    0.000   72.000    0.000    0.000 
#    0.000    0.000    0.000    0.000    0.000    0.000 
#
# Total GULP energy -178362.678635 kJ/mol
# GULP energy per Si atom -5573.833707 kJ/mol
# Density = 2.623705 g / cm^3
# Si number density = 26.296902 Si / 1000 Ang^3
#
#
#
# Elastic Constant Matrix: (Units=GPa)
#
#
# Indices 1 2 3 4 5 6 
#
# 1 305.2860 40.4203 10.0005 0.0000 0.0000 0.0000
# 2 40.4203 83.0900 33.5156 0.0000 0.0000 0.0000
# 3 10.0005 33.5156 82.4575 0.0000 0.0000 0.0000
# 4 0.0000 0.0000 0.0000 35.7779 0.0000 0.0000
# 5 0.0000 0.0000 0.0000 0.0000 23.5812 0.0000
# 6 0.0000 0.0000 0.0000 0.0000 0.0000 27.2408
#
#
#
# Elastic Compliance Matrix: (Units=1/GPa)
#
#
# Indices 1 2 3 4 5 6 
#
# 1 0.003508 -0.001836 0.000321 0.000000 0.000000 0.000000
# 2 -0.001836 0.015356 -0.006019 0.000000 0.000000 0.000000
# 3 0.000321 -0.006019 0.014535 0.000000 0.000000 0.000000
# 4 0.000000 0.000000 0.000000 0.027950 0.000000 0.000000
# 5 0.000000 0.000000 0.000000 0.000000 0.042407 0.000000
# 6 0.000000 0.000000 0.000000 0.000000 0.000000 0.036710
#
#
# Mechanical properties :
#
#
# Convention : Reuss Voigt Hill
#
# Bulk Modulus (GPa) = 54.55247 70.96737 62.75992
# Shear Modulus (GPa) = 30.93207 43.11314 37.02260
#
# Velocity S-wave (km/s) = 3.43339 4.05344 3.75623
# Velocity P-wave (km/s) = 6.04214 6.99662 6.53682
#
# Compressibility (1/GPa) = 0.01833098
#
# Stress axis : x y z
#
# Youngs Moduli (GPa) = 285.04659 65.12057 68.79942
#
# Poissons Ratio (x) = 0.11956 -0.02207
# Poissons Ratio (y) = 0.52335 0.41410
# Poissons Ratio (z) = -0.09144 0.39196
#
# Static dielectric constant tensor:
#      x y z
#    x 2.118160 0.000000 0.000000 
#    y 0.000000 2.270790 0.000000 
#    z 0.000000 0.000000 2.080610 
# 
# From -- ./inp_files/4913.got.cif
#   From: 2010.05.17/outbox.cif.g08.bks.cpg/sg29_3_cif.got.tgz:4913.got - 2010.06.04 01:19:37.
