data_PCOD9340075
_publ_section_title
;
Structure prediction by ZEFSAII (Michael W. Deem and Ramdas Pophale) SiO2 
 PCOD9340075
Probable space group: P C A 21
;
_chemical_formula_sum "Si O2"
_cell_formula_units_Z 32
_cell_length_a 7.979551
_cell_length_b 11.949570
_cell_length_c 16.659791
_cell_angle_alpha 90.000000
_cell_angle_beta 90.000000
_cell_angle_gamma 90.000000
_cell_volume 1588.547777
_symmetry_space_group_name_H-M "P C A 21"
_symmetry_group_IT_number 29
_symmetry_cell_setting 'orthorhombic'
loop_
_space_group_symop_operation_xyz
x,y,z
-x,-y,1/2+z
1/2-x,y,1/2+z
1/2+x,-y,z
loop_
_atom_site_type_symbol
_atom_site_label
_atom_site_fract_x
_atom_site_fract_y
_atom_site_fract_z
Si Si1 0.543755 0.646379 0.116960
Si Si2 0.004310 0.842250 0.986206
Si Si3 0.115025 0.618480 0.937655
Si Si4 0.660842 0.400554 0.130608
Si Si5 0.780011 0.033917 0.911800
Si Si6 0.999848 0.369425 0.923278
Si Si7 0.944004 0.848269 0.327882
Si Si8 0.374205 0.232515 0.157847
O O1 0.632413 0.531308 0.145161
O O2 0.349910 0.643342 0.146750
O O3 0.678866 0.736930 0.146020
O O4 0.534306 0.649575 0.018977
O O5 0.940833 0.818010 0.074761
O O6 0.998299 0.728715 0.932200
O O7 0.901936 0.947028 0.954518
O O8 0.194452 0.885512 0.977528
O O9 0.050638 0.498578 0.907236
O O10 0.301631 0.637844 0.906313
O O11 0.135239 0.608943 0.034328
O O12 0.506435 0.335009 0.170418
O O13 0.658045 0.949095 0.867007
O O14 0.867231 0.114573 0.847660
O O15 0.085724 0.271005 0.872147
O O16 0.899289 0.841704 0.235486
#
# Coordination Sequence:
#
# PCOD9340075 Si02
#       8
#     4   4   4   4   4   4   4   4
#     4  10  18  36  62  90 125 175 215 249 306 385
#     4  10  21  42  67  93 114 166 225 258 309 379
#     4   9  19  33  61  94 119 158 211 256 300 370
#     4   9  18  34  58  87 128 168 208 253 304 372
#     4  10  23  44  68  82 122 169 216 268 310 384
#     4  10  20  36  61  93 127 162 208 258 307 382
#     4  11  24  44  60  95 128 162 206 268 336 376
#     4  11  23  39  61  94 129 160 211 270 322 382
#
# _framework density 20.144185
#
# number of rings (size 3 to 8) (size 9 to 14) (size 15 to 20)
#    0.000    2.000    2.500    0.750    7.000    1.000 
#    6.750    0.000    0.000    0.000    0.000    0.000 
#    0.000    0.000    0.000    0.000    0.000    0.000 
#
# Total GULP energy -178277.756811 kJ/mol
# GULP energy per Si atom -5571.179900 kJ/mol
# Density = 2.009834 g / cm^3
# Si number density = 20.144185 Si / 1000 Ang^3
#
#
#
# Elastic Constant Matrix: (Units=GPa)
#
#
# Indices 1 2 3 4 5 6 
#
# 1 74.7578 19.4621 15.0089 0.0000 0.0000 0.0000
# 2 19.4621 105.1971 21.2702 0.0000 0.0000 0.0000
# 3 15.0089 21.2702 30.7613 0.0000 0.0000 0.0000
# 4 0.0000 0.0000 0.0000 -0.3052 0.0000 0.0000
# 5 0.0000 0.0000 0.0000 0.0000 4.3346 0.0000
# 6 0.0000 0.0000 0.0000 0.0000 0.0000 7.1717
#
#
#
# Elastic Compliance Matrix: (Units=1/GPa)
#
#
# Indices 1 2 3 4 5 6 
#
# 1 0.015032 -0.001509 -0.006291 0.000000 0.000000 0.000000
# 2 -0.001509 0.011202 -0.007010 0.000000 0.000000 0.000000
# 3 -0.006291 -0.007010 0.040425 0.000000 0.000000 0.000000
# 4 0.000000 0.000000 0.000000 -3.276751 0.000000 0.000000
# 5 0.000000 0.000000 0.000000 0.000000 0.230702 0.000000
# 6 0.000000 0.000000 0.000000 0.000000 0.000000 0.139438
#
#
# Mechanical properties :
#
#
# Convention : Reuss Voigt Hill
#
# Bulk Modulus (GPa) = 26.99788 35.79982 31.39885
# Shear Modulus (GPa) = -1.78700 12.57188 5.39244
#
# Velocity S-wave (km/s) = -0.94288 2.50090 1.63791
# Velocity P-wave (km/s) = 3.49943 5.11368 4.38154
#
# Compressibility (1/GPa) = 0.03703995
#
# Stress axis : x y z
#
# Youngs Moduli (GPa) = 66.52282 89.26592 24.73728
#
# Poissons Ratio (x) = 0.13471 0.15562
# Poissons Ratio (y) = 0.10039 0.17340
# Poissons Ratio (z) = 0.41850 0.62573
#
# Static dielectric constant tensor:
#      x y z
#    x 1.842360 0.000000 0.000000 
#    y 0.000000 1.748220 0.000000 
#    z 0.000000 0.000000 1.683010 
# 
# From -- ./inp_files/4345.got.cif
#   From: 2010.05.17/outbox.cif.g08.bks.cpg/sg29_3_cif.got.tgz:4345.got - 2010.06.04 01:19:37.
