data_PCOD9340971
_publ_section_title
;
Structure prediction by ZEFSAII (Michael W. Deem and Ramdas Pophale) SiO2 
 PCOD9340971
Probable space group: P C A 21
;
_chemical_formula_sum "Si O2"
_cell_formula_units_Z 24
_cell_length_a 20.011939
_cell_length_b 6.164362
_cell_length_c 8.059948
_cell_angle_alpha 90.000000
_cell_angle_beta 90.000000
_cell_angle_gamma 90.000000
_cell_volume 994.281926
_symmetry_space_group_name_H-M "P C A 21"
_symmetry_group_IT_number 29
_symmetry_cell_setting 'orthorhombic'
loop_
_space_group_symop_operation_xyz
x,y,z
-x,-y,1/2+z
1/2-x,y,1/2+z
1/2+x,-y,z
loop_
_atom_site_type_symbol
_atom_site_label
_atom_site_fract_x
_atom_site_fract_y
_atom_site_fract_z
Si Si1 0.244073 0.068794 0.088710
Si Si2 0.664499 0.675461 0.362300
Si Si3 0.833479 0.188540 0.307616
Si Si4 0.024008 0.254707 0.543124
Si Si5 0.552558 0.893727 0.888878
Si Si6 0.616561 0.507645 0.044942
O O1 0.196884 0.140588 0.241075
O O2 0.294599 0.876878 0.143940
O O3 0.286237 0.277605 0.020087
O O4 0.200859 0.959928 0.946965
O O5 0.589964 0.680960 0.440890
O O6 0.655044 0.485849 0.221317
O O7 0.839239 0.424237 0.389594
O O8 0.906454 0.084234 0.298295
O O9 0.036714 0.264456 0.738728
O O10 0.953913 0.382755 0.531743
O O11 0.007394 0.011470 0.481050
O O12 0.594476 0.754886 0.019292
#
# Coordination Sequence:
#
# PCOD9340971 Si02
#       6
#     4   4   4   4   4   4
#     4  10  22  43  70  90 138 190 226 283 359 429
#     4  11  22  43  69 100 134 186 232 289 358 430
#     4  10  22  43  64  96 130 177 232 283 348 421
#     4  11  24  41  70  99 137 180 230 295 353 423
#     4  11  22  43  65  94 136 178 222 288 349 412
#     4  11  24  41  68 103 137 173 240 294 351 419
#
# _framework density 24.138021999999999
#
# number of rings (size 3 to 8) (size 9 to 14) (size 15 to 20)
#    0.000    1.333    3.333    2.000    2.333    2.667 
#    0.000    1.667    0.000    0.000    0.000    0.000 
#    0.000    0.000    0.000    0.000    0.000    0.000 
#
# Total GULP energy -133638.249826 kJ/mol
# GULP energy per Si atom -5568.260409 kJ/mol
# Density = 2.408308 g / cm^3
# Si number density = 24.138022 Si / 1000 Ang^3
#
#
#
# Elastic Constant Matrix: (Units=GPa)
#
#
# Indices 1 2 3 4 5 6 
#
# 1 60.7556 14.2382 32.0069 0.0000 0.0000 0.0000
# 2 14.2382 31.9192 4.8220 0.0000 0.0000 0.0000
# 3 32.0069 4.8220 96.9307 0.0000 0.0000 0.0000
# 4 0.0000 0.0000 0.0000 30.7012 0.0000 0.0000
# 5 0.0000 0.0000 0.0000 0.0000 17.7012 0.0000
# 6 0.0000 0.0000 0.0000 0.0000 0.0000 15.5174
#
#
#
# Elastic Compliance Matrix: (Units=1/GPa)
#
#
# Indices 1 2 3 4 5 6 
#
# 1 0.022154 -0.008844 -0.006875 0.000000 0.000000 0.000000
# 2 -0.008844 0.035097 0.001174 0.000000 0.000000 0.000000
# 3 -0.006875 0.001174 0.012529 0.000000 0.000000 0.000000
# 4 0.000000 0.000000 0.000000 0.032572 0.000000 0.000000
# 5 0.000000 0.000000 0.000000 0.000000 0.056493 0.000000
# 6 0.000000 0.000000 0.000000 0.000000 0.000000 0.064444
#
#
# Mechanical properties :
#
#
# Convention : Reuss Voigt Hill
#
# Bulk Modulus (GPa) = 24.57628 32.41551 28.49589
# Shear Modulus (GPa) = 18.80118 22.01986 20.41052
#
# Velocity S-wave (km/s) = 2.79391 3.02362 2.91103
# Velocity P-wave (km/s) = 4.54000 5.06439 4.80935
#
# Compressibility (1/GPa) = 0.04068964
#
# Stress axis : x y z
#
# Youngs Moduli (GPa) = 45.13873 28.49281 79.81793
#
# Poissons Ratio (x) = 0.25198 0.54878
# Poissons Ratio (y) = 0.39919 -0.09372
# Poissons Ratio (z) = 0.31035 -0.03346
#
# Static dielectric constant tensor:
#      x y z
#    x 1.995330 0.000000 0.000000 
#    y 0.000000 2.024490 0.000000 
#    z 0.000000 0.000000 2.003080 
# 
# From -- ./inp_files/2379.got.cif
#   From: 2010.05.17/outbox.cif.g08.bks.cpg/sg29_2_cif.got.tgz:2379.got - 2010.06.04 01:19:37.
