data_PCOD9340519
_publ_section_title
;
Structure prediction by ZEFSAII (Michael W. Deem and Ramdas Pophale) SiO2 
 PCOD9340519
Probable space group: P C A 21
;
_chemical_formula_sum "Si O2"
_cell_formula_units_Z 32
_cell_length_a 5.120344
_cell_length_b 13.598760
_cell_length_c 19.753714
_cell_angle_alpha 90.000000
_cell_angle_beta 90.000000
_cell_angle_gamma 90.000000
_cell_volume 1375.457608
_symmetry_space_group_name_H-M "P C A 21"
_symmetry_group_IT_number 29
_symmetry_cell_setting 'orthorhombic'
loop_
_space_group_symop_operation_xyz
x,y,z
-x,-y,1/2+z
1/2-x,y,1/2+z
1/2+x,-y,z
loop_
_atom_site_type_symbol
_atom_site_label
_atom_site_fract_x
_atom_site_fract_y
_atom_site_fract_z
Si Si1 0.375945 0.275106 0.291600
Si Si2 0.123486 0.855046 0.788823
Si Si3 0.577427 0.108598 0.494395
Si Si4 0.572874 0.892540 0.434066
Si Si5 0.993465 0.724311 0.147261
Si Si6 0.248690 0.440557 0.055676
Si Si7 0.502825 0.146089 0.645802
Si Si8 0.255370 0.441364 0.394239
O O1 0.585852 0.186437 0.299732
O O2 0.465150 0.324708 0.221305
O O3 0.360206 0.348634 0.353435
O O4 0.082860 0.234408 0.282213
O O5 0.017388 0.904901 0.856914
O O6 0.090142 0.906897 0.715716
O O7 0.847676 0.161205 0.476488
O O8 0.527704 0.094918 0.573404
O O9 0.344558 0.158330 0.452699
O O10 0.621885 0.000663 0.463678
O O11 0.870027 0.653933 0.091639
O O12 0.794988 0.817383 0.150712
O O13 0.286826 0.764157 0.139303
O O14 0.454337 0.527733 0.073870
O O15 0.242936 0.426434 0.974897
O O16 0.459246 0.528707 0.377119
#
# Coordination Sequence:
#
# PCOD9340519 Si02
#       8
#     4   4   4   4   4   4   4   4
#     4  10  21  36  57  84 111 148 195 238 287 343
#     4  10  21  38  58  83 116 150 190 240 291 343
#     4  10  21  38  58  85 115 145 186 233 282 345
#     4  10  21  38  58  85 115 145 186 233 282 345
#     4  10  21  36  57  84 111 148 195 238 287 343
#     4  10  21  36  53  78 113 150 190 235 286 341
#     4  10  21  38  58  83 116 150 190 240 291 343
#     4  10  21  36  53  78 113 150 190 235 286 341
#
# _framework density 23.264983000000001
#
# number of rings (size 3 to 8) (size 9 to 14) (size 15 to 20)
#    0.000    2.000    0.000    3.000    0.000    4.000 
#    0.000    5.000    0.000    0.000    0.000    0.000 
#    0.000    0.000    0.000    0.000    0.000    0.000 
#
# Total GULP energy -178621.277650 kJ/mol
# GULP energy per Si atom -5581.914927 kJ/mol
# Density = 2.321203 g / cm^3
# Si number density = 23.264983 Si / 1000 Ang^3
#
#
#
# Elastic Constant Matrix: (Units=GPa)
#
#
# Indices 1 2 3 4 5 6 
#
# 1 124.1481 -2.9658 -3.1806 0.0000 0.0000 0.0000
# 2 -2.9658 22.7911 23.9784 0.0000 0.0000 0.0000
# 3 -3.1806 23.9784 121.5587 0.0000 0.0000 0.0000
# 4 0.0000 0.0000 0.0000 39.2081 0.0000 0.0000
# 5 0.0000 0.0000 0.0000 0.0000 29.1141 0.0000
# 6 0.0000 0.0000 0.0000 0.0000 0.0000 19.7091
#
#
#
# Elastic Compliance Matrix: (Units=1/GPa)
#
#
# Indices 1 2 3 4 5 6 
#
# 1 0.008080 0.001046 0.000005 0.000000 0.000000 0.000000
# 2 0.001046 0.055503 -0.010921 0.000000 0.000000 0.000000
# 3 0.000005 -0.010921 0.010381 0.000000 0.000000 0.000000
# 4 0.000000 0.000000 0.000000 0.025505 0.000000 0.000000
# 5 0.000000 0.000000 0.000000 0.000000 0.034348 0.000000
# 6 0.000000 0.000000 0.000000 0.000000 0.000000 0.050738
#
#
# Mechanical properties :
#
#
# Convention : Reuss Voigt Hill
#
# Bulk Modulus (GPa) = 18.44196 33.79577 26.11887
# Shear Modulus (GPa) = 22.48518 34.31731 28.40125
#
# Velocity S-wave (km/s) = 3.11220 3.84482 3.49775
# Velocity P-wave (km/s) = 4.56711 5.85390 5.25008
#
# Compressibility (1/GPa) = 0.05422416
#
# Stress axis : x y z
#
# Youngs Moduli (GPa) = 123.76212 18.01707 96.33105
#
# Poissons Ratio (x) = -0.01885 -0.00049
# Poissons Ratio (y) = -0.12947 1.05203
# Poissons Ratio (z) = -0.00063 0.19676
#
# Static dielectric constant tensor:
#      x y z
#    x 1.990890 0.000000 0.000000 
#    y 0.000000 2.534930 0.000000 
#    z 0.000000 0.000000 1.933670 
# 
# From -- ./inp_files/4895.got.cif
#   From: 2010.05.17/outbox.cif.g08.bks.cpg/sg29_3_cif.got.tgz:4895.got - 2010.06.04 01:19:37.
