data_PCOD9340281
_publ_section_title
;
Structure prediction by ZEFSAII (Michael W. Deem and Ramdas Pophale) SiO2 
 PCOD9340281
Probable space group: P C A 21
;
_chemical_formula_sum "Si O2"
_cell_formula_units_Z 32
_cell_length_a 15.732628
_cell_length_b 7.094795
_cell_length_c 11.005019
_cell_angle_alpha 90.000000
_cell_angle_beta 90.000000
_cell_angle_gamma 90.000000
_cell_volume 1228.377695
_symmetry_space_group_name_H-M "P C A 21"
_symmetry_group_IT_number 29
_symmetry_cell_setting 'orthorhombic'
loop_
_space_group_symop_operation_xyz
x,y,z
-x,-y,1/2+z
1/2-x,y,1/2+z
1/2+x,-y,z
loop_
_atom_site_type_symbol
_atom_site_label
_atom_site_fract_x
_atom_site_fract_y
_atom_site_fract_z
Si Si1 0.713186 0.546771 0.602020
Si Si2 0.946672 0.568531 0.357978
Si Si3 0.007299 0.028536 0.787087
Si Si4 0.743721 0.104134 0.108563
Si Si5 0.815306 0.121833 0.859118
Si Si6 0.754824 0.534593 0.353761
Si Si7 0.552921 0.085083 0.047854
Si Si8 0.010120 0.494095 0.614239
O O1 0.750330 0.333729 0.605127
O O2 0.737617 0.644242 0.476935
O O3 0.752435 0.633323 0.724073
O O4 0.611773 0.530725 0.605974
O O5 0.853914 0.476336 0.362561
O O6 0.003178 0.457279 0.257104
O O7 0.939479 0.778525 0.302482
O O8 0.982065 0.601605 0.492809
O O9 0.908708 0.075469 0.813398
O O10 0.005846 0.968258 0.645032
O O11 0.033409 0.912696 0.905400
O O12 0.750779 0.058984 0.252329
O O13 0.650948 0.036856 0.066603
O O14 0.804403 0.050988 0.996802
O O15 0.803067 0.348859 0.860712
O O16 0.537692 0.297323 0.093118
#
# Coordination Sequence:
#
# PCOD9340281 Si02
#       8
#     4   4   4   4   4   4   4   4
#     4   9  17  30  50  77 107 138 175 224 280 332
#     4  10  20  34  56  86 115 145 186 235 285 339
#     4  10  22  39  57  82 118 157 196 237 284 343
#     4   9  17  31  53  79 106 140 183 228 277 334
#     4   9  17  31  53  79 106 140 183 228 277 334
#     4   9  17  30  50  77 107 138 175 224 280 332
#     4  10  22  39  57  82 118 157 196 237 284 343
#     4  10  20  34  56  86 115 145 186 235 285 339
#
# _framework density 26.050619000000001
#
# number of rings (size 3 to 8) (size 9 to 14) (size 15 to 20)
#    0.000    2.500    0.000    3.000    0.000    5.000 
#    0.000    1.250    0.000    6.000    0.000    0.000 
#    0.000    0.000    0.000    0.000    0.000    0.000 
#
# Total GULP energy -178568.764413 kJ/mol
# GULP energy per Si atom -5580.273888 kJ/mol
# Density = 2.599133 g / cm^3
# Si number density = 26.050619 Si / 1000 Ang^3
#
#
#
# Elastic Constant Matrix: (Units=GPa)
#
#
# Indices 1 2 3 4 5 6 
#
# 1 58.0493 -7.4937 22.6104 0.0000 0.0000 0.0000
# 2 -7.4937 48.7690 13.8361 0.0000 0.0000 0.0000
# 3 22.6104 13.8361 206.6062 0.0000 0.0000 0.0000
# 4 0.0000 0.0000 0.0000 12.7100 0.0000 0.0000
# 5 0.0000 0.0000 0.0000 0.0000 38.1155 0.0000
# 6 0.0000 0.0000 0.0000 0.0000 0.0000 14.3917
#
#
#
# Elastic Compliance Matrix: (Units=1/GPa)
#
#
# Indices 1 2 3 4 5 6 
#
# 1 0.018560 0.003495 -0.002265 0.000000 0.000000 0.000000
# 2 0.003495 0.021560 -0.001826 0.000000 0.000000 0.000000
# 3 -0.002265 -0.001826 0.005210 0.000000 0.000000 0.000000
# 4 0.000000 0.000000 0.000000 0.078678 0.000000 0.000000
# 5 0.000000 0.000000 0.000000 0.000000 0.026236 0.000000
# 6 0.000000 0.000000 0.000000 0.000000 0.000000 0.069485
#
#
# Mechanical properties :
#
#
# Convention : Reuss Voigt Hill
#
# Bulk Modulus (GPa) = 22.65694 41.25890 31.95792
# Shear Modulus (GPa) = 21.21922 32.00823 26.61373
#
# Velocity S-wave (km/s) = 2.85711 3.50908 3.19974
# Velocity P-wave (km/s) = 4.42722 5.68247 5.09366
#
# Compressibility (1/GPa) = 0.04413658
#
# Stress axis : x y z
#
# Youngs Moduli (GPa) = 53.87886 46.38241 191.92664
#
# Poissons Ratio (x) = -0.16209 0.43475
# Poissons Ratio (y) = -0.18828 0.35051
# Poissons Ratio (z) = 0.12205 0.08471
#
# Static dielectric constant tensor:
#      x y z
#    x 2.019960 0.000000 0.000000 
#    y 0.000000 2.080900 0.000000 
#    z 0.000000 0.000000 2.238710 
# 
# From -- ./inp_files/3690.got.cif
#   From: 2010.05.17/outbox.cif.g08.bks.cpg/sg29_2_cif.got.tgz:3690.got - 2010.06.04 01:19:37.
