data_PCOD9340845
_publ_section_title
;
Structure prediction by ZEFSAII (Michael W. Deem and Ramdas Pophale) SiO2 
 PCOD9340845
Probable space group: P C A 21
;
_chemical_formula_sum "Si O2"
_cell_formula_units_Z 32
_cell_length_a 9.918848
_cell_length_b 5.645480
_cell_length_c 23.798291
_cell_angle_alpha 90.000000
_cell_angle_beta 90.000000
_cell_angle_gamma 90.000000
_cell_volume 1332.624762
_symmetry_space_group_name_H-M "P C A 21"
_symmetry_group_IT_number 29
_symmetry_cell_setting 'orthorhombic'
loop_
_space_group_symop_operation_xyz
x,y,z
-x,-y,1/2+z
1/2-x,y,1/2+z
1/2+x,-y,z
loop_
_atom_site_type_symbol
_atom_site_label
_atom_site_fract_x
_atom_site_fract_y
_atom_site_fract_z
Si Si1 0.973451 0.058321 0.373000
Si Si2 0.001543 0.424772 0.178000
Si Si3 0.748069 0.823389 0.313285
Si Si4 0.680831 0.312334 0.782768
Si Si5 0.254154 0.515133 0.516531
Si Si6 0.227398 0.284333 0.639141
Si Si7 0.386548 0.896867 0.080377
Si Si8 0.512162 0.769682 0.490591
O O1 0.125791 0.103621 0.353769
O O2 0.968016 0.065681 0.439629
O O3 0.887484 0.267673 0.343648
O O4 0.894178 0.840655 0.344369
O O5 0.932756 0.335491 0.234939
O O6 0.920807 0.665893 0.164790
O O7 0.966694 0.269370 0.122605
O O8 0.161459 0.403602 0.178259
O O9 0.738165 0.556937 0.290322
O O10 0.749303 0.054451 0.271494
O O11 0.249911 0.410842 0.579302
O O12 0.182286 0.766241 0.527836
O O13 0.403266 0.561011 0.495975
O O14 0.158132 0.347653 0.480431
O O15 0.226452 0.012674 0.620810
O O16 0.477849 0.093468 0.049784
#
# Coordination Sequence:
#
# PCOD9340845 Si02
#       8
#     4   4   4   4   4   4   4   4
#     4  10  27  45  74 102 142 186 238 303 350 430
#     4  11  24  40  67  98 131 185 224 294 345 426
#     4  10  26  48  71 106 139 184 237 292 358 417
#     4  10  27  45  74 101 145 183 241 293 356 421
#     4  10  22  41  62  96 134 177 228 282 351 426
#     4  10  22  40  62  95 134 175 229 282 354 416
#     4  10  22  39  66  96 137 175 232 286 351 425
#     4  11  24  42  68  98 136 185 227 292 351 427
#
# _framework density 24.012761000000001
#
# number of rings (size 3 to 8) (size 9 to 14) (size 15 to 20)
#    0.750    1.000    0.000    3.000    8.750    3.000 
#    0.000    0.000    0.000    0.000    0.000    0.000 
#    0.000    0.000    0.000    0.000    0.000    0.000 
#
# Total GULP energy -178467.856590 kJ/mol
# GULP energy per Si atom -5577.120518 kJ/mol
# Density = 2.395811 g / cm^3
# Si number density = 24.012761 Si / 1000 Ang^3
#
#
#
# Elastic Constant Matrix: (Units=GPa)
#
#
# Indices 1 2 3 4 5 6 
#
# 1 63.5245 0.9127 -0.2820 0.0000 0.0000 0.0000
# 2 0.9127 75.6536 -7.7910 0.0000 0.0000 0.0000
# 3 -0.2820 -7.7910 58.0722 0.0000 0.0000 0.0000
# 4 0.0000 0.0000 0.0000 10.7701 0.0000 0.0000
# 5 0.0000 0.0000 0.0000 0.0000 29.3484 0.0000
# 6 0.0000 0.0000 0.0000 0.0000 0.0000 3.0375
#
#
#
# Elastic Compliance Matrix: (Units=1/GPa)
#
#
# Indices 1 2 3 4 5 6 
#
# 1 0.015745 -0.000185 0.000052 0.000000 0.000000 0.000000
# 2 -0.000185 0.013405 0.001798 0.000000 0.000000 0.000000
# 3 0.000052 0.001798 0.017461 0.000000 0.000000 0.000000
# 4 0.000000 0.000000 0.000000 0.092850 0.000000 0.000000
# 5 0.000000 0.000000 0.000000 0.000000 0.034073 0.000000
# 6 0.000000 0.000000 0.000000 0.000000 0.000000 0.329214
#
#
# Mechanical properties :
#
#
# Convention : Reuss Voigt Hill
#
# Bulk Modulus (GPa) = 20.02364 20.32553 20.17458
# Shear Modulus (GPa) = 9.68867 22.25858 15.97363
#
# Velocity S-wave (km/s) = 2.01086 3.04789 2.58197
# Velocity P-wave (km/s) = 3.70787 4.56826 4.16036
#
# Compressibility (1/GPa) = 0.04994098
#
# Stress axis : x y z
#
# Youngs Moduli (GPa) = 63.51291 74.59630 57.26932
#
# Poissons Ratio (x) = 0.01377 -0.00296
# Poissons Ratio (y) = 0.01173 -0.10295
# Poissons Ratio (z) = -0.00328 -0.13409
#
# Static dielectric constant tensor:
#      x y z
#    x 1.981250 0.000000 0.000000 
#    y 0.000000 2.069200 0.000000 
#    z 0.000000 0.000000 1.879100 
# 
# From -- ./inp_files/5723.got.cif
#   From: 2010.05.17/outbox.cif.g08.bks.cpg/sg29_3_cif.got.tgz:5723.got - 2010.06.04 01:19:37.
