data_PCOD9340814
_publ_section_title
;
Structure prediction by ZEFSAII (Michael W. Deem and Ramdas Pophale) SiO2 
 PCOD9340814
Probable space group: P C A 21
;
_chemical_formula_sum "Si O2"
_cell_formula_units_Z 24
_cell_length_a 21.756339
_cell_length_b 9.254512
_cell_length_c 4.962703
_cell_angle_alpha 90.000000
_cell_angle_beta 90.000000
_cell_angle_gamma 90.000000
_cell_volume 999.211963
_symmetry_space_group_name_H-M "P C A 21"
_symmetry_group_IT_number 29
_symmetry_cell_setting 'orthorhombic'
loop_
_space_group_symop_operation_xyz
x,y,z
-x,-y,1/2+z
1/2-x,y,1/2+z
1/2+x,-y,z
loop_
_atom_site_type_symbol
_atom_site_label
_atom_site_fract_x
_atom_site_fract_y
_atom_site_fract_z
Si Si1 0.456454 0.298298 0.937990
Si Si2 0.597488 0.235865 0.973040
Si Si3 0.957822 0.003509 0.823865
Si Si4 0.099283 0.437719 0.918194
Si Si5 0.211730 0.790411 0.623032
Si Si6 0.284243 0.439732 0.091974
O O1 0.527996 0.266236 0.873925
O O2 0.421799 0.363009 0.686869
O O3 0.429279 0.136338 0.968248
O O4 0.453830 0.404720 0.195053
O O5 0.617725 0.401075 0.014791
O O6 0.647060 0.171104 0.765559
O O7 0.585921 0.133966 0.230631
O O8 0.988701 0.955770 0.537074
O O9 0.156101 0.381365 0.740861
O O10 0.233744 0.836798 0.328112
O O11 0.211004 0.614659 0.599595
O O12 0.272066 0.397307 0.786798
#
# Coordination Sequence:
#
# PCOD9340814 Si02
#       6
#     4   4   4   4   4   4
#     4  11  22  37  55  88 124 153 188 242 303 360
#     4  10  22  38  61  85 117 157 196 245 301 358
#     4  10  22  39  59  84 117 161 199 230 292 377
#     4  11  22  35  58  88 117 148 197 254 299 348
#     4   9  19  33  53  81 109 142 194 249 293 341
#     4   9  17  32  52  76 108 149 192 238 294 354
#
# _framework density 24.018923999999998
#
# number of rings (size 3 to 8) (size 9 to 14) (size 15 to 20)
#    0.000    2.000    0.000    4.000    0.000   10.667 
#    0.000    0.000    0.000    6.000    0.000    0.000 
#    0.000    0.000    0.000    0.000    0.000    0.000 
#
# Total GULP energy -133838.689415 kJ/mol
# GULP energy per Si atom -5576.612059 kJ/mol
# Density = 2.396426 g / cm^3
# Si number density = 24.018924 Si / 1000 Ang^3
#
#
#
# Elastic Constant Matrix: (Units=GPa)
#
#
# Indices 1 2 3 4 5 6 
#
# 1 71.1470 4.8157 8.1953 0.0000 0.0000 0.0000
# 2 4.8157 62.5239 25.9696 0.0000 0.0000 0.0000
# 3 8.1953 25.9696 132.4027 0.0000 0.0000 0.0000
# 4 0.0000 0.0000 0.0000 36.3844 0.0000 0.0000
# 5 0.0000 0.0000 0.0000 0.0000 27.1506 0.0000
# 6 0.0000 0.0000 0.0000 0.0000 0.0000 7.9734
#
#
#
# Elastic Compliance Matrix: (Units=1/GPa)
#
#
# Indices 1 2 3 4 5 6 
#
# 1 0.014192 -0.000793 -0.000723 0.000000 0.000000 0.000000
# 2 -0.000793 0.017457 -0.003375 0.000000 0.000000 0.000000
# 3 -0.000723 -0.003375 0.008259 0.000000 0.000000 0.000000
# 4 0.000000 0.000000 0.000000 0.027484 0.000000 0.000000
# 5 0.000000 0.000000 0.000000 0.000000 0.036832 0.000000
# 6 0.000000 0.000000 0.000000 0.000000 0.000000 0.125417
#
#
# Mechanical properties :
#
#
# Convention : Reuss Voigt Hill
#
# Bulk Modulus (GPa) = 33.19271 38.22611 35.70941
# Shear Modulus (GPa) = 20.04286 29.44121 24.74204
#
# Velocity S-wave (km/s) = 2.89184 3.50487 3.21301
# Velocity P-wave (km/s) = 4.99997 5.68580 5.35388
#
# Compressibility (1/GPa) = 0.03012710
#
# Stress axis : x y z
#
# Youngs Moduli (GPa) = 70.46049 57.28449 121.07382
#
# Poissons Ratio (x) = 0.04542 0.08753
# Poissons Ratio (y) = 0.05586 0.40861
# Poissons Ratio (z) = 0.05094 0.19333
#
# Static dielectric constant tensor:
#      x y z
#    x 2.079540 0.000000 0.000000 
#    y 0.000000 2.014120 0.000000 
#    z 0.000000 0.000000 1.879410 
# 
# From -- ./inp_files/518.got.cif
#   From: 2010.05.17/outbox.cif.g08.bks.cpg/sg29_1_cif.got.tgz:518.got - 2010.06.04 01:19:37.
