data_PCOD9340137
_publ_section_title
;
Structure prediction by ZEFSAII (Michael W. Deem and Ramdas Pophale) SiO2 
 PCOD9340137
Probable space group: P C A 21
;
_chemical_formula_sum "Si O2"
_cell_formula_units_Z 32
_cell_length_a 13.206974
_cell_length_b 21.306868
_cell_length_c 5.049175
_cell_angle_alpha 90.000000
_cell_angle_beta 90.000000
_cell_angle_gamma 90.000000
_cell_volume 1420.834067
_symmetry_space_group_name_H-M "P C A 21"
_symmetry_group_IT_number 29
_symmetry_cell_setting 'orthorhombic'
loop_
_space_group_symop_operation_xyz
x,y,z
-x,-y,1/2+z
1/2-x,y,1/2+z
1/2+x,-y,z
loop_
_atom_site_type_symbol
_atom_site_label
_atom_site_fract_x
_atom_site_fract_y
_atom_site_fract_z
Si Si1 0.818751 0.296769 0.226930
Si Si2 0.190967 0.319563 0.877842
Si Si3 0.556155 0.421249 0.858125
Si Si4 0.946389 0.029479 0.235904
Si Si5 0.807386 0.927558 0.401544
Si Si6 0.577528 0.557676 0.858060
Si Si7 0.323415 0.195343 0.231985
Si Si8 0.175279 0.847503 0.767393
O O1 0.724172 0.301829 0.429977
O O2 0.890226 0.355756 0.295537
O O3 0.860505 0.225694 0.262074
O O4 0.288598 0.312344 0.687501
O O5 0.155956 0.388049 0.805919
O O6 0.121574 0.261074 0.783958
O O7 0.616893 0.486892 0.818213
O O8 0.463904 0.430886 0.653128
O O9 0.513550 0.427426 0.154366
O O10 0.917267 0.102796 0.241986
O O11 0.844772 0.995301 0.328805
O O12 0.023632 0.000251 0.452897
O O13 0.789869 0.920508 0.710803
O O14 0.877340 0.870334 0.295341
O O15 0.232607 0.195223 0.451968
O O16 0.256701 0.856462 0.530449
#
# Coordination Sequence:
#
# PCOD9340137 Si02
#       8
#     4   4   4   4   4   4   4   4
#     4  10  21  38  63  88 113 146 199 251 287 339
#     4  10  19  33  52  78 106 138 183 224 260 313
#     4  10  21  38  54  81 114 148 189 229 287 347
#     4  12  24  38  55  87 121 141 183 244 283 334
#     4  10  19  36  58  75 100 148 186 212 265 331
#     4  10  21  36  55  78 116 154 184 228 285 349
#     4   8  16  30  49  72  98 125 169 215 246 302
#     4  10  21  41  64  85 114 158 195 233 293 355
#
# _framework density 22.521981
#
# number of rings (size 3 to 8) (size 9 to 14) (size 15 to 20)
#    0.000    2.000    0.000    3.750    0.000    1.000 
#    4.500    0.000    0.000    0.000    0.000    0.000 
#    0.000    0.000    0.000    0.000    0.000    0.000 
#
# Total GULP energy -178242.075365 kJ/mol
# GULP energy per Si atom -5570.064855 kJ/mol
# Density = 2.247072 g / cm^3
# Si number density = 22.521981 Si / 1000 Ang^3
#
#
#
# Elastic Constant Matrix: (Units=GPa)
#
#
# Indices 1 2 3 4 5 6 
#
# 1 10.9697 35.2741 6.1451 0.0000 0.0000 0.0000
# 2 35.2741 191.3089 7.2789 0.0000 0.0000 0.0000
# 3 6.1451 7.2789 85.1127 0.0000 0.0000 0.0000
# 4 0.0000 0.0000 0.0000 30.4926 0.0000 0.0000
# 5 0.0000 0.0000 0.0000 0.0000 -75.5282 0.0000
# 6 0.0000 0.0000 0.0000 0.0000 0.0000 17.5411
#
#
#
# Elastic Compliance Matrix: (Units=1/GPa)
#
#
# Indices 1 2 3 4 5 6 
#
# 1 0.238445 -0.043452 -0.013500 0.000000 0.000000 0.000000
# 2 -0.043452 0.013162 0.002012 0.000000 0.000000 0.000000
# 3 -0.013500 0.002012 0.012552 0.000000 0.000000 0.000000
# 4 0.000000 0.000000 0.000000 0.032795 0.000000 0.000000
# 5 0.000000 0.000000 0.000000 0.000000 -0.013240 0.000000
# 6 0.000000 0.000000 0.000000 0.000000 0.000000 0.057009
#
#
# Mechanical properties :
#
#
# Convention : Reuss Voigt Hill
#
# Bulk Modulus (GPa) = 6.48173 42.75418 24.61795
# Shear Modulus (GPa) = 9.95959 10.41400 10.18680
#
# Velocity S-wave (km/s) = 2.10518 2.15267 2.12905
# Velocity P-wave (km/s) = 2.96534 5.02027 4.12289
#
# Compressibility (1/GPa) = 0.15427990
#
# Stress axis : x y z
#
# Youngs Moduli (GPa) = 4.19384 75.97425 79.67010
#
# Poissons Ratio (x) = 3.30120 1.07551
# Poissons Ratio (y) = 0.18223 -0.16026
# Poissons Ratio (z) = 0.05661 -0.15282
#
# Static dielectric constant tensor:
#      x y z
#    x 2.620660 0.000000 0.000000 
#    y 0.000000 2.002910 0.000000 
#    z 0.000000 0.000000 1.819270 
# 
# From -- ./inp_files/268.got.cif
#   From: 2010.05.17/outbox.cif.g08.bks.cpg/sg29_1_cif.got.tgz:268.got - 2010.06.04 01:19:37.
