data_PCOD9340853
_publ_section_title
;
Structure prediction by ZEFSAII (Michael W. Deem and Ramdas Pophale) SiO2 
 PCOD9340853
Probable space group: P C A 21
;
_chemical_formula_sum "Si O2"
_cell_formula_units_Z 28
_cell_length_a 13.933013
_cell_length_b 8.571213
_cell_length_c 9.186917
_cell_angle_alpha 90.000000
_cell_angle_beta 90.000000
_cell_angle_gamma 90.000000
_cell_volume 1097.127555
_symmetry_space_group_name_H-M "P C A 21"
_symmetry_group_IT_number 29
_symmetry_cell_setting 'orthorhombic'
loop_
_space_group_symop_operation_xyz
x,y,z
-x,-y,1/2+z
1/2-x,y,1/2+z
1/2+x,-y,z
loop_
_atom_site_type_symbol
_atom_site_label
_atom_site_fract_x
_atom_site_fract_y
_atom_site_fract_z
Si Si1 0.749489 0.961938 0.283410
Si Si2 0.601468 0.213683 0.392091
Si Si3 0.436115 0.324377 0.889402
Si Si4 0.439897 0.591927 0.651956
Si Si5 0.767944 0.755598 0.517748
Si Si6 0.907465 0.204590 0.213041
Si Si7 0.204485 0.591771 0.925560
O O1 0.659171 0.063064 0.336325
O O2 0.824558 0.075959 0.206954
O O3 0.806333 0.897346 0.422569
O O4 0.725082 0.814193 0.181874
O O5 0.531145 0.277705 0.268706
O O6 0.554434 0.207257 0.549739
O O7 0.688591 0.342279 0.411365
O O8 0.424149 0.437088 0.748373
O O9 0.507235 0.190311 0.829423
O O10 0.488025 0.422528 0.017748
O O11 0.343049 0.258104 0.967585
O O12 0.345601 0.660980 0.570168
O O13 0.805808 0.589665 0.464314
O O14 0.853157 0.357698 0.280825
#
# Coordination Sequence:
#
# PCOD9340853 Si02
#       7
#     4   4   4   4   4   4   4
#     4  11  25  44  68  97 135 187 228 283 344 432
#     4  11  21  43  71  98 129 186 238 275 342 429
#     4  11  25  42  67 106 141 180 227 301 355 417
#     4  11  23  42  69 103 136 177 231 287 354 412
#     4  12  25  43  66 105 140 171 236 290 351 403
#     4  10  23  45  71  97 136 185 234 278 356 429
#     4  10  22  39  74 100 129 178 234 292 330 406
#
# _framework density 25.521187999999999
#
# number of rings (size 3 to 8) (size 9 to 14) (size 15 to 20)
#    0.000    1.143    2.857    3.429    6.000    1.143 
#    2.571    2.857    0.000    0.000    0.000    0.000 
#    0.000    0.000    0.000    0.000    0.000    0.000 
#
# Total GULP energy -156532.252583 kJ/mol
# GULP energy per Si atom -5590.437592 kJ/mol
# Density = 2.546310 g / cm^3
# Si number density = 25.521188 Si / 1000 Ang^3
#
#
#
# Elastic Constant Matrix: (Units=GPa)
#
#
# Indices 1 2 3 4 5 6 
#
# 1 46.8311 20.3084 28.5224 0.0000 0.0000 0.0000
# 2 20.3084 87.7732 28.6847 0.0000 0.0000 0.0000
# 3 28.5224 28.6847 152.1185 0.0000 0.0000 0.0000
# 4 0.0000 0.0000 0.0000 38.5943 0.0000 0.0000
# 5 0.0000 0.0000 0.0000 0.0000 32.4585 0.0000
# 6 0.0000 0.0000 0.0000 0.0000 0.0000 26.2788
#
#
#
# Elastic Compliance Matrix: (Units=1/GPa)
#
#
# Indices 1 2 3 4 5 6 
#
# 1 0.025789 -0.004675 -0.003954 0.000000 0.000000 0.000000
# 2 -0.004675 0.012989 -0.001573 0.000000 0.000000 0.000000
# 3 -0.003954 -0.001573 0.007612 0.000000 0.000000 0.000000
# 4 0.000000 0.000000 0.000000 0.025911 0.000000 0.000000
# 5 0.000000 0.000000 0.000000 0.000000 0.030809 0.000000
# 6 0.000000 0.000000 0.000000 0.000000 0.000000 0.038054
#
#
# Mechanical properties :
#
#
# Convention : Reuss Voigt Hill
#
# Bulk Modulus (GPa) = 38.48171 49.08376 43.78273
# Shear Modulus (GPa) = 29.37265 33.41345 31.39305
#
# Velocity S-wave (km/s) = 3.39619 3.62227 3.51105
# Velocity P-wave (km/s) = 5.52176 6.06373 5.79908
#
# Compressibility (1/GPa) = 0.02598637
#
# Stress axis : x y z
#
# Youngs Moduli (GPa) = 38.77676 76.99074 131.37584
#
# Poissons Ratio (x) = 0.35991 0.51945
# Poissons Ratio (y) = 0.18127 0.20662
# Poissons Ratio (z) = 0.15332 0.12109
#
# Static dielectric constant tensor:
#      x y z
#    x 2.053950 0.000000 0.000000 
#    y 0.000000 2.090260 0.000000 
#    z 0.000000 0.000000 1.986080 
# 
# From -- ./inp_files/2070.got.cif
#   From: 2010.05.17/outbox.cif.g08.bks.cpg/sg29_2_cif.got.tgz:2070.got - 2010.06.04 01:19:37.
