data_PCOD9340843
_publ_section_title
;
Structure prediction by ZEFSAII (Michael W. Deem and Ramdas Pophale) SiO2 
 PCOD9340843
Probable space group: P C A 21
;
_chemical_formula_sum "Si O2"
_cell_formula_units_Z 24
_cell_length_a 9.929546
_cell_length_b 7.917708
_cell_length_c 13.777096
_cell_angle_alpha 90.000000
_cell_angle_beta 90.000000
_cell_angle_gamma 90.000000
_cell_volume 1083.144897
_symmetry_space_group_name_H-M "P C A 21"
_symmetry_group_IT_number 29
_symmetry_cell_setting 'orthorhombic'
loop_
_space_group_symop_operation_xyz
x,y,z
-x,-y,1/2+z
1/2-x,y,1/2+z
1/2+x,-y,z
loop_
_atom_site_type_symbol
_atom_site_label
_atom_site_fract_x
_atom_site_fract_y
_atom_site_fract_z
Si Si1 0.573523 0.690876 0.106200
Si Si2 0.699164 0.845908 0.507510
Si Si3 0.845966 0.663451 0.816463
Si Si4 0.300835 0.845913 0.153816
Si Si5 0.654034 0.336555 0.844860
Si Si6 0.926476 0.309128 0.555127
O O1 0.645286 0.803204 0.026004
O O2 0.651113 0.730738 0.206654
O O3 0.414652 0.713827 0.116917
O O4 0.603874 0.500000 0.080668
O O5 0.680056 0.816471 0.391999
O O6 0.585348 0.713821 0.544408
O O7 0.669075 0.999997 0.580663
O O8 0.749999 0.500004 0.830661
O O9 1.000000 0.602063 0.830660
O O10 0.319940 0.816467 0.269327
O O11 0.145285 0.803211 0.135319
O O12 0.651113 0.269277 0.954671
#
# Coordination Sequence:
#
# PCOD9340843 Si02
#       6
#     4   4   4   4   4   4
#     4  11  22  40  68  93 129 176 229 271 330 407
#     4  11  24  41  62  96 137 172 217 282 340 391
#     4  10  22  39  64  96 127 168 227 273 328 399
#     4  11  24  41  62  96 137 172 217 282 340 391
#     4  10  22  39  64  96 127 168 227 273 328 399
#     4  11  22  40  68  93 129 176 229 271 330 407
#
# _framework density 22.157703000000001
#
# number of rings (size 3 to 8) (size 9 to 14) (size 15 to 20)
#    0.000    1.333    3.333    2.000    4.667    1.333 
#    0.000    3.333    0.000    0.000    0.000    0.000 
#    0.000    0.000    0.000    0.000    0.000    0.000 
#
# Total GULP energy -133619.455415 kJ/mol
# GULP energy per Si atom -5567.477309 kJ/mol
# Density = 2.210727 g / cm^3
# Si number density = 22.157703 Si / 1000 Ang^3
#
#
#
# Elastic Constant Matrix: (Units=GPa)
#
#
# Indices 1 2 3 4 5 6 
#
# 1 60.1113 -15.1021 2.1058 0.0000 0.0000 0.0000
# 2 -15.1021 66.3687 33.4266 0.0000 0.0000 0.0000
# 3 2.1058 33.4266 100.1539 0.0000 0.0000 0.0000
# 4 0.0000 0.0000 0.0000 33.5733 0.0000 0.0000
# 5 0.0000 0.0000 0.0000 0.0000 29.3980 0.0000
# 6 0.0000 0.0000 0.0000 0.0000 0.0000 -35.2371
#
#
#
# Elastic Compliance Matrix: (Units=1/GPa)
#
#
# Indices 1 2 3 4 5 6 
#
# 1 0.018004 0.005154 -0.002099 0.000000 0.000000 0.000000
# 2 0.005154 0.019587 -0.006646 0.000000 0.000000 0.000000
# 3 -0.002099 -0.006646 0.012247 0.000000 0.000000 0.000000
# 4 0.000000 0.000000 0.000000 0.029786 0.000000 0.000000
# 5 0.000000 0.000000 0.000000 0.000000 0.034016 0.000000
# 6 0.000000 0.000000 0.000000 0.000000 0.000000 -0.028379
#
#
# Mechanical properties :
#
#
# Convention : Reuss Voigt Hill
#
# Bulk Modulus (GPa) = 23.44277 29.72161 26.58219
# Shear Modulus (GPa) = 46.87775 19.29372 33.08574
#
# Velocity S-wave (km/s) = 4.60460 2.95404 3.86838
# Velocity P-wave (km/s) = 6.23480 5.00779 5.65467
#
# Compressibility (1/GPa) = 0.04265708
#
# Stress axis : x y z
#
# Youngs Moduli (GPa) = 55.54284 51.05388 81.65431
#
# Poissons Ratio (x) = -0.26312 0.17136
# Poissons Ratio (y) = -0.28626 0.54264
# Poissons Ratio (z) = 0.11656 0.33928
#
# Static dielectric constant tensor:
#      x y z
#    x 1.760710 0.000000 0.000000 
#    y 0.000000 1.866460 0.000000 
#    z 0.000000 0.000000 2.060580 
# 
# From -- ./inp_files/3117.got.cif
#   From: 2010.05.17/outbox.cif.g08.bks.cpg/sg29_2_cif.got.tgz:3117.got - 2010.06.04 01:19:37.
