data_PCOD9340747
_publ_section_title
;
Structure prediction by ZEFSAII (Michael W. Deem and Ramdas Pophale) SiO2 
 PCOD9340747
Probable space group: P C A 21
;
_chemical_formula_sum "Si O2"
_cell_formula_units_Z 28
_cell_length_a 15.475570
_cell_length_b 12.968093
_cell_length_c 5.383007
_cell_angle_alpha 90.000000
_cell_angle_beta 90.000000
_cell_angle_gamma 90.000000
_cell_volume 1080.308305
_symmetry_space_group_name_H-M "P C A 21"
_symmetry_group_IT_number 29
_symmetry_cell_setting 'orthorhombic'
loop_
_space_group_symop_operation_xyz
x,y,z
-x,-y,1/2+z
1/2-x,y,1/2+z
1/2+x,-y,z
loop_
_atom_site_type_symbol
_atom_site_label
_atom_site_fract_x
_atom_site_fract_y
_atom_site_fract_z
Si Si1 0.531043 0.762271 0.903380
Si Si2 0.794576 0.189794 0.383850
Si Si3 0.532011 0.456702 0.217576
Si Si4 0.212822 0.562382 0.948874
Si Si5 0.886519 0.885411 0.796013
Si Si6 0.947366 0.083383 0.576084
Si Si7 0.724688 0.746822 0.774570
O O1 0.490381 0.653492 0.838662
O O2 0.461492 0.846707 0.818842
O O3 0.623181 0.769243 0.754703
O O4 0.564006 0.786625 0.179043
O O5 0.749346 0.149699 0.136654
O O6 0.785815 0.312984 0.411881
O O7 0.893168 0.154915 0.391455
O O8 0.523760 0.527989 0.463439
O O9 0.625757 0.463213 0.094893
O O10 0.282144 0.529119 0.160645
O O11 0.788497 0.846075 0.825991
O O12 0.894397 0.978032 0.597578
O O13 0.953622 0.932808 0.993420
O O14 0.760885 0.690128 0.534716
#
# Coordination Sequence:
#
# PCOD9340747 Si02
#       7
#     4   4   4   4   4   4   4
#     4  11  25  46  71 102 149 196 241 314 377 442
#     4  10  24  40  66 100 135 182 232 292 368 430
#     4  12  28  48  77 112 144 198 261 319 384 464
#     4  10  21  43  70 100 142 185 231 311 380 440
#     4  11  25  41  70 105 150 196 253 294 370 451
#     4  12  23  42  70 104 143 197 246 297 364 448
#     4  10  22  42  66  99 143 192 236 299 359 435
#
# _framework density 25.918526
#
# number of rings (size 3 to 8) (size 9 to 14) (size 15 to 20)
#    0.000    1.143    4.286    0.857    4.000    3.429 
#    0.000    8.571    0.000    0.000    0.000    0.000 
#    0.000    0.000    0.000    0.000    0.000    0.000 
#
# Total GULP energy -156289.781531 kJ/mol
# GULP energy per Si atom -5581.777912 kJ/mol
# Density = 2.585953 g / cm^3
# Si number density = 25.918526 Si / 1000 Ang^3
#
#
#
# Elastic Constant Matrix: (Units=GPa)
#
#
# Indices 1 2 3 4 5 6 
#
# 1 88.3181 10.5746 4.7103 0.0000 0.0000 0.0000
# 2 10.5746 85.4306 25.9030 0.0000 0.0000 0.0000
# 3 4.7103 25.9030 66.0468 0.0000 0.0000 0.0000
# 4 0.0000 0.0000 0.0000 12.0591 0.0000 0.0000
# 5 0.0000 0.0000 0.0000 0.0000 50.4475 0.0000
# 6 0.0000 0.0000 0.0000 0.0000 0.0000 27.4799
#
#
#
# Elastic Compliance Matrix: (Units=1/GPa)
#
#
# Indices 1 2 3 4 5 6 
#
# 1 0.011498 -0.001333 -0.000297 0.000000 0.000000 0.000000
# 2 -0.001333 0.013440 -0.005176 0.000000 0.000000 0.000000
# 3 -0.000297 -0.005176 0.017192 0.000000 0.000000 0.000000
# 4 0.000000 0.000000 0.000000 0.082925 0.000000 0.000000
# 5 0.000000 0.000000 0.000000 0.000000 0.019823 0.000000
# 6 0.000000 0.000000 0.000000 0.000000 0.000000 0.036390
#
#
# Mechanical properties :
#
#
# Convention : Reuss Voigt Hill
#
# Bulk Modulus (GPa) = 35.06623 35.79680 35.43152
# Shear Modulus (GPa) = 24.46352 31.23781 27.85066
#
# Velocity S-wave (km/s) = 3.07557 3.47541 3.28158
# Velocity P-wave (km/s) = 5.11575 5.47228 5.29702
#
# Compressibility (1/GPa) = 0.02851747
#
# Stress axis : x y z
#
# Youngs Moduli (GPa) = 86.97031 74.40605 58.16692
#
# Poissons Ratio (x) = 0.09919 0.01729
# Poissons Ratio (y) = 0.11594 0.30107
# Poissons Ratio (z) = 0.02584 0.38512
#
# Static dielectric constant tensor:
#      x y z
#    x 2.089660 0.000000 0.000000 
#    y 0.000000 2.121670 0.000000 
#    z 0.000000 0.000000 2.223360 
# 
# From -- ./inp_files/228.got.cif
#   From: 2010.05.17/outbox.cif.g08.bks.cpg/sg29_1_cif.got.tgz:228.got - 2010.06.04 01:19:37.
