data_PCOD9340010
_publ_section_title
;
Structure prediction by ZEFSAII (Michael W. Deem and Ramdas Pophale) SiO2 
 PCOD9340010
Probable space group: P C A 21
;
_chemical_formula_sum "Si O2"
_cell_formula_units_Z 32
_cell_length_a 8.449209
_cell_length_b 11.994965
_cell_length_c 14.023394
_cell_angle_alpha 90.000000
_cell_angle_beta 90.000000
_cell_angle_gamma 90.000000
_cell_volume 1421.242462
_symmetry_space_group_name_H-M "P C A 21"
_symmetry_group_IT_number 29
_symmetry_cell_setting 'orthorhombic'
loop_
_space_group_symop_operation_xyz
x,y,z
-x,-y,1/2+z
1/2-x,y,1/2+z
1/2+x,-y,z
loop_
_atom_site_type_symbol
_atom_site_label
_atom_site_fract_x
_atom_site_fract_y
_atom_site_fract_z
Si Si1 0.301492 0.761567 0.170260
Si Si2 0.647163 0.514670 0.306776
Si Si3 0.302452 0.253061 0.293187
Si Si4 0.799867 0.874608 0.956582
Si Si5 0.937562 0.108188 0.019675
Si Si6 0.106071 0.526266 0.666485
Si Si7 0.051433 0.291094 0.596296
Si Si8 0.160771 0.720360 0.369320
O O1 0.384431 0.870021 0.127964
O O2 0.408464 0.654658 0.138651
O O3 0.278192 0.757693 0.284407
O O4 0.124312 0.745017 0.128525
O O5 0.706748 0.637614 0.326925
O O6 0.711977 0.486851 0.199296
O O7 0.465027 0.512715 0.274150
O O8 0.679565 0.413404 0.378592
O O9 0.223898 0.148143 0.344341
O O10 0.325754 0.254246 0.180042
O O11 0.481947 0.263660 0.330717
O O12 0.623544 0.876202 0.001750
O O13 0.897043 0.772862 0.002480
O O14 0.886549 0.988355 0.981789
O O15 0.837797 0.201558 0.960716
O O16 0.065772 0.425672 0.596293
#
# Coordination Sequence:
#
# PCOD9340010 Si02
#       8
#     4   4   4   4   4   4   4   4
#     4  10  21  39  63  93 122 165 200 251 309 365
#     4  10  16  35  60  93 121 154 192 243 300 371
#     4   9  20  38  64  88 122 162 200 247 314 363
#     4  11  25  44  60  87 120 162 213 265 301 366
#     4  11  25  43  61  85 122 160 216 262 305 363
#     4  10  18  33  62  93 126 152 192 243 301 369
#     4  10  20  40  64  88 128 161 201 252 306 368
#     4   9  19  40  62  87 125 162 196 253 306 369
#
# _framework density 22.515511
#
# number of rings (size 3 to 8) (size 9 to 14) (size 15 to 20)
#    0.000    2.000    5.000    0.750    3.500    2.000 
#    9.000    5.000    0.000    0.000    0.000    0.000 
#    0.000    0.000    0.000    0.000    0.000    0.000 
#
# Total GULP energy -178435.601970 kJ/mol
# GULP energy per Si atom -5576.112562 kJ/mol
# Density = 2.246426 g / cm^3
# Si number density = 22.515511 Si / 1000 Ang^3
#
#
#
# Elastic Constant Matrix: (Units=GPa)
#
#
# Indices 1 2 3 4 5 6 
#
# 1 21.1143 -6.1745 -4.3958 0.0000 0.0000 0.0000
# 2 -6.1745 56.0145 5.4523 0.0000 0.0000 0.0000
# 3 -4.3958 5.4523 39.1872 0.0000 0.0000 0.0000
# 4 0.0000 0.0000 0.0000 39.5020 0.0000 0.0000
# 5 0.0000 0.0000 0.0000 0.0000 18.0336 0.0000
# 6 0.0000 0.0000 0.0000 0.0000 0.0000 27.5742
#
#
#
# Elastic Compliance Matrix: (Units=1/GPa)
#
#
# Indices 1 2 3 4 5 6 
#
# 1 0.049847 0.005018 0.004893 0.000000 0.000000 0.000000
# 2 0.005018 0.018603 -0.002025 0.000000 0.000000 0.000000
# 3 0.004893 -0.002025 0.026349 0.000000 0.000000 0.000000
# 4 0.000000 0.000000 0.000000 0.025315 0.000000 0.000000
# 5 0.000000 0.000000 0.000000 0.000000 0.055452 0.000000
# 6 0.000000 0.000000 0.000000 0.000000 0.000000 0.036266
#
#
# Mechanical properties :
#
#
# Convention : Reuss Voigt Hill
#
# Bulk Modulus (GPa) = 9.04386 11.78669 10.41527
# Shear Modulus (GPa) = 21.46685 25.11756 23.29221
#
# Velocity S-wave (km/s) = 3.09111 3.34363 3.21985
# Velocity P-wave (km/s) = 4.09455 4.48919 4.29640
#
# Compressibility (1/GPa) = 0.11057227
#
# Stress axis : x y z
#
# Youngs Moduli (GPa) = 20.06120 53.75525 37.95177
#
# Poissons Ratio (x) = -0.26976 -0.18571
# Poissons Ratio (y) = -0.10067 0.07687
# Poissons Ratio (z) = -0.09817 0.10888
#
# Static dielectric constant tensor:
#      x y z
#    x 1.821630 0.000000 0.000000 
#    y 0.000000 1.855740 0.000000 
#    z 0.000000 0.000000 1.876560 
# 
# From -- ./inp_files/4266.got.cif
#   From: 2010.05.17/outbox.cif.g08.bks.cpg/sg29_3_cif.got.tgz:4266.got - 2010.06.04 01:19:37.
