data_PCOD9340011
_publ_section_title
;
Structure prediction by ZEFSAII (Michael W. Deem and Ramdas Pophale) SiO2 
 PCOD9340011
Probable space group: P C A 21
;
_chemical_formula_sum "Si O2"
_cell_formula_units_Z 28
_cell_length_a 11.868306
_cell_length_b 16.138193
_cell_length_c 5.486733
_cell_angle_alpha 90.000000
_cell_angle_beta 90.000000
_cell_angle_gamma 90.000000
_cell_volume 1050.890502
_symmetry_space_group_name_H-M "P C A 21"
_symmetry_group_IT_number 29
_symmetry_cell_setting 'orthorhombic'
loop_
_space_group_symop_operation_xyz
x,y,z
-x,-y,1/2+z
1/2-x,y,1/2+z
1/2+x,-y,z
loop_
_atom_site_type_symbol
_atom_site_label
_atom_site_fract_x
_atom_site_fract_y
_atom_site_fract_z
Si Si1 0.692499 0.111116 0.035090
Si Si2 0.119696 0.642609 0.533220
Si Si3 0.054040 0.033682 0.076172
Si Si4 0.272440 0.219330 0.146778
Si Si5 0.490741 0.798461 0.835391
Si Si6 0.618705 0.424298 0.034385
Si Si7 0.694285 0.597673 0.140019
O O1 0.775274 0.131757 0.260071
O O2 0.581657 0.159103 0.122754
O O3 0.672866 0.012507 0.054192
O O4 0.251232 0.613001 0.540271
O O5 0.068731 0.604778 0.287627
O O6 0.090439 0.737747 0.485328
O O7 0.069243 0.613143 0.788721
O O8 0.037557 0.129348 0.011343
O O9 0.988862 0.989489 0.846524
O O10 0.268641 0.174225 0.889734
O O11 0.193813 0.302180 0.129264
O O12 0.401575 0.242330 0.204308
O O13 0.882636 0.523070 0.544401
O O14 0.790320 0.581561 0.929116
#
# Coordination Sequence:
#
# PCOD9340011 Si02
#       7
#     4   4   4   4   4   4   4
#     4  11  25  43  71 108 143 191 229 283 367 442
#     4  10  21  32  61  96 135 173 221 273 365 397
#     4  10  23  45  67  94 138 191 230 279 344 421
#     4  10  25  43  70  98 133 193 249 296 357 405
#     4  11  26  45  71 108 152 180 241 311 347 432
#     4  10  18  35  58  97 132 183 214 273 349 433
#     4  10  16  35  64  87 125 181 228 283 341 406
#
# _framework density 26.644071
#
# number of rings (size 3 to 8) (size 9 to 14) (size 15 to 20)
#    0.000    1.714    2.857    1.714    4.000    8.000 
#    0.000    0.000    6.286    0.000    0.000    0.000 
#    0.000    0.000    0.000    0.000    0.000    0.000 
#
# Total GULP energy -156242.228635 kJ/mol
# GULP energy per Si atom -5580.079594 kJ/mol
# Density = 2.658343 g / cm^3
# Si number density = 26.644071 Si / 1000 Ang^3
#
#
#
# Elastic Constant Matrix: (Units=GPa)
#
#
# Indices 1 2 3 4 5 6 
#
# 1 75.2058 43.2673 31.4797 0.0000 0.0000 0.0000
# 2 43.2673 121.2923 59.7629 0.0000 0.0000 0.0000
# 3 31.4797 59.7629 188.9741 0.0000 0.0000 0.0000
# 4 0.0000 0.0000 0.0000 41.3011 0.0000 0.0000
# 5 0.0000 0.0000 0.0000 0.0000 32.5211 0.0000
# 6 0.0000 0.0000 0.0000 0.0000 0.0000 386.8319
#
#
#
# Elastic Compliance Matrix: (Units=1/GPa)
#
#
# Indices 1 2 3 4 5 6 
#
# 1 0.016914 -0.005503 -0.001077 0.000000 0.000000 0.000000
# 2 -0.005503 0.011557 -0.002738 0.000000 0.000000 0.000000
# 3 -0.001077 -0.002738 0.006337 0.000000 0.000000 0.000000
# 4 0.000000 0.000000 0.000000 0.024212 0.000000 0.000000
# 5 0.000000 0.000000 0.000000 0.000000 0.030749 0.000000
# 6 0.000000 0.000000 0.000000 0.000000 0.000000 0.002585
#
#
# Mechanical properties :
#
#
# Convention : Reuss Voigt Hill
#
# Bulk Modulus (GPa) = 61.83836 72.72134 67.27985
# Shear Modulus (GPa) = 42.96257 108.86164 75.91210
#
# Velocity S-wave (km/s) = 4.01990 6.39894 5.34350
# Velocity P-wave (km/s) = 6.69370 9.05252 7.96096
#
# Compressibility (1/GPa) = 0.01617119
#
# Stress axis : x y z
#
# Youngs Moduli (GPa) = 59.12429 86.53111 157.80043
#
# Poissons Ratio (x) = 0.47614 0.17000
# Poissons Ratio (y) = 0.32534 0.43208
# Poissons Ratio (z) = 0.06370 0.23693
#
# Static dielectric constant tensor:
#      x y z
#    x 2.196040 0.000000 0.000000 
#    y 0.000000 2.153280 0.000000 
#    z 0.000000 0.000000 2.065440 
# 
# From -- ./inp_files/99.got.cif
#   From: 2010.05.17/outbox.cif.g08.bks.cpg/sg29_1_cif.got.tgz:99.got - 2010.06.04 01:19:37.
