data_PCOD9340629
_publ_section_title
;
Structure prediction by ZEFSAII (Michael W. Deem and Ramdas Pophale) SiO2 
 PCOD9340629
Probable space group: P C A 21
;
_chemical_formula_sum "Si O2"
_cell_formula_units_Z 28
_cell_length_a 26.619882
_cell_length_b 7.769752
_cell_length_c 5.842810
_cell_angle_alpha 90.000000
_cell_angle_beta 90.000000
_cell_angle_gamma 90.000000
_cell_volume 1208.467699
_symmetry_space_group_name_H-M "P C A 21"
_symmetry_group_IT_number 29
_symmetry_cell_setting 'orthorhombic'
loop_
_space_group_symop_operation_xyz
x,y,z
-x,-y,1/2+z
1/2-x,y,1/2+z
1/2+x,-y,z
loop_
_atom_site_type_symbol
_atom_site_label
_atom_site_fract_x
_atom_site_fract_y
_atom_site_fract_z
Si Si1 0.986680 0.769449 0.020060
Si Si2 0.882593 0.663139 0.201853
Si Si3 0.129785 0.013661 0.036370
Si Si4 0.242806 0.886695 0.065272
Si Si5 0.582350 0.310130 0.785244
Si Si6 0.058593 0.886873 0.382553
Si Si7 0.775780 0.734755 0.045167
O O1 0.933915 0.680039 0.059094
O O2 0.022843 0.762484 0.238563
O O3 0.022044 0.693582 0.821964
O O4 0.977580 0.975856 0.006142
O O5 0.890648 0.486453 0.337678
O O6 0.831758 0.660262 0.056320
O O7 0.878203 0.823863 0.374165
O O8 0.104701 0.844505 0.930283
O O9 0.187556 0.970904 0.071614
O O10 0.097008 0.020728 0.264176
O O11 0.251738 0.797808 0.313835
O O12 0.278346 0.055923 0.055627
O O13 0.591505 0.242544 0.530802
O O14 0.749713 0.690840 0.296060
#
# Coordination Sequence:
#
# PCOD9340629 Si02
#       7
#     4   4   4   4   4   4   4
#     4  11  23  41  67  97 137 184 230 293 356 437
#     4  12  25  44  75 101 139 196 234 307 374 437
#     4  11  24  44  71  95 141 189 231 305 372 424
#     4  10  21  39  72 106 135 183 253 296 361 452
#     4  11  27  45  63 109 142 177 256 290 368 450
#     4  11  22  43  68  98 142 185 233 298 357 439
#     4  10  22  44  70 108 142 184 251 303 364 451
#
# _framework density 23.169840000000001
#
# number of rings (size 3 to 8) (size 9 to 14) (size 15 to 20)
#    0.000    1.143    5.714    0.857    8.000    0.000 
#    7.714    1.429    0.000    0.000    0.000    0.000 
#    0.000    0.000    0.000    0.000    0.000    0.000 
#
# Total GULP energy -156190.707380 kJ/mol
# GULP energy per Si atom -5578.239549 kJ/mol
# Density = 2.311710 g / cm^3
# Si number density = 23.169840 Si / 1000 Ang^3
#
#
#
# Elastic Constant Matrix: (Units=GPa)
#
#
# Indices 1 2 3 4 5 6 
#
# 1 75.9865 13.1373 32.6862 0.0000 0.0000 0.0000
# 2 13.1373 61.8201 9.0906 0.0000 0.0000 0.0000
# 3 32.6862 9.0906 98.8827 0.0000 0.0000 0.0000
# 4 0.0000 0.0000 0.0000 -28.9036 0.0000 0.0000
# 5 0.0000 0.0000 0.0000 0.0000 33.5648 0.0000
# 6 0.0000 0.0000 0.0000 0.0000 0.0000 5.4271
#
#
#
# Elastic Compliance Matrix: (Units=1/GPa)
#
#
# Indices 1 2 3 4 5 6 
#
# 1 0.015748 -0.002617 -0.004965 0.000000 0.000000 0.000000
# 2 -0.002617 0.016832 -0.000683 0.000000 0.000000 0.000000
# 3 -0.004965 -0.000683 0.011817 0.000000 0.000000 0.000000
# 4 0.000000 0.000000 0.000000 -0.034598 0.000000 0.000000
# 5 0.000000 0.000000 0.000000 0.000000 0.029793 0.000000
# 6 0.000000 0.000000 0.000000 0.000000 0.000000 0.184261
#
#
# Mechanical properties :
#
#
# Convention : Reuss Voigt Hill
#
# Bulk Modulus (GPa) = 35.88182 38.50195 37.19189
# Shear Modulus (GPa) = 20.02625 14.13600 17.08113
#
# Velocity S-wave (km/s) = 2.94313 2.47271 2.71811
# Velocity P-wave (km/s) = 5.20283 4.98053 5.09289
#
# Compressibility (1/GPa) = 0.02786926
#
# Stress axis : x y z
#
# Youngs Moduli (GPa) = 63.49843 59.40935 84.62376
#
# Poissons Ratio (x) = 0.15545 0.42017
# Poissons Ratio (y) = 0.16615 0.05776
# Poissons Ratio (z) = 0.31528 0.04055
#
# Static dielectric constant tensor:
#      x y z
#    x 1.904870 0.000000 0.000000 
#    y 0.000000 1.855480 0.000000 
#    z 0.000000 0.000000 2.104910 
# 
# From -- ./inp_files/770.got.cif
#   From: 2010.05.17/outbox.cif.g08.bks.cpg/sg29_1_cif.got.tgz:770.got - 2010.06.04 01:19:37.
