data_PCOD9340998
_publ_section_title
;
Structure prediction by ZEFSAII (Michael W. Deem and Ramdas Pophale) SiO2 
 PCOD9340998
Probable space group: P C A 21
;
_chemical_formula_sum "Si O2"
_cell_formula_units_Z 28
_cell_length_a 18.932891
_cell_length_b 5.166636
_cell_length_c 10.955167
_cell_angle_alpha 90.000000
_cell_angle_beta 90.000000
_cell_angle_gamma 90.000000
_cell_volume 1071.627383
_symmetry_space_group_name_H-M "P C A 21"
_symmetry_group_IT_number 29
_symmetry_cell_setting 'orthorhombic'
loop_
_space_group_symop_operation_xyz
x,y,z
-x,-y,1/2+z
1/2-x,y,1/2+z
1/2+x,-y,z
loop_
_atom_site_type_symbol
_atom_site_label
_atom_site_fract_x
_atom_site_fract_y
_atom_site_fract_z
Si Si1 0.938929 0.415183 0.409020
Si Si2 0.982874 0.530102 0.164579
Si Si3 0.793053 0.808628 0.834615
Si Si4 0.788434 0.489816 0.621988
Si Si5 0.349716 0.581624 0.013006
Si Si6 0.096779 0.833632 0.261921
Si Si7 0.654262 0.899033 0.923596
O O1 0.990550 0.371435 0.292285
O O2 0.893261 0.666391 0.368948
O O3 0.977703 0.503508 0.533659
O O4 0.894379 0.153471 0.433002
O O5 0.018078 0.799816 0.212347
O O6 0.904017 0.468945 0.120525
O O7 0.861787 0.900397 0.762242
O O8 0.758188 0.592801 0.749403
O O9 0.826464 0.692569 0.956059
O O10 0.725951 0.989109 0.855228
O O11 0.726533 0.321002 0.560138
O O12 0.855808 0.334916 0.669301
O O13 0.813270 0.727289 0.535908
O O14 0.385925 0.734908 0.900438
#
# Coordination Sequence:
#
# PCOD9340998 Si02
#       7
#     4   4   4   4   4   4   4
#     4  12  28  49  76 115 155 210 257 321 394 475
#     4  12  25  49  73 109 159 207 258 324 392 477
#     4  10  24  42  72 110 143 199 252 330 384 464
#     4  10  22  43  73 103 149 192 255 322 385 458
#     4  10  24  44  66 106 150 193 259 313 394 459
#     4  11  23  44  74 106 149 194 258 317 394 459
#     4  11  26  47  76 111 153 199 265 317 393 464
#
# _framework density 26.128485999999999
#
# number of rings (size 3 to 8) (size 9 to 14) (size 15 to 20)
#    0.000    1.143    2.857    1.714    8.000    3.429 
#    2.571    0.000    0.000    0.000    0.000    0.000 
#    0.000    0.000    0.000    0.000    0.000    0.000 
#
# Total GULP energy -155985.261160 kJ/mol
# GULP energy per Si atom -5570.902184 kJ/mol
# Density = 2.606902 g / cm^3
# Si number density = 26.128486 Si / 1000 Ang^3
#
#
#
# Elastic Constant Matrix: (Units=GPa)
#
#
# Indices 1 2 3 4 5 6 
#
# 1 69.3705 10.2094 39.5013 0.0000 0.0000 0.0000
# 2 10.2094 49.7447 -0.0142 0.0000 0.0000 0.0000
# 3 39.5013 -0.0142 138.4009 0.0000 0.0000 0.0000
# 4 0.0000 0.0000 0.0000 14.7212 0.0000 0.0000
# 5 0.0000 0.0000 0.0000 0.0000 32.1452 0.0000
# 6 0.0000 0.0000 0.0000 0.0000 0.0000 -6.1935
#
#
#
# Elastic Compliance Matrix: (Units=1/GPa)
#
#
# Indices 1 2 3 4 5 6 
#
# 1 0.017857 -0.003666 -0.005097 0.000000 0.000000 0.000000
# 2 -0.003666 0.020855 0.001049 0.000000 0.000000 0.000000
# 3 -0.005097 0.001049 0.008680 0.000000 0.000000 0.000000
# 4 0.000000 0.000000 0.000000 0.067929 0.000000 0.000000
# 5 0.000000 0.000000 0.000000 0.000000 0.031109 0.000000
# 6 0.000000 0.000000 0.000000 0.000000 0.000000 -0.161460
#
#
# Mechanical properties :
#
#
# Convention : Reuss Voigt Hill
#
# Bulk Modulus (GPa) = 31.28600 39.65658 35.47129
# Shear Modulus (GPa) = 452.24706 21.98921 237.11814
#
# Velocity S-wave (km/s) = 13.17048 2.90415 9.53666
# Velocity P-wave (km/s) = 15.59750 5.14353 11.61331
#
# Compressibility (1/GPa) = 0.03196318
#
# Stress axis : x y z
#
# Youngs Moduli (GPa) = 55.99927 47.94912 115.20383
#
# Poissons Ratio (x) = 0.17580 0.58720
# Poissons Ratio (y) = 0.20532 -0.12080
# Poissons Ratio (z) = 0.28543 -0.05028
#
# Static dielectric constant tensor:
#      x y z
#    x 2.223990 0.000000 0.000000 
#    y 0.000000 2.086680 0.000000 
#    z 0.000000 0.000000 2.163580 
# 
# From -- ./inp_files/3616.got.cif
#   From: 2010.05.17/outbox.cif.g08.bks.cpg/sg29_2_cif.got.tgz:3616.got - 2010.06.04 01:19:37.
