data_PCOD9340713
_publ_section_title
;
Structure prediction by ZEFSAII (Michael W. Deem and Ramdas Pophale) SiO2 
 PCOD9340713
Probable space group: P C A 21
;
_chemical_formula_sum "Si O2"
_cell_formula_units_Z 20
_cell_length_a 8.948193
_cell_length_b 9.861463
_cell_length_c 8.196400
_cell_angle_alpha 90.000000
_cell_angle_beta 90.000000
_cell_angle_gamma 90.000000
_cell_volume 723.268976
_symmetry_space_group_name_H-M "P C A 21"
_symmetry_group_IT_number 29
_symmetry_cell_setting 'orthorhombic'
loop_
_space_group_symop_operation_xyz
x,y,z
-x,-y,1/2+z
1/2-x,y,1/2+z
1/2+x,-y,z
loop_
_atom_site_type_symbol
_atom_site_label
_atom_site_fract_x
_atom_site_fract_y
_atom_site_fract_z
Si Si1 0.289495 0.530026 0.809650
Si Si2 0.455679 0.859652 0.588092
Si Si3 0.673909 0.765198 0.334953
Si Si4 0.160359 0.939495 0.418075
Si Si5 0.518920 0.387326 0.616265
O O1 0.234528 0.374218 0.846188
O O2 0.403073 0.508051 0.658010
O O3 0.147809 0.612183 0.754022
O O4 0.390321 0.586866 0.953827
O O5 0.566785 0.758635 0.494989
O O6 0.541732 0.999940 0.545061
O O7 0.295037 0.862891 0.502246
O O8 0.422476 0.855207 0.778404
O O9 0.726843 0.920279 0.336715
O O10 0.580931 0.741739 0.167237
#
# Coordination Sequence:
#
# PCOD9340713 Si02
#       5
#     4   4   4   4   4
#     4  10  21  42  62  90 127 158 206 255 298 368
#     4  10  21  42  62  90 127 158 206 255 298 368
#     4   8  24  40  60  94 124 156 216 236 320 354
#     4  10  21  42  62  90 127 158 206 255 298 368
#     4  10  21  42  62  90 127 158 206 255 298 368
#
# _framework density 27.652231
#
# number of rings (size 3 to 8) (size 9 to 14) (size 15 to 20)
#    2.400    0.000    0.000    2.400    0.000    3.200 
#    0.000    0.000    0.000    0.000    0.000    0.000 
#    0.000    0.000    0.000    0.000    0.000    0.000 
#
# Total GULP energy -111840.073959 kJ/mol
# GULP energy per Si atom -5592.003698 kJ/mol
# Density = 2.758929 g / cm^3
# Si number density = 27.652231 Si / 1000 Ang^3
#
#
#
# Elastic Constant Matrix: (Units=GPa)
#
#
# Indices 1 2 3 4 5 6 
#
# 1 91.2539 -6.5376 12.0990 0.0000 0.0000 0.0000
# 2 -6.5376 87.6745 22.9061 0.0000 0.0000 0.0000
# 3 12.0990 22.9061 70.1963 0.0000 0.0000 0.0000
# 4 0.0000 0.0000 0.0000 44.6598 0.0000 0.0000
# 5 0.0000 0.0000 0.0000 0.0000 43.5005 0.0000
# 6 0.0000 0.0000 0.0000 0.0000 0.0000 18.2510
#
#
#
# Elastic Compliance Matrix: (Units=1/GPa)
#
#
# Indices 1 2 3 4 5 6 
#
# 1 0.011390 0.001489 -0.002449 0.000000 0.000000 0.000000
# 2 0.001489 0.012664 -0.004389 0.000000 0.000000 0.000000
# 3 -0.002449 -0.004389 0.016100 0.000000 0.000000 0.000000
# 4 0.000000 0.000000 0.000000 0.022391 0.000000 0.000000
# 5 0.000000 0.000000 0.000000 0.000000 0.022988 0.000000
# 6 0.000000 0.000000 0.000000 0.000000 0.000000 0.054792
#
#
# Mechanical properties :
#
#
# Convention : Reuss Voigt Hill
#
# Bulk Modulus (GPa) = 33.94934 34.00664 33.97799
# Shear Modulus (GPa) = 31.08659 35.99275 33.53967
#
# Velocity S-wave (km/s) = 3.35654 3.61171 3.48646
# Velocity P-wave (km/s) = 5.22740 5.45136 5.34056
#
# Compressibility (1/GPa) = 0.02945565
#
# Stress axis : x y z
#
# Youngs Moduli (GPa) = 87.79760 78.96683 62.11153
#
# Poissons Ratio (x) = -0.11759 0.15212
# Poissons Ratio (y) = -0.13074 0.27261
# Poissons Ratio (z) = 0.21502 0.34658
#
# Static dielectric constant tensor:
#      x y z
#    x 2.102390 0.000000 0.000000 
#    y 0.000000 2.180630 0.000000 
#    z 0.000000 0.000000 2.138650 
# 
# From -- ./inp_files/1151.got.cif
#   From: 2010.05.17/outbox.cif.g08.bks.cpg/sg29_1_cif.got.tgz:1151.got - 2010.06.04 01:19:37.
