data_PCOD9340300
_publ_section_title
;
Structure prediction by ZEFSAII (Michael W. Deem and Ramdas Pophale) SiO2 
 PCOD9340300
Probable space group: P C A 21
;
_chemical_formula_sum "Si O2"
_cell_formula_units_Z 28
_cell_length_a 12.006360
_cell_length_b 9.227584
_cell_length_c 13.116634
_cell_angle_alpha 90.000000
_cell_angle_beta 90.000000
_cell_angle_gamma 90.000000
_cell_volume 1453.187886
_symmetry_space_group_name_H-M "P C A 21"
_symmetry_group_IT_number 29
_symmetry_cell_setting 'orthorhombic'
loop_
_space_group_symop_operation_xyz
x,y,z
-x,-y,1/2+z
1/2-x,y,1/2+z
1/2+x,-y,z
loop_
_atom_site_type_symbol
_atom_site_label
_atom_site_fract_x
_atom_site_fract_y
_atom_site_fract_z
Si Si1 0.921994 0.722205 0.364720
Si Si2 0.699505 0.875119 0.440439
Si Si3 0.347057 0.791965 0.974502
Si Si4 0.845108 0.693083 0.139781
Si Si5 0.373920 0.321547 0.772384
Si Si6 0.391970 0.629994 0.168865
Si Si7 0.223566 0.553344 0.866745
O O1 0.825647 0.822687 0.414721
O O2 0.915171 0.736725 0.241308
O O3 0.877523 0.558404 0.388328
O O4 0.042483 0.755957 0.408671
O O5 0.654387 0.794426 0.541659
O O6 0.628335 0.820247 0.343164
O O7 0.691134 0.045692 0.454849
O O8 0.251752 0.675799 0.946548
O O9 0.377354 0.759553 0.090865
O O10 0.719492 0.692015 0.184738
O O11 0.879013 0.527351 0.115420
O O12 0.489421 0.358707 0.722495
O O13 0.328458 0.448483 0.846304
O O14 0.302530 0.629132 0.259292
#
# Coordination Sequence:
#
# PCOD9340300 Si02
#       7
#     4   4   4   4   4   4   4
#     4   9  21  41  59  78 115 153 187 233 279 332
#     4  10  22  37  55  82 119 154 183 228 288 344
#     4  12  23  36  60  88 114 149 189 232 290 345
#     4   9  19  37  58  80 112 151 189 235 283 330
#     4   9  19  38  59  78 111 154 190 232 283 332
#     4  10  20  35  59  84 108 145 196 239 277 332
#     4   9  20  38  58  84 109 142 192 243 278 327
#
# _framework density 19.267983999999998
#
# number of rings (size 3 to 8) (size 9 to 14) (size 15 to 20)
#    0.000    2.857    0.000    4.286    0.000    5.714 
#    0.000    5.714    0.000    0.000    0.000    0.000 
#    0.000    0.000    0.000    0.000    0.000    0.000 
#
# Total GULP energy -156201.556295 kJ/mol
# GULP energy per Si atom -5578.627011 kJ/mol
# Density = 1.922413 g / cm^3
# Si number density = 19.267984 Si / 1000 Ang^3
#
#
#
# Elastic Constant Matrix: (Units=GPa)
#
#
# Indices 1 2 3 4 5 6 
#
# 1 28.0957 23.5332 20.1144 0.0000 0.0000 0.0000
# 2 23.5332 110.1246 33.9910 0.0000 0.0000 0.0000
# 3 20.1144 33.9910 44.6319 0.0000 0.0000 0.0000
# 4 0.0000 0.0000 0.0000 18.6477 0.0000 0.0000
# 5 0.0000 0.0000 0.0000 0.0000 16.4759 0.0000
# 6 0.0000 0.0000 0.0000 0.0000 0.0000 11.4482
#
#
#
# Elastic Compliance Matrix: (Units=1/GPa)
#
#
# Indices 1 2 3 4 5 6 
#
# 1 0.054856 -0.005349 -0.020648 0.000000 0.000000 0.000000
# 2 -0.005349 0.012393 -0.007027 0.000000 0.000000 0.000000
# 3 -0.020648 -0.007027 0.037063 0.000000 0.000000 0.000000
# 4 0.000000 0.000000 0.000000 0.053626 0.000000 0.000000
# 5 0.000000 0.000000 0.000000 0.000000 0.060695 0.000000
# 6 0.000000 0.000000 0.000000 0.000000 0.000000 0.087350
#
#
# Mechanical properties :
#
#
# Convention : Reuss Voigt Hill
#
# Bulk Modulus (GPa) = 26.13561 37.56994 31.85278
# Shear Modulus (GPa) = 12.99423 16.32859 14.66141
#
# Velocity S-wave (km/s) = 2.59973 2.91425 2.76147
# Velocity P-wave (km/s) = 4.75449 5.55561 5.17059
#
# Compressibility (1/GPa) = 0.03826197
#
# Stress axis : x y z
#
# Youngs Moduli (GPa) = 18.22968 80.69192 26.98101
#
# Poissons Ratio (x) = 0.43164 0.55711
# Poissons Ratio (y) = 0.09751 0.18961
# Poissons Ratio (z) = 0.37641 0.56706
#
# Static dielectric constant tensor:
#      x y z
#    x 1.665530 0.000000 0.000000 
#    y 0.000000 1.675260 0.000000 
#    z 0.000000 0.000000 1.686920 
# 
# From -- ./inp_files/4487.got.cif
#   From: 2010.05.17/outbox.cif.g08.bks.cpg/sg29_3_cif.got.tgz:4487.got - 2010.06.04 01:19:37.
