data_PCOD9340849
_publ_section_title
;
Structure prediction by ZEFSAII (Michael W. Deem and Ramdas Pophale) SiO2 
 PCOD9340849
Probable space group: P C A 21
;
_chemical_formula_sum "Si O2"
_cell_formula_units_Z 24
_cell_length_a 12.793247
_cell_length_b 8.836491
_cell_length_c 8.971294
_cell_angle_alpha 90.000000
_cell_angle_beta 90.000000
_cell_angle_gamma 90.000000
_cell_volume 1014.181569
_symmetry_space_group_name_H-M "P C A 21"
_symmetry_group_IT_number 29
_symmetry_cell_setting 'orthorhombic'
loop_
_space_group_symop_operation_xyz
x,y,z
-x,-y,1/2+z
1/2-x,y,1/2+z
1/2+x,-y,z
loop_
_atom_site_type_symbol
_atom_site_label
_atom_site_fract_x
_atom_site_fract_y
_atom_site_fract_z
Si Si1 0.715788 0.894511 0.045770
Si Si2 0.652033 0.090245 0.780306
Si Si3 0.534839 0.323445 0.624444
Si Si4 0.680793 0.341085 0.359039
Si Si5 0.463188 0.373369 0.303221
Si Si6 0.770192 0.688064 0.790935
O O1 0.667863 0.775746 0.163328
O O2 0.784652 0.003270 0.150018
O O3 0.784285 0.788280 0.937583
O O4 0.643264 0.985474 0.928424
O O5 0.549245 0.163723 0.708210
O O6 0.725359 0.228815 0.832127
O O7 0.645765 0.337500 0.531878
O O8 0.462498 0.365551 0.482571
O O9 0.527526 0.456732 0.743881
O O10 0.574446 0.293542 0.269700
O O11 0.704660 0.513749 0.316568
O O12 0.353708 0.307412 0.250465
#
# Coordination Sequence:
#
# PCOD9340849 Si02
#       6
#     4   4   4   4   4   4
#     4  10  24  37  67  92 138 178 217 273 349 402
#     4  11  20  46  64  97 131 190 225 268 338 437
#     4  10  22  39  67  98 131 171 229 280 342 398
#     4  10  23  38  74  91 131 176 232 279 351 391
#     4  10  23  39  65 104 134 165 239 293 338 410
#     4  11  22  41  65  98 133 176 222 297 338 406
#
# _framework density 23.664400000000001
#
# number of rings (size 3 to 8) (size 9 to 14) (size 15 to 20)
#    1.000    0.667    3.333    1.000    2.333    1.333 
#    0.000    5.000    7.333    0.000    0.000    0.000 
#    0.000    0.000    0.000    0.000    0.000    0.000 
#
# Total GULP energy -133816.292593 kJ/mol
# GULP energy per Si atom -5575.678858 kJ/mol
# Density = 2.361054 g / cm^3
# Si number density = 23.664400 Si / 1000 Ang^3
#
#
#
# Elastic Constant Matrix: (Units=GPa)
#
#
# Indices 1 2 3 4 5 6 
#
# 1 28.2283 -21.9235 -19.5335 0.0000 0.0000 0.0000
# 2 -21.9235 90.7026 26.6987 0.0000 0.0000 0.0000
# 3 -19.5335 26.6987 102.2352 0.0000 0.0000 0.0000
# 4 0.0000 0.0000 0.0000 56.9471 0.0000 0.0000
# 5 0.0000 0.0000 0.0000 0.0000 27.6764 0.0000
# 6 0.0000 0.0000 0.0000 0.0000 0.0000 8.8448
#
#
#
# Elastic Compliance Matrix: (Units=1/GPa)
#
#
# Indices 1 2 3 4 5 6 
#
# 1 0.047357 0.009514 0.006563 0.000000 0.000000 0.000000
# 2 0.009514 0.013855 -0.001800 0.000000 0.000000 0.000000
# 3 0.006563 -0.001800 0.011506 0.000000 0.000000 0.000000
# 4 0.000000 0.000000 0.000000 0.017560 0.000000 0.000000
# 5 0.000000 0.000000 0.000000 0.000000 0.036132 0.000000
# 6 0.000000 0.000000 0.000000 0.000000 0.000000 0.113060
#
#
# Mechanical properties :
#
#
# Convention : Reuss Voigt Hill
#
# Bulk Modulus (GPa) = 9.87439 21.29439 15.58439
# Shear Modulus (GPa) = 20.43557 34.42195 27.42876
#
# Velocity S-wave (km/s) = 2.94182 3.81804 3.40821
# Velocity P-wave (km/s) = 3.96495 5.33429 4.69976
#
# Compressibility (1/GPa) = 0.10127208
#
# Stress axis : x y z
#
# Youngs Moduli (GPa) = 21.11640 72.17783 86.91451
#
# Poissons Ratio (x) = -0.68673 -0.57046
# Poissons Ratio (y) = -0.20091 0.15647
# Poissons Ratio (z) = -0.13860 0.12994
#
# Static dielectric constant tensor:
#      x y z
#    x 2.018250 0.000000 0.000000 
#    y 0.000000 1.883390 0.000000 
#    z 0.000000 0.000000 1.876740 
# 
# From -- ./inp_files/1758.got.cif
#   From: 2010.05.17/outbox.cif.g08.bks.cpg/sg29_1_cif.got.tgz:1758.got - 2010.06.04 01:19:37.
