data_PCOD9340733
_publ_section_title
;
Structure prediction by ZEFSAII (Michael W. Deem and Ramdas Pophale) SiO2 
 PCOD9340733
Probable space group: P C A 21
;
_chemical_formula_sum "Si O2"
_cell_formula_units_Z 28
_cell_length_a 9.489532
_cell_length_b 8.914771
_cell_length_c 15.121129
_cell_angle_alpha 90.000000
_cell_angle_beta 90.000000
_cell_angle_gamma 90.000000
_cell_volume 1279.202221
_symmetry_space_group_name_H-M "P C A 21"
_symmetry_group_IT_number 29
_symmetry_cell_setting 'orthorhombic'
loop_
_space_group_symop_operation_xyz
x,y,z
-x,-y,1/2+z
1/2-x,y,1/2+z
1/2+x,-y,z
loop_
_atom_site_type_symbol
_atom_site_label
_atom_site_fract_x
_atom_site_fract_y
_atom_site_fract_z
Si Si1 0.145197 0.845577 0.813010
Si Si2 0.156709 0.420614 0.190470
Si Si3 0.298120 0.539651 0.879851
Si Si4 0.035918 0.759838 0.462709
Si Si5 0.233666 0.287536 0.526573
Si Si6 0.866908 0.936089 0.887654
Si Si7 0.339037 0.691243 0.141541
O O1 0.201154 0.688290 0.859192
O O2 0.179357 0.825581 0.710192
O O3 0.977074 0.855521 0.823440
O O4 0.221373 0.996544 0.848892
O O5 0.193599 0.433860 0.294074
O O6 0.205765 0.583511 0.155161
O O7 0.991539 0.386327 0.168922
O O8 0.263069 0.317801 0.131315
O O9 0.449535 0.617644 0.898336
O O10 0.273538 0.439201 0.966974
O O11 0.148917 0.740452 0.540792
O O12 0.889639 0.770146 0.510043
O O13 0.061452 0.908470 0.411091
O O14 0.140349 0.166190 0.475600
#
# Coordination Sequence:
#
# PCOD9340733 Si02
#       7
#     4   4   4   4   4   4   4
#     4  10  23  42  65  89 130 170 212 268 316 398
#     4  10  22  38  64  96 124 161 213 270 319 382
#     4  10  22  39  67  92 126 161 214 268 328 368
#     4  10  22  41  62  90 130 168 208 268 321 392
#     4  11  22  39  67  90 126 167 215 263 322 386
#     4  11  22  44  62  92 126 176 215 255 338 382
#     4  10  21  43  61  95 130 161 219 266 324 386
#
# _framework density 21.888642999999998
#
# number of rings (size 3 to 8) (size 9 to 14) (size 15 to 20)
#    0.000    1.714    2.857    0.857    6.000    0.000 
#    7.714    0.000    0.000    0.000    0.000    0.000 
#    0.000    0.000    0.000    0.000    0.000    0.000 
#
# Total GULP energy -155900.784017 kJ/mol
# GULP energy per Si atom -5567.885143 kJ/mol
# Density = 2.183882 g / cm^3
# Si number density = 21.888643 Si / 1000 Ang^3
#
#
#
# Elastic Constant Matrix: (Units=GPa)
#
#
# Indices 1 2 3 4 5 6 
#
# 1 46.4357 13.2661 1.7381 0.0000 0.0000 0.0000
# 2 13.2661 47.5717 8.6360 0.0000 0.0000 0.0000
# 3 1.7381 8.6360 71.2472 0.0000 0.0000 0.0000
# 4 0.0000 0.0000 0.0000 32.2948 0.0000 0.0000
# 5 0.0000 0.0000 0.0000 0.0000 23.4239 0.0000
# 6 0.0000 0.0000 0.0000 0.0000 0.0000 10.2071
#
#
#
# Elastic Compliance Matrix: (Units=1/GPa)
#
#
# Indices 1 2 3 4 5 6 
#
# 1 0.023403 -0.006567 0.000225 0.000000 0.000000 0.000000
# 2 -0.006567 0.023337 -0.002668 0.000000 0.000000 0.000000
# 3 0.000225 -0.002668 0.014354 0.000000 0.000000 0.000000
# 4 0.000000 0.000000 0.000000 0.030965 0.000000 0.000000
# 5 0.000000 0.000000 0.000000 0.000000 0.042691 0.000000
# 6 0.000000 0.000000 0.000000 0.000000 0.000000 0.097971
#
#
# Mechanical properties :
#
#
# Convention : Reuss Voigt Hill
#
# Bulk Modulus (GPa) = 23.21686 23.61500 23.41593
# Shear Modulus (GPa) = 18.86090 22.62613 20.74352
#
# Velocity S-wave (km/s) = 2.93861 3.21860 3.08179
# Velocity P-wave (km/s) = 4.70572 4.96232 4.83572
#
# Compressibility (1/GPa) = 0.04307215
#
# Stress axis : x y z
#
# Youngs Moduli (GPa) = 42.72983 42.85099 69.66896
#
# Poissons Ratio (x) = 0.28141 -0.01568
# Poissons Ratio (y) = 0.28061 0.18591
# Poissons Ratio (z) = -0.00962 0.11435
#
# Static dielectric constant tensor:
#      x y z
#    x 1.861920 0.000000 0.000000 
#    y 0.000000 1.813230 0.000000 
#    z 0.000000 0.000000 1.866370 
# 
# From -- ./inp_files/4523.got.cif
#   From: 2010.05.17/outbox.cif.g08.bks.cpg/sg29_3_cif.got.tgz:4523.got - 2010.06.04 01:19:37.
