data_PCOD9340643
_publ_section_title
;
Structure prediction by ZEFSAII (Michael W. Deem and Ramdas Pophale) SiO2 
 PCOD9340643
Probable space group: P C A 21
;
_chemical_formula_sum "Si O2"
_cell_formula_units_Z 28
_cell_length_a 9.731656
_cell_length_b 8.707153
_cell_length_c 16.748230
_cell_angle_alpha 90.000000
_cell_angle_beta 90.000000
_cell_angle_gamma 90.000000
_cell_volume 1419.161566
_symmetry_space_group_name_H-M "P C A 21"
_symmetry_group_IT_number 29
_symmetry_cell_setting 'orthorhombic'
loop_
_space_group_symop_operation_xyz
x,y,z
-x,-y,1/2+z
1/2-x,y,1/2+z
1/2+x,-y,z
loop_
_atom_site_type_symbol
_atom_site_label
_atom_site_fract_x
_atom_site_fract_y
_atom_site_fract_z
Si Si1 0.557090 0.331293 0.472670
Si Si2 0.711972 0.211023 0.864346
Si Si3 0.379878 0.190000 0.025170
Si Si4 0.068325 0.379502 0.373811
Si Si5 0.625486 0.970382 0.976843
Si Si6 0.705803 0.430226 0.238513
Si Si7 0.051138 0.473439 0.631442
O O1 0.709221 0.291260 0.439232
O O2 0.506557 0.468895 0.416213
O O3 0.466662 0.179769 0.464210
O O4 0.552335 0.399183 0.561569
O O5 0.560418 0.276711 0.849851
O O6 0.794934 0.268474 0.786754
O O7 0.690767 0.038276 0.894990
O O8 0.390947 0.316388 0.093604
O O9 0.354424 0.286116 0.943343
O O10 0.253105 0.074106 0.032985
O O11 0.522324 0.098409 0.012559
O O12 0.161970 0.440399 0.302743
O O13 0.853362 0.468348 0.202671
O O14 0.598452 0.438996 0.166451
#
# Coordination Sequence:
#
# PCOD9340643 Si02
#       7
#     4   4   4   4   4   4   4
#     4  10  22  36  68  91 122 166 218 264 307 373
#     4  10  21  40  62  92 125 168 209 267 309 383
#     4  10  23  39  67  91 124 167 221 256 316 372
#     4   9  21  38  64  93 120 162 219 264 302 374
#     4  11  21  40  64  92 125 164 210 266 313 374
#     4  11  22  40  64  93 130 159 208 266 326 377
#     4  11  24  39  67  96 126 168 211 269 317 381
#
# _framework density 19.729959999999998
#
# number of rings (size 3 to 8) (size 9 to 14) (size 15 to 20)
#    0.000    1.714    2.857    0.857   12.000    0.000 
#    0.000    0.000   22.000    0.000    0.000    0.000 
#    0.000    0.000    0.000    0.000    0.000    0.000 
#
# Total GULP energy -156206.078992 kJ/mol
# GULP energy per Si atom -5578.788535 kJ/mol
# Density = 1.968505 g / cm^3
# Si number density = 19.729960 Si / 1000 Ang^3
#
#
#
# Elastic Constant Matrix: (Units=GPa)
#
#
# Indices 1 2 3 4 5 6 
#
# 1 41.6366 13.0776 -6.3394 0.0000 0.0000 0.0000
# 2 13.0776 99.0780 26.1568 0.0000 0.0000 0.0000
# 3 -6.3394 26.1568 53.4367 0.0000 0.0000 0.0000
# 4 0.0000 0.0000 0.0000 13.8914 0.0000 0.0000
# 5 0.0000 0.0000 0.0000 0.0000 15.7120 0.0000
# 6 0.0000 0.0000 0.0000 0.0000 0.0000 30.4185
#
#
#
# Elastic Compliance Matrix: (Units=1/GPa)
#
#
# Indices 1 2 3 4 5 6 
#
# 1 0.026420 -0.004955 0.005560 0.000000 0.000000 0.000000
# 2 -0.004955 0.012520 -0.006716 0.000000 0.000000 0.000000
# 3 0.005560 -0.006716 0.022661 0.000000 0.000000 0.000000
# 4 0.000000 0.000000 0.000000 0.071987 0.000000 0.000000
# 5 0.000000 0.000000 0.000000 0.000000 0.063646 0.000000
# 6 0.000000 0.000000 0.000000 0.000000 0.000000 0.032875
#
#
# Mechanical properties :
#
#
# Convention : Reuss Voigt Hill
#
# Bulk Modulus (GPa) = 20.25191 28.88237 24.56714
# Shear Modulus (GPa) = 19.32059 22.75479 21.03769
#
# Velocity S-wave (km/s) = 3.13269 3.39973 3.26894
# Velocity P-wave (km/s) = 4.83444 5.48466 5.16978
#
# Compressibility (1/GPa) = 0.04937805
#
# Stress axis : x y z
#
# Youngs Moduli (GPa) = 37.84982 79.87059 44.12875
#
# Poissons Ratio (x) = 0.39577 -0.24535
# Poissons Ratio (y) = 0.18755 0.29639
# Poissons Ratio (z) = -0.21044 0.53644
#
# Static dielectric constant tensor:
#      x y z
#    x 1.721040 0.000000 0.000000 
#    y 0.000000 1.708560 0.000000 
#    z 0.000000 0.000000 1.690950 
# 
# From -- ./inp_files/4984.got.cif
#   From: 2010.05.17/outbox.cif.g08.bks.cpg/sg29_3_cif.got.tgz:4984.got - 2010.06.04 01:19:37.
