data_PCOD9340606
_publ_section_title
;
Structure prediction by ZEFSAII (Michael W. Deem and Ramdas Pophale) SiO2 
 PCOD9340606
Probable space group: P C A 21
;
_chemical_formula_sum "Si O2"
_cell_formula_units_Z 32
_cell_length_a 30.752744
_cell_length_b 5.614266
_cell_length_c 8.215101
_cell_angle_alpha 90.000000
_cell_angle_beta 90.000000
_cell_angle_gamma 90.000000
_cell_volume 1418.370747
_symmetry_space_group_name_H-M "P C A 21"
_symmetry_group_IT_number 29
_symmetry_cell_setting 'orthorhombic'
loop_
_space_group_symop_operation_xyz
x,y,z
-x,-y,1/2+z
1/2-x,y,1/2+z
1/2+x,-y,z
loop_
_atom_site_type_symbol
_atom_site_label
_atom_site_fract_x
_atom_site_fract_y
_atom_site_fract_z
Si Si1 0.087498 0.161387 0.262890
Si Si2 0.549879 0.340620 0.209734
Si Si3 0.300383 0.863941 0.199145
Si Si4 0.124538 0.485452 0.728390
Si Si5 0.310403 0.259342 0.431696
Si Si6 0.328889 0.217761 0.948147
Si Si7 0.766857 0.510393 0.743163
Si Si8 0.958598 0.573531 0.041589
O O1 0.071885 0.916064 0.181812
O O2 0.077933 0.417498 0.177743
O O3 0.138448 0.137800 0.306373
O O4 0.060461 0.208097 0.431856
O O5 0.540626 0.367356 0.404093
O O6 0.505288 0.365208 0.112156
O O7 0.344962 0.710449 0.189095
O O8 0.252496 0.746423 0.206242
O O9 0.308230 0.988192 0.375866
O O10 0.300258 0.017157 0.032895
O O11 0.142591 0.373168 0.895188
O O12 0.140173 0.297345 0.593412
O O13 0.073903 0.506184 0.687335
O O14 0.277972 0.363792 0.293364
O O15 0.289694 0.355513 0.595186
O O16 0.299934 0.440386 0.889906
#
# Coordination Sequence:
#
# PCOD9340606 Si02
#       8
#     4   4   4   4   4   4   4   4
#     4   9  22  39  64  93 129 166 218 255 332 386
#     4  10  21  39  64  93 127 166 213 267 320 391
#     4  10  21  40  66  84 126 166 207 261 326 375
#     4   9  19  40  60  88 119 165 209 253 316 393
#     4  10  22  38  57  91 118 159 208 254 311 381
#     4  10  21  40  64  89 121 168 214 262 319 393
#     4  11  23  40  59  89 123 157 214 261 312 381
#     4   9  21  38  64  93 129 165 213 261 326 386
#
# _framework density 22.561097
#
# number of rings (size 3 to 8) (size 9 to 14) (size 15 to 20)
#    0.750    1.500    0.000    3.000    1.750    6.000 
#    2.250    2.500    0.000    0.000    0.000    0.000 
#    0.000    0.000    0.000    0.000    0.000    0.000 
#
# Total GULP energy -178182.385941 kJ/mol
# GULP energy per Si atom -5568.199561 kJ/mol
# Density = 2.250975 g / cm^3
# Si number density = 22.561097 Si / 1000 Ang^3
#
#
#
# Elastic Constant Matrix: (Units=GPa)
#
#
# Indices 1 2 3 4 5 6 
#
# 1 83.4176 36.9212 43.0052 0.0000 0.0000 0.0000
# 2 36.9212 100.2223 25.8275 0.0000 0.0000 0.0000
# 3 43.0052 25.8275 44.5387 0.0000 0.0000 0.0000
# 4 0.0000 0.0000 0.0000 -0.7465 0.0000 0.0000
# 5 0.0000 0.0000 0.0000 0.0000 48.4389 0.0000
# 6 0.0000 0.0000 0.0000 0.0000 0.0000 16.5129
#
#
#
# Elastic Compliance Matrix: (Units=1/GPa)
#
#
# Indices 1 2 3 4 5 6 
#
# 1 0.024870 -0.003496 -0.021987 0.000000 0.000000 0.000000
# 2 -0.003496 0.012222 -0.003712 0.000000 0.000000 0.000000
# 3 -0.021987 -0.003712 0.045834 0.000000 0.000000 0.000000
# 4 0.000000 0.000000 0.000000 -1.339598 0.000000 0.000000
# 5 0.000000 0.000000 0.000000 0.000000 0.020645 0.000000
# 6 0.000000 0.000000 0.000000 0.000000 0.000000 0.060559
#
#
# Mechanical properties :
#
#
# Convention : Reuss Voigt Hill
#
# Bulk Modulus (GPa) = 40.75334 48.85407 44.80370
# Shear Modulus (GPa) = -4.50897 21.00272 8.24687
#
# Velocity S-wave (km/s) = -1.41524 3.05442 1.91397
# Velocity P-wave (km/s) = 3.92839 5.84298 4.97859
#
# Compressibility (1/GPa) = 0.02453787
#
# Stress axis : x y z
#
# Youngs Moduli (GPa) = 40.20871 81.81767 21.81764
#
# Poissons Ratio (x) = 0.28604 0.47970
# Poissons Ratio (y) = 0.14057 0.08099
# Poissons Ratio (z) = 0.88405 0.30370
#
# Static dielectric constant tensor:
#      x y z
#    x 1.858710 0.000000 0.000000 
#    y 0.000000 2.064360 0.000000 
#    z 0.000000 0.000000 1.902750 
# 
# From -- ./inp_files/2609.got.cif
#   From: 2010.05.17/outbox.cif.g08.bks.cpg/sg29_2_cif.got.tgz:2609.got - 2010.06.04 01:19:37.
