data_PCOD9340471
_publ_section_title
;
Structure prediction by ZEFSAII (Michael W. Deem and Ramdas Pophale) SiO2 
 PCOD9340471
Probable space group: P C A 21
;
_chemical_formula_sum "Si O2"
_cell_formula_units_Z 32
_cell_length_a 10.815725
_cell_length_b 5.364492
_cell_length_c 22.976656
_cell_angle_alpha 90.000000
_cell_angle_beta 90.000000
_cell_angle_gamma 90.000000
_cell_volume 1333.125576
_symmetry_space_group_name_H-M "P C A 21"
_symmetry_group_IT_number 29
_symmetry_cell_setting 'orthorhombic'
loop_
_space_group_symop_operation_xyz
x,y,z
-x,-y,1/2+z
1/2-x,y,1/2+z
1/2+x,-y,z
loop_
_atom_site_type_symbol
_atom_site_label
_atom_site_fract_x
_atom_site_fract_y
_atom_site_fract_z
Si Si1 0.988175 0.543521 0.004190
Si Si2 0.444662 0.162453 0.828682
Si Si3 0.114695 0.894117 0.725975
Si Si4 0.078163 0.841659 0.592118
Si Si5 0.106178 0.459318 0.892141
Si Si6 0.214922 0.375334 0.775466
Si Si7 0.192962 0.139711 0.436473
Si Si8 0.667721 0.089916 0.039166
O O1 0.913716 0.412665 0.054891
O O2 0.118070 0.628886 0.031628
O O3 0.917384 0.783371 0.979085
O O4 0.015197 0.388344 0.945207
O O5 0.501485 0.056039 0.770123
O O6 0.554298 0.278273 0.868409
O O7 0.351661 0.372790 0.802889
O O8 0.358345 0.024271 0.876267
O O9 0.069764 0.837918 0.661230
O O10 0.181708 0.642369 0.748686
O O11 0.197840 0.142484 0.732117
O O12 0.211934 0.958929 0.577917
O O13 0.951221 0.955505 0.566821
O O14 0.123134 0.321687 0.830584
O O15 0.239467 0.400890 0.919823
O O16 0.290254 0.986799 0.474139
#
# Coordination Sequence:
#
# PCOD9340471 Si02
#       8
#     4   4   4   4   4   4   4   4
#     4  11  23  44  71 107 151 192 249 312 394 461
#     4   9  22  42  74 104 145 194 249 319 388 468
#     4  11  27  47  71 103 145 203 261 315 381 460
#     4  12  29  45  74 103 152 206 258 320 382 469
#     4   9  19  40  68 104 142 183 239 307 385 457
#     4  10  24  45  69 104 141 188 253 313 384 451
#     4  10  20  41  71 110 148 190 243 322 395 468
#     4  12  26  46  72 111 148 200 256 320 391 472
#
# _framework density 24.003738999999999
#
# number of rings (size 3 to 8) (size 9 to 14) (size 15 to 20)
#    0.000    1.500    2.500    0.750    3.500   10.000 
#    0.000    2.500    0.000    0.000    0.000    0.000 
#    0.000    0.000    0.000    0.000    0.000    0.000 
#
# Total GULP energy -178336.585724 kJ/mol
# GULP energy per Si atom -5573.018304 kJ/mol
# Density = 2.394911 g / cm^3
# Si number density = 24.003739 Si / 1000 Ang^3
#
#
#
# Elastic Constant Matrix: (Units=GPa)
#
#
# Indices 1 2 3 4 5 6 
#
# 1 123.3022 17.0978 41.7071 0.0000 0.0000 0.0000
# 2 17.0978 52.2483 15.7412 0.0000 0.0000 0.0000
# 3 41.7071 15.7412 128.1225 0.0000 0.0000 0.0000
# 4 0.0000 0.0000 0.0000 18.8764 0.0000 0.0000
# 5 0.0000 0.0000 0.0000 0.0000 32.8452 0.0000
# 6 0.0000 0.0000 0.0000 0.0000 0.0000 21.0749
#
#
#
# Elastic Compliance Matrix: (Units=1/GPa)
#
#
# Indices 1 2 3 4 5 6 
#
# 1 0.009357 -0.002227 -0.002772 0.000000 0.000000 0.000000
# 2 -0.002227 0.020405 -0.001782 0.000000 0.000000 0.000000
# 3 -0.002772 -0.001782 0.008926 0.000000 0.000000 0.000000
# 4 0.000000 0.000000 0.000000 0.052976 0.000000 0.000000
# 5 0.000000 0.000000 0.000000 0.000000 0.030446 0.000000
# 6 0.000000 0.000000 0.000000 0.000000 0.000000 0.047450
#
#
# Mechanical properties :
#
#
# Convention : Reuss Voigt Hill
#
# Bulk Modulus (GPa) = 39.79954 50.30725 45.05340
# Shear Modulus (GPa) = 26.11003 29.83443 27.97223
#
# Velocity S-wave (km/s) = 3.30168 3.52931 3.41739
# Velocity P-wave (km/s) = 5.58134 6.13283 5.86357
#
# Compressibility (1/GPa) = 0.02512592
#
# Stress axis : x y z
#
# Youngs Moduli (GPa) = 106.87607 49.00772 112.02702
#
# Poissons Ratio (x) = 0.10912 0.31057
# Poissons Ratio (y) = 0.23798 0.19965
# Poissons Ratio (z) = 0.29629 0.08734
#
# Static dielectric constant tensor:
#      x y z
#    x 1.951430 0.000000 0.000000 
#    y 0.000000 2.001650 0.000000 
#    z 0.000000 0.000000 1.887870 
# 
# From -- ./inp_files/5565.got.cif
#   From: 2010.05.17/outbox.cif.g08.bks.cpg/sg29_3_cif.got.tgz:5565.got - 2010.06.04 01:19:37.
