data_PCOD9340453
_publ_section_title
;
Structure prediction by ZEFSAII (Michael W. Deem and Ramdas Pophale) SiO2 
 PCOD9340453
Probable space group: P C A 21
;
_chemical_formula_sum "Si O2"
_cell_formula_units_Z 32
_cell_length_a 9.697785
_cell_length_b 9.351561
_cell_length_c 15.427087
_cell_angle_alpha 90.000000
_cell_angle_beta 90.000000
_cell_angle_gamma 90.000000
_cell_volume 1399.073696
_symmetry_space_group_name_H-M "P C A 21"
_symmetry_group_IT_number 29
_symmetry_cell_setting 'orthorhombic'
loop_
_space_group_symop_operation_xyz
x,y,z
-x,-y,1/2+z
1/2-x,y,1/2+z
1/2+x,-y,z
loop_
_atom_site_type_symbol
_atom_site_label
_atom_site_fract_x
_atom_site_fract_y
_atom_site_fract_z
Si Si1 0.586205 0.739517 0.164030
Si Si2 0.175411 0.757589 0.789298
Si Si3 0.530979 0.457067 0.902485
Si Si4 0.960233 0.989520 0.334669
Si Si5 0.598628 0.823356 0.667784
Si Si6 0.414994 0.573682 0.722192
Si Si7 0.102788 0.187097 0.474378
Si Si8 0.419711 0.238197 0.473981
O O1 0.468300 0.764170 0.235297
O O2 0.734141 0.816751 0.178579
O O3 0.615767 0.568296 0.167073
O O4 0.524482 0.780959 0.070600
O O5 0.152914 0.643500 0.866112
O O6 0.291769 0.688145 0.729830
O O7 0.184241 0.918241 0.826691
O O8 0.450396 0.514002 0.817853
O O9 0.439987 0.351488 0.959963
O O10 0.580383 0.595284 0.952378
O O11 0.971509 0.927374 0.237784
O O12 0.979446 0.848767 0.393722
O O13 0.047646 0.101450 0.391851
O O14 0.544465 0.663255 0.687369
O O15 0.555908 0.861789 0.569707
O O16 0.265478 0.179988 0.477110
#
# Coordination Sequence:
#
# PCOD9340453 Si02
#       8
#     4   4   4   4   4   4   4   4
#     4  10  23  42  68  97 134 175 228 285 347 403
#     4  10  24  40  65  97 134 177 220 281 336 409
#     4  10  20  40  67  99 133 173 228 279 345 401
#     4  11  26  41  65  95 136 180 224 272 346 410
#     4  11  24  43  70  96 135 183 226 279 348 414
#     4  11  21  39  70 104 130 175 231 281 342 411
#     4  10  25  45  66 100 139 175 231 290 339 416
#     4  11  23  42  69  96 133 182 224 287 347 408
#
# _framework density 22.872275999999999
#
# number of rings (size 3 to 8) (size 9 to 14) (size 15 to 20)
#    0.000    1.500    1.250    3.000    8.750    1.000 
#    2.250    2.500    0.000    0.000    0.000    0.000 
#    0.000    0.000    0.000    0.000    0.000    0.000 
#
# Total GULP energy -178575.459920 kJ/mol
# GULP energy per Si atom -5580.483123 kJ/mol
# Density = 2.282022 g / cm^3
# Si number density = 22.872276 Si / 1000 Ang^3
#
#
#
# Elastic Constant Matrix: (Units=GPa)
#
#
# Indices 1 2 3 4 5 6 
#
# 1 33.8550 -2.1997 21.6137 0.0000 0.0000 0.0000
# 2 -2.1997 111.1299 36.5521 0.0000 0.0000 0.0000
# 3 21.6137 36.5521 158.2675 0.0000 0.0000 0.0000
# 4 0.0000 0.0000 0.0000 -520.0307 0.0000 0.0000
# 5 0.0000 0.0000 0.0000 0.0000 10.1511 0.0000
# 6 0.0000 0.0000 0.0000 0.0000 0.0000 22.0838
#
#
#
# Elastic Compliance Matrix: (Units=1/GPa)
#
#
# Indices 1 2 3 4 5 6 
#
# 1 0.032895 0.002304 -0.005024 0.000000 0.000000 0.000000
# 2 0.002304 0.009900 -0.002601 0.000000 0.000000 0.000000
# 3 -0.005024 -0.002601 0.007605 0.000000 0.000000 0.000000
# 4 0.000000 0.000000 0.000000 -0.001923 0.000000 0.000000
# 5 0.000000 0.000000 0.000000 0.000000 0.098512 0.000000
# 6 0.000000 0.000000 0.000000 0.000000 0.000000 0.045282
#
#
# Mechanical properties :
#
#
# Convention : Reuss Voigt Hill
#
# Bulk Modulus (GPa) = 25.15301 46.13163 35.64232
# Shear Modulus (GPa) = 23.13039 -81.07341 -28.97151
#
# Velocity S-wave (km/s) = 3.18352 -5.96013 -3.56288
# Velocity P-wave (km/s) = 4.95319 5.21067 1.14390
#
# Compressibility (1/GPa) = 0.03975667
#
# Stress axis : x y z
#
# Youngs Moduli (GPa) = 30.39977 101.01470 131.48821
#
# Poissons Ratio (x) = -0.23271 0.66064
# Poissons Ratio (y) = -0.07003 0.34199
# Poissons Ratio (z) = 0.15274 0.26273
#
# Static dielectric constant tensor:
#      x y z
#    x 1.884010 0.000000 0.000000 
#    y 0.000000 1.953790 0.000000 
#    z 0.000000 0.000000 1.911970 
# 
# From -- ./inp_files/4536.got.cif
#   From: 2010.05.17/outbox.cif.g08.bks.cpg/sg29_3_cif.got.tgz:4536.got - 2010.06.04 01:19:37.
