data_PCOD9340420
_publ_section_title
;
Structure prediction by ZEFSAII (Michael W. Deem and Ramdas Pophale) SiO2 
 PCOD9340420
Probable space group: P C A 21
;
_chemical_formula_sum "Si O2"
_cell_formula_units_Z 24
_cell_length_a 24.690411
_cell_length_b 7.455965
_cell_length_c 5.313137
_cell_angle_alpha 90.000000
_cell_angle_beta 90.000000
_cell_angle_gamma 90.000000
_cell_volume 978.099855
_symmetry_space_group_name_H-M "P C A 21"
_symmetry_group_IT_number 29
_symmetry_cell_setting 'orthorhombic'
loop_
_space_group_symop_operation_xyz
x,y,z
-x,-y,1/2+z
1/2-x,y,1/2+z
1/2+x,-y,z
loop_
_atom_site_type_symbol
_atom_site_label
_atom_site_fract_x
_atom_site_fract_y
_atom_site_fract_z
Si Si1 0.036039 0.975472 0.852670
Si Si2 0.107919 0.280050 0.047447
Si Si3 0.267117 0.746071 0.253584
Si Si4 0.723716 0.662921 0.278776
Si Si5 0.108256 0.645699 0.725712
Si Si6 0.034084 0.478083 0.378423
O O1 0.936140 0.694533 0.769535
O O2 0.003336 0.005999 0.593672
O O3 0.084781 0.118366 0.885145
O O4 0.166244 0.274823 0.175291
O O5 0.108632 0.459090 0.877152
O O6 0.256384 0.843965 0.513344
O O7 0.233098 0.556170 0.278283
O O8 0.330439 0.711090 0.222297
O O9 0.733644 0.720942 0.564403
O O10 0.066558 0.785580 0.844805
O O11 0.083525 0.610357 0.448725
O O12 0.002968 0.460470 0.644213
#
# Coordination Sequence:
#
# PCOD9340420 Si02
#       6
#     4   4   4   4   4   4
#     4  12  34  50  68 112 156 194 260 316 364 454
#     4  12  27  47  79 104 149 201 246 305 386 442
#     4  10  20  39  69 108 139 178 241 305 359 449
#     4  10  20  39  69 108 139 178 241 305 359 449
#     4  12  27  47  79 104 149 201 246 305 386 442
#     4  12  26  40  74 108 134 198 264 296 368 450
#
# _framework density 24.537371
#
# number of rings (size 3 to 8) (size 9 to 14) (size 15 to 20)
#    0.000    0.667    5.000    3.000    9.333    0.000 
#    0.000    1.667    0.000    0.000    0.000    0.000 
#    0.000    0.000    0.000    0.000    0.000    0.000 
#
# Total GULP energy -134328.727183 kJ/mol
# GULP energy per Si atom -5597.030299 kJ/mol
# Density = 2.448152 g / cm^3
# Si number density = 24.537371 Si / 1000 Ang^3
#
#
#
# Elastic Constant Matrix: (Units=GPa)
#
#
# Indices 1 2 3 4 5 6 
#
# 1 92.6809 -0.5046 22.2592 0.0000 0.0000 0.0000
# 2 -0.5046 79.3341 1.2837 0.0000 0.0000 0.0000
# 3 22.2592 1.2837 153.7608 0.0000 0.0000 0.0000
# 4 0.0000 0.0000 0.0000 16.8449 0.0000 0.0000
# 5 0.0000 0.0000 0.0000 0.0000 34.9914 0.0000
# 6 0.0000 0.0000 0.0000 0.0000 0.0000 16.3748
#
#
#
# Elastic Compliance Matrix: (Units=1/GPa)
#
#
# Indices 1 2 3 4 5 6 
#
# 1 0.011179 0.000097 -0.001619 0.000000 0.000000 0.000000
# 2 0.000097 0.012607 -0.000119 0.000000 0.000000 0.000000
# 3 -0.001619 -0.000119 0.006739 0.000000 0.000000 0.000000
# 4 0.000000 0.000000 0.000000 0.059365 0.000000 0.000000
# 5 0.000000 0.000000 0.000000 0.000000 0.028578 0.000000
# 6 0.000000 0.000000 0.000000 0.000000 0.000000 0.061070
#
#
# Mechanical properties :
#
#
# Convention : Reuss Voigt Hill
#
# Bulk Modulus (GPa) = 36.70640 41.31691 39.01166
# Shear Modulus (GPa) = 26.05496 33.82473 29.93985
#
# Velocity S-wave (km/s) = 3.26214 3.71684 3.49689
# Velocity P-wave (km/s) = 5.40190 5.94094 5.67782
#
# Compressibility (1/GPa) = 0.02724320
#
# Stress axis : x y z
#
# Youngs Moduli (GPa) = 89.45254 79.31808 148.38993
#
# Poissons Ratio (x) = -0.00772 0.24027
# Poissons Ratio (y) = -0.00870 0.01771
# Poissons Ratio (z) = 0.14484 0.00947
#
# Static dielectric constant tensor:
#      x y z
#    x 1.965090 0.000000 0.000000 
#    y 0.000000 1.987600 0.000000 
#    z 0.000000 0.000000 2.000870 
# 
# From -- ./inp_files/761.got.cif
#   From: 2010.05.17/outbox.cif.g08.bks.cpg/sg29_1_cif.got.tgz:761.got - 2010.06.04 01:19:37.
