data_PCOD9340762
_publ_section_title
;
Structure prediction by ZEFSAII (Michael W. Deem and Ramdas Pophale) SiO2 
 PCOD9340762
Probable space group: P C A 21
;
_chemical_formula_sum "Si O2"
_cell_formula_units_Z 28
_cell_length_a 11.676116
_cell_length_b 11.996351
_cell_length_c 8.945163
_cell_angle_alpha 90.000000
_cell_angle_beta 90.000000
_cell_angle_gamma 90.000000
_cell_volume 1252.956011
_symmetry_space_group_name_H-M "P C A 21"
_symmetry_group_IT_number 29
_symmetry_cell_setting 'orthorhombic'
loop_
_space_group_symop_operation_xyz
x,y,z
-x,-y,1/2+z
1/2-x,y,1/2+z
1/2+x,-y,z
loop_
_atom_site_type_symbol
_atom_site_label
_atom_site_fract_x
_atom_site_fract_y
_atom_site_fract_z
Si Si1 0.162332 0.454361 0.859380
Si Si2 0.226131 0.976527 0.202933
Si Si3 0.994476 0.307840 0.025405
Si Si4 0.206762 0.819311 0.447964
Si Si5 0.570204 0.303131 0.857855
Si Si6 0.826043 0.865608 0.455918
Si Si7 0.847355 0.666741 0.041110
O O1 0.140607 0.583161 0.828339
O O2 0.157076 0.379994 0.709184
O O3 0.280893 0.424070 0.939634
O O4 0.060639 0.417295 0.973399
O O5 0.160947 0.891699 0.310455
O O6 0.152029 0.049027 0.090353
O O7 0.291717 0.062347 0.312006
O O8 0.300303 0.898022 0.093122
O O9 0.997631 0.285374 0.202432
O O10 0.064517 0.211472 0.940878
O O11 0.864170 0.292093 0.976882
O O12 0.337301 0.788865 0.406704
O O13 0.475942 0.316868 0.985860
O O14 0.724534 0.780783 0.509440
#
# Coordination Sequence:
#
# PCOD9340762 Si02
#       7
#     4   4   4   4   4   4   4
#     4  11  26  42  73  99 135 185 231 284 349 416
#     4  10  22  44  65  99 129 180 224 270 354 400
#     4  11  24  46  66 102 138 178 234 284 348 415
#     4  11  25  43  63 101 143 173 226 284 345 412
#     4  12  26  43  69  98 147 181 226 289 344 417
#     4  10  21  44  71  93 135 173 229 289 329 417
#     4  11  24  46  69 104 133 178 236 282 347 411
#
# _framework density 22.347152999999999
#
# number of rings (size 3 to 8) (size 9 to 14) (size 15 to 20)
#    0.000    1.143    1.429    5.143    6.000    1.143 
#   10.286    0.000    0.000    0.000    0.000    0.000 
#    0.000    0.000    0.000    0.000    0.000    0.000 
#
# Total GULP energy -156441.494095 kJ/mol
# GULP energy per Si atom -5587.196218 kJ/mol
# Density = 2.229629 g / cm^3
# Si number density = 22.347153 Si / 1000 Ang^3
#
#
#
# Elastic Constant Matrix: (Units=GPa)
#
#
# Indices 1 2 3 4 5 6 
#
# 1 57.4214 16.1364 15.5106 0.0000 0.0000 0.0000
# 2 16.1364 86.0292 17.3283 0.0000 0.0000 0.0000
# 3 15.5106 17.3283 120.0224 0.0000 0.0000 0.0000
# 4 0.0000 0.0000 0.0000 22.0903 0.0000 0.0000
# 5 0.0000 0.0000 0.0000 0.0000 22.8378 0.0000
# 6 0.0000 0.0000 0.0000 0.0000 0.0000 22.6921
#
#
#
# Elastic Compliance Matrix: (Units=1/GPa)
#
#
# Indices 1 2 3 4 5 6 
#
# 1 0.018831 -0.003133 -0.001981 0.000000 0.000000 0.000000
# 2 -0.003133 0.012493 -0.001399 0.000000 0.000000 0.000000
# 3 -0.001981 -0.001399 0.008790 0.000000 0.000000 0.000000
# 4 0.000000 0.000000 0.000000 0.045269 0.000000 0.000000
# 5 0.000000 0.000000 0.000000 0.000000 0.043787 0.000000
# 6 0.000000 0.000000 0.000000 0.000000 0.000000 0.044068
#
#
# Mechanical properties :
#
#
# Convention : Reuss Voigt Hill
#
# Bulk Modulus (GPa) = 36.91706 40.15820 38.53763
# Shear Modulus (GPa) = 25.60255 27.82390 26.71322
#
# Velocity S-wave (km/s) = 3.38845 3.53239 3.46117
# Velocity P-wave (km/s) = 5.64486 5.88610 5.76675
#
# Compressibility (1/GPa) = 0.02708775
#
# Stress axis : x y z
#
# Youngs Moduli (GPa) = 53.10482 80.04244 113.76864
#
# Poissons Ratio (x) = 0.25077 0.22540
# Poissons Ratio (y) = 0.16638 0.15915
# Poissons Ratio (z) = 0.10521 0.11197
#
# Static dielectric constant tensor:
#      x y z
#    x 1.799330 0.000000 0.000000 
#    y 0.000000 1.866180 0.000000 
#    z 0.000000 0.000000 1.816810 
# 
# From -- ./inp_files/1458.got.cif
#   From: 2010.05.17/outbox.cif.g08.bks.cpg/sg29_1_cif.got.tgz:1458.got - 2010.06.04 01:19:37.
