data_PCOD9340463
_publ_section_title
;
Structure prediction by ZEFSAII (Michael W. Deem and Ramdas Pophale) SiO2 
 PCOD9340463
Probable space group: P C A 21
;
_chemical_formula_sum "Si O2"
_cell_formula_units_Z 32
_cell_length_a 14.458993
_cell_length_b 10.793104
_cell_length_c 8.405135
_cell_angle_alpha 90.000000
_cell_angle_beta 90.000000
_cell_angle_gamma 90.000000
_cell_volume 1311.683642
_symmetry_space_group_name_H-M "P C A 21"
_symmetry_group_IT_number 29
_symmetry_cell_setting 'orthorhombic'
loop_
_space_group_symop_operation_xyz
x,y,z
-x,-y,1/2+z
1/2-x,y,1/2+z
1/2+x,-y,z
loop_
_atom_site_type_symbol
_atom_site_label
_atom_site_fract_x
_atom_site_fract_y
_atom_site_fract_z
Si Si1 0.385037 0.129690 0.938800
Si Si2 0.881340 0.234694 0.709847
Si Si3 0.484324 0.098742 0.412171
Si Si4 0.608552 0.521783 0.251897
Si Si5 0.982750 0.270603 0.204683
Si Si6 0.697433 0.275209 0.867806
Si Si7 0.302895 0.169250 0.282911
Si Si8 0.728293 0.564828 0.941602
O O1 0.459206 0.217857 0.853232
O O2 0.300432 0.119378 0.812504
O O3 0.447097 0.008663 0.966885
O O4 0.333890 0.171844 0.099520
O O5 0.966584 0.149824 0.753104
O O6 0.907505 0.376880 0.741754
O O7 0.795016 0.215212 0.827530
O O8 0.843756 0.227289 0.532330
O O9 0.486422 0.203622 0.546000
O O10 0.377241 0.080300 0.370886
O O11 0.513619 0.587882 0.208551
O O12 0.660395 0.560814 0.414946
O O13 0.683628 0.562603 0.116883
O O14 0.875343 0.249433 0.229699
O O15 0.703781 0.426050 0.877194
O O16 0.306469 0.309463 0.355546
#
# Coordination Sequence:
#
# PCOD9340463 Si02
#       8
#     4   4   4   4   4   4   4   4
#     4  12  28  46  70 101 135 187 233 298 345 413
#     4  10  23  43  65  99 135 182 223 282 353 411
#     4  12  27  46  70 100 140 185 240 284 348 415
#     4  10  21  38  66  99 137 172 223 284 345 414
#     4  12  24  43  66 102 138 179 233 284 349 417
#     4  10  23  41  67 100 140 176 223 281 354 421
#     4  12  24  46  71 100 132 179 234 290 350 413
#     4  10  20  41  65 101 133 174 221 281 346 412
#
# _framework density 24.396125999999999
#
# number of rings (size 3 to 8) (size 9 to 14) (size 15 to 20)
#    0.000    1.000    2.500    3.750    1.750    4.000 
#    0.000    0.000    0.000    0.000    0.000    0.000 
#    0.000    0.000    0.000    0.000    0.000    0.000 
#
# Total GULP energy -179060.595017 kJ/mol
# GULP energy per Si atom -5595.643594 kJ/mol
# Density = 2.434060 g / cm^3
# Si number density = 24.396126 Si / 1000 Ang^3
#
#
#
# Elastic Constant Matrix: (Units=GPa)
#
#
# Indices 1 2 3 4 5 6 
#
# 1 81.1707 19.8122 4.1402 0.0000 0.0000 0.0000
# 2 19.8122 36.6430 7.9260 0.0000 0.0000 0.0000
# 3 4.1402 7.9260 61.9206 0.0000 0.0000 0.0000
# 4 0.0000 0.0000 0.0000 22.5170 0.0000 0.0000
# 5 0.0000 0.0000 0.0000 0.0000 36.1169 0.0000
# 6 0.0000 0.0000 0.0000 0.0000 0.0000 31.1247
#
#
#
# Elastic Compliance Matrix: (Units=1/GPa)
#
#
# Indices 1 2 3 4 5 6 
#
# 1 0.014193 -0.007681 0.000034 0.000000 0.000000 0.000000
# 2 -0.007681 0.032225 -0.003611 0.000000 0.000000 0.000000
# 3 0.000034 -0.003611 0.016610 0.000000 0.000000 0.000000
# 4 0.000000 0.000000 0.000000 0.044411 0.000000 0.000000
# 5 0.000000 0.000000 0.000000 0.000000 0.027688 0.000000
# 6 0.000000 0.000000 0.000000 0.000000 0.000000 0.032129
#
#
# Mechanical properties :
#
#
# Convention : Reuss Voigt Hill
#
# Bulk Modulus (GPa) = 24.68489 27.05457 25.86973
# Shear Modulus (GPa) = 24.59727 27.80877 26.20302
#
# Velocity S-wave (km/s) = 3.17873 3.37988 3.28085
# Velocity P-wave (km/s) = 4.85930 5.13276 4.99790
#
# Compressibility (1/GPa) = 0.04051061
#
# Stress axis : x y z
#
# Youngs Moduli (GPa) = 70.45821 31.03228 60.20589
#
# Poissons Ratio (x) = 0.23837 -0.00206
# Poissons Ratio (y) = 0.54120 0.21742
# Poissons Ratio (z) = -0.00241 0.11207
#
# Static dielectric constant tensor:
#      x y z
#    x 1.912810 0.000000 0.000000 
#    y 0.000000 1.982100 0.000000 
#    z 0.000000 0.000000 1.943880 
# 
# From -- ./inp_files/1864.got.cif
#   From: 2010.05.17/outbox.cif.g08.bks.cpg/sg29_1_cif.got.tgz:1864.got - 2010.06.04 01:19:37.
