data_PCOD9340614
_publ_section_title
;
Structure prediction by ZEFSAII (Michael W. Deem and Ramdas Pophale) SiO2 
 PCOD9340614
Probable space group: P C A 21
;
_chemical_formula_sum "Si O2"
_cell_formula_units_Z 28
_cell_length_a 11.705524
_cell_length_b 8.837850
_cell_length_c 12.541895
_cell_angle_alpha 90.000000
_cell_angle_beta 90.000000
_cell_angle_gamma 90.000000
_cell_volume 1297.479924
_symmetry_space_group_name_H-M "P C A 21"
_symmetry_group_IT_number 29
_symmetry_cell_setting 'orthorhombic'
loop_
_space_group_symop_operation_xyz
x,y,z
-x,-y,1/2+z
1/2-x,y,1/2+z
1/2+x,-y,z
loop_
_atom_site_type_symbol
_atom_site_label
_atom_site_fract_x
_atom_site_fract_y
_atom_site_fract_z
Si Si1 0.336164 0.003495 0.984990
Si Si2 0.296932 0.756042 0.144981
Si Si3 0.261171 0.439326 0.555412
Si Si4 0.887492 0.095426 0.762994
Si Si5 0.935118 0.757538 0.690963
Si Si6 0.260514 0.283606 0.854898
Si Si7 0.409451 0.237139 0.157654
O O1 0.410450 0.937763 0.887251
O O2 0.261633 0.133685 0.928398
O O3 0.276581 0.864941 0.043379
O O4 0.396713 0.091131 0.081837
O O5 0.238916 0.598735 0.113447
O O6 0.239144 0.841635 0.244254
O O7 0.431764 0.737849 0.167063
O O8 0.358045 0.329801 0.604539
O O9 0.272664 0.425013 0.428237
O O10 0.134753 0.372057 0.583031
O O11 0.968786 0.220997 0.711579
O O12 0.904837 0.936102 0.701540
O O13 0.886418 0.695725 0.803940
O O14 0.177988 0.248685 0.756573
#
# Coordination Sequence:
#
# PCOD9340614 Si02
#       7
#     4   4   4   4   4   4   4
#     4  10  21  39  66 101 127 170 229 274 341 400
#     4  12  25  43  65 104 137 175 227 277 341 417
#     4  10  24  43  67  94 138 182 222 274 341 409
#     4  11  24  41  69 100 132 176 226 287 343 396
#     4  10  23  44  69  92 138 175 224 286 328 402
#     4   9  20  43  69  94 132 181 222 279 344 394
#     4  10  21  43  69  95 132 177 224 283 334 406
#
# _framework density 21.580295
#
# number of rings (size 3 to 8) (size 9 to 14) (size 15 to 20)
#    0.000    1.714    1.429    3.429    4.000    3.429 
#    5.143    0.000    0.000    0.000    0.000    0.000 
#    0.000    0.000    0.000    0.000    0.000    0.000 
#
# Total GULP energy -156113.297094 kJ/mol
# GULP energy per Si atom -5575.474896 kJ/mol
# Density = 2.153118 g / cm^3
# Si number density = 21.580295 Si / 1000 Ang^3
#
#
#
# Elastic Constant Matrix: (Units=GPa)
#
#
# Indices 1 2 3 4 5 6 
#
# 1 75.9635 11.2861 33.2812 0.0000 0.0000 0.0000
# 2 11.2861 44.3543 33.1739 0.0000 0.0000 0.0000
# 3 33.2812 33.1739 114.3586 0.0000 0.0000 0.0000
# 4 0.0000 0.0000 0.0000 10.7973 0.0000 0.0000
# 5 0.0000 0.0000 0.0000 0.0000 13.3652 0.0000
# 6 0.0000 0.0000 0.0000 0.0000 0.0000 19.9639
#
#
#
# Elastic Compliance Matrix: (Units=1/GPa)
#
#
# Indices 1 2 3 4 5 6 
#
# 1 0.015105 -0.000710 -0.004190 0.000000 0.000000 0.000000
# 2 -0.000710 0.028826 -0.008156 0.000000 0.000000 0.000000
# 3 -0.004190 -0.008156 0.012330 0.000000 0.000000 0.000000
# 4 0.000000 0.000000 0.000000 0.092616 0.000000 0.000000
# 5 0.000000 0.000000 0.000000 0.000000 0.074821 0.000000
# 6 0.000000 0.000000 0.000000 0.000000 0.000000 0.050090
#
#
# Mechanical properties :
#
#
# Convention : Reuss Voigt Hill
#
# Bulk Modulus (GPa) = 33.16704 43.35099 38.25901
# Shear Modulus (GPa) = 16.13166 19.28762 17.70964
#
# Velocity S-wave (km/s) = 2.73704 2.99283 2.86779
# Velocity P-wave (km/s) = 5.03895 5.66344 5.36030
#
# Compressibility (1/GPa) = 0.03015041
#
# Stress axis : x y z
#
# Youngs Moduli (GPa) = 66.20116 34.69087 81.10508
#
# Poissons Ratio (x) = 0.02462 0.33985
# Poissons Ratio (y) = 0.04698 0.66145
# Poissons Ratio (z) = 0.27740 0.28292
#
# Static dielectric constant tensor:
#      x y z
#    x 1.799620 0.000000 0.000000 
#    y 0.000000 1.820830 0.000000 
#    z 0.000000 0.000000 1.823040 
# 
# From -- ./inp_files/3161.got.cif
#   From: 2010.05.17/outbox.cif.g08.bks.cpg/sg29_2_cif.got.tgz:3161.got - 2010.06.04 01:19:37.
