data_PCOD9340785
_publ_section_title
;
Structure prediction by ZEFSAII (Michael W. Deem and Ramdas Pophale) SiO2 
 PCOD9340785
Probable space group: P C A 21
;
_chemical_formula_sum "Si O2"
_cell_formula_units_Z 24
_cell_length_a 21.103773
_cell_length_b 5.521379
_cell_length_c 8.380282
_cell_angle_alpha 90.000000
_cell_angle_beta 90.000000
_cell_angle_gamma 90.000000
_cell_volume 976.486625
_symmetry_space_group_name_H-M "P C A 21"
_symmetry_group_IT_number 29
_symmetry_cell_setting 'orthorhombic'
loop_
_space_group_symop_operation_xyz
x,y,z
-x,-y,1/2+z
1/2-x,y,1/2+z
1/2+x,-y,z
loop_
_atom_site_type_symbol
_atom_site_label
_atom_site_fract_x
_atom_site_fract_y
_atom_site_fract_z
Si Si1 0.724442 0.613227 0.692160
Si Si2 0.101053 0.994211 0.256391
Si Si3 0.515394 0.749030 0.856506
Si Si4 0.811150 0.929260 0.470881
Si Si5 0.292222 0.713766 0.915504
Si Si6 0.983643 0.248162 0.234410
O O1 0.755668 0.814772 0.580626
O O2 0.683484 0.747613 0.824173
O O3 0.691218 0.418873 0.578867
O O4 0.784757 0.483204 0.776227
O O5 0.054913 0.211098 0.308889
O O6 0.051142 0.773551 0.258081
O O7 0.158777 0.919779 0.367964
O O8 0.129269 0.044353 0.083758
O O9 0.544401 0.494389 0.803295
O O10 0.548553 0.998009 0.794793
O O11 0.495195 0.753635 0.043291
O O12 0.779305 0.181771 0.422701
#
# Coordination Sequence:
#
# PCOD9340785 Si02
#       6
#     4   4   4   4   4   4
#     4  10  22  32  64  84 140 170 214 260 316 374
#     4  10  24  38  68  88 132 174 218 266 338 390
#     4  10  23  44  71  96 130 168 221 284 344 400
#     4  11  20  39  57  93 129 171 212 264 313 387
#     4  11  20  39  57  93 129 171 212 264 313 387
#     4  10  23  44  71  96 130 168 221 284 344 400
#
# _framework density 24.577909999999999
#
# number of rings (size 3 to 8) (size 9 to 14) (size 15 to 20)
#    1.000    0.667    3.333    1.000    2.333    0.000 
#    3.000    3.333    0.000    0.000    0.000    0.000 
#    0.000    0.000    0.000    0.000    0.000    0.000 
#
# Total GULP energy -134015.781786 kJ/mol
# GULP energy per Si atom -5583.990908 kJ/mol
# Density = 2.452197 g / cm^3
# Si number density = 24.577910 Si / 1000 Ang^3
#
#
#
# Elastic Constant Matrix: (Units=GPa)
#
#
# Indices 1 2 3 4 5 6 
#
# 1 59.6517 3.6209 12.1235 0.0000 0.0000 0.0000
# 2 3.6209 141.3225 56.8985 0.0000 0.0000 0.0000
# 3 12.1235 56.8985 137.1025 0.0000 0.0000 0.0000
# 4 0.0000 0.0000 0.0000 46.3029 0.0000 0.0000
# 5 0.0000 0.0000 0.0000 0.0000 32.0243 0.0000
# 6 0.0000 0.0000 0.0000 0.0000 0.0000 16.5442
#
#
#
# Elastic Compliance Matrix: (Units=1/GPa)
#
#
# Indices 1 2 3 4 5 6 
#
# 1 0.017076 0.000205 -0.001595 0.000000 0.000000 0.000000
# 2 0.000205 0.008498 -0.003545 0.000000 0.000000 0.000000
# 3 -0.001595 -0.003545 0.008906 0.000000 0.000000 0.000000
# 4 0.000000 0.000000 0.000000 0.021597 0.000000 0.000000
# 5 0.000000 0.000000 0.000000 0.000000 0.031226 0.000000
# 6 0.000000 0.000000 0.000000 0.000000 0.000000 0.060444
#
#
# Mechanical properties :
#
#
# Convention : Reuss Voigt Hill
#
# Bulk Modulus (GPa) = 40.63469 53.70695 47.17082
# Shear Modulus (GPa) = 30.15311 36.66985 33.41148
#
# Velocity S-wave (km/s) = 3.50642 3.86681 3.69102
# Velocity P-wave (km/s) = 5.74128 6.46803 6.11546
#
# Compressibility (1/GPa) = 0.02460952
#
# Stress axis : x y z
#
# Youngs Moduli (GPa) = 58.56270 117.67529 112.28431
#
# Poissons Ratio (x) = -0.02408 0.17908
# Poissons Ratio (y) = -0.01198 0.39803
# Poissons Ratio (z) = 0.09340 0.41714
#
# Static dielectric constant tensor:
#      x y z
#    x 1.938210 0.000000 0.000000 
#    y 0.000000 2.013620 0.000000 
#    z 0.000000 0.000000 1.920940 
# 
# From -- ./inp_files/2375.got.cif
#   From: 2010.05.17/outbox.cif.g08.bks.cpg/sg29_2_cif.got.tgz:2375.got - 2010.06.04 01:19:37.
