data_PCOD9340897
_publ_section_title
;
Structure prediction by ZEFSAII (Michael W. Deem and Ramdas Pophale) SiO2 
 PCOD9340897
Probable space group: P C A 21
;
_chemical_formula_sum "Si O2"
_cell_formula_units_Z 32
_cell_length_a 16.851320
_cell_length_b 6.888351
_cell_length_c 13.564019
_cell_angle_alpha 90.000000
_cell_angle_beta 90.000000
_cell_angle_gamma 90.000000
_cell_volume 1574.481579
_symmetry_space_group_name_H-M "P C A 21"
_symmetry_group_IT_number 29
_symmetry_cell_setting 'orthorhombic'
loop_
_space_group_symop_operation_xyz
x,y,z
-x,-y,1/2+z
1/2-x,y,1/2+z
1/2+x,-y,z
loop_
_atom_site_type_symbol
_atom_site_label
_atom_site_fract_x
_atom_site_fract_y
_atom_site_fract_z
Si Si1 0.376690 0.786608 0.764690
Si Si2 0.063643 0.881586 0.628436
Si Si3 0.878527 0.880729 0.626085
Si Si4 0.854255 0.407731 0.280534
Si Si5 0.562455 0.804895 0.776770
Si Si6 0.716076 0.489764 0.132486
Si Si7 0.188571 0.772734 0.473048
Si Si8 0.342116 0.928947 0.429315
O O1 0.468380 0.817287 0.790297
O O2 0.356172 0.638533 0.676626
O O3 0.334921 0.710287 0.863291
O O4 0.349127 0.995302 0.720701
O O5 0.109990 0.748110 0.705583
O O6 0.108628 0.842314 0.526999
O O7 0.971183 0.825086 0.635760
O O8 0.075031 0.100785 0.668527
O O9 0.821198 0.698391 0.607051
O O10 0.881138 0.027723 0.533743
O O11 0.913204 0.585022 0.290480
O O12 0.777440 0.493436 0.224568
O O13 0.845529 0.286088 0.381328
O O14 0.615415 0.928348 0.852825
O O15 0.764100 0.379321 0.044312
O O16 0.248979 0.950992 0.453458
#
# Coordination Sequence:
#
# PCOD9340897 Si02
#       8
#     4   4   4   4   4   4   4   4
#     4  11  23  45  63  95 133 171 214 280 324 383
#     4   9  22  44  63  95 134 167 216 271 321 384
#     4  11  24  41  70  95 126 178 223 262 331 398
#     4  10  22  41  63  95 130 167 212 271 322 384
#     4  10  23  40  71  93 127 176 216 258 334 388
#     4  11  24  40  66  96 128 173 216 267 328 388
#     4  11  23  43  62  92 139 165 209 279 329 373
#     4  11  23  38  64  95 129 167 212 272 319 380
#
# _framework density 20.324148999999998
#
# number of rings (size 3 to 8) (size 9 to 14) (size 15 to 20)
#    0.000    1.500    2.500    1.500    5.250    0.000 
#    0.000    2.500    0.000    0.000    0.000    0.000 
#    0.000    0.000    0.000    0.000    0.000    0.000 
#
# Total GULP energy -178271.365702 kJ/mol
# GULP energy per Si atom -5570.980178 kJ/mol
# Density = 2.027789 g / cm^3
# Si number density = 20.324149 Si / 1000 Ang^3
#
#
#
# Elastic Constant Matrix: (Units=GPa)
#
#
# Indices 1 2 3 4 5 6 
#
# 1 53.1494 25.7677 24.6545 0.0000 0.0000 0.0000
# 2 25.7677 63.0589 28.6673 0.0000 0.0000 0.0000
# 3 24.6545 28.6673 106.3193 0.0000 0.0000 0.0000
# 4 0.0000 0.0000 0.0000 9.0957 0.0000 0.0000
# 5 0.0000 0.0000 0.0000 0.0000 22.5167 0.0000
# 6 0.0000 0.0000 0.0000 0.0000 0.0000 26.2503
#
#
#
# Elastic Compliance Matrix: (Units=1/GPa)
#
#
# Indices 1 2 3 4 5 6 
#
# 1 0.024495 -0.008465 -0.003398 0.000000 0.000000 0.000000
# 2 -0.008465 0.020999 -0.003699 0.000000 0.000000 0.000000
# 3 -0.003398 -0.003699 0.011191 0.000000 0.000000 0.000000
# 4 0.000000 0.000000 0.000000 0.109942 0.000000 0.000000
# 5 0.000000 0.000000 0.000000 0.000000 0.044411 0.000000
# 6 0.000000 0.000000 0.000000 0.000000 0.000000 0.038095
#
#
# Mechanical properties :
#
#
# Convention : Reuss Voigt Hill
#
# Bulk Modulus (GPa) = 39.12136 42.30073 40.71104
# Shear Modulus (GPa) = 17.31444 21.13508 19.22476
#
# Velocity S-wave (km/s) = 2.92192 3.22825 3.07890
# Velocity P-wave (km/s) = 5.53841 5.89522 5.71960
#
# Compressibility (1/GPa) = 0.02556149
#
# Stress axis : x y z
#
# Youngs Moduli (GPa) = 40.82501 47.62188 89.35793
#
# Poissons Ratio (x) = 0.40310 0.30362
# Poissons Ratio (y) = 0.34557 0.33054
# Poissons Ratio (z) = 0.13871 0.17616
#
# Static dielectric constant tensor:
#      x y z
#    x 1.778770 0.000000 0.000000 
#    y 0.000000 1.719480 0.000000 
#    z 0.000000 0.000000 1.763600 
# 
# From -- ./inp_files/4780.got.cif
#   From: 2010.05.17/outbox.cif.g08.bks.cpg/sg29_3_cif.got.tgz:4780.got - 2010.06.04 01:19:37.
