data_PCOD9340362
_publ_section_title
;
Structure prediction by ZEFSAII (Michael W. Deem and Ramdas Pophale) SiO2 
 PCOD9340362
Probable space group: P C A 21
;
_chemical_formula_sum "Si O2"
_cell_formula_units_Z 32
_cell_length_a 8.962024
_cell_length_b 19.241449
_cell_length_c 8.522816
_cell_angle_alpha 90.000000
_cell_angle_beta 90.000000
_cell_angle_gamma 90.000000
_cell_volume 1469.694230
_symmetry_space_group_name_H-M "P C A 21"
_symmetry_group_IT_number 29
_symmetry_cell_setting 'orthorhombic'
loop_
_space_group_symop_operation_xyz
x,y,z
-x,-y,1/2+z
1/2-x,y,1/2+z
1/2+x,-y,z
loop_
_atom_site_type_symbol
_atom_site_label
_atom_site_fract_x
_atom_site_fract_y
_atom_site_fract_z
Si Si1 0.403268 0.539417 0.543190
Si Si2 0.080337 0.581223 0.678357
Si Si3 0.658298 0.980452 0.825164
Si Si4 0.520173 0.793310 0.586281
Si Si5 0.613962 0.068331 0.120499
Si Si6 0.593155 0.698704 0.056464
Si Si7 0.413615 0.343713 0.195905
Si Si8 0.291024 0.172491 0.399247
O O1 0.238797 0.560424 0.602432
O O2 0.418467 0.558233 0.360027
O O3 0.449667 0.461125 0.587294
O O4 0.525910 0.583378 0.639562
O O5 0.038514 0.662601 0.655013
O O6 0.529363 0.949303 0.721093
O O7 0.757641 0.028690 0.714022
O O8 0.721164 0.911090 0.911251
O O9 0.597554 0.031651 0.955392
O O10 0.387862 0.848897 0.596276
O O11 0.479287 0.714115 0.615569
O O12 0.623359 0.800685 0.432072
O O13 0.634400 0.810936 0.731407
O O14 0.748292 0.674011 0.134388
O O15 0.607511 0.781996 0.021087
O O16 0.582857 0.667317 0.881126
#
# Coordination Sequence:
#
# PCOD9340362 Si02
#       8
#     4   4   4   4   4   4   4   4
#     4  12  25  43  65  91 127 165 207 260 314 378
#     4  12  25  43  65  93 124 163 209 258 315 376
#     4  11  21  37  58  84 116 155 200 251 304 366
#     4   9  19  35  57  85 117 156 201 251 305 369
#     4  11  22  37  58  85 118 155 202 251 306 365
#     4  10  20  37  62  90 119 156 205 256 310 373
#     4  10  20  38  61  89 122 158 202 253 309 369
#     4   9  18  34  58  83 115 154 200 248 303 368
#
# _framework density 21.773235
#
# number of rings (size 3 to 8) (size 9 to 14) (size 15 to 20)
#    0.000    1.500    0.000    6.750    0.000    1.000 
#    0.000    6.250    0.000    0.000    0.000    0.000 
#    0.000    0.000    0.000    0.000    0.000    0.000 
#
# Total GULP energy -178581.332942 kJ/mol
# GULP energy per Si atom -5580.666654 kJ/mol
# Density = 2.172368 g / cm^3
# Si number density = 21.773235 Si / 1000 Ang^3
#
#
#
# Elastic Constant Matrix: (Units=GPa)
#
#
# Indices 1 2 3 4 5 6 
#
# 1 54.0957 0.0484 -9.2809 0.0000 0.0000 0.0000
# 2 0.0484 75.3779 -17.1255 0.0000 0.0000 0.0000
# 3 -9.2809 -17.1255 74.1802 0.0000 0.0000 0.0000
# 4 0.0000 0.0000 0.0000 24.0580 0.0000 0.0000
# 5 0.0000 0.0000 0.0000 0.0000 29.0196 0.0000
# 6 0.0000 0.0000 0.0000 0.0000 0.0000 26.0879
#
#
#
# Elastic Compliance Matrix: (Units=1/GPa)
#
#
# Indices 1 2 3 4 5 6 
#
# 1 0.018913 0.000555 0.002494 0.000000 0.000000 0.000000
# 2 0.000555 0.014017 0.003305 0.000000 0.000000 0.000000
# 3 0.002494 0.003305 0.014556 0.000000 0.000000 0.000000
# 4 0.000000 0.000000 0.000000 0.041566 0.000000 0.000000
# 5 0.000000 0.000000 0.000000 0.000000 0.034460 0.000000
# 6 0.000000 0.000000 0.000000 0.000000 0.000000 0.038332
#
#
# Mechanical properties :
#
#
# Convention : Reuss Voigt Hill
#
# Bulk Modulus (GPa) = 16.61278 16.77090 16.69184
# Shear Modulus (GPa) = 29.55081 31.16722 30.35902
#
# Velocity S-wave (km/s) = 3.68803 3.78755 3.73812
# Velocity P-wave (km/s) = 5.07758 5.18137 5.12974
#
# Compressibility (1/GPa) = 0.06019462
#
# Stress axis : x y z
#
# Youngs Moduli (GPa) = 52.87314 71.34144 68.70091
#
# Poissons Ratio (x) = -0.03956 -0.17136
# Poissons Ratio (y) = -0.02932 -0.22708
# Poissons Ratio (z) = -0.13188 -0.23581
#
# Static dielectric constant tensor:
#      x y z
#    x 1.781350 0.000000 0.000000 
#    y 0.000000 1.936000 0.000000 
#    z 0.000000 0.000000 1.786380 
# 
# From -- ./inp_files/1269.got.cif
#   From: 2010.05.17/outbox.cif.g08.bks.cpg/sg29_1_cif.got.tgz:1269.got - 2010.06.04 01:19:37.
