data_PCOD9340343
_publ_section_title
;
Structure prediction by ZEFSAII (Michael W. Deem and Ramdas Pophale) SiO2 
 PCOD9340343
Probable space group: P C A 21
;
_chemical_formula_sum "Si O2"
_cell_formula_units_Z 28
_cell_length_a 11.590532
_cell_length_b 11.081760
_cell_length_c 8.859667
_cell_angle_alpha 90.000000
_cell_angle_beta 90.000000
_cell_angle_gamma 90.000000
_cell_volume 1137.966584
_symmetry_space_group_name_H-M "P C A 21"
_symmetry_group_IT_number 29
_symmetry_cell_setting 'orthorhombic'
loop_
_space_group_symop_operation_xyz
x,y,z
-x,-y,1/2+z
1/2-x,y,1/2+z
1/2+x,-y,z
loop_
_atom_site_type_symbol
_atom_site_label
_atom_site_fract_x
_atom_site_fract_y
_atom_site_fract_z
Si Si1 0.350626 0.229952 0.153870
Si Si2 0.396039 0.469681 0.302792
Si Si3 0.190846 0.802975 0.267487
Si Si4 0.143799 0.536307 0.155323
Si Si5 0.142432 0.167859 0.335151
Si Si6 0.710760 0.051527 0.982913
Si Si7 0.485891 0.034949 0.317919
O O1 0.401089 0.326897 0.269919
O O2 0.216654 0.221635 0.199936
O O3 0.407793 0.102474 0.195947
O O4 0.374179 0.256397 0.978063
O O5 0.274373 0.498156 0.212109
O O6 0.375063 0.506644 0.477383
O O7 0.524215 0.511087 0.239330
O O8 0.155416 0.678668 0.194897
O O9 0.287320 0.819791 0.393330
O O10 0.082822 0.865817 0.348620
O O11 0.231544 0.903232 0.148475
O O12 0.214268 0.058667 0.417181
O O13 0.034027 0.095845 0.274231
O O14 0.585160 0.996164 0.966009
#
# Coordination Sequence:
#
# PCOD9340343 Si02
#       7
#     4   4   4   4   4   4   4
#     4  11  22  43  65  98 142 181 236 296 364 437
#     4  12  27  51  80 110 150 198 261 328 383 448
#     4  11  22  43  65  97 142 181 234 298 363 438
#     4  12  27  51  79 109 151 197 262 325 387 442
#     4  10  21  36  64  97 140 182 227 280 356 443
#     4  10  21  36  64 100 137 185 227 279 359 445
#     4  10  20  36  65  97 136 180 223 284 352 443
#
# _framework density 24.605291000000001
#
# number of rings (size 3 to 8) (size 9 to 14) (size 15 to 20)
#    0.000    1.143    1.429    6.000    0.000    2.286 
#    2.571    0.000    0.000    0.000    0.000    0.000 
#    0.000    0.000    0.000    0.000    0.000    0.000 
#
# Total GULP energy -155938.627673 kJ/mol
# GULP energy per Si atom -5569.236703 kJ/mol
# Density = 2.454929 g / cm^3
# Si number density = 24.605291 Si / 1000 Ang^3
#
#
#
# Elastic Constant Matrix: (Units=GPa)
#
#
# Indices 1 2 3 4 5 6 
#
# 1 105.8556 27.4052 31.7774 0.0000 0.0000 0.0000
# 2 27.4052 79.2923 28.8618 0.0000 0.0000 0.0000
# 3 31.7774 28.8618 137.9831 0.0000 0.0000 0.0000
# 4 0.0000 0.0000 0.0000 71.3967 0.0000 0.0000
# 5 0.0000 0.0000 0.0000 0.0000 30.5512 0.0000
# 6 0.0000 0.0000 0.0000 0.0000 0.0000 38.6059
#
#
#
# Elastic Compliance Matrix: (Units=1/GPa)
#
#
# Indices 1 2 3 4 5 6 
#
# 1 0.010793 -0.003058 -0.001846 0.000000 0.000000 0.000000
# 2 -0.003058 0.014518 -0.002332 0.000000 0.000000 0.000000
# 3 -0.001846 -0.002332 0.008160 0.000000 0.000000 0.000000
# 4 0.000000 0.000000 0.000000 0.014006 0.000000 0.000000
# 5 0.000000 0.000000 0.000000 0.000000 0.032732 0.000000
# 6 0.000000 0.000000 0.000000 0.000000 0.000000 0.025903
#
#
# Mechanical properties :
#
#
# Convention : Reuss Voigt Hill
#
# Bulk Modulus (GPa) = 52.63845 55.46887 54.05366
# Shear Modulus (GPa) = 39.39587 43.78321 41.58954
#
# Velocity S-wave (km/s) = 4.00573 4.22290 4.11575
# Velocity P-wave (km/s) = 6.54478 6.80952 6.67846
#
# Compressibility (1/GPa) = 0.01899752
#
# Stress axis : x y z
#
# Youngs Moduli (GPa) = 92.65494 68.88219 122.54596
#
# Poissons Ratio (x) = 0.21067 0.22620
# Poissons Ratio (y) = 0.28337 0.28581
# Poissons Ratio (z) = 0.17103 0.16065
#
# Static dielectric constant tensor:
#      x y z
#    x 2.334470 0.000000 0.000000 
#    y 0.000000 2.021740 0.000000 
#    z 0.000000 0.000000 1.971690 
# 
# From -- ./inp_files/1459.got.cif
#   From: 2010.05.17/outbox.cif.g08.bks.cpg/sg29_1_cif.got.tgz:1459.got - 2010.06.04 01:19:37.
