data_PCOD9340662
_publ_section_title
;
Structure prediction by ZEFSAII (Michael W. Deem and Ramdas Pophale) SiO2 
 PCOD9340662
Probable space group: P C A 21
;
_chemical_formula_sum "Si O2"
_cell_formula_units_Z 32
_cell_length_a 8.067218
_cell_length_b 13.732783
_cell_length_c 12.335554
_cell_angle_alpha 90.000000
_cell_angle_beta 90.000000
_cell_angle_gamma 90.000000
_cell_volume 1366.598719
_symmetry_space_group_name_H-M "P C A 21"
_symmetry_group_IT_number 29
_symmetry_cell_setting 'orthorhombic'
loop_
_space_group_symop_operation_xyz
x,y,z
-x,-y,1/2+z
1/2-x,y,1/2+z
1/2+x,-y,z
loop_
_atom_site_type_symbol
_atom_site_label
_atom_site_fract_x
_atom_site_fract_y
_atom_site_fract_z
Si Si1 0.215882 0.374349 0.691970
Si Si2 0.260542 0.015998 0.094576
Si Si3 0.026278 0.314344 0.478808
Si Si4 0.532619 0.102050 0.228630
Si Si5 0.466272 0.843286 0.032844
Si Si6 0.686002 0.790728 0.866341
Si Si7 0.263312 0.724040 0.657567
Si Si8 0.562231 0.434688 0.766094
O O1 0.139265 0.360796 0.573525
O O2 0.207725 0.274178 0.758960
O O3 0.402568 0.413181 0.691940
O O4 0.110410 0.453071 0.760144
O O5 0.422130 0.077866 0.123868
O O6 0.126256 0.090389 0.051908
O O7 0.182187 0.972241 0.206387
O O8 0.318388 0.924051 0.020477
O O9 0.138206 0.227630 0.426152
O O10 0.858561 0.285949 0.542730
O O11 0.982780 0.389875 0.383171
O O12 0.398826 0.108139 0.324616
O O13 0.620223 0.206314 0.227245
O O14 0.404930 0.783734 0.136453
O O15 0.536338 0.763822 0.948722
O O16 0.215609 0.625332 0.715630
#
# Coordination Sequence:
#
# PCOD9340662 Si02
#       8
#     4   4   4   4   4   4   4   4
#     4  11  25  47  66 104 147 184 241 309 348 430
#     4   9  21  42  63  97 139 177 231 300 361 414
#     4  11  25  44  69 104 137 190 236 292 360 425
#     4  10  21  40  66  94 137 181 225 294 352 426
#     4  10  22  38  69  97 135 186 233 289 360 431
#     4  11  24  40  70  98 136 189 235 286 360 432
#     4  11  23  41  68 101 143 182 238 297 347 436
#     4  11  27  44  73 103 142 191 239 293 372 426
#
# _framework density 23.415797000000001
#
# number of rings (size 3 to 8) (size 9 to 14) (size 15 to 20)
#    0.000    1.500    1.250    2.250    5.250    6.000 
#    0.000    0.000    0.000    0.000    0.000    0.000 
#    0.000    0.000    0.000    0.000    0.000    0.000 
#
# Total GULP energy -178318.698061 kJ/mol
# GULP energy per Si atom -5572.459314 kJ/mol
# Density = 2.336250 g / cm^3
# Si number density = 23.415797 Si / 1000 Ang^3
#
#
#
# Elastic Constant Matrix: (Units=GPa)
#
#
# Indices 1 2 3 4 5 6 
#
# 1 107.9623 29.5644 29.8201 0.0000 0.0000 0.0000
# 2 29.5644 34.0880 14.9634 0.0000 0.0000 0.0000
# 3 29.8201 14.9634 68.9867 0.0000 0.0000 0.0000
# 4 0.0000 0.0000 0.0000 31.3053 0.0000 0.0000
# 5 0.0000 0.0000 0.0000 0.0000 40.6119 0.0000
# 6 0.0000 0.0000 0.0000 0.0000 0.0000 33.0235
#
#
#
# Elastic Compliance Matrix: (Units=1/GPa)
#
#
# Indices 1 2 3 4 5 6 
#
# 1 0.012857 -0.009628 -0.003469 0.000000 0.000000 0.000000
# 2 -0.009628 0.039633 -0.004435 0.000000 0.000000 0.000000
# 3 -0.003469 -0.004435 0.016957 0.000000 0.000000 0.000000
# 4 0.000000 0.000000 0.000000 0.031943 0.000000 0.000000
# 5 0.000000 0.000000 0.000000 0.000000 0.024623 0.000000
# 6 0.000000 0.000000 0.000000 0.000000 0.000000 0.030281
#
#
# Mechanical properties :
#
#
# Convention : Reuss Voigt Hill
#
# Bulk Modulus (GPa) = 29.08407 39.97030 34.52719
# Shear Modulus (GPa) = 24.65230 30.10075 27.37652
#
# Velocity S-wave (km/s) = 3.24822 3.58926 3.42299
# Velocity P-wave (km/s) = 5.14933 5.85525 5.51360
#
# Compressibility (1/GPa) = 0.03438308
#
# Stress axis : x y z
#
# Youngs Moduli (GPa) = 77.77661 25.23155 58.97249
#
# Poissons Ratio (x) = 0.24293 0.20459
# Poissons Ratio (y) = 0.74885 0.26152
# Poissons Ratio (z) = 0.26983 0.11189
#
# Static dielectric constant tensor:
#      x y z
#    x 1.918360 0.000000 0.000000 
#    y 0.000000 1.917590 0.000000 
#    z 0.000000 0.000000 1.981770 
# 
# From -- ./inp_files/2929.got.cif
#   From: 2010.05.17/outbox.cif.g08.bks.cpg/sg29_2_cif.got.tgz:2929.got - 2010.06.04 01:19:37.
