data_PCOD9340963
_publ_section_title
;
Structure prediction by ZEFSAII (Michael W. Deem and Ramdas Pophale) SiO2 
 PCOD9340963
Probable space group: P C A 21
;
_chemical_formula_sum "Si O2"
_cell_formula_units_Z 16
_cell_length_a 12.523808
_cell_length_b 5.345211
_cell_length_c 8.755741
_cell_angle_alpha 90.000000
_cell_angle_beta 90.000000
_cell_angle_gamma 90.000000
_cell_volume 586.130284
_symmetry_space_group_name_H-M "P C A 21"
_symmetry_group_IT_number 29
_symmetry_cell_setting 'orthorhombic'
loop_
_space_group_symop_operation_xyz
x,y,z
-x,-y,1/2+z
1/2-x,y,1/2+z
1/2+x,-y,z
loop_
_atom_site_type_symbol
_atom_site_label
_atom_site_fract_x
_atom_site_fract_y
_atom_site_fract_z
Si Si1 0.871000 0.131713 0.260760
Si Si2 0.837256 0.295378 0.871929
Si Si3 0.278102 0.223174 0.049419
Si Si4 0.460423 0.166170 0.494048
O O1 0.826120 0.855893 0.212480
O O2 0.924030 0.106010 0.428142
O O3 0.763200 0.299116 0.255699
O O4 0.963494 0.188686 0.140364
O O5 0.831241 0.548273 0.966016
O O6 0.964661 0.262448 0.853471
O O7 0.804803 0.035192 0.957731
O O8 0.152111 0.275315 0.047279
#
# Coordination Sequence:
#
# PCOD9340963 Si02
#       4
#     4   4   4   4
#     4  10  22  44  70 106 140 184 238 292 358 436
#     4  10  23  42  65  98 136 180 235 286 344 423
#     4  10  23  42  65  98 136 180 235 286 344 423
#     4  10  22  42  70  98 140 186 228 296 360 414
#
# _framework density 27.297681999999998
#
# number of rings (size 3 to 8) (size 9 to 14) (size 15 to 20)
#    0.000    2.000    0.000    1.500    0.000   16.000 
#    0.000   10.000    0.000    0.000    0.000    0.000 
#    0.000    0.000    0.000    0.000    0.000    0.000 
#
# Total GULP energy -89219.977236 kJ/mol
# GULP energy per Si atom -5576.248577 kJ/mol
# Density = 2.723555 g / cm^3
# Si number density = 27.297682 Si / 1000 Ang^3
#
#
#
# Elastic Constant Matrix: (Units=GPa)
#
#
# Indices 1 2 3 4 5 6 
#
# 1 212.5439 24.5569 6.2356 0.0000 0.0000 0.0000
# 2 24.5569 128.4497 14.6834 0.0000 0.0000 0.0000
# 3 6.2356 14.6834 55.4979 0.0000 0.0000 0.0000
# 4 0.0000 0.0000 0.0000 41.4795 0.0000 0.0000
# 5 0.0000 0.0000 0.0000 0.0000 68.5533 0.0000
# 6 0.0000 0.0000 0.0000 0.0000 0.0000 34.3474
#
#
#
# Elastic Compliance Matrix: (Units=1/GPa)
#
#
# Indices 1 2 3 4 5 6 
#
# 1 0.004816 -0.000886 -0.000307 0.000000 0.000000 0.000000
# 2 -0.000886 0.008191 -0.002068 0.000000 0.000000 0.000000
# 3 -0.000307 -0.002068 0.018600 0.000000 0.000000 0.000000
# 4 0.000000 0.000000 0.000000 0.024108 0.000000 0.000000
# 5 0.000000 0.000000 0.000000 0.000000 0.014587 0.000000
# 6 0.000000 0.000000 0.000000 0.000000 0.000000 0.029114
#
#
# Mechanical properties :
#
#
# Convention : Reuss Voigt Hill
#
# Bulk Modulus (GPa) = 39.86113 54.16038 47.01076
# Shear Modulus (GPa) = 43.74470 52.27708 48.01089
#
# Velocity S-wave (km/s) = 4.00747 4.38090 4.19834
# Velocity P-wave (km/s) = 6.00393 6.74340 6.38438
#
# Compressibility (1/GPa) = 0.02508709
#
# Stress axis : x y z
#
# Youngs Moduli (GPa) = 207.63072 122.08779 53.76290
#
# Poissons Ratio (x) = 0.10813 0.01649
# Poissons Ratio (y) = 0.18390 0.11116
# Poissons Ratio (z) = 0.06370 0.25243
#
# Static dielectric constant tensor:
#      x y z
#    x 2.156100 0.000000 0.000000 
#    y 0.000000 2.078060 0.000000 
#    z 0.000000 0.000000 2.456010 
# 
# From -- ./inp_files/2994.got.cif
#   From: 2010.05.17/outbox.cif.g08.bks.cpg/sg29_2_cif.got.tgz:2994.got - 2010.06.04 01:19:37.
