data_PCOD9340572
_publ_section_title
;
Structure prediction by ZEFSAII (Michael W. Deem and Ramdas Pophale) SiO2 
 PCOD9340572
Probable space group: P C A 21
;
_chemical_formula_sum "Si O2"
_cell_formula_units_Z 28
_cell_length_a 10.484126
_cell_length_b 5.419038
_cell_length_c 20.106887
_cell_angle_alpha 90.000000
_cell_angle_beta 90.000000
_cell_angle_gamma 90.000000
_cell_volume 1142.350209
_symmetry_space_group_name_H-M "P C A 21"
_symmetry_group_IT_number 29
_symmetry_cell_setting 'orthorhombic'
loop_
_space_group_symop_operation_xyz
x,y,z
-x,-y,1/2+z
1/2-x,y,1/2+z
1/2+x,-y,z
loop_
_atom_site_type_symbol
_atom_site_label
_atom_site_fract_x
_atom_site_fract_y
_atom_site_fract_z
Si Si1 0.058553 0.330932 0.231780
Si Si2 0.966869 0.584722 0.535162
Si Si3 0.531411 0.834296 0.698793
Si Si4 0.805518 0.700953 0.076903
Si Si5 0.526853 0.908081 0.471204
Si Si6 0.204701 0.226775 0.825616
Si Si7 0.883373 0.271864 0.353272
O O1 0.054380 0.590135 0.194698
O O2 0.931754 0.320294 0.278371
O O3 0.177848 0.309917 0.280489
O O4 0.048386 0.081233 0.190392
O O5 0.842136 0.651065 0.575853
O O6 0.942116 0.307486 0.506919
O O7 0.103861 0.541999 0.570451
O O8 0.988056 0.811583 0.484386
O O9 0.640853 0.826361 0.643327
O O10 0.590005 0.822602 0.772941
O O11 0.841820 0.855013 0.010119
O O12 0.504261 0.823796 0.395878
O O13 0.171783 0.459687 0.872462
O O14 0.216310 0.954668 0.857882
#
# Coordination Sequence:
#
# PCOD9340572 Si02
#       7
#     4   4   4   4   4   4   4
#     4  10  22  40  60  93 120 167 205 265 316 380
#     4  10  25  43  64  97 129 172 219 268 327 392
#     4  10  23  37  63  89 126 159 214 256 325 378
#     4  10  26  43  67  98 132 174 220 271 331 392
#     4  10  24  39  65  92 133 168 223 265 333 386
#     4  10  21  38  61  89 124 161 209 261 325 376
#     4  10  21  40  58  92 120 163 210 260 317 386
#
# _framework density 24.510871999999999
#
# number of rings (size 3 to 8) (size 9 to 14) (size 15 to 20)
#    0.857    1.143    0.000    1.714    6.000    2.286 
#    0.000    0.000    0.000    0.000    0.000    0.000 
#    0.000    0.000    0.000    0.000    0.000    0.000 
#
# Total GULP energy -156174.903737 kJ/mol
# GULP energy per Si atom -5577.675133 kJ/mol
# Density = 2.445508 g / cm^3
# Si number density = 24.510872 Si / 1000 Ang^3
#
#
#
# Elastic Constant Matrix: (Units=GPa)
#
#
# Indices 1 2 3 4 5 6 
#
# 1 66.2910 33.4174 1.0003 0.0000 0.0000 0.0000
# 2 33.4174 161.4579 12.8208 0.0000 0.0000 0.0000
# 3 1.0003 12.8208 41.9951 0.0000 0.0000 0.0000
# 4 0.0000 0.0000 0.0000 33.2365 0.0000 0.0000
# 5 0.0000 0.0000 0.0000 0.0000 27.3444 0.0000
# 6 0.0000 0.0000 0.0000 0.0000 0.0000 22.0265
#
#
#
# Elastic Compliance Matrix: (Units=1/GPa)
#
#
# Indices 1 2 3 4 5 6 
#
# 1 0.016861 -0.003544 0.000680 0.000000 0.000000 0.000000
# 2 -0.003544 0.007092 -0.002081 0.000000 0.000000 0.000000
# 3 0.000680 -0.002081 0.024431 0.000000 0.000000 0.000000
# 4 0.000000 0.000000 0.000000 0.030087 0.000000 0.000000
# 5 0.000000 0.000000 0.000000 0.000000 0.036571 0.000000
# 6 0.000000 0.000000 0.000000 0.000000 0.000000 0.045400
#
#
# Mechanical properties :
#
#
# Convention : Reuss Voigt Hill
#
# Bulk Modulus (GPa) = 25.97663 40.46899 33.22281
# Shear Modulus (GPa) = 27.29802 31.35517 29.32660
#
# Velocity S-wave (km/s) = 3.34085 3.58052 3.46276
# Velocity P-wave (km/s) = 5.05002 5.80000 5.43795
#
# Compressibility (1/GPa) = 0.03849614
#
# Stress axis : x y z
#
# Youngs Moduli (GPa) = 59.30779 140.99860 40.93097
#
# Poissons Ratio (x) = 0.49967 -0.02784
# Poissons Ratio (y) = 0.21018 0.08517
# Poissons Ratio (z) = -0.04035 0.29339
#
# Static dielectric constant tensor:
#      x y z
#    x 1.898940 0.000000 0.000000 
#    y 0.000000 1.996960 0.000000 
#    z 0.000000 0.000000 2.008050 
# 
# From -- ./inp_files/5451.got.cif
#   From: 2010.05.17/outbox.cif.g08.bks.cpg/sg29_3_cif.got.tgz:5451.got - 2010.06.04 01:19:37.
