data_PCOD9340577
_publ_section_title
;
Structure prediction by ZEFSAII (Michael W. Deem and Ramdas Pophale) SiO2 
 PCOD9340577
Probable space group: P C A 21
;
_chemical_formula_sum "Si O2"
_cell_formula_units_Z 32
_cell_length_a 25.918254
_cell_length_b 10.373981
_cell_length_c 5.180311
_cell_angle_alpha 90.000000
_cell_angle_beta 90.000000
_cell_angle_gamma 90.000000
_cell_volume 1392.858578
_symmetry_space_group_name_H-M "P C A 21"
_symmetry_group_IT_number 29
_symmetry_cell_setting 'orthorhombic'
loop_
_space_group_symop_operation_xyz
x,y,z
-x,-y,1/2+z
1/2-x,y,1/2+z
1/2+x,-y,z
loop_
_atom_site_type_symbol
_atom_site_label
_atom_site_fract_x
_atom_site_fract_y
_atom_site_fract_z
Si Si1 0.138208 0.509957 0.165890
Si Si2 0.501056 0.081985 0.014129
Si Si3 0.156243 0.233673 0.232853
Si Si4 0.593884 0.759495 0.747324
Si Si5 0.713801 0.286261 0.371721
Si Si6 0.280983 0.976893 0.699310
Si Si7 0.558211 0.331232 0.884076
Si Si8 0.453206 0.473665 0.031766
O O1 0.169851 0.376936 0.120997
O O2 0.173731 0.598214 0.345868
O O3 0.087148 0.453982 0.304509
O O4 0.113584 0.612959 0.966082
O O5 0.545938 0.185473 0.952159
O O6 0.485916 0.015095 0.745381
O O7 0.452161 0.158269 0.127677
O O8 0.138267 0.240511 0.530084
O O9 0.196843 0.118843 0.229933
O O10 0.112425 0.193564 0.024528
O O11 0.572380 0.613577 0.756156
O O12 0.743334 0.294918 0.643222
O O13 0.687424 0.147132 0.306033
O O14 0.267266 0.964590 0.397817
O O15 0.549810 0.374069 0.587436
O O16 0.509588 0.415535 0.994834
#
# Coordination Sequence:
#
# PCOD9340577 Si02
#       8
#     4   4   4   4   4   4   4   4
#     4  11  24  38  67  99 131 169 222 276 339 393
#     4  11  26  42  59  89 131 177 221 267 317 383
#     4  11  22  39  64  97 121 160 211 267 319 395
#     4  10  22  39  62  87 130 162 207 263 319 377
#     4  10  25  45  64  91 129 169 214 271 331 396
#     4  10  22  44  67  89 123 170 214 264 338 403
#     4  11  22  39  66  91 136 176 219 275 337 400
#     4  10  21  38  63  95 127 173 218 265 332 395
#
# _framework density 22.974335
#
# number of rings (size 3 to 8) (size 9 to 14) (size 15 to 20)
#    0.000    1.500    2.500    1.500    3.500    3.000 
#    0.000    0.000    0.000    0.000    0.000    0.000 
#    0.000    0.000    0.000    0.000    0.000    0.000 
#
# Total GULP energy -178327.708415 kJ/mol
# GULP energy per Si atom -5572.740888 kJ/mol
# Density = 2.292204 g / cm^3
# Si number density = 22.974335 Si / 1000 Ang^3
#
#
#
# Elastic Constant Matrix: (Units=GPa)
#
#
# Indices 1 2 3 4 5 6 
#
# 1 21.4742 13.5519 8.8890 0.0000 0.0000 0.0000
# 2 13.5519 109.4165 14.3177 0.0000 0.0000 0.0000
# 3 8.8890 14.3177 100.6500 0.0000 0.0000 0.0000
# 4 0.0000 0.0000 0.0000 38.0407 0.0000 0.0000
# 5 0.0000 0.0000 0.0000 0.0000 19.8777 0.0000
# 6 0.0000 0.0000 0.0000 0.0000 0.0000 23.4154
#
#
#
# Elastic Compliance Matrix: (Units=1/GPa)
#
#
# Indices 1 2 3 4 5 6 
#
# 1 0.051859 -0.005934 -0.003736 0.000000 0.000000 0.000000
# 2 -0.005934 0.009992 -0.000897 0.000000 0.000000 0.000000
# 3 -0.003736 -0.000897 0.010393 0.000000 0.000000 0.000000
# 4 0.000000 0.000000 0.000000 0.026288 0.000000 0.000000
# 5 0.000000 0.000000 0.000000 0.000000 0.050308 0.000000
# 6 0.000000 0.000000 0.000000 0.000000 0.000000 0.042707
#
#
# Mechanical properties :
#
#
# Convention : Reuss Voigt Hill
#
# Bulk Modulus (GPa) = 19.56596 33.89530 26.73063
# Shear Modulus (GPa) = 21.76593 29.25222 25.50908
#
# Velocity S-wave (km/s) = 3.08133 3.57214 3.33578
# Velocity P-wave (km/s) = 4.60374 5.63908 5.14750
#
# Compressibility (1/GPa) = 0.05110917
#
# Stress axis : x y z
#
# Youngs Moduli (GPa) = 19.28310 100.08219 96.21867
#
# Poissons Ratio (x) = 0.59391 0.35945
# Poissons Ratio (y) = 0.11443 0.08633
# Poissons Ratio (z) = 0.07204 0.08980
#
# Static dielectric constant tensor:
#      x y z
#    x 1.903170 0.000000 0.000000 
#    y 0.000000 1.998300 0.000000 
#    z 0.000000 0.000000 1.946450 
# 
# From -- ./inp_files/811.got.cif
#   From: 2010.05.17/outbox.cif.g08.bks.cpg/sg29_1_cif.got.tgz:811.got - 2010.06.04 01:19:37.
