data_PCOD9340547
_publ_section_title
;
Structure prediction by ZEFSAII (Michael W. Deem and Ramdas Pophale) SiO2 
 PCOD9340547
Probable space group: P C A 21
;
_chemical_formula_sum "Si O2"
_cell_formula_units_Z 32
_cell_length_a 32.463728
_cell_length_b 7.593008
_cell_length_c 5.528744
_cell_angle_alpha 90.000000
_cell_angle_beta 90.000000
_cell_angle_gamma 90.000000
_cell_volume 1362.820725
_symmetry_space_group_name_H-M "P C A 21"
_symmetry_group_IT_number 29
_symmetry_cell_setting 'orthorhombic'
loop_
_space_group_symop_operation_xyz
x,y,z
-x,-y,1/2+z
1/2-x,y,1/2+z
1/2+x,-y,z
loop_
_atom_site_type_symbol
_atom_site_label
_atom_site_fract_x
_atom_site_fract_y
_atom_site_fract_z
Si Si1 0.107065 0.529662 0.233060
Si Si2 0.059535 0.732661 0.820258
Si Si3 0.228090 0.692210 0.812042
Si Si4 0.271500 0.261024 0.309856
Si Si5 0.450709 0.132902 0.331400
Si Si6 0.642068 0.333111 0.623795
Si Si7 0.363132 0.279815 0.357578
Si Si8 0.527879 0.676983 0.341119
O O1 0.146308 0.635311 0.339388
O O2 0.065671 0.459424 0.365373
O O3 0.086521 0.657719 0.038155
O O4 0.127729 0.353767 0.124793
O O5 0.096391 0.748953 0.626951
O O6 0.019050 0.610631 0.802178
O O7 0.041596 0.926406 0.847415
O O8 0.253730 0.746922 0.571741
O O9 0.227840 0.476550 0.812183
O O10 0.180585 0.744886 0.759920
O O11 0.247970 0.206637 0.554093
O O12 0.318590 0.199340 0.327125
O O13 0.401833 0.162248 0.292971
O O14 0.462721 0.220704 0.587978
O O15 0.471199 0.215372 0.092913
O O16 0.636175 0.537049 0.707354
#
# Coordination Sequence:
#
# PCOD9340547 Si02
#       8
#     4   4   4   4   4   4   4   4
#     4  10  23  37  60  89 124 160 203 258 305 368
#     4  11  26  38  64  91 126 162 213 255 311 369
#     4   9  19  32  54  83 118 152 192 245 304 360
#     4   9  18  28  52  85 113 144 193 248 299 356
#     4  11  24  44  62  89 120 170 208 257 305 374
#     4  10  21  37  59  90 122 156 203 255 306 368
#     4   9  20  37  57  84 121 158 197 250 309 363
#     4  11  25  43  64  87 126 166 211 256 313 362
#
# _framework density 23.480713000000002
#
# number of rings (size 3 to 8) (size 9 to 14) (size 15 to 20)
#    0.000    2.000    1.250    0.750   15.750    0.000 
#    0.000    0.000    0.000    1.500    0.000    0.000 
#    0.000    0.000    0.000    0.000    0.000    0.000 
#
# Total GULP energy -178367.190775 kJ/mol
# GULP energy per Si atom -5573.974712 kJ/mol
# Density = 2.342727 g / cm^3
# Si number density = 23.480713 Si / 1000 Ang^3
#
#
#
# Elastic Constant Matrix: (Units=GPa)
#
#
# Indices 1 2 3 4 5 6 
#
# 1 146.9395 -1.7319 63.9591 0.0000 0.0000 0.0000
# 2 -1.7319 50.2622 16.5547 0.0000 0.0000 0.0000
# 3 63.9591 16.5547 113.2048 0.0000 0.0000 0.0000
# 4 0.0000 0.0000 0.0000 8.1356 0.0000 0.0000
# 5 0.0000 0.0000 0.0000 0.0000 33.8497 0.0000
# 6 0.0000 0.0000 0.0000 0.0000 0.0000 6.7170
#
#
#
# Elastic Compliance Matrix: (Units=1/GPa)
#
#
# Indices 1 2 3 4 5 6 
#
# 1 0.009239 0.002141 -0.005533 0.000000 0.000000 0.000000
# 2 0.002141 0.021398 -0.004339 0.000000 0.000000 0.000000
# 3 -0.005533 -0.004339 0.012594 0.000000 0.000000 0.000000
# 4 0.000000 0.000000 0.000000 0.122916 0.000000 0.000000
# 5 0.000000 0.000000 0.000000 0.000000 0.029542 0.000000
# 6 0.000000 0.000000 0.000000 0.000000 0.000000 0.148876
#
#
# Mechanical properties :
#
#
# Convention : Reuss Voigt Hill
#
# Bulk Modulus (GPa) = 36.01049 51.99669 44.00359
# Shear Modulus (GPa) = 13.53968 25.18211 19.36089
#
# Velocity S-wave (km/s) = 2.40392 3.27840 2.87460
# Velocity P-wave (km/s) = 4.80360 6.04343 5.45883
#
# Compressibility (1/GPa) = 0.02776968
#
# Stress axis : x y z
#
# Youngs Moduli (GPa) = 108.23506 46.73233 79.40208
#
# Poissons Ratio (x) = -0.10004 0.43934
# Poissons Ratio (y) = -0.23171 0.34451
# Poissons Ratio (z) = 0.59887 0.20276
#
# Static dielectric constant tensor:
#      x y z
#    x 2.045360 0.000000 0.000000 
#    y 0.000000 1.915360 0.000000 
#    z 0.000000 0.000000 2.184140 
# 
# From -- ./inp_files/914.got.cif
#   From: 2010.05.17/outbox.cif.g08.bks.cpg/sg29_1_cif.got.tgz:914.got - 2010.06.04 01:19:37.
