data_PCOD9340807
_publ_section_title
;
Structure prediction by ZEFSAII (Michael W. Deem and Ramdas Pophale) SiO2 
 PCOD9340807
Probable space group: P C A 21
;
_chemical_formula_sum "Si O2"
_cell_formula_units_Z 28
_cell_length_a 12.921872
_cell_length_b 11.709134
_cell_length_c 8.196851
_cell_angle_alpha 90.000000
_cell_angle_beta 90.000000
_cell_angle_gamma 90.000000
_cell_volume 1240.215776
_symmetry_space_group_name_H-M "P C A 21"
_symmetry_group_IT_number 29
_symmetry_cell_setting 'orthorhombic'
loop_
_space_group_symop_operation_xyz
x,y,z
-x,-y,1/2+z
1/2-x,y,1/2+z
1/2+x,-y,z
loop_
_atom_site_type_symbol
_atom_site_label
_atom_site_fract_x
_atom_site_fract_y
_atom_site_fract_z
Si Si1 0.561845 0.507117 0.933030
Si Si2 0.402859 0.311101 0.873521
Si Si3 0.189060 0.311270 0.730299
Si Si4 0.408546 0.693528 0.045304
Si Si5 0.699764 0.312829 0.899174
Si Si6 0.940134 0.124008 0.495728
Si Si7 0.035724 0.125874 0.857854
O O1 0.632515 0.578642 0.808031
O O2 0.641772 0.413017 0.000952
O O3 0.471281 0.424582 0.867797
O O4 0.498616 0.599865 0.034575
O O5 0.341719 0.312015 0.043266
O O6 0.312260 0.308039 0.742859
O O7 0.478492 0.202230 0.892085
O O8 0.136199 0.203513 0.820406
O O9 0.347425 0.688964 0.216407
O O10 0.321147 0.668984 0.909972
O O11 0.463866 0.810729 0.991532
O O12 0.667068 0.192538 0.978566
O O13 0.976592 0.121196 0.683560
O O14 0.936282 0.998824 0.421156
#
# Coordination Sequence:
#
# PCOD9340807 Si02
#       7
#     4   4   4   4   4   4   4
#     4  10  22  38  58  86 120 154 194 240 290 350
#     4  10  22  38  59  87 117 152 193 239 291 347
#     4  10  22  38  59  87 117 152 193 239 291 347
#     4  11  23  39  62  90 121 159 201 247 300 356
#     4  11  23  39  62  90 121 159 201 247 300 356
#     4  10  22  41  62  87 120 157 201 249 300 356
#     4  10  22  41  62  87 120 157 201 249 300 356
#
# _framework density 22.576718
#
# number of rings (size 3 to 8) (size 9 to 14) (size 15 to 20)
#    0.000    1.714    0.000    3.429    0.000   11.429 
#    0.000    2.857    0.000    0.000    0.000    0.000 
#    0.000    0.000    0.000    0.000    0.000    0.000 
#
# Total GULP energy -156569.483440 kJ/mol
# GULP energy per Si atom -5591.767266 kJ/mol
# Density = 2.252533 g / cm^3
# Si number density = 22.576718 Si / 1000 Ang^3
#
#
#
# Elastic Constant Matrix: (Units=GPa)
#
#
# Indices 1 2 3 4 5 6 
#
# 1 83.7636 21.9778 17.7808 0.0000 0.0000 0.0000
# 2 21.9778 152.1079 24.4525 0.0000 0.0000 0.0000
# 3 17.7808 24.4525 72.6156 0.0000 0.0000 0.0000
# 4 0.0000 0.0000 0.0000 -17.1441 0.0000 0.0000
# 5 0.0000 0.0000 0.0000 0.0000 41.3710 0.0000
# 6 0.0000 0.0000 0.0000 0.0000 0.0000 4.8657
#
#
#
# Elastic Compliance Matrix: (Units=1/GPa)
#
#
# Indices 1 2 3 4 5 6 
#
# 1 0.012881 -0.001432 -0.002672 0.000000 0.000000 0.000000
# 2 -0.001432 0.007110 -0.002044 0.000000 0.000000 0.000000
# 3 -0.002672 -0.002044 0.015114 0.000000 0.000000 0.000000
# 4 0.000000 0.000000 0.000000 -0.058329 0.000000 0.000000
# 5 0.000000 0.000000 0.000000 0.000000 0.024172 0.000000
# 6 0.000000 0.000000 0.000000 0.000000 0.000000 0.205522
#
#
# Mechanical properties :
#
#
# Convention : Reuss Voigt Hill
#
# Bulk Modulus (GPa) = 43.84043 48.54549 46.19296
# Shear Modulus (GPa) = 22.08805 22.10357 22.09581
#
# Velocity S-wave (km/s) = 3.13126 3.13236 3.13181
# Velocity P-wave (km/s) = 5.70383 5.88484 5.79504
#
# Compressibility (1/GPa) = 0.02280999
#
# Stress axis : x y z
#
# Youngs Moduli (GPa) = 77.63260 140.65389 66.16571
#
# Poissons Ratio (x) = 0.20136 0.17680
# Poissons Ratio (y) = 0.11114 0.13521
# Poissons Ratio (z) = 0.20744 0.28743
#
# Static dielectric constant tensor:
#      x y z
#    x 1.843460 0.000000 0.000000 
#    y 0.000000 1.805200 0.000000 
#    z 0.000000 0.000000 1.882530 
# 
# From -- ./inp_files/1483.got.cif
#   From: 2010.05.17/outbox.cif.g08.bks.cpg/sg29_1_cif.got.tgz:1483.got - 2010.06.04 01:19:37.
