data_PCOD9340941
_publ_section_title
;
Structure prediction by ZEFSAII (Michael W. Deem and Ramdas Pophale) SiO2 
 PCOD9340941
Probable space group: P C A 21
;
_chemical_formula_sum "Si O2"
_cell_formula_units_Z 32
_cell_length_a 9.923521
_cell_length_b 6.148614
_cell_length_c 21.307174
_cell_angle_alpha 90.000000
_cell_angle_beta 90.000000
_cell_angle_gamma 90.000000
_cell_volume 1300.076401
_symmetry_space_group_name_H-M "P C A 21"
_symmetry_group_IT_number 29
_symmetry_cell_setting 'orthorhombic'
loop_
_space_group_symop_operation_xyz
x,y,z
-x,-y,1/2+z
1/2-x,y,1/2+z
1/2+x,-y,z
loop_
_atom_site_type_symbol
_atom_site_label
_atom_site_fract_x
_atom_site_fract_y
_atom_site_fract_z
Si Si1 0.092014 0.897132 0.983150
Si Si2 0.418699 0.867935 0.268482
Si Si3 0.165665 0.172246 0.874582
Si Si4 0.219087 0.543355 0.318342
Si Si5 0.298095 0.625894 0.594653
Si Si6 0.989402 0.293466 0.063661
Si Si7 0.859944 0.133573 0.715298
Si Si8 0.040902 0.499096 0.431825
O O1 0.991293 0.756619 0.939047
O O2 0.190408 0.028773 0.936244
O O3 0.173774 0.736977 0.027785
O O4 0.015717 0.060568 0.031055
O O5 0.421087 0.024329 0.328637
O O6 0.547493 0.927428 0.228509
O O7 0.365100 0.638430 0.296518
O O8 0.293254 0.937951 0.225361
O O9 0.274699 0.283319 0.828245
O O10 0.087505 0.375729 0.904065
O O11 0.127646 0.668754 0.267024
O O12 0.158417 0.591672 0.387189
O O13 0.138961 0.660159 0.608284
O O14 0.369802 0.390249 0.590259
O O15 0.377023 0.759300 0.647991
O O16 0.945383 0.435733 0.003548
#
# Coordination Sequence:
#
# PCOD9340941 Si02
#       8
#     4   4   4   4   4   4   4   4
#     4  10  25  41  75 106 149 192 247 325 390 458
#     4  10  23  46  68 108 142 201 245 307 383 443
#     4  11  21  40  67 106 145 186 239 313 377 455
#     4  10  24  39  73 103 144 195 245 307 382 444
#     4  11  26  50  70 110 149 199 264 307 378 461
#     4  10  26  45  74 104 149 198 250 317 389 443
#     4  10  25  49  71 104 153 201 258 302 374 456
#     4  10  22  42  66 107 147 184 246 310 389 452
#
# _framework density 24.613939999999999
#
# number of rings (size 3 to 8) (size 9 to 14) (size 15 to 20)
#    0.750    1.000    1.250    0.750   10.500    5.000 
#    2.250    0.000    0.000    0.000    0.000    0.000 
#    0.000    0.000    0.000    0.000    0.000    0.000 
#
# Total GULP energy -178230.220966 kJ/mol
# GULP energy per Si atom -5569.694405 kJ/mol
# Density = 2.455792 g / cm^3
# Si number density = 24.613940 Si / 1000 Ang^3
#
#
#
# Elastic Constant Matrix: (Units=GPa)
#
#
# Indices 1 2 3 4 5 6 
#
# 1 90.2708 38.6648 17.3059 0.0000 0.0000 0.0000
# 2 38.6648 76.9494 21.8485 0.0000 0.0000 0.0000
# 3 17.3059 21.8485 79.8338 0.0000 0.0000 0.0000
# 4 0.0000 0.0000 0.0000 45.8905 0.0000 0.0000
# 5 0.0000 0.0000 0.0000 0.0000 29.7439 0.0000
# 6 0.0000 0.0000 0.0000 0.0000 0.0000 31.0573
#
#
#
# Elastic Compliance Matrix: (Units=1/GPa)
#
#
# Indices 1 2 3 4 5 6 
#
# 1 0.014225 -0.006801 -0.001222 0.000000 0.000000 0.000000
# 2 -0.006801 0.017342 -0.003272 0.000000 0.000000 0.000000
# 3 -0.001222 -0.003272 0.013686 0.000000 0.000000 0.000000
# 4 0.000000 0.000000 0.000000 0.021791 0.000000 0.000000
# 5 0.000000 0.000000 0.000000 0.000000 0.033620 0.000000
# 6 0.000000 0.000000 0.000000 0.000000 0.000000 0.032199
#
#
# Mechanical properties :
#
#
# Convention : Reuss Voigt Hill
#
# Bulk Modulus (GPa) = 44.12397 44.74360 44.43379
# Shear Modulus (GPa) = 30.67354 32.62065 31.64709
#
# Velocity S-wave (km/s) = 3.53397 3.64440 3.58961
# Velocity P-wave (km/s) = 5.88364 5.99387 5.93901
#
# Compressibility (1/GPa) = 0.02266342
#
# Stress axis : x y z
#
# Youngs Moduli (GPa) = 70.29902 57.66481 73.06513
#
# Poissons Ratio (x) = 0.39215 0.08932
# Poissons Ratio (y) = 0.47807 0.23905
# Poissons Ratio (z) = 0.08594 0.18867
#
# Static dielectric constant tensor:
#      x y z
#    x 2.104050 0.000000 0.000000 
#    y 0.000000 1.999360 0.000000 
#    z 0.000000 0.000000 1.946040 
# 
# From -- ./inp_files/5718.got.cif
#   From: 2010.05.17/outbox.cif.g08.bks.cpg/sg29_3_cif.got.tgz:5718.got - 2010.06.04 01:19:37.
