data_PCOD9340531
_publ_section_title
;
Structure prediction by ZEFSAII (Michael W. Deem and Ramdas Pophale) SiO2 
 PCOD9340531
Probable space group: P C A 21
;
_chemical_formula_sum "Si O2"
_cell_formula_units_Z 32
_cell_length_a 14.961474
_cell_length_b 5.123044
_cell_length_c 18.855500
_cell_angle_alpha 90.000000
_cell_angle_beta 90.000000
_cell_angle_gamma 90.000000
_cell_volume 1445.241825
_symmetry_space_group_name_H-M "P C A 21"
_symmetry_group_IT_number 29
_symmetry_cell_setting 'orthorhombic'
loop_
_space_group_symop_operation_xyz
x,y,z
-x,-y,1/2+z
1/2-x,y,1/2+z
1/2+x,-y,z
loop_
_atom_site_type_symbol
_atom_site_label
_atom_site_fract_x
_atom_site_fract_y
_atom_site_fract_z
Si Si1 0.206299 0.139338 0.148770
Si Si2 0.863412 0.111868 0.788049
Si Si3 0.863412 0.611868 0.210034
Si Si4 0.548308 0.966464 0.824465
Si Si5 0.951692 0.466464 0.673618
Si Si6 0.399263 0.848201 0.548768
Si Si7 0.100737 0.348201 0.949315
Si Si8 0.706299 0.360662 0.849314
O O1 0.298727 0.293143 0.148084
O O2 0.120406 0.330565 0.143335
O O3 0.196412 0.024295 0.227888
O O4 0.193880 0.914579 0.090182
O O5 0.909421 0.351020 0.745531
O O6 0.798727 0.206857 0.850000
O O7 0.947873 0.938144 0.811302
O O8 0.909421 0.851020 0.252552
O O9 0.803588 0.475705 0.270196
O O10 0.947873 0.438144 0.186781
O O11 0.540868 0.728537 0.881118
O O12 0.620407 0.169435 0.854748
O O13 0.959133 0.228537 0.616966
O O14 0.410687 0.602636 0.497300
O O15 0.410687 0.102636 0.500784
O O16 0.193880 0.414579 0.907902
#
# Coordination Sequence:
#
# PCOD9340531 Si02
#       8
#     4   4   4   4   4   4   4   4
#     4  11  20  38  66  94 133 172 213 282 326 401
#     4  10  21  36  62 101 129 163 218 264 346 383
#     4  10  21  36  62 101 129 163 218 264 346 383
#     4  10  21  39  63  94 130 172 208 279 321 396
#     4  10  21  39  63  94 130 172 208 279 321 396
#     4  11  23  43  66  87 126 177 220 262 324 382
#     4  11  23  43  66  87 126 177 220 262 324 382
#     4  11  20  38  66  94 133 172 213 282 326 401
#
# _framework density 22.141622999999999
#
# number of rings (size 3 to 8) (size 9 to 14) (size 15 to 20)
#    0.000    1.500    5.000    0.750    0.000    0.000 
#    0.000    2.500    0.000    0.000    0.000    0.000 
#    0.000    0.000    0.000    0.000    0.000    0.000 
#
# Total GULP energy -178353.726200 kJ/mol
# GULP energy per Si atom -5573.553944 kJ/mol
# Density = 2.209123 g / cm^3
# Si number density = 22.141623 Si / 1000 Ang^3
#
#
#
# Elastic Constant Matrix: (Units=GPa)
#
#
# Indices 1 2 3 4 5 6 
#
# 1 82.4538 14.9924 3.8906 0.0000 0.0000 0.0000
# 2 14.9924 106.0413 23.4550 0.0000 0.0000 0.0000
# 3 3.8906 23.4550 66.3352 0.0000 0.0000 0.0000
# 4 0.0000 0.0000 0.0000 47.2478 0.0000 0.0000
# 5 0.0000 0.0000 0.0000 0.0000 8.8021 0.0000
# 6 0.0000 0.0000 0.0000 0.0000 0.0000 26.0421
#
#
#
# Elastic Compliance Matrix: (Units=1/GPa)
#
#
# Indices 1 2 3 4 5 6 
#
# 1 0.012449 -0.001734 -0.000117 0.000000 0.000000 0.000000
# 2 -0.001734 0.010472 -0.003601 0.000000 0.000000 0.000000
# 3 -0.000117 -0.003601 0.016355 0.000000 0.000000 0.000000
# 4 0.000000 0.000000 0.000000 0.021165 0.000000 0.000000
# 5 0.000000 0.000000 0.000000 0.000000 0.113609 0.000000
# 6 0.000000 0.000000 0.000000 0.000000 0.000000 0.038399
#
#
# Mechanical properties :
#
#
# Convention : Reuss Voigt Hill
#
# Bulk Modulus (GPa) = 35.24653 37.72293 36.48473
# Shear Modulus (GPa) = 21.47667 30.58456 26.03061
#
# Velocity S-wave (km/s) = 3.11781 3.72064 3.43248
# Velocity P-wave (km/s) = 5.37719 5.96084 5.67652
#
# Compressibility (1/GPa) = 0.02837159
#
# Stress axis : x y z
#
# Youngs Moduli (GPa) = 80.32869 95.49309 61.14321
#
# Poissons Ratio (x) = 0.16560 0.00715
# Poissons Ratio (y) = 0.13930 0.22018
# Poissons Ratio (z) = 0.00940 0.34387
#
# Static dielectric constant tensor:
#      x y z
#    x 1.983220 0.000000 0.000000 
#    y 0.000000 1.955580 0.000000 
#    z 0.000000 0.000000 1.860940 
# 
# From -- ./inp_files/5208.got.cif
#   From: 2010.05.17/outbox.cif.g08.bks.cpg/sg29_3_cif.got.tgz:5208.got - 2010.06.04 01:19:37.
