data_PCOD9340725
_publ_section_title
;
Structure prediction by ZEFSAII (Michael W. Deem and Ramdas Pophale) SiO2 
 PCOD9340725
Probable space group: P C A 21
;
_chemical_formula_sum "Si O2"
_cell_formula_units_Z 32
_cell_length_a 22.740701
_cell_length_b 6.400097
_cell_length_c 10.259134
_cell_angle_alpha 90.000000
_cell_angle_beta 90.000000
_cell_angle_gamma 90.000000
_cell_volume 1493.141982
_symmetry_space_group_name_H-M "P C A 21"
_symmetry_group_IT_number 29
_symmetry_cell_setting 'orthorhombic'
loop_
_space_group_symop_operation_xyz
x,y,z
-x,-y,1/2+z
1/2-x,y,1/2+z
1/2+x,-y,z
loop_
_atom_site_type_symbol
_atom_site_label
_atom_site_fract_x
_atom_site_fract_y
_atom_site_fract_z
Si Si1 0.630135 0.668083 0.407300
Si Si2 0.498683 0.638299 0.310694
Si Si3 0.592149 0.023221 0.889151
Si Si4 0.166772 0.668658 0.055721
Si Si5 0.206002 0.710269 0.488059
Si Si6 0.058207 0.371183 0.037981
Si Si7 0.705729 0.982535 0.257648
Si Si8 0.669429 0.927937 0.656442
O O1 0.562033 0.656948 0.377685
O O2 0.660948 0.444798 0.420333
O O3 0.644611 0.788399 0.540862
O O4 0.660557 0.805277 0.296095
O O5 0.465053 0.469377 0.401283
O O6 0.462316 0.852078 0.327610
O O7 0.512457 0.597410 0.157707
O O8 0.571453 0.869794 0.004304
O O9 0.627472 0.899581 0.779137
O O10 0.637921 0.195126 0.940874
O O11 0.176921 0.838816 0.168986
O O12 0.233155 0.595794 0.024408
O O13 0.118398 0.490583 0.077883
O O14 0.223769 0.896544 0.389864
O O15 0.174394 0.829944 0.607663
O O16 0.763158 0.882909 0.192825
#
# Coordination Sequence:
#
# PCOD9340725 Si02
#       8
#     4   4   4   4   4   4   4   4
#     4  11  25  40  68 100 136 180 227 281 346 420
#     4  11  28  46  67 103 134 187 232 290 347 408
#     4  11  25  44  70  92 137 179 234 284 343 410
#     4  10  22  42  66  99 133 178 221 281 344 409
#     4  10  22  39  65  98 135 167 216 283 338 415
#     4  11  27  45  73  98 137 183 238 289 346 419
#     4  10  21  42  66  98 136 171 221 275 349 410
#     4  10  24  40  65  98 132 177 223 281 341 413
#
# _framework density 21.431317
#
# number of rings (size 3 to 8) (size 9 to 14) (size 15 to 20)
#    0.000    1.500    1.250    1.500    7.000    7.000 
#    0.000    0.000    0.000    0.000    0.000    0.000 
#    0.000    0.000    0.000    0.000    0.000    0.000 
#
# Total GULP energy -178800.896841 kJ/mol
# GULP energy per Si atom -5587.528026 kJ/mol
# Density = 2.138254 g / cm^3
# Si number density = 21.431317 Si / 1000 Ang^3
#
#
#
# Elastic Constant Matrix: (Units=GPa)
#
#
# Indices 1 2 3 4 5 6 
#
# 1 90.8999 23.9872 15.9257 0.0000 0.0000 0.0000
# 2 23.9872 30.8229 3.8998 0.0000 0.0000 0.0000
# 3 15.9257 3.8998 91.8825 0.0000 0.0000 0.0000
# 4 0.0000 0.0000 0.0000 31.3036 0.0000 0.0000
# 5 0.0000 0.0000 0.0000 0.0000 38.6401 0.0000
# 6 0.0000 0.0000 0.0000 0.0000 0.0000 12.6672
#
#
#
# Elastic Compliance Matrix: (Units=1/GPa)
#
#
# Indices 1 2 3 4 5 6 
#
# 1 0.014202 -0.010799 -0.002003 0.000000 0.000000 0.000000
# 2 -0.010799 0.040830 0.000139 0.000000 0.000000 0.000000
# 3 -0.002003 0.000139 0.011225 0.000000 0.000000 0.000000
# 4 0.000000 0.000000 0.000000 0.031945 0.000000 0.000000
# 5 0.000000 0.000000 0.000000 0.000000 0.025880 0.000000
# 6 0.000000 0.000000 0.000000 0.000000 0.000000 0.078944
#
#
# Mechanical properties :
#
#
# Convention : Reuss Voigt Hill
#
# Bulk Modulus (GPa) = 24.43199 33.47007 28.95103
# Shear Modulus (GPa) = 20.66158 27.84169 24.25164
#
# Velocity S-wave (km/s) = 3.10834 3.60823 3.36757
# Velocity P-wave (km/s) = 4.93024 5.74547 5.35339
#
# Compressibility (1/GPa) = 0.04092994
#
# Stress axis : x y z
#
# Youngs Moduli (GPa) = 70.41405 24.49193 89.08859
#
# Poissons Ratio (x) = 0.26448 0.17846
# Poissons Ratio (y) = 0.76038 -0.01236
# Poissons Ratio (z) = 0.14105 -0.00340
#
# Static dielectric constant tensor:
#      x y z
#    x 1.738280 0.000000 0.000000 
#    y 0.000000 1.764830 0.000000 
#    z 0.000000 0.000000 1.823660 
# 
# From -- ./inp_files/3856.got.cif
#   From: 2010.05.17/outbox.cif.g08.bks.cpg/sg29_2_cif.got.tgz:3856.got - 2010.06.04 01:19:37.
