data_PCOD9340828
_publ_section_title
;
Structure prediction by ZEFSAII (Michael W. Deem and Ramdas Pophale) SiO2 
 PCOD9340828
Probable space group: P C A 21
;
_chemical_formula_sum "Si O2"
_cell_formula_units_Z 28
_cell_length_a 12.974448
_cell_length_b 9.692068
_cell_length_c 8.619113
_cell_angle_alpha 90.000000
_cell_angle_beta 90.000000
_cell_angle_gamma 90.000000
_cell_volume 1083.846843
_symmetry_space_group_name_H-M "P C A 21"
_symmetry_group_IT_number 29
_symmetry_cell_setting 'orthorhombic'
loop_
_space_group_symop_operation_xyz
x,y,z
-x,-y,1/2+z
1/2-x,y,1/2+z
1/2+x,-y,z
loop_
_atom_site_type_symbol
_atom_site_label
_atom_site_fract_x
_atom_site_fract_y
_atom_site_fract_z
Si Si1 0.362621 0.632430 0.506970
Si Si2 0.750924 0.532614 0.245355
Si Si3 0.661816 0.882161 0.975271
Si Si4 0.368865 0.036455 0.834146
Si Si5 0.099295 0.428246 0.480772
Si Si6 0.445832 0.754433 0.977623
Si Si7 0.089998 0.869666 0.816643
O O1 0.300567 0.596747 0.658851
O O2 0.323371 0.522040 0.381013
O O3 0.485011 0.617849 0.521002
O O4 0.342993 0.780608 0.434735
O O5 0.821893 0.606023 0.119309
O O6 0.655280 0.614102 0.320388
O O7 0.647459 0.944564 0.148744
O O8 0.571709 0.765791 0.967644
O O9 0.782632 0.888771 0.938646
O O10 0.629952 0.977156 0.827896
O O11 0.474217 0.114456 0.876065
O O12 0.393198 0.874218 0.872023
O O13 0.089654 0.596263 0.462449
O O14 0.414306 0.800300 0.150969
#
# Coordination Sequence:
#
# PCOD9340828 Si02
#       7
#     4   4   4   4   4   4   4
#     4  11  23  43  63  94 127 157 208 261 303 375
#     4  10  24  40  66  92 116 172 208 244 322 360
#     4  10  22  39  60  89 122 160 204 248 307 368
#     4  10  22  39  60  89 122 160 204 248 307 368
#     4  11  23  43  63  94 127 157 208 261 303 375
#     4  10  22  40  63  88 121 161 201 258 304 355
#     4  10  22  40  63  88 121 161 201 258 304 355
#
# _framework density 25.833905999999999
#
# number of rings (size 3 to 8) (size 9 to 14) (size 15 to 20)
#    0.000    1.714    1.429    1.714    6.000    1.143 
#    5.143    0.000    0.000    0.000    0.000    0.000 
#    0.000    0.000    0.000    0.000    0.000    0.000 
#
# Total GULP energy -156567.398861 kJ/mol
# GULP energy per Si atom -5591.692816 kJ/mol
# Density = 2.577511 g / cm^3
# Si number density = 25.833906 Si / 1000 Ang^3
#
#
#
# Elastic Constant Matrix: (Units=GPa)
#
#
# Indices 1 2 3 4 5 6 
#
# 1 138.5524 5.3498 30.7202 0.0000 0.0000 0.0000
# 2 5.3498 82.4457 16.4610 0.0000 0.0000 0.0000
# 3 30.7202 16.4610 61.5005 0.0000 0.0000 0.0000
# 4 0.0000 0.0000 0.0000 17.1506 0.0000 0.0000
# 5 0.0000 0.0000 0.0000 0.0000 44.6827 0.0000
# 6 0.0000 0.0000 0.0000 0.0000 0.0000 11.1964
#
#
#
# Elastic Compliance Matrix: (Units=1/GPa)
#
#
# Indices 1 2 3 4 5 6 
#
# 1 0.008123 0.000299 -0.004138 0.000000 0.000000 0.000000
# 2 0.000299 0.012825 -0.003582 0.000000 0.000000 0.000000
# 3 -0.004138 -0.003582 0.019286 0.000000 0.000000 0.000000
# 4 0.000000 0.000000 0.000000 0.058307 0.000000 0.000000
# 5 0.000000 0.000000 0.000000 0.000000 0.022380 0.000000
# 6 0.000000 0.000000 0.000000 0.000000 0.000000 0.089314
#
#
# Mechanical properties :
#
#
# Convention : Reuss Voigt Hill
#
# Bulk Modulus (GPa) = 39.38182 43.06229 41.22205
# Shear Modulus (GPa) = 21.40953 29.93711 25.67332
#
# Velocity S-wave (km/s) = 2.88190 3.40785 3.15585
# Velocity P-wave (km/s) = 5.13334 5.67360 5.41022
#
# Compressibility (1/GPa) = 0.02539243
#
# Stress axis : x y z
#
# Youngs Moduli (GPa) = 123.10154 77.97282 51.85201
#
# Poissons Ratio (x) = -0.02332 0.21455
# Poissons Ratio (y) = -0.03681 0.18574
# Poissons Ratio (z) = 0.50936 0.27930
#
# Static dielectric constant tensor:
#      x y z
#    x 2.200430 0.000000 0.000000 
#    y 0.000000 2.090550 0.000000 
#    z 0.000000 0.000000 1.978900 
# 
# From -- ./inp_files/1473.got.cif
#   From: 2010.05.17/outbox.cif.g08.bks.cpg/sg29_1_cif.got.tgz:1473.got - 2010.06.04 01:19:37.
