data_PCOD9340195
_publ_section_title
;
Structure prediction by ZEFSAII (Michael W. Deem and Ramdas Pophale) SiO2 
 PCOD9340195
Probable space group: P C A 21
;
_chemical_formula_sum "Si O2"
_cell_formula_units_Z 32
_cell_length_a 5.700020
_cell_length_b 17.145219
_cell_length_c 13.035771
_cell_angle_alpha 90.000000
_cell_angle_beta 90.000000
_cell_angle_gamma 90.000000
_cell_volume 1273.961017
_symmetry_space_group_name_H-M "P C A 21"
_symmetry_group_IT_number 29
_symmetry_cell_setting 'orthorhombic'
loop_
_space_group_symop_operation_xyz
x,y,z
-x,-y,1/2+z
1/2-x,y,1/2+z
1/2+x,-y,z
loop_
_atom_site_type_symbol
_atom_site_label
_atom_site_fract_x
_atom_site_fract_y
_atom_site_fract_z
Si Si1 0.872336 0.478756 0.992910
Si Si2 0.113171 0.192560 0.185885
Si Si3 0.982762 0.697208 0.251358
Si Si4 0.795051 0.305680 0.062948
Si Si5 0.371459 0.013986 0.621831
Si Si6 0.362703 0.959647 0.851676
Si Si7 0.799151 0.211597 0.388523
Si Si8 0.165972 0.464159 0.725149
O O1 0.618843 0.496040 0.943594
O O2 0.879569 0.386848 0.016040
O O3 0.848530 0.526413 0.100666
O O4 0.368568 0.225866 0.204699
O O5 0.114987 0.103083 0.156927
O O6 0.992840 0.244814 0.098614
O O7 0.980180 0.204394 0.294777
O O8 0.805776 0.625757 0.259060
O O9 0.173050 0.669911 0.169178
O O10 0.101905 0.726604 0.353666
O O11 0.619658 0.254048 0.991967
O O12 0.619735 0.996655 0.568434
O O13 0.363359 0.960790 0.725382
O O14 0.312783 0.874050 0.897176
O O15 0.626757 0.989708 0.874856
O O16 0.404217 0.508129 0.755732
#
# Coordination Sequence:
#
# PCOD9340195 Si02
#       8
#     4   4   4   4   4   4   4   4
#     4  10  19  39  66  89 129 182 221 272 345 401
#     4  11  23  41  69  96 133 180 228 283 346 407
#     4  11  23  41  69  96 133 180 228 283 346 407
#     4  11  25  42  65 102 137 178 229 287 345 408
#     4  10  19  36  66  93 125 176 226 271 337 407
#     4  10  19  39  66  89 129 182 221 272 345 401
#     4  11  25  42  65 102 137 178 229 287 345 408
#     4  10  19  36  66  93 125 176 226 271 337 407
#
# _framework density 25.118507000000001
#
# number of rings (size 3 to 8) (size 9 to 14) (size 15 to 20)
#    0.000    1.500    5.000    3.000    3.500    1.000 
#    0.000    2.500    0.000    0.000    0.000    0.000 
#    0.000    0.000    0.000    0.000    0.000    0.000 
#
# Total GULP energy -178953.980351 kJ/mol
# GULP energy per Si atom -5592.311886 kJ/mol
# Density = 2.506134 g / cm^3
# Si number density = 25.118507 Si / 1000 Ang^3
#
#
#
# Elastic Constant Matrix: (Units=GPa)
#
#
# Indices 1 2 3 4 5 6 
#
# 1 159.1408 14.8357 34.9514 0.0000 0.0000 0.0000
# 2 14.8357 115.9902 19.4480 0.0000 0.0000 0.0000
# 3 34.9514 19.4480 51.1147 0.0000 0.0000 0.0000
# 4 0.0000 0.0000 0.0000 19.4895 0.0000 0.0000
# 5 0.0000 0.0000 0.0000 0.0000 34.9391 0.0000
# 6 0.0000 0.0000 0.0000 0.0000 0.0000 30.4731
#
#
#
# Elastic Compliance Matrix: (Units=1/GPa)
#
#
# Indices 1 2 3 4 5 6 
#
# 1 0.007395 -0.000105 -0.005017 0.000000 0.000000 0.000000
# 2 -0.000105 0.009210 -0.003433 0.000000 0.000000 0.000000
# 3 -0.005017 -0.003433 0.024300 0.000000 0.000000 0.000000
# 4 0.000000 0.000000 0.000000 0.051310 0.000000 0.000000
# 5 0.000000 0.000000 0.000000 0.000000 0.028621 0.000000
# 6 0.000000 0.000000 0.000000 0.000000 0.000000 0.032816
#
#
# Mechanical properties :
#
#
# Convention : Reuss Voigt Hill
#
# Bulk Modulus (GPa) = 42.02155 51.63509 46.82832
# Shear Modulus (GPa) = 27.98078 34.11440 31.04759
#
# Velocity S-wave (km/s) = 3.34121 3.68929 3.51956
# Velocity P-wave (km/s) = 5.62588 6.22487 5.93294
#
# Compressibility (1/GPa) = 0.02379732
#
# Stress axis : x y z
#
# Youngs Moduli (GPa) = 135.21983 108.57328 41.15154
#
# Poissons Ratio (x) = 0.01137 0.20646
# Poissons Ratio (y) = 0.01416 0.14126
# Poissons Ratio (z) = 0.67840 0.37270
#
# Static dielectric constant tensor:
#      x y z
#    x 2.018430 0.000000 0.000000 
#    y 0.000000 1.902420 0.000000 
#    z 0.000000 0.000000 2.112550 
# 
# From -- ./inp_files/4106.got.cif
#   From: 2010.05.17/outbox.cif.g08.bks.cpg/sg29_3_cif.got.tgz:4106.got - 2010.06.04 01:19:37.
