data_PCOD9340003
_publ_section_title
;
Structure prediction by ZEFSAII (Michael W. Deem and Ramdas Pophale) SiO2 
 PCOD9340003
Probable space group: P C A 21
;
_chemical_formula_sum "Si O2"
_cell_formula_units_Z 32
_cell_length_a 31.865701
_cell_length_b 9.590934
_cell_length_c 5.579169
_cell_angle_alpha 90.000000
_cell_angle_beta 90.000000
_cell_angle_gamma 90.000000
_cell_volume 1705.115868
_symmetry_space_group_name_H-M "P C A 21"
_symmetry_group_IT_number 29
_symmetry_cell_setting 'orthorhombic'
loop_
_space_group_symop_operation_xyz
x,y,z
-x,-y,1/2+z
1/2-x,y,1/2+z
1/2+x,-y,z
loop_
_atom_site_type_symbol
_atom_site_label
_atom_site_fract_x
_atom_site_fract_y
_atom_site_fract_z
Si Si1 0.641658 0.571034 0.187150
Si Si2 0.738068 0.480360 0.192639
Si Si3 0.997954 0.653525 0.651742
Si Si4 0.050805 0.123868 0.829374
Si Si5 0.635095 0.741065 0.686165
Si Si6 0.971239 0.136693 0.555921
Si Si7 0.770937 0.797685 0.202518
Si Si8 0.061818 0.597887 0.305020
O O1 0.689126 0.516882 0.184439
O O2 0.636919 0.667229 0.425435
O O3 0.607602 0.451815 0.237177
O O4 0.633621 0.644944 0.929009
O O5 0.748856 0.408610 0.444499
O O6 0.763524 0.628482 0.198861
O O7 0.970606 0.744198 0.462517
O O8 0.970325 0.517155 0.698806
O O9 0.007593 0.760542 0.862256
O O10 0.044436 0.601770 0.575338
O O11 0.092360 0.171449 0.696236
O O12 0.012418 0.067271 0.670570
O O13 0.059341 0.989515 0.991188
O O14 0.679325 0.821569 0.707987
O O15 0.946891 0.246164 0.720036
O O16 0.749430 0.846709 0.450897
#
# Coordination Sequence:
#
# PCOD9340003 Si02
#       8
#     4   4   4   4   4   4   4   4
#     4  12  22  34  55  88 122 149 190 244 292 352
#     4  10  16  31  51  77 119 151 177 227 304 343
#     4  11  21  39  56  78 109 150 194 240 293 336
#     4  11  24  38  61  80 110 158 203 244 293 351
#     4  12  22  33  57  88 118 147 198 239 289 351
#     4  11  23  42  56  78 114 157 197 246 297 347
#     4  10  16  31  49  79 119 147 175 234 301 341
#     4  11  24  34  57  82 113 151 194 240 291 345
#
# _framework density 18.767054999999999
#
# number of rings (size 3 to 8) (size 9 to 14) (size 15 to 20)
#    0.000    1.000    8.750    0.750    3.500    0.000 
#    0.000    0.000    0.000    0.000    0.000    1.750 
#    0.000    0.000    0.000    0.000    0.000    0.000 
#
# Total GULP energy -178213.995794 kJ/mol
# GULP energy per Si atom -5569.187369 kJ/mol
# Density = 1.872434 g / cm^3
# Si number density = 18.767055 Si / 1000 Ang^3
#
#
#
# Elastic Constant Matrix: (Units=GPa)
#
#
# Indices 1 2 3 4 5 6 
#
# 1 65.3912 3.4265 -0.1172 0.0000 0.0000 0.0000
# 2 3.4265 43.4744 5.5445 0.0000 0.0000 0.0000
# 3 -0.1172 5.5445 90.7993 0.0000 0.0000 0.0000
# 4 0.0000 0.0000 0.0000 15.2949 0.0000 0.0000
# 5 0.0000 0.0000 0.0000 0.0000 17.7569 0.0000
# 6 0.0000 0.0000 0.0000 0.0000 0.0000 5.5795
#
#
#
# Elastic Compliance Matrix: (Units=1/GPa)
#
#
# Indices 1 2 3 4 5 6 
#
# 1 0.015357 -0.001222 0.000094 0.000000 0.000000 0.000000
# 2 -0.001222 0.023280 -0.001423 0.000000 0.000000 0.000000
# 3 0.000094 -0.001423 0.011100 0.000000 0.000000 0.000000
# 4 0.000000 0.000000 0.000000 0.065381 0.000000 0.000000
# 5 0.000000 0.000000 0.000000 0.000000 0.056316 0.000000
# 6 0.000000 0.000000 0.000000 0.000000 0.000000 0.179227
#
#
# Mechanical properties :
#
#
# Convention : Reuss Voigt Hill
#
# Bulk Modulus (GPa) = 22.40402 24.15250 23.27826
# Shear Modulus (GPa) = 13.49013 20.44701 16.96857
#
# Velocity S-wave (km/s) = 2.68399 3.30436 3.01020
# Velocity P-wave (km/s) = 4.64424 5.23985 4.95101
#
# Compressibility (1/GPa) = 0.04463485
#
# Stress axis : x y z
#
# Youngs Moduli (GPa) = 65.11775 42.95555 90.08747
#
# Poissons Ratio (x) = 0.05251 -0.00851
# Poissons Ratio (y) = 0.07960 0.12821
# Poissons Ratio (z) = -0.00615 0.06113
#
# Static dielectric constant tensor:
#      x y z
#    x 1.634310 0.000000 0.000000 
#    y 0.000000 1.653240 0.000000 
#    z 0.000000 0.000000 1.802710 
# 
# From -- ./inp_files/922.got.cif
#   From: 2010.05.17/outbox.cif.g08.bks.cpg/sg29_1_cif.got.tgz:922.got - 2010.06.04 01:19:37.
