data_PCOD9340620
_publ_section_title
;
Structure prediction by ZEFSAII (Michael W. Deem and Ramdas Pophale) SiO2 
 PCOD9340620
Probable space group: P C A 21
;
_chemical_formula_sum "Si O2"
_cell_formula_units_Z 32
_cell_length_a 8.475067
_cell_length_b 14.720853
_cell_length_c 11.311678
_cell_angle_alpha 90.000000
_cell_angle_beta 90.000000
_cell_angle_gamma 90.000000
_cell_volume 1411.247385
_symmetry_space_group_name_H-M "P C A 21"
_symmetry_group_IT_number 29
_symmetry_cell_setting 'orthorhombic'
loop_
_space_group_symop_operation_xyz
x,y,z
-x,-y,1/2+z
1/2-x,y,1/2+z
1/2+x,-y,z
loop_
_atom_site_type_symbol
_atom_site_label
_atom_site_fract_x
_atom_site_fract_y
_atom_site_fract_z
Si Si1 0.981491 0.605822 0.592800
Si Si2 0.708829 0.296540 0.152990
Si Si3 0.591202 0.901473 0.812210
Si Si4 0.950466 0.427106 0.457835
Si Si5 0.115600 0.902742 0.082758
Si Si6 0.640442 0.987465 0.447824
Si Si7 0.965585 0.703300 0.350726
Si Si8 0.737165 0.555854 0.303119
O O1 0.024518 0.515720 0.521297
O O2 0.948406 0.679069 0.488591
O O3 0.847908 0.562495 0.676868
O O4 0.122661 0.654764 0.661209
O O5 0.699183 0.193831 0.102583
O O6 0.632932 0.289159 0.284209
O O7 0.615220 0.357357 0.054947
O O8 0.494349 0.922961 0.694949
O O9 0.746839 0.957637 0.841003
O O10 0.624539 0.795105 0.818835
O O11 0.465862 0.926363 0.914390
O O12 0.812440 0.468057 0.370367
O O13 0.103834 0.396093 0.384593
O O14 0.984118 0.908547 0.978869
O O15 0.243363 0.979433 0.051452
O O16 0.888813 0.617804 0.287523
#
# Coordination Sequence:
#
# PCOD9340620 Si02
#       8
#     4   4   4   4   4   4   4   4
#     4  11  26  45  68  94 136 176 224 277 336 406
#     4  11  25  44  68  98 137 176 228 282 341 406
#     4  10  21  41  63  96 134 167 226 276 333 414
#     4  11  26  44  66  94 130 174 228 275 334 401
#     4  10  22  41  67  98 132 177 222 283 339 411
#     4  10  21  39  68  94 132 177 221 275 351 398
#     4  10  26  43  65 100 134 174 227 281 340 405
#     4  11  27  43  67  94 129 179 220 279 334 397
#
# _framework density 22.674976999999998
#
# number of rings (size 3 to 8) (size 9 to 14) (size 15 to 20)
#    0.000    1.500    1.250    1.500   12.250    1.000 
#    0.000    1.250    0.000    0.000    0.000    0.000 
#    0.000    0.000    0.000    0.000    0.000    0.000 
#
# Total GULP energy -178364.778199 kJ/mol
# GULP energy per Si atom -5573.899319 kJ/mol
# Density = 2.262337 g / cm^3
# Si number density = 22.674977 Si / 1000 Ang^3
#
#
#
# Elastic Constant Matrix: (Units=GPa)
#
#
# Indices 1 2 3 4 5 6 
#
# 1 55.3007 -2.5001 12.6714 0.0000 0.0000 0.0000
# 2 -2.5001 56.5457 0.4510 0.0000 0.0000 0.0000
# 3 12.6714 0.4510 61.2475 0.0000 0.0000 0.0000
# 4 0.0000 0.0000 0.0000 22.6367 0.0000 0.0000
# 5 0.0000 0.0000 0.0000 0.0000 -44.8362 0.0000
# 6 0.0000 0.0000 0.0000 0.0000 0.0000 22.9391
#
#
#
# Elastic Compliance Matrix: (Units=1/GPa)
#
#
# Indices 1 2 3 4 5 6 
#
# 1 0.019026 0.000873 -0.003943 0.000000 0.000000 0.000000
# 2 0.000873 0.017726 -0.000311 0.000000 0.000000 0.000000
# 3 -0.003943 -0.000311 0.017145 0.000000 0.000000 0.000000
# 4 0.000000 0.000000 0.000000 0.044176 0.000000 0.000000
# 5 0.000000 0.000000 0.000000 0.000000 -0.022303 0.000000
# 6 0.000000 0.000000 0.000000 0.000000 0.000000 0.043594
#
#
# Mechanical properties :
#
#
# Convention : Reuss Voigt Hill
#
# Bulk Modulus (GPa) = 21.21578 21.59318 21.40448
# Shear Modulus (GPa) = 35.25176 10.97937 23.11557
#
# Velocity S-wave (km/s) = 3.94719 2.20286 3.19632
# Velocity P-wave (km/s) = 5.49095 4.00171 4.80438
#
# Compressibility (1/GPa) = 0.04713472
#
# Stress axis : x y z
#
# Youngs Moduli (GPa) = 52.56017 56.41466 58.32543
#
# Poissons Ratio (x) = -0.04923 0.22996
# Poissons Ratio (y) = -0.04587 0.01814
# Poissons Ratio (z) = 0.20723 0.01755
#
# Static dielectric constant tensor:
#      x y z
#    x 2.946010 0.000000 0.000000 
#    y 0.000000 1.791950 0.000000 
#    z 0.000000 0.000000 1.975890 
# 
# From -- ./inp_files/2945.got.cif
#   From: 2010.05.17/outbox.cif.g08.bks.cpg/sg29_2_cif.got.tgz:2945.got - 2010.06.04 01:19:37.
