data_PCOD9340020
_publ_section_title
;
Structure prediction by ZEFSAII (Michael W. Deem and Ramdas Pophale) SiO2 
 PCOD9340020
Probable space group: P C A 21
;
_chemical_formula_sum "Si O2"
_cell_formula_units_Z 32
_cell_length_a 16.292419
_cell_length_b 20.293268
_cell_length_c 5.049272
_cell_angle_alpha 90.000000
_cell_angle_beta 90.000000
_cell_angle_gamma 90.000000
_cell_volume 1669.422751
_symmetry_space_group_name_H-M "P C A 21"
_symmetry_group_IT_number 29
_symmetry_cell_setting 'orthorhombic'
loop_
_space_group_symop_operation_xyz
x,y,z
-x,-y,1/2+z
1/2-x,y,1/2+z
1/2+x,-y,z
loop_
_atom_site_type_symbol
_atom_site_label
_atom_site_fract_x
_atom_site_fract_y
_atom_site_fract_z
Si Si1 0.446366 0.511596 0.210530
Si Si2 0.984967 0.349213 0.320327
Si Si3 0.194187 0.904469 0.762134
Si Si4 0.699957 0.746721 0.705709
Si Si5 0.941716 0.199605 0.249712
Si Si6 0.402638 0.374295 0.321080
Si Si7 0.446154 0.011705 0.368800
Si Si8 0.454502 0.160985 0.250250
O O1 0.523326 0.496925 0.409313
O O2 0.426772 0.587638 0.266988
O O3 0.386242 0.452024 0.284423
O O4 0.944147 0.278292 0.284185
O O5 0.026187 0.355837 0.608351
O O6 0.059031 0.357881 0.107260
O O7 0.232454 0.909423 0.471629
O O8 0.144803 0.836029 0.792431
O O9 0.128164 0.961950 0.817146
O O10 0.726454 0.760740 0.407161
O O11 0.673570 0.671453 0.753585
O O12 0.620983 0.789532 0.777568
O O13 0.005222 0.169509 0.462928
O O14 0.976001 0.180137 0.962328
O O15 0.425176 0.087083 0.304599
O O16 0.480325 0.006119 0.665885
#
# Coordination Sequence:
#
# PCOD9340020 Si02
#       8
#     4   4   4   4   4   4   4   4
#     4   8  16  27  49  80 108 135 186 245 284 324
#     4  10  17  32  57  85 106 148 194 247 284 334
#     4  12  26  42  64  94 124 152 194 242 302 358
#     4  12  24  36  54  83 124 161 198 242 302 356
#     4  12  21  39  65  88 119 156 194 248 295 352
#     4  10  18  33  52  78 116 149 195 242 290 340
#     4  12  23  43  68  90 117 159 200 239 290 356
#     4  12  23  40  63  88 114 156 207 243 287 356
#
# _framework density 19.168303000000002
#
# number of rings (size 3 to 8) (size 9 to 14) (size 15 to 20)
#    0.000    1.000    5.000    3.000    0.000    1.000 
#    0.000    0.000    0.000    1.500    0.000    0.000 
#    0.000    0.000    0.000    0.000    0.000    0.000 
#
# Total GULP energy -178757.469053 kJ/mol
# GULP energy per Si atom -5586.170908 kJ/mol
# Density = 1.912467 g / cm^3
# Si number density = 19.168303 Si / 1000 Ang^3
#
#
#
# Elastic Constant Matrix: (Units=GPa)
#
#
# Indices 1 2 3 4 5 6 
#
# 1 37.0061 14.6680 -7.8813 0.0000 0.0000 0.0000
# 2 14.6680 124.7306 -2.3062 0.0000 0.0000 0.0000
# 3 -7.8813 -2.3062 55.7907 0.0000 0.0000 0.0000
# 4 0.0000 0.0000 0.0000 20.9307 0.0000 0.0000
# 5 0.0000 0.0000 0.0000 0.0000 30.9314 0.0000
# 6 0.0000 0.0000 0.0000 0.0000 0.0000 12.9370
#
#
#
# Elastic Compliance Matrix: (Units=1/GPa)
#
#
# Indices 1 2 3 4 5 6 
#
# 1 0.029204 -0.003361 0.003987 0.000000 0.000000 0.000000
# 2 -0.003361 0.008410 -0.000127 0.000000 0.000000 0.000000
# 3 0.003987 -0.000127 0.018482 0.000000 0.000000 0.000000
# 4 0.000000 0.000000 0.000000 0.047777 0.000000 0.000000
# 5 0.000000 0.000000 0.000000 0.000000 0.032330 0.000000
# 6 0.000000 0.000000 0.000000 0.000000 0.000000 0.077298
#
#
# Mechanical properties :
#
#
# Convention : Reuss Voigt Hill
#
# Bulk Modulus (GPa) = 17.51509 25.16538 21.34023
# Shear Modulus (GPa) = 21.59518 27.16296 24.37907
#
# Velocity S-wave (km/s) = 3.36014 3.76849 3.57016
# Velocity P-wave (km/s) = 4.92051 5.66503 5.30584
#
# Compressibility (1/GPa) = 0.05709363
#
# Stress axis : x y z
#
# Youngs Moduli (GPa) = 34.24229 118.90435 54.10655
#
# Poissons Ratio (x) = 0.39959 -0.21570
# Poissons Ratio (y) = 0.11507 0.00688
# Poissons Ratio (z) = -0.13651 0.01511
#
# Static dielectric constant tensor:
#      x y z
#    x 1.623910 0.000000 0.000000 
#    y 0.000000 1.712290 0.000000 
#    z 0.000000 0.000000 1.656840 
# 
# From -- ./inp_files/112.got.cif
#   From: 2010.05.17/outbox.cif.g08.bks.cpg/sg29_1_cif.got.tgz:112.got - 2010.06.04 01:19:37.
