data_PCOD9340204
_publ_section_title
;
Structure prediction by ZEFSAII (Michael W. Deem and Ramdas Pophale) SiO2 
 PCOD9340204
Probable space group: P C A 21
;
_chemical_formula_sum "Si O2"
_cell_formula_units_Z 32
_cell_length_a 10.343382
_cell_length_b 9.303574
_cell_length_c 13.531589
_cell_angle_alpha 90.000000
_cell_angle_beta 90.000000
_cell_angle_gamma 90.000000
_cell_volume 1302.150491
_symmetry_space_group_name_H-M "P C A 21"
_symmetry_group_IT_number 29
_symmetry_cell_setting 'orthorhombic'
loop_
_space_group_symop_operation_xyz
x,y,z
-x,-y,1/2+z
1/2-x,y,1/2+z
1/2+x,-y,z
loop_
_atom_site_type_symbol
_atom_site_label
_atom_site_fract_x
_atom_site_fract_y
_atom_site_fract_z
Si Si1 0.510763 0.622149 0.046750
Si Si2 0.674837 0.036686 0.293521
Si Si3 0.722973 0.675310 0.887542
Si Si4 0.631378 0.500166 0.225716
Si Si5 0.055430 0.290776 0.529097
Si Si6 0.464804 0.253393 0.248981
Si Si7 0.570124 0.154890 0.852146
Si Si8 0.695990 0.236433 0.660351
O O1 0.606441 0.618647 0.142057
O O2 0.399087 0.738705 0.068536
O O3 0.595808 0.636430 0.949494
O O4 0.449393 0.462441 0.044035
O O5 0.580751 0.176244 0.305039
O O6 0.734567 0.082579 0.183978
O O7 0.802535 0.054481 0.360432
O O8 0.565414 0.918334 0.317353
O O9 0.800002 0.554881 0.824748
O O10 0.815287 0.741202 0.969307
O O11 0.670953 0.775496 0.799697
O O12 0.496655 0.422710 0.252504
O O13 0.706800 0.371076 0.168628
O O14 0.044184 0.214649 0.634177
O O15 0.946252 0.239209 0.453497
O O16 0.609509 0.252856 0.759604
#
# Coordination Sequence:
#
# PCOD9340204 Si02
#       8
#     4   4   4   4   4   4   4   4
#     4  11  21  37  62 106 145 194 242 302 385 462
#     4   9  23  45  75  99 142 188 249 315 369 436
#     4  12  22  34  63  99 141 194 243 292 376 464
#     4  10  19  37  60  91 145 189 240 295 373 455
#     4  11  24  40  68 103 146 188 248 311 376 468
#     4  10  23  42  61  97 140 186 236 321 378 431
#     4  10  22  46  76 105 138 195 255 311 370 449
#     4   9  20  39  65 102 147 184 237 315 371 447
#
# _framework density 24.574732000000001
#
# number of rings (size 3 to 8) (size 9 to 14) (size 15 to 20)
#    0.750    1.000    0.000    5.250    1.750    0.000 
#    4.500    2.500    0.000    0.000    0.000    0.000 
#    0.000    0.000    0.000    0.000    0.000    0.000 
#
# Total GULP energy -178356.782302 kJ/mol
# GULP energy per Si atom -5573.649447 kJ/mol
# Density = 2.451880 g / cm^3
# Si number density = 24.574732 Si / 1000 Ang^3
#
#
#
# Elastic Constant Matrix: (Units=GPa)
#
#
# Indices 1 2 3 4 5 6 
#
# 1 118.3934 5.7072 50.2772 0.0000 0.0000 0.0000
# 2 5.7072 35.4157 8.7836 0.0000 0.0000 0.0000
# 3 50.2772 8.7836 117.9234 0.0000 0.0000 0.0000
# 4 0.0000 0.0000 0.0000 20.4499 0.0000 0.0000
# 5 0.0000 0.0000 0.0000 0.0000 43.3383 0.0000
# 6 0.0000 0.0000 0.0000 0.0000 0.0000 30.3392
#
#
#
# Elastic Compliance Matrix: (Units=1/GPa)
#
#
# Indices 1 2 3 4 5 6 
#
# 1 0.010326 -0.000583 -0.004359 0.000000 0.000000 0.000000
# 2 -0.000583 0.028800 -0.001897 0.000000 0.000000 0.000000
# 3 -0.004359 -0.001897 0.010480 0.000000 0.000000 0.000000
# 4 0.000000 0.000000 0.000000 0.048900 0.000000 0.000000
# 5 0.000000 0.000000 0.000000 0.000000 0.023074 0.000000
# 6 0.000000 0.000000 0.000000 0.000000 0.000000 0.032961
#
#
# Mechanical properties :
#
#
# Convention : Reuss Voigt Hill
#
# Bulk Modulus (GPa) = 27.83288 44.58541 36.20915
# Shear Modulus (GPa) = 27.74785 32.62310 30.18547
#
# Velocity S-wave (km/s) = 3.36388 3.64745 3.50853
# Velocity P-wave (km/s) = 5.14179 5.99339 5.58385
#
# Compressibility (1/GPa) = 0.03592872
#
# Stress axis : x y z
#
# Youngs Moduli (GPa) = 96.84668 34.72178 95.42145
#
# Poissons Ratio (x) = 0.02024 0.41594
# Poissons Ratio (y) = 0.05645 0.18099
# Poissons Ratio (z) = 0.42215 0.06586
#
# Static dielectric constant tensor:
#      x y z
#    x 2.050700 0.000000 0.000000 
#    y 0.000000 2.054420 0.000000 
#    z 0.000000 0.000000 1.968860 
# 
# From -- ./inp_files/3230.got.cif
#   From: 2010.05.17/outbox.cif.g08.bks.cpg/sg29_2_cif.got.tgz:3230.got - 2010.06.04 01:19:37.
