data_PCOD9340928
_publ_section_title
;
Structure prediction by ZEFSAII (Michael W. Deem and Ramdas Pophale) SiO2 
 PCOD9340928
Probable space group: P C A 21
;
_chemical_formula_sum "Si O2"
_cell_formula_units_Z 32
_cell_length_a 9.222785
_cell_length_b 14.571634
_cell_length_c 9.369966
_cell_angle_alpha 90.000000
_cell_angle_beta 90.000000
_cell_angle_gamma 90.000000
_cell_volume 1259.239546
_symmetry_space_group_name_H-M "P C A 21"
_symmetry_group_IT_number 29
_symmetry_cell_setting 'orthorhombic'
loop_
_space_group_symop_operation_xyz
x,y,z
-x,-y,1/2+z
1/2-x,y,1/2+z
1/2+x,-y,z
loop_
_atom_site_type_symbol
_atom_site_label
_atom_site_fract_x
_atom_site_fract_y
_atom_site_fract_z
Si Si1 0.756652 0.540097 0.647490
Si Si2 0.265886 0.141114 0.890212
Si Si3 0.883992 0.658515 0.900769
Si Si4 0.424125 0.081729 0.144563
Si Si5 0.184332 0.587314 0.901752
Si Si6 0.010681 0.884763 0.668332
Si Si7 0.882503 0.276349 0.010329
Si Si8 0.812036 0.190767 0.715321
O O1 0.846631 0.601070 0.758720
O O2 0.660635 0.605019 0.545226
O O3 0.847222 0.481949 0.532088
O O4 0.678369 0.469653 0.755352
O O5 0.285010 0.250843 0.892394
O O6 0.410234 0.111738 0.805186
O O7 0.681566 0.118896 0.709518
O O8 0.285867 0.104646 0.048629
O O9 0.059037 0.664846 0.898994
O O10 0.367182 0.097447 0.305521
O O11 0.548647 0.157538 0.130315
O O12 0.492487 0.985322 0.100932
O O13 0.348151 0.625984 0.935276
O O14 0.992337 0.785632 0.586813
O O15 0.847904 0.210850 0.877268
O O16 0.759791 0.275692 0.132984
#
# Coordination Sequence:
#
# PCOD9340928 Si02
#       8
#     4   4   4   4   4   4   4   4
#     4  10  24  41  67 102 132 174 222 285 350 422
#     4  12  28  46  69 103 139 195 227 302 353 426
#     4  11  23  45  66  95 142 175 227 279 352 422
#     4  12  27  43  70  99 145 186 242 285 364 418
#     4  11  21  41  70 101 131 175 230 279 351 411
#     4  10  26  42  70  99 139 178 241 291 347 411
#     4  10  23  40  69  99 134 176 233 289 342 416
#     4  10  22  42  63  98 132 185 226 294 341 412
#
# _framework density 25.412161000000001
#
# number of rings (size 3 to 8) (size 9 to 14) (size 15 to 20)
#    0.750    0.500    0.000    5.250    7.000    0.000 
#    0.000    2.500    0.000    0.000    0.000    0.000 
#    0.000    0.000    0.000    0.000    0.000    0.000 
#
# Total GULP energy -178587.924604 kJ/mol
# GULP energy per Si atom -5580.872644 kJ/mol
# Density = 2.535432 g / cm^3
# Si number density = 25.412161 Si / 1000 Ang^3
#
#
#
# Elastic Constant Matrix: (Units=GPa)
#
#
# Indices 1 2 3 4 5 6 
#
# 1 62.6200 23.3362 21.1209 0.0000 0.0000 0.0000
# 2 23.3362 106.2908 25.6933 0.0000 0.0000 0.0000
# 3 21.1209 25.6933 134.8734 0.0000 0.0000 0.0000
# 4 0.0000 0.0000 0.0000 32.9335 0.0000 0.0000
# 5 0.0000 0.0000 0.0000 0.0000 34.5275 0.0000
# 6 0.0000 0.0000 0.0000 0.0000 0.0000 33.1760
#
#
#
# Elastic Compliance Matrix: (Units=1/GPa)
#
#
# Indices 1 2 3 4 5 6 
#
# 1 0.017975 -0.003424 -0.002163 0.000000 0.000000 0.000000
# 2 -0.003424 0.010514 -0.001467 0.000000 0.000000 0.000000
# 3 -0.002163 -0.001467 0.008032 0.000000 0.000000 0.000000
# 4 0.000000 0.000000 0.000000 0.030364 0.000000 0.000000
# 5 0.000000 0.000000 0.000000 0.000000 0.028962 0.000000
# 6 0.000000 0.000000 0.000000 0.000000 0.000000 0.030142
#
#
# Mechanical properties :
#
#
# Convention : Reuss Voigt Hill
#
# Bulk Modulus (GPa) = 44.61227 49.34279 46.97753
# Shear Modulus (GPa) = 33.88265 35.70299 34.79282
#
# Velocity S-wave (km/s) = 3.65543 3.75234 3.70420
# Velocity P-wave (km/s) = 5.95062 6.18325 6.06805
#
# Compressibility (1/GPa) = 0.02241536
#
# Stress axis : x y z
#
# Youngs Moduli (GPa) = 55.63410 95.10781 124.49499
#
# Poissons Ratio (x) = 0.32561 0.26923
# Poissons Ratio (y) = 0.19047 0.18262
# Poissons Ratio (z) = 0.12031 0.13951
#
# Static dielectric constant tensor:
#      x y z
#    x 2.033100 0.000000 0.000000 
#    y 0.000000 2.057730 0.000000 
#    z 0.000000 0.000000 1.979790 
# 
# From -- ./inp_files/1595.got.cif
#   From: 2010.05.17/outbox.cif.g08.bks.cpg/sg29_1_cif.got.tgz:1595.got - 2010.06.04 01:19:37.
