data_PCOD9340562
_publ_section_title
;
Structure prediction by ZEFSAII (Michael W. Deem and Ramdas Pophale) SiO2 
 PCOD9340562
Probable space group: P C A 21
;
_chemical_formula_sum "Si O2"
_cell_formula_units_Z 28
_cell_length_a 11.069194
_cell_length_b 9.054346
_cell_length_c 13.888705
_cell_angle_alpha 90.000000
_cell_angle_beta 90.000000
_cell_angle_gamma 90.000000
_cell_volume 1391.985909
_symmetry_space_group_name_H-M "P C A 21"
_symmetry_group_IT_number 29
_symmetry_cell_setting 'orthorhombic'
loop_
_space_group_symop_operation_xyz
x,y,z
-x,-y,1/2+z
1/2-x,y,1/2+z
1/2+x,-y,z
loop_
_atom_site_type_symbol
_atom_site_label
_atom_site_fract_x
_atom_site_fract_y
_atom_site_fract_z
Si Si1 0.202780 0.410649 0.025000
Si Si2 0.169196 0.750022 0.800543
Si Si3 0.917646 0.745810 0.136704
Si Si4 0.582354 0.745810 0.189885
Si Si5 0.830804 0.249978 0.526046
Si Si6 0.750000 0.015207 0.163295
Si Si7 0.297220 0.410649 0.301589
O O1 0.320962 0.325014 0.062198
O O2 0.095223 0.354528 0.094302
O O3 0.222066 0.585524 0.036927
O O4 0.178194 0.380623 0.913294
O O5 0.222066 0.585524 0.789662
O O6 0.046479 0.751875 0.738770
O O7 0.250749 0.877895 0.755279
O O8 0.145589 0.774754 0.913294
O O9 0.864602 0.906296 0.163154
O O10 0.904777 0.645472 0.232287
O O11 0.046479 0.751875 0.087818
O O12 0.635399 0.906296 0.163435
O O13 0.679038 0.674986 0.264391
O O14 0.749251 0.122105 0.571310
#
# Coordination Sequence:
#
# PCOD9340562 Si02
#       7
#     4   4   4   4   4   4   4
#     4   9  19  35  57  83 109 142 184 229 273 320
#     4  11  22  37  58  82 111 146 183 225 275 326
#     4  10  21  38  59  80 112 147 182 227 271 324
#     4  10  21  38  59  80 112 147 182 227 271 324
#     4  11  22  37  58  82 111 146 183 225 275 326
#     4  10  22  38  54  82 112 146 184 224 268 322
#     4   9  19  35  57  83 109 142 184 229 273 320
#
# _framework density 20.115148000000001
#
# number of rings (size 3 to 8) (size 9 to 14) (size 15 to 20)
#    0.000    2.286    0.000    4.286    0.000    5.714 
#    0.000    4.286    0.000    0.000    0.000    0.000 
#    0.000    0.000    0.000    0.000    0.000    0.000 
#
# Total GULP energy -156408.767172 kJ/mol
# GULP energy per Si atom -5586.027399 kJ/mol
# Density = 2.006936 g / cm^3
# Si number density = 20.115148 Si / 1000 Ang^3
#
#
#
# Elastic Constant Matrix: (Units=GPa)
#
#
# Indices 1 2 3 4 5 6 
#
# 1 11.4739 2.4724 -1.8684 0.0000 0.0000 0.0000
# 2 2.4724 123.0280 55.1634 0.0000 0.0000 0.0000
# 3 -1.8684 55.1634 136.4470 0.0000 0.0000 0.0000
# 4 0.0000 0.0000 0.0000 -28.6646 0.0000 0.0000
# 5 0.0000 0.0000 0.0000 0.0000 20.8489 0.0000
# 6 0.0000 0.0000 0.0000 0.0000 0.0000 14.4949
#
#
#
# Elastic Compliance Matrix: (Units=1/GPa)
#
#
# Indices 1 2 3 4 5 6 
#
# 1 0.088145 -0.002825 0.002349 0.000000 0.000000 0.000000
# 2 -0.002825 0.010018 -0.004089 0.000000 0.000000 0.000000
# 3 0.002349 -0.004089 0.009014 0.000000 0.000000 0.000000
# 4 0.000000 0.000000 0.000000 -0.034886 0.000000 0.000000
# 5 0.000000 0.000000 0.000000 0.000000 0.047964 0.000000
# 6 0.000000 0.000000 0.000000 0.000000 0.000000 0.068990
#
#
# Mechanical properties :
#
#
# Convention : Reuss Voigt Hill
#
# Bulk Modulus (GPa) = 10.19904 42.49818 26.34861
# Shear Modulus (GPa) = 21.63964 15.68129 18.66047
#
# Velocity S-wave (km/s) = 3.28348 2.79512 3.04909
# Velocity P-wave (km/s) = 4.41093 5.62052 5.05206
#
# Compressibility (1/GPa) = 0.09804845
#
# Stress axis : x y z
#
# Youngs Moduli (GPa) = 11.34493 99.81628 110.93702
#
# Poissons Ratio (x) = 0.28194 -0.26059
# Poissons Ratio (y) = 0.03204 0.45362
# Poissons Ratio (z) = -0.02665 0.40815
#
# Static dielectric constant tensor:
#      x y z
#    x 1.715190 0.000000 0.000000 
#    y 0.000000 1.717550 0.000000 
#    z 0.000000 0.000000 1.697880 
# 
# From -- ./inp_files/4492.got.cif
#   From: 2010.05.17/outbox.cif.g08.bks.cpg/sg29_3_cif.got.tgz:4492.got - 2010.06.04 01:19:37.
