data_PCOD9340491
_publ_section_title
;
Structure prediction by ZEFSAII (Michael W. Deem and Ramdas Pophale) SiO2 
 PCOD9340491
Probable space group: P C A 21
;
_chemical_formula_sum "Si O2"
_cell_formula_units_Z 20
_cell_length_a 11.285127
_cell_length_b 7.349947
_cell_length_c 9.348332
_cell_angle_alpha 90.000000
_cell_angle_beta 90.000000
_cell_angle_gamma 90.000000
_cell_volume 775.398196
_symmetry_space_group_name_H-M "P C A 21"
_symmetry_group_IT_number 29
_symmetry_cell_setting 'orthorhombic'
loop_
_space_group_symop_operation_xyz
x,y,z
-x,-y,1/2+z
1/2-x,y,1/2+z
1/2+x,-y,z
loop_
_atom_site_type_symbol
_atom_site_label
_atom_site_fract_x
_atom_site_fract_y
_atom_site_fract_z
Si Si1 0.715824 0.528190 0.032730
Si Si2 0.642307 0.915239 0.084040
Si Si3 0.595782 0.242299 0.233541
Si Si4 0.102478 0.518033 0.747941
Si Si5 0.825871 0.088013 0.287399
O O1 0.658599 0.346808 0.100174
O O2 0.848265 0.536236 0.092959
O O3 0.642325 0.699440 0.094202
O O4 0.703326 0.533783 0.863696
O O5 0.552102 0.049217 0.168862
O O6 0.769471 0.977598 0.153889
O O7 0.631769 0.966180 0.917751
O O8 0.504914 0.388878 0.288794
O O9 0.699557 0.181216 0.339584
O O10 0.093823 0.735779 0.756473
#
# Coordination Sequence:
#
# PCOD9340491 Si02
#       5
#     4   4   4   4   4
#     4  11  23  41  69  91 126 172 208 261 327 371
#     4  10  20  43  60  93 124 163 206 261 313 373
#     4   9  23  40  62  93 126 163 209 256 311 382
#     4  11  21  44  65  92 128 171 209 259 323 378
#     4   9  19  40  62  85 128 161 200 263 310 364
#
# _framework density 25.793196999999999
#
# number of rings (size 3 to 8) (size 9 to 14) (size 15 to 20)
#    1.200    0.800    2.000    1.200    0.000    4.800 
#   10.800    0.000    0.000    0.000    0.000    0.000 
#    0.000    0.000    0.000    0.000    0.000    0.000 
#
# Total GULP energy -111634.239459 kJ/mol
# GULP energy per Si atom -5581.711973 kJ/mol
# Density = 2.573449 g / cm^3
# Si number density = 25.793197 Si / 1000 Ang^3
#
#
#
# Elastic Constant Matrix: (Units=GPa)
#
#
# Indices 1 2 3 4 5 6 
#
# 1 27.8840 2.2542 2.5357 0.0000 0.0000 0.0000
# 2 2.2542 162.8242 14.4666 0.0000 0.0000 0.0000
# 3 2.5357 14.4666 89.5741 0.0000 0.0000 0.0000
# 4 0.0000 0.0000 0.0000 33.6799 0.0000 0.0000
# 5 0.0000 0.0000 0.0000 0.0000 25.8993 0.0000
# 6 0.0000 0.0000 0.0000 0.0000 0.0000 23.3076
#
#
#
# Elastic Compliance Matrix: (Units=1/GPa)
#
#
# Indices 1 2 3 4 5 6 
#
# 1 0.035983 -0.000414 -0.000952 0.000000 0.000000 0.000000
# 2 -0.000414 0.006236 -0.000995 0.000000 0.000000 0.000000
# 3 -0.000952 -0.000995 0.011352 0.000000 0.000000 0.000000
# 4 0.000000 0.000000 0.000000 0.029691 0.000000 0.000000
# 5 0.000000 0.000000 0.000000 0.000000 0.038611 0.000000
# 6 0.000000 0.000000 0.000000 0.000000 0.000000 0.042904
#
#
# Mechanical properties :
#
#
# Convention : Reuss Voigt Hill
#
# Bulk Modulus (GPa) = 20.47139 35.42170 27.94654
# Shear Modulus (GPa) = 26.91332 33.97908 30.44620
#
# Velocity S-wave (km/s) = 3.23372 3.63349 3.43942
# Velocity P-wave (km/s) = 4.67937 5.60052 5.16054
#
# Compressibility (1/GPa) = 0.04884867
#
# Stress axis : x y z
#
# Youngs Moduli (GPa) = 27.79100 160.36543 88.09299
#
# Poissons Ratio (x) = 0.06632 0.08385
# Poissons Ratio (y) = 0.01149 0.08769
# Poissons Ratio (z) = 0.02645 0.15963
#
# Static dielectric constant tensor:
#      x y z
#    x 2.134480 0.000000 0.000000 
#    y 0.000000 2.020780 0.000000 
#    z 0.000000 0.000000 1.976820 
# 
# From -- ./inp_files/1679.got.cif
#   From: 2010.05.17/outbox.cif.g08.bks.cpg/sg29_1_cif.got.tgz:1679.got - 2010.06.04 01:19:37.
