data_PCOD9340147
_publ_section_title
;
Structure prediction by ZEFSAII (Michael W. Deem and Ramdas Pophale) SiO2 
 PCOD9340147
Probable space group: P C A 21
;
_chemical_formula_sum "Si O2"
_cell_formula_units_Z 32
_cell_length_a 25.290964
_cell_length_b 9.731746
_cell_length_c 5.621518
_cell_angle_alpha 90.000000
_cell_angle_beta 90.000000
_cell_angle_gamma 90.000000
_cell_volume 1383.597454
_symmetry_space_group_name_H-M "P C A 21"
_symmetry_group_IT_number 29
_symmetry_cell_setting 'orthorhombic'
loop_
_space_group_symop_operation_xyz
x,y,z
-x,-y,1/2+z
1/2-x,y,1/2+z
1/2+x,-y,z
loop_
_atom_site_type_symbol
_atom_site_label
_atom_site_fract_x
_atom_site_fract_y
_atom_site_fract_z
Si Si1 0.458494 0.121727 0.016320
Si Si2 0.884164 0.668423 0.723876
Si Si3 0.066725 0.795656 0.500758
Si Si4 0.414909 0.826224 0.511167
Si Si5 0.983321 0.564133 0.502753
Si Si6 0.874601 0.893087 0.379778
Si Si7 0.266559 0.077663 0.232298
Si Si8 0.227845 0.391892 0.325631
O O1 0.431103 0.142629 0.270394
O O2 0.424631 0.229614 0.861299
O O3 0.520853 0.149589 0.002162
O O4 0.447051 0.958882 0.975416
O O5 0.922352 0.568890 0.577757
O O6 0.855992 0.767759 0.535866
O O7 0.835717 0.603489 0.865240
O O8 0.097044 0.771654 0.747886
O O9 0.013791 0.707851 0.515088
O O10 0.095112 0.750848 0.257874
O O11 0.384591 0.969951 0.525439
O O12 0.990408 0.516064 0.229128
O O13 0.829544 0.917259 0.185360
O O14 0.259146 0.012792 0.496698
O O15 0.244985 0.230980 0.290920
O O16 0.255764 0.449618 0.564598
#
# Coordination Sequence:
#
# PCOD9340147 Si02
#       8
#     4   4   4   4   4   4   4   4
#     4  11  21  33  56  91 116 158 203 242 298 353
#     4  12  22  37  63  84 125 169 194 249 309 369
#     4  11  21  39  56  79 117 153 200 258 274 352
#     4  11  21  33  53  86 117 148 203 234 289 348
#     4  12  28  45  58  83 122 175 213 249 306 372
#     4  11  22  31  57  87 125 160 191 240 314 361
#     4  10  19  34  48  77 121 161 183 234 293 381
#     4  10  20  34  53  85 121 152 191 244 305 376
#
# _framework density 23.128114
#
# number of rings (size 3 to 8) (size 9 to 14) (size 15 to 20)
#    0.000    1.000    5.000    5.250    1.750    0.000 
#    0.000    0.000    0.000    0.000    0.000    0.000 
#    0.000   70.000    0.000    0.000    0.000    0.000 
#
# Total GULP energy -178457.510900 kJ/mol
# GULP energy per Si atom -5576.797216 kJ/mol
# Density = 2.307547 g / cm^3
# Si number density = 23.128114 Si / 1000 Ang^3
#
#
#
# Elastic Constant Matrix: (Units=GPa)
#
#
# Indices 1 2 3 4 5 6 
#
# 1 71.0936 -6.1184 3.1520 0.0000 0.0000 0.0000
# 2 -6.1184 5.5991 13.2635 0.0000 0.0000 0.0000
# 3 3.1520 13.2635 159.8642 0.0000 0.0000 0.0000
# 4 0.0000 0.0000 0.0000 21.6976 0.0000 0.0000
# 5 0.0000 0.0000 0.0000 0.0000 24.5008 0.0000
# 6 0.0000 0.0000 0.0000 0.0000 0.0000 1.6155
#
#
#
# Elastic Compliance Matrix: (Units=1/GPa)
#
#
# Indices 1 2 3 4 5 6 
#
# 1 0.016133 0.022880 -0.002216 0.000000 0.000000 0.000000
# 2 0.022880 0.254733 -0.021586 0.000000 0.000000 0.000000
# 3 -0.002216 -0.021586 0.008090 0.000000 0.000000 0.000000
# 4 0.000000 0.000000 0.000000 0.046088 0.000000 0.000000
# 5 0.000000 0.000000 0.000000 0.000000 0.040815 0.000000
# 6 0.000000 0.000000 0.000000 0.000000 0.000000 0.618994
#
#
# Mechanical properties :
#
#
# Convention : Reuss Voigt Hill
#
# Bulk Modulus (GPa) = 3.60865 28.57234 16.09050
# Shear Modulus (GPa) = 4.63363 24.64678 14.64020
#
# Velocity S-wave (km/s) = 1.41697 3.26799 2.51869
# Velocity P-wave (km/s) = 2.05931 5.15950 3.92818
#
# Compressibility (1/GPa) = 0.27711164
#
# Stress axis : x y z
#
# Youngs Moduli (GPa) = 61.98363 3.92568 123.61103
#
# Poissons Ratio (x) = -0.08982 0.27397
# Poissons Ratio (y) = -1.41817 2.66821
# Poissons Ratio (z) = 0.13738 0.08474
#
# Static dielectric constant tensor:
#      x y z
#    x 1.855150 0.000000 0.000000 
#    y 0.000000 1.922330 0.000000 
#    z 0.000000 0.000000 2.097750 
# 
# From -- ./inp_files/693.got.cif
#   From: 2010.05.17/outbox.cif.g08.bks.cpg/sg29_1_cif.got.tgz:693.got - 2010.06.04 01:19:37.
