data_PCOD9340047
_publ_section_title
;
Structure prediction by ZEFSAII (Michael W. Deem and Ramdas Pophale) SiO2 
 PCOD9340047
Probable space group: P C A 21
;
_chemical_formula_sum "Si O2"
_cell_formula_units_Z 32
_cell_length_a 20.842830
_cell_length_b 9.065268
_cell_length_c 8.154878
_cell_angle_alpha 90.000000
_cell_angle_beta 90.000000
_cell_angle_gamma 90.000000
_cell_volume 1540.830272
_symmetry_space_group_name_H-M "P C A 21"
_symmetry_group_IT_number 29
_symmetry_cell_setting 'orthorhombic'
loop_
_space_group_symop_operation_xyz
x,y,z
-x,-y,1/2+z
1/2-x,y,1/2+z
1/2+x,-y,z
loop_
_atom_site_type_symbol
_atom_site_label
_atom_site_fract_x
_atom_site_fract_y
_atom_site_fract_z
Si Si1 0.537658 0.613213 0.719920
Si Si2 0.963577 0.955010 0.269005
Si Si3 0.548699 0.624559 0.083928
Si Si4 0.158286 0.535658 0.660410
Si Si5 0.825446 0.187195 0.745842
Si Si6 0.914266 0.201617 0.056401
Si Si7 0.093148 0.074830 0.137109
Si Si8 0.273479 0.637006 0.448759
O O1 0.527868 0.786527 0.714333
O O2 0.475028 0.515417 0.685872
O O3 0.598839 0.566541 0.610950
O O4 0.562398 0.572276 0.901108
O O5 0.931483 0.961133 0.449943
O O6 0.921162 0.041996 0.136025
O O7 0.034133 0.028404 0.257405
O O8 0.483799 0.722871 0.059342
O O9 0.598639 0.746886 0.146595
O O10 0.127819 0.698792 0.676177
O O11 0.213997 0.551385 0.529322
O O12 0.192930 0.518641 0.832648
O O13 0.819059 0.294333 0.588712
O O14 0.845019 0.024071 0.681407
O O15 0.881032 0.216136 0.880276
O O16 0.760017 0.228143 0.845399
#
# Coordination Sequence:
#
# PCOD9340047 Si02
#       8
#     4   4   4   4   4   4   4   4
#     4  10  20  33  51  77 109 138 165 204 255 315
#     4  10  20  33  53  83 111 137 170 204 257 327
#     4   9  20  33  48  77 109 135 167 200 253 326
#     4   9  18  34  55  75 100 133 173 218 256 297
#     4  10  18  32  55  79 101 131 175 224 260 292
#     4   9  18  33  53  80 106 131 167 213 260 312
#     4  10  19  33  53  78 108 138 169 213 258 308
#     4   9  19  33  54  79  98 131 184 222 253 301
#
# _framework density 20.768022999999999
#
# number of rings (size 3 to 8) (size 9 to 14) (size 15 to 20)
#    0.000    2.500    0.000    3.000    0.000    6.000 
#    0.000    0.000    0.000   21.000    0.000    0.000 
#    0.000    0.000    0.000    0.000    0.000    0.000 
#
# Total GULP energy -178173.913011 kJ/mol
# GULP energy per Si atom -5567.934782 kJ/mol
# Density = 2.072075 g / cm^3
# Si number density = 20.768023 Si / 1000 Ang^3
#
#
#
# Elastic Constant Matrix: (Units=GPa)
#
#
# Indices 1 2 3 4 5 6 
#
# 1 32.4943 -10.5701 4.2556 0.0000 0.0000 0.0000
# 2 -10.5701 52.9594 11.2619 0.0000 0.0000 0.0000
# 3 4.2556 11.2619 55.9857 0.0000 0.0000 0.0000
# 4 0.0000 0.0000 0.0000 21.4846 0.0000 0.0000
# 5 0.0000 0.0000 0.0000 0.0000 25.7209 0.0000
# 6 0.0000 0.0000 0.0000 0.0000 0.0000 16.6255
#
#
#
# Elastic Compliance Matrix: (Units=1/GPa)
#
#
# Indices 1 2 3 4 5 6 
#
# 1 0.033789 0.007616 -0.004100 0.000000 0.000000 0.000000
# 2 0.007616 0.021443 -0.004892 0.000000 0.000000 0.000000
# 3 -0.004100 -0.004892 0.019157 0.000000 0.000000 0.000000
# 4 0.000000 0.000000 0.000000 0.046545 0.000000 0.000000
# 5 0.000000 0.000000 0.000000 0.000000 0.038879 0.000000
# 6 0.000000 0.000000 0.000000 0.000000 0.000000 0.060149
#
#
# Mechanical properties :
#
#
# Convention : Reuss Voigt Hill
#
# Bulk Modulus (GPa) = 13.95952 16.81492 15.38722
# Shear Modulus (GPa) = 20.27625 21.86566 21.07096
#
# Velocity S-wave (km/s) = 3.12800 3.24829 3.18871
# Velocity P-wave (km/s) = 4.44771 4.70984 4.58065
#
# Compressibility (1/GPa) = 0.07163568
#
# Stress axis : x y z
#
# Youngs Moduli (GPa) = 29.59546 46.63576 52.19894
#
# Poissons Ratio (x) = -0.35517 0.21403
# Poissons Ratio (y) = -0.22539 0.25537
# Poissons Ratio (z) = 0.12135 0.22815
#
# Static dielectric constant tensor:
#      x y z
#    x 1.819970 0.000000 0.000000 
#    y 0.000000 1.781600 0.000000 
#    z 0.000000 0.000000 1.847530 
# 
# From -- ./inp_files/2275.got.cif
#   From: 2010.05.17/outbox.cif.g08.bks.cpg/sg29_2_cif.got.tgz:2275.got - 2010.06.04 01:19:37.
