data_PCOD9340788
_publ_section_title
;
Structure prediction by ZEFSAII (Michael W. Deem and Ramdas Pophale) SiO2 
 PCOD9340788
Probable space group: P C A 21
;
_chemical_formula_sum "Si O2"
_cell_formula_units_Z 28
_cell_length_a 21.645949
_cell_length_b 5.076238
_cell_length_c 9.582762
_cell_angle_alpha 90.000000
_cell_angle_beta 90.000000
_cell_angle_gamma 90.000000
_cell_volume 1052.953782
_symmetry_space_group_name_H-M "P C A 21"
_symmetry_group_IT_number 29
_symmetry_cell_setting 'orthorhombic'
loop_
_space_group_symop_operation_xyz
x,y,z
-x,-y,1/2+z
1/2-x,y,1/2+z
1/2+x,-y,z
loop_
_atom_site_type_symbol
_atom_site_label
_atom_site_fract_x
_atom_site_fract_y
_atom_site_fract_z
Si Si1 0.226144 0.989446 0.301630
Si Si2 0.649783 0.851398 0.773476
Si Si3 0.667620 0.369398 0.595518
Si Si4 0.790358 0.512102 0.601567
Si Si5 0.576507 0.522131 0.149214
Si Si6 0.089956 0.978019 0.343387
Si Si7 0.051553 0.297989 0.586928
O O1 0.293275 0.048296 0.374099
O O2 0.217018 0.217768 0.185529
O O3 0.162466 0.997735 0.387441
O O4 0.218181 0.725189 0.211999
O O5 0.671690 0.561782 0.731602
O O6 0.575554 0.804410 0.741445
O O7 0.660592 0.082326 0.659765
O O8 0.729374 0.447919 0.509989
O O9 0.605397 0.499754 0.536557
O O10 0.861807 0.505665 0.552841
O O11 0.576675 0.801856 0.225352
O O12 0.512046 0.452162 0.080080
O O13 0.581393 0.295589 0.265859
O O14 0.050607 0.059526 0.477546
#
# Coordination Sequence:
#
# PCOD9340788 Si02
#       7
#     4   4   4   4   4   4   4
#     4   8  14  30  49  74  99 133 173 231 268 330
#     4   8  16  28  52  74 102 134 180 226 285 315
#     4   8  16  28  52  77  97 137 181 228 273 332
#     4   8  14  30  49  73 100 138 175 218 280 323
#     4  10  22  35  56  81 115 157 185 240 281 340
#     4  10  22  35  56  82 113 149 203 222 285 352
#     4  10  22  34  60  81 116 152 195 233 288 336
#
# _framework density 26.591863
#
# number of rings (size 3 to 8) (size 9 to 14) (size 15 to 20)
#    0.857    2.286    0.000    0.000    4.000    0.000 
#    0.000    0.000    3.143    5.143    0.000    0.000 
#    0.000    0.000    0.000    0.000    0.000    0.000 
#
# Total GULP energy -155879.349180 kJ/mol
# GULP energy per Si atom -5567.119614 kJ/mol
# Density = 2.653134 g / cm^3
# Si number density = 26.591863 Si / 1000 Ang^3
#
#
#
# Elastic Constant Matrix: (Units=GPa)
#
#
# Indices 1 2 3 4 5 6 
#
# 1 160.8866 -13.6482 17.0376 0.0000 0.0000 0.0000
# 2 -13.6482 118.2036 8.2138 0.0000 0.0000 0.0000
# 3 17.0376 8.2138 42.2022 0.0000 0.0000 0.0000
# 4 0.0000 0.0000 0.0000 6.5373 0.0000 0.0000
# 5 0.0000 0.0000 0.0000 0.0000 24.1193 0.0000
# 6 0.0000 0.0000 0.0000 0.0000 0.0000 36.4580
#
#
#
# Elastic Compliance Matrix: (Units=1/GPa)
#
#
# Indices 1 2 3 4 5 6 
#
# 1 0.006599 0.000960 -0.002851 0.000000 0.000000 0.000000
# 2 0.000960 0.008716 -0.002084 0.000000 0.000000 0.000000
# 3 -0.002851 -0.002084 0.025252 0.000000 0.000000 0.000000
# 4 0.000000 0.000000 0.000000 0.152968 0.000000 0.000000
# 5 0.000000 0.000000 0.000000 0.000000 0.041460 0.000000
# 6 0.000000 0.000000 0.000000 0.000000 0.000000 0.027429
#
#
# Mechanical properties :
#
#
# Convention : Reuss Voigt Hill
#
# Bulk Modulus (GPa) = 30.65889 38.27765 34.46827
# Shear Modulus (GPa) = 17.77801 34.06887 25.92344
#
# Velocity S-wave (km/s) = 2.58844 3.58324 3.12567
# Velocity P-wave (km/s) = 4.52635 5.61651 5.10064
#
# Compressibility (1/GPa) = 0.03261696
#
# Stress axis : x y z
#
# Youngs Moduli (GPa) = 151.54018 114.73625 39.60079
#
# Poissons Ratio (x) = -0.11015 0.11290
# Poissons Ratio (y) = -0.14549 0.08252
# Poissons Ratio (z) = 0.43203 0.23910
#
# Static dielectric constant tensor:
#      x y z
#    x 2.305130 0.000000 0.000000 
#    y 0.000000 2.090370 0.000000 
#    z 0.000000 0.000000 2.196010 
# 
# From -- ./inp_files/3932.got.cif
#   From: 2010.05.17/outbox.cif.g08.bks.cpg/sg29_2_cif.got.tgz:3932.got - 2010.06.04 01:19:37.
