data_PCOD9340683
_publ_section_title
;
Structure prediction by ZEFSAII (Michael W. Deem and Ramdas Pophale) SiO2 
 PCOD9340683
Probable space group: P C A 21
;
_chemical_formula_sum "Si O2"
_cell_formula_units_Z 24
_cell_length_a 5.299896
_cell_length_b 15.045122
_cell_length_c 13.551132
_cell_angle_alpha 90.000000
_cell_angle_beta 90.000000
_cell_angle_gamma 90.000000
_cell_volume 1080.534498
_symmetry_space_group_name_H-M "P C A 21"
_symmetry_group_IT_number 29
_symmetry_cell_setting 'orthorhombic'
loop_
_space_group_symop_operation_xyz
x,y,z
-x,-y,1/2+z
1/2-x,y,1/2+z
1/2+x,-y,z
loop_
_atom_site_type_symbol
_atom_site_label
_atom_site_fract_x
_atom_site_fract_y
_atom_site_fract_z
Si Si1 0.111039 0.525214 0.921600
Si Si2 0.392029 0.745185 0.224725
Si Si3 0.918895 0.048813 0.905255
Si Si4 0.402369 0.241827 0.346101
Si Si5 0.595716 0.054376 0.643698
Si Si6 0.552747 0.357052 0.524162
O O1 0.353922 0.488576 0.863876
O O2 0.179610 0.618331 0.971023
O O3 0.083006 0.451961 0.009491
O O4 0.132201 0.721689 0.279594
O O5 0.379215 0.846191 0.183810
O O6 0.634197 0.742963 0.295705
O O7 0.427263 0.680255 0.132247
O O8 0.027173 0.138696 0.859885
O O9 0.628944 0.025874 0.879906
O O10 0.915165 0.059198 0.024184
O O11 0.417108 0.287397 0.452710
O O12 0.337905 0.004605 0.672660
#
# Coordination Sequence:
#
# PCOD9340683 Si02
#       6
#     4   4   4   4   4   4
#     4   8  20  40  74  88 118 184 192 256 346 360
#     4  12  27  40  67 100 127 174 213 263 323 375
#     4  10  21  41  63  89 126 174 213 259 317 368
#     4  12  27  40  67 100 127 174 213 263 323 375
#     4  10  21  41  63  89 126 174 213 259 317 368
#     4  10  24  48  66  94 138 158 216 272 308 398
#
# _framework density 22.211231000000002
#
# number of rings (size 3 to 8) (size 9 to 14) (size 15 to 20)
#    1.000    0.667    1.667    2.000    4.667    4.000 
#    0.000    5.000    0.000    0.000    0.000    0.000 
#    0.000    0.000    0.000    0.000    0.000    0.000 
#
# Total GULP energy -134028.417568 kJ/mol
# GULP energy per Si atom -5584.517399 kJ/mol
# Density = 2.216068 g / cm^3
# Si number density = 22.211231 Si / 1000 Ang^3
#
#
#
# Elastic Constant Matrix: (Units=GPa)
#
#
# Indices 1 2 3 4 5 6 
#
# 1 133.3250 -12.3101 6.3895 0.0000 0.0000 0.0000
# 2 -12.3101 60.2657 -0.3663 0.0000 0.0000 0.0000
# 3 6.3895 -0.3663 50.4221 0.0000 0.0000 0.0000
# 4 0.0000 0.0000 0.0000 7.7565 0.0000 0.0000
# 5 0.0000 0.0000 0.0000 0.0000 25.1862 0.0000
# 6 0.0000 0.0000 0.0000 0.0000 0.0000 27.0700
#
#
#
# Elastic Compliance Matrix: (Units=1/GPa)
#
#
# Indices 1 2 3 4 5 6 
#
# 1 0.007691 0.001565 -0.000963 0.000000 0.000000 0.000000
# 2 0.001565 0.016912 -0.000075 0.000000 0.000000 0.000000
# 3 -0.000963 -0.000075 0.019954 0.000000 0.000000 0.000000
# 4 0.000000 0.000000 0.000000 0.128924 0.000000 0.000000
# 5 0.000000 0.000000 0.000000 0.000000 0.039704 0.000000
# 6 0.000000 0.000000 0.000000 0.000000 0.000000 0.036941
#
#
# Mechanical properties :
#
#
# Convention : Reuss Voigt Hill
#
# Bulk Modulus (GPa) = 21.92478 25.71546 23.82012
# Shear Modulus (GPa) = 18.91948 28.68919 23.80433
#
# Velocity S-wave (km/s) = 2.92172 3.59786 3.27727
# Velocity P-wave (km/s) = 4.61242 5.37236 5.00683
#
# Compressibility (1/GPa) = 0.04561050
#
# Stress axis : x y z
#
# Youngs Moduli (GPa) = 130.01959 59.12813 50.11506
#
# Poissons Ratio (x) = -0.09255 0.04827
# Poissons Ratio (y) = -0.20350 0.00378
# Poissons Ratio (z) = 0.12524 0.00446
#
# Static dielectric constant tensor:
#      x y z
#    x 1.908210 0.000000 0.000000 
#    y 0.000000 1.807020 0.000000 
#    z 0.000000 0.000000 1.799790 
# 
# From -- ./inp_files/4041.got.cif
#   From: 2010.05.17/outbox.cif.g08.bks.cpg/sg29_3_cif.got.tgz:4041.got - 2010.06.04 01:19:37.
