data_PCOD9340065
_publ_section_title
;
Structure prediction by ZEFSAII (Michael W. Deem and Ramdas Pophale) SiO2 
 PCOD9340065
Probable space group: P C A 21
;
_chemical_formula_sum "Si O2"
_cell_formula_units_Z 20
_cell_length_a 5.502078
_cell_length_b 7.788323
_cell_length_c 18.550191
_cell_angle_alpha 90.000000
_cell_angle_beta 90.000000
_cell_angle_gamma 90.000000
_cell_volume 794.912055
_symmetry_space_group_name_H-M "P C A 21"
_symmetry_group_IT_number 29
_symmetry_cell_setting 'orthorhombic'
loop_
_space_group_symop_operation_xyz
x,y,z
-x,-y,1/2+z
1/2-x,y,1/2+z
1/2+x,-y,z
loop_
_atom_site_type_symbol
_atom_site_label
_atom_site_fract_x
_atom_site_fract_y
_atom_site_fract_z
Si Si1 0.718003 0.799080 0.865660
Si Si2 0.291777 0.403361 0.999481
Si Si3 0.720081 0.598071 0.672512
Si Si4 0.282873 0.815131 0.307027
Si Si5 0.221273 0.018701 0.658990
O O1 0.464242 0.727045 0.833832
O O2 0.965956 0.727097 0.829776
O O3 0.712877 0.001139 0.848330
O O4 0.739427 0.759880 0.949924
O O5 0.563114 0.471455 0.982880
O O6 0.280931 0.380634 0.085374
O O7 0.469851 0.500265 0.691256
O O8 0.719663 0.795607 0.696066
O O9 0.278004 0.877838 0.223431
O O10 0.471359 0.000550 0.617126
#
# Coordination Sequence:
#
# PCOD9340065 Si02
#       5
#     4   4   4   4   4
#     4  10  18  35  57  82 110 155 185 236 302 341
#     4  10  21  39  60  83 119 157 196 243 295 363
#     4  10  23  43  63  89 125 163 204 254 308 364
#     4  10  19  35  58  78 119 148 184 247 295 336
#     4  12  21  40  66  88 125 161 205 258 306 354
#
# _framework density 25.160014
#
# number of rings (size 3 to 8) (size 9 to 14) (size 15 to 20)
#    0.000    1.600    4.000    2.400    0.000    0.000 
#    7.200    2.000    0.000    0.000    0.000    0.000 
#    0.000    0.000    0.000    0.000    0.000    0.000 
#
# Total GULP energy -111758.211398 kJ/mol
# GULP energy per Si atom -5587.910570 kJ/mol
# Density = 2.510275 g / cm^3
# Si number density = 25.160014 Si / 1000 Ang^3
#
#
#
# Elastic Constant Matrix: (Units=GPa)
#
#
# Indices 1 2 3 4 5 6 
#
# 1 289.3706 28.1854 1.7084 0.0000 0.0000 0.0000
# 2 28.1854 49.6789 3.8028 0.0000 0.0000 0.0000
# 3 1.7084 3.8028 57.6824 0.0000 0.0000 0.0000
# 4 0.0000 0.0000 0.0000 36.9169 0.0000 0.0000
# 5 0.0000 0.0000 0.0000 0.0000 11.1990 0.0000
# 6 0.0000 0.0000 0.0000 0.0000 0.0000 21.5524
#
#
#
# Elastic Compliance Matrix: (Units=1/GPa)
#
#
# Indices 1 2 3 4 5 6 
#
# 1 0.003658 -0.002078 0.000029 0.000000 0.000000 0.000000
# 2 -0.002078 0.021411 -0.001350 0.000000 0.000000 0.000000
# 3 0.000029 -0.001350 0.017424 0.000000 0.000000 0.000000
# 4 0.000000 0.000000 0.000000 0.027088 0.000000 0.000000
# 5 0.000000 0.000000 0.000000 0.000000 0.089294 0.000000
# 6 0.000000 0.000000 0.000000 0.000000 0.000000 0.046399
#
#
# Mechanical properties :
#
#
# Convention : Reuss Voigt Hill
#
# Bulk Modulus (GPa) = 28.01450 51.56945 39.79198
# Shear Modulus (GPa) = 22.32437 38.13601 30.23019
#
# Velocity S-wave (km/s) = 2.98198 3.89747 3.47005
# Velocity P-wave (km/s) = 4.79740 6.38708 5.64844
#
# Compressibility (1/GPa) = 0.03569579
#
# Stress axis : x y z
#
# Youngs Moduli (GPa) = 273.37607 46.70431 57.39056
#
# Poissons Ratio (x) = 0.09703 -0.00164
# Poissons Ratio (y) = 0.56795 0.07748
# Poissons Ratio (z) = -0.00783 0.06305
#
# Static dielectric constant tensor:
#      x y z
#    x 2.147780 0.000000 0.000000 
#    y 0.000000 1.981730 0.000000 
#    z 0.000000 0.000000 1.959640 
# 
# From -- ./inp_files/4882.got.cif
#   From: 2010.05.17/outbox.cif.g08.bks.cpg/sg29_3_cif.got.tgz:4882.got - 2010.06.04 01:19:37.
