data_PCOD9340537
_publ_section_title
;
Structure prediction by ZEFSAII (Michael W. Deem and Ramdas Pophale) SiO2 
 PCOD9340537
Probable space group: P C A 21
;
_chemical_formula_sum "Si O2"
_cell_formula_units_Z 24
_cell_length_a 18.625917
_cell_length_b 10.852448
_cell_length_c 5.310495
_cell_angle_alpha 90.000000
_cell_angle_beta 90.000000
_cell_angle_gamma 90.000000
_cell_volume 1073.446443
_symmetry_space_group_name_H-M "P C A 21"
_symmetry_group_IT_number 29
_symmetry_cell_setting 'orthorhombic'
loop_
_space_group_symop_operation_xyz
x,y,z
-x,-y,1/2+z
1/2-x,y,1/2+z
1/2+x,-y,z
loop_
_atom_site_type_symbol
_atom_site_label
_atom_site_fract_x
_atom_site_fract_y
_atom_site_fract_z
Si Si1 0.216966 0.311240 0.764840
Si Si2 0.079308 0.377745 0.053430
Si Si3 0.414713 0.613058 0.882140
Si Si4 0.783074 0.401535 0.213338
Si Si5 0.458377 0.140668 0.812487
Si Si6 0.054747 0.875271 0.307602
O O1 0.238872 0.254767 0.498325
O O2 0.239008 0.454849 0.735818
O O3 0.134455 0.323445 0.849127
O O4 0.102111 0.505168 0.184796
O O5 0.077549 0.271912 0.266705
O O6 0.999386 0.395970 0.944347
O O7 0.399767 0.751180 0.786788
O O8 0.365975 0.598579 0.129927
O O9 0.760183 0.345604 0.477889
O O10 0.515228 0.132937 0.579496
O O11 0.413792 0.013274 0.790719
O O12 0.498034 0.136795 0.079496
#
# Coordination Sequence:
#
# PCOD9340537 Si02
#       6
#     4   4   4   4   4   4
#     4  10  21  37  54  76 112 153 182 212 272 343
#     4  11  21  33  57  88 114 136 182 240 277 307
#     4  11  21  33  57  88 114 136 182 240 277 307
#     4  10  21  37  54  76 112 153 182 212 272 343
#     4   9  19  35  53  76 110 148 179 215 274 337
#     4   9  19  35  53  76 110 148 179 215 274 337
#
# _framework density 22.357890999999999
#
# number of rings (size 3 to 8) (size 9 to 14) (size 15 to 20)
#    0.000    2.000    0.000    5.000    0.000    8.000 
#    0.000    0.000    0.000    2.000    0.000    0.000 
#    0.000    2.667    0.000    0.000    0.000    0.000 
#
# Total GULP energy -133918.907029 kJ/mol
# GULP energy per Si atom -5579.954460 kJ/mol
# Density = 2.230700 g / cm^3
# Si number density = 22.357891 Si / 1000 Ang^3
#
#
#
# Elastic Constant Matrix: (Units=GPa)
#
#
# Indices 1 2 3 4 5 6 
#
# 1 104.3001 -41.6967 37.4477 0.0000 0.0000 0.0000
# 2 -41.6967 86.8300 -4.5045 0.0000 0.0000 0.0000
# 3 37.4477 -4.5045 128.4854 0.0000 0.0000 0.0000
# 4 0.0000 0.0000 0.0000 21.3823 0.0000 0.0000
# 5 0.0000 0.0000 0.0000 0.0000 50.3366 0.0000
# 6 0.0000 0.0000 0.0000 0.0000 0.0000 1.5129
#
#
#
# Elastic Compliance Matrix: (Units=1/GPa)
#
#
# Indices 1 2 3 4 5 6 
#
# 1 0.013410 0.006248 -0.003689 0.000000 0.000000 0.000000
# 2 0.006248 0.014449 -0.001315 0.000000 0.000000 0.000000
# 3 -0.003689 -0.001315 0.008812 0.000000 0.000000 0.000000
# 4 0.000000 0.000000 0.000000 0.046768 0.000000 0.000000
# 5 0.000000 0.000000 0.000000 0.000000 0.019866 0.000000
# 6 0.000000 0.000000 0.000000 0.000000 0.000000 0.660986
#
#
# Mechanical properties :
#
#
# Convention : Reuss Voigt Hill
#
# Bulk Modulus (GPa) = 25.53601 33.56762 29.55182
# Shear Modulus (GPa) = 6.45281 36.53763 21.49522
#
# Velocity S-wave (km/s) = 1.70071 4.04693 3.10403
# Velocity P-wave (km/s) = 3.91188 6.07316 5.10813
#
# Compressibility (1/GPa) = 0.03916038
#
# Stress axis : x y z
#
# Youngs Moduli (GPa) = 74.56944 69.20844 113.47898
#
# Poissons Ratio (x) = -0.43244 0.41867
# Poissons Ratio (y) = -0.46594 0.14918
# Poissons Ratio (z) = 0.27512 0.09098
#
# Static dielectric constant tensor:
#      x y z
#    x 1.867110 0.000000 0.000000 
#    y 0.000000 1.849740 0.000000 
#    z 0.000000 0.000000 1.905470 
# 
# From -- ./inp_files/506.got.cif
#   From: 2010.05.17/outbox.cif.g08.bks.cpg/sg29_1_cif.got.tgz:506.got - 2010.06.04 01:19:37.
