data_PCOD9340205
_publ_section_title
;
Structure prediction by ZEFSAII (Michael W. Deem and Ramdas Pophale) SiO2 
 PCOD9340205
Probable space group: P C A 21
;
_chemical_formula_sum "Si O2"
_cell_formula_units_Z 28
_cell_length_a 14.232535
_cell_length_b 9.319740
_cell_length_c 9.939660
_cell_angle_alpha 90.000000
_cell_angle_beta 90.000000
_cell_angle_gamma 90.000000
_cell_volume 1318.431547
_symmetry_space_group_name_H-M "P C A 21"
_symmetry_group_IT_number 29
_symmetry_cell_setting 'orthorhombic'
loop_
_space_group_symop_operation_xyz
x,y,z
-x,-y,1/2+z
1/2-x,y,1/2+z
1/2+x,-y,z
loop_
_atom_site_type_symbol
_atom_site_label
_atom_site_fract_x
_atom_site_fract_y
_atom_site_fract_z
Si Si1 0.834013 0.015796 0.036000
Si Si2 0.009096 0.174141 0.654366
Si Si3 0.854385 0.973933 0.632311
Si Si4 0.995797 0.305926 0.361161
Si Si5 0.093339 0.394265 0.861678
Si Si6 0.797254 0.748668 0.838081
Si Si7 0.505949 0.209013 0.559436
O O1 0.734325 0.064811 0.090128
O O2 0.900551 0.929280 0.139781
O O3 0.896747 0.152871 0.001352
O O4 0.807561 0.891974 0.929491
O O5 0.981628 0.224374 0.502691
O O6 0.039410 0.307461 0.744274
O O7 0.924157 0.078650 0.712332
O O8 0.810205 0.827835 0.694583
O O9 0.926776 0.910488 0.522843
O O10 0.924893 0.437822 0.346798
O O11 0.986412 0.218295 0.221394
O O12 0.108074 0.343422 0.363431
O O13 0.201174 0.338068 0.858788
O O14 0.037735 0.351189 0.997663
#
# Coordination Sequence:
#
# PCOD9340205 Si02
#       7
#     4   4   4   4   4   4   4
#     4  10  19  37  61  89 119 151 201 263 307 366
#     4  10  22  38  62  92 120 161 202 260 313 351
#     4  10  19  37  61  89 119 151 201 263 307 366
#     4  10  24  41  57  90 129 162 209 253 295 378
#     4  12  21  41  64  85 125 175 207 240 309 373
#     4  10  21  38  63  87 120 163 210 247 316 367
#     4  10  22  38  62  92 120 161 202 260 313 351
#
# _framework density 21.237355999999998
#
# number of rings (size 3 to 8) (size 9 to 14) (size 15 to 20)
#    0.000    1.714    2.857    1.714    0.000    4.571 
#    5.143    0.000    0.000    0.000    0.000    0.000 
#    0.000    0.000    0.000    0.000    0.000    0.000 
#
# Total GULP energy -155915.448818 kJ/mol
# GULP energy per Si atom -5568.408886 kJ/mol
# Density = 2.118902 g / cm^3
# Si number density = 21.237356 Si / 1000 Ang^3
#
#
#
# Elastic Constant Matrix: (Units=GPa)
#
#
# Indices 1 2 3 4 5 6 
#
# 1 148.1753 45.1118 1.9289 0.0000 0.0000 0.0000
# 2 45.1118 72.4915 11.5903 0.0000 0.0000 0.0000
# 3 1.9289 11.5903 67.8221 0.0000 0.0000 0.0000
# 4 0.0000 0.0000 0.0000 23.0581 0.0000 0.0000
# 5 0.0000 0.0000 0.0000 0.0000 12.6554 0.0000
# 6 0.0000 0.0000 0.0000 0.0000 0.0000 37.9484
#
#
#
# Elastic Compliance Matrix: (Units=1/GPa)
#
#
# Indices 1 2 3 4 5 6 
#
# 1 0.008356 -0.005307 0.000669 0.000000 0.000000 0.000000
# 2 -0.005307 0.017553 -0.002849 0.000000 0.000000 0.000000
# 3 0.000669 -0.002849 0.015212 0.000000 0.000000 0.000000
# 4 0.000000 0.000000 0.000000 0.043369 0.000000 0.000000
# 5 0.000000 0.000000 0.000000 0.000000 0.079017 0.000000
# 6 0.000000 0.000000 0.000000 0.000000 0.000000 0.026352
#
#
# Mechanical properties :
#
#
# Convention : Reuss Voigt Hill
#
# Bulk Modulus (GPa) = 38.24370 45.08344 41.66357
# Shear Modulus (GPa) = 23.41408 30.05625 26.73517
#
# Velocity S-wave (km/s) = 3.32399 3.76607 3.55191
# Velocity P-wave (km/s) = 5.72527 6.33920 6.04004
#
# Compressibility (1/GPa) = 0.02614810
#
# Stress axis : x y z
#
# Youngs Moduli (GPa) = 119.67887 56.97154 65.73656
#
# Poissons Ratio (x) = 0.30234 -0.04399
# Poissons Ratio (y) = 0.63511 0.18726
# Poissons Ratio (z) = -0.08010 0.16229
#
# Static dielectric constant tensor:
#      x y z
#    x 1.790750 0.000000 0.000000 
#    y 0.000000 1.765230 0.000000 
#    z 0.000000 0.000000 1.899840 
# 
# From -- ./inp_files/3431.got.cif
#   From: 2010.05.17/outbox.cif.g08.bks.cpg/sg29_2_cif.got.tgz:3431.got - 2010.06.04 01:19:37.
