data_PCOD9340759
_publ_section_title
;
Structure prediction by ZEFSAII (Michael W. Deem and Ramdas Pophale) SiO2 
 PCOD9340759
Probable space group: P C A 21
;
_chemical_formula_sum "Si O2"
_cell_formula_units_Z 24
_cell_length_a 13.086567
_cell_length_b 5.150528
_cell_length_c 14.566246
_cell_angle_alpha 90.000000
_cell_angle_beta 90.000000
_cell_angle_gamma 90.000000
_cell_volume 981.804743
_symmetry_space_group_name_H-M "P C A 21"
_symmetry_group_IT_number 29
_symmetry_cell_setting 'orthorhombic'
loop_
_space_group_symop_operation_xyz
x,y,z
-x,-y,1/2+z
1/2-x,y,1/2+z
1/2+x,-y,z
loop_
_atom_site_type_symbol
_atom_site_label
_atom_site_fract_x
_atom_site_fract_y
_atom_site_fract_z
Si Si1 0.057954 0.852094 0.485970
Si Si2 0.162533 0.006069 0.736987
Si Si3 0.906949 0.638239 0.096090
Si Si4 0.689897 0.361343 0.331734
Si Si5 0.514180 0.637267 0.253487
Si Si6 0.873240 0.623907 0.402617
O O1 0.114750 0.638348 0.549331
O O2 0.108793 0.820672 0.385164
O O3 0.941397 0.745593 0.482185
O O4 0.063201 0.144530 0.521654
O O5 0.246466 0.784916 0.752554
O O6 0.048152 0.889121 0.721296
O O7 0.178842 0.216319 0.657179
O O8 0.156815 0.144494 0.834801
O O9 0.992795 0.566798 0.171858
O O10 0.629058 0.601531 0.286515
O O11 0.770138 0.461116 0.408366
O O12 0.449096 0.555419 0.343127
#
# Coordination Sequence:
#
# PCOD9340759 Si02
#       6
#     4   4   4   4   4   4
#     4  11  25  43  68  98 143 178 217 287 357 385
#     4  10  21  44  69  97 134 183 237 279 327 423
#     4  11  23  45  65  96 139 180 218 285 341 402
#     4  10  23  42  69 103 129 187 234 281 332 414
#     4   9  20  43  67  94 132 183 225 274 337 406
#     4   9  22  39  68  94 133 173 237 274 326 416
#
# _framework density 24.444776999999998
#
# number of rings (size 3 to 8) (size 9 to 14) (size 15 to 20)
#    0.000    2.000    1.667    0.000    9.333    2.667 
#    6.000    0.000    0.000    0.000    0.000    0.000 
#    0.000    0.000    0.000    0.000    0.000    0.000 
#
# Total GULP energy -133919.713872 kJ/mol
# GULP energy per Si atom -5579.988078 kJ/mol
# Density = 2.438914 g / cm^3
# Si number density = 24.444777 Si / 1000 Ang^3
#
#
#
# Elastic Constant Matrix: (Units=GPa)
#
#
# Indices 1 2 3 4 5 6 
#
# 1 93.7567 2.1969 15.9596 0.0000 0.0000 0.0000
# 2 2.1969 95.7874 15.8721 0.0000 0.0000 0.0000
# 3 15.9596 15.8721 64.1034 0.0000 0.0000 0.0000
# 4 0.0000 0.0000 0.0000 54.9571 0.0000 0.0000
# 5 0.0000 0.0000 0.0000 0.0000 16.0576 0.0000
# 6 0.0000 0.0000 0.0000 0.0000 0.0000 11.1265
#
#
#
# Elastic Compliance Matrix: (Units=1/GPa)
#
#
# Indices 1 2 3 4 5 6 
#
# 1 0.011142 0.000213 -0.002827 0.000000 0.000000 0.000000
# 2 0.000213 0.010890 -0.002750 0.000000 0.000000 0.000000
# 3 -0.002827 -0.002750 0.016984 0.000000 0.000000 0.000000
# 4 0.000000 0.000000 0.000000 0.018196 0.000000 0.000000
# 5 0.000000 0.000000 0.000000 0.000000 0.062276 0.000000
# 6 0.000000 0.000000 0.000000 0.000000 0.000000 0.089875
#
#
# Mechanical properties :
#
#
# Convention : Reuss Voigt Hill
#
# Bulk Modulus (GPa) = 35.34794 35.74498 35.54646
# Shear Modulus (GPa) = 21.78449 31.06950 26.42700
#
# Velocity S-wave (km/s) = 2.98849 3.56899 3.29156
# Velocity P-wave (km/s) = 5.13807 5.62477 5.38692
#
# Compressibility (1/GPa) = 0.02829019
#
# Stress axis : x y z
#
# Youngs Moduli (GPa) = 89.74973 91.82317 58.87775
#
# Poissons Ratio (x) = -0.01954 0.16643
# Poissons Ratio (y) = -0.01910 0.16188
# Poissons Ratio (z) = 0.25370 0.25247
#
# Static dielectric constant tensor:
#      x y z
#    x 1.963530 0.000000 0.000000 
#    y 0.000000 2.001450 0.000000 
#    z 0.000000 0.000000 1.966450 
# 
# From -- ./inp_files/4457.got.cif
#   From: 2010.05.17/outbox.cif.g08.bks.cpg/sg29_3_cif.got.tgz:4457.got - 2010.06.04 01:19:37.
