data_PCOD9340930
_publ_section_title
;
Structure prediction by ZEFSAII (Michael W. Deem and Ramdas Pophale) SiO2 
 PCOD9340930
Probable space group: P C A 21
;
_chemical_formula_sum "Si O2"
_cell_formula_units_Z 28
_cell_length_a 19.952723
_cell_length_b 5.172727
_cell_length_c 11.588440
_cell_angle_alpha 90.000000
_cell_angle_beta 90.000000
_cell_angle_gamma 90.000000
_cell_volume 1196.042765
_symmetry_space_group_name_H-M "P C A 21"
_symmetry_group_IT_number 29
_symmetry_cell_setting 'orthorhombic'
loop_
_space_group_symop_operation_xyz
x,y,z
-x,-y,1/2+z
1/2-x,y,1/2+z
1/2+x,-y,z
loop_
_atom_site_type_symbol
_atom_site_label
_atom_site_fract_x
_atom_site_fract_y
_atom_site_fract_z
Si Si1 0.769299 0.599293 0.547920
Si Si2 0.892708 0.429876 0.657178
Si Si3 0.849917 0.578478 0.203838
Si Si4 0.667246 0.962833 0.903755
Si Si5 0.700618 0.268635 0.369789
Si Si6 0.105227 0.919862 0.569924
Si Si7 0.546801 0.954445 0.059803
O O1 0.834303 0.422248 0.559938
O O2 0.726732 0.575217 0.662006
O O3 0.796121 0.881983 0.523092
O O4 0.723191 0.516215 0.443158
O O5 0.850575 0.358702 0.771108
O O6 0.924009 0.713323 0.634940
O O7 0.947468 0.211451 0.636731
O O8 0.847189 0.700418 0.330380
O O9 0.880224 0.302239 0.167073
O O10 0.884591 0.801745 0.127489
O O11 0.727408 0.126210 0.842006
O O12 0.592169 0.023838 0.947431
O O13 0.656807 0.110681 0.464155
O O14 0.029178 0.891912 0.528541
#
# Coordination Sequence:
#
# PCOD9340930 Si02
#       7
#     4   4   4   4   4   4   4
#     4  10  22  42  64 106 134 166 222 286 346 392
#     4  11  25  41  71  99 137 176 225 283 346 408
#     4  11  25  41  71  99 137 176 225 283 346 408
#     4  11  24  41  71 103 131 180 227 290 338 406
#     4  11  24  41  71 103 131 180 227 290 338 406
#     4  11  26  47  66  99 141 182 229 280 343 418
#     4  11  26  47  66  99 141 182 229 280 343 418
#
# _framework density 23.410534999999999
#
# number of rings (size 3 to 8) (size 9 to 14) (size 15 to 20)
#    0.000    1.143    2.857    1.714   12.000    2.286 
#    0.000    0.000    0.000    0.000    0.000    0.000 
#    0.000    0.000    0.000    0.000    0.000    0.000 
#
# Total GULP energy -156172.473620 kJ/mol
# GULP energy per Si atom -5577.588344 kJ/mol
# Density = 2.335725 g / cm^3
# Si number density = 23.410535 Si / 1000 Ang^3
#
#
#
# Elastic Constant Matrix: (Units=GPa)
#
#
# Indices 1 2 3 4 5 6 
#
# 1 142.0596 22.7928 25.1833 0.0000 0.0000 0.0000
# 2 22.7928 112.5974 8.9597 0.0000 0.0000 0.0000
# 3 25.1833 8.9597 66.4829 0.0000 0.0000 0.0000
# 4 0.0000 0.0000 0.0000 22.6710 0.0000 0.0000
# 5 0.0000 0.0000 0.0000 0.0000 22.8448 0.0000
# 6 0.0000 0.0000 0.0000 0.0000 0.0000 29.4401
#
#
#
# Elastic Compliance Matrix: (Units=1/GPa)
#
#
# Indices 1 2 3 4 5 6 
#
# 1 0.007743 -0.001349 -0.002751 0.000000 0.000000 0.000000
# 2 -0.001349 0.009212 -0.000731 0.000000 0.000000 0.000000
# 3 -0.002751 -0.000731 0.016182 0.000000 0.000000 0.000000
# 4 0.000000 0.000000 0.000000 0.044109 0.000000 0.000000
# 5 0.000000 0.000000 0.000000 0.000000 0.043774 0.000000
# 6 0.000000 0.000000 0.000000 0.000000 0.000000 0.033967
#
#
# Mechanical properties :
#
#
# Convention : Reuss Voigt Hill
#
# Bulk Modulus (GPa) = 42.59564 48.33461 45.46513
# Shear Modulus (GPa) = 28.98972 32.60478 30.79725
#
# Velocity S-wave (km/s) = 3.52279 3.73599 3.63096
# Velocity P-wave (km/s) = 5.89757 6.26909 6.08617
#
# Compressibility (1/GPa) = 0.02347658
#
# Stress axis : x y z
#
# Youngs Moduli (GPa) = 129.14189 108.55027 61.79650
#
# Poissons Ratio (x) = 0.14638 0.17003
# Poissons Ratio (y) = 0.17415 0.04515
# Poissons Ratio (z) = 0.35532 0.07932
#
# Static dielectric constant tensor:
#      x y z
#    x 1.873480 0.000000 0.000000 
#    y 0.000000 1.959200 0.000000 
#    z 0.000000 0.000000 1.918770 
# 
# From -- ./inp_files/3746.got.cif
#   From: 2010.05.17/outbox.cif.g08.bks.cpg/sg29_2_cif.got.tgz:3746.got - 2010.06.04 01:19:37.
