data_PCOD9340480
_publ_section_title
;
Structure prediction by ZEFSAII (Michael W. Deem and Ramdas Pophale) SiO2 
 PCOD9340480
Probable space group: P C A 21
;
_chemical_formula_sum "Si O2"
_cell_formula_units_Z 20
_cell_length_a 9.790480
_cell_length_b 4.972908
_cell_length_c 14.449631
_cell_angle_alpha 90.000000
_cell_angle_beta 90.000000
_cell_angle_gamma 90.000000
_cell_volume 703.511443
_symmetry_space_group_name_H-M "P C A 21"
_symmetry_group_IT_number 29
_symmetry_cell_setting 'orthorhombic'
loop_
_space_group_symop_operation_xyz
x,y,z
-x,-y,1/2+z
1/2-x,y,1/2+z
1/2+x,-y,z
loop_
_atom_site_type_symbol
_atom_site_label
_atom_site_fract_x
_atom_site_fract_y
_atom_site_fract_z
Si Si1 0.393579 0.942307 0.360970
Si Si2 0.247241 0.312435 0.223671
Si Si3 0.435157 0.564611 0.879781
Si Si4 0.290824 0.972826 0.564852
Si Si5 0.448987 0.342023 0.079936
O O1 0.309941 0.053101 0.275628
O O2 0.528522 0.127262 0.363807
O O3 0.321587 0.018402 0.457184
O O4 0.435908 0.633573 0.364217
O O5 0.169978 0.476700 0.301493
O O6 0.155775 0.186822 0.141463
O O7 0.373036 0.455730 0.170096
O O8 0.403691 0.501056 0.987326
O O9 0.130151 0.050848 0.572453
O O10 0.389909 0.718671 0.584978
#
# Coordination Sequence:
#
# PCOD9340480 Si02
#       5
#     4   4   4   4   4
#     4  11  24  44  67  98 137 180 225 278 341 405
#     4  10  20  42  66 106 130 184 220 294 322 420
#     4  11  24  44  67  98 137 180 225 278 341 405
#     4   9  20  41  68 101 140 178 227 277 343 401
#     4   9  20  41  68 101 140 178 227 277 343 401
#
# _framework density 28.428816999999999
#
# number of rings (size 3 to 8) (size 9 to 14) (size 15 to 20)
#    1.200    0.800    2.000    1.200    0.000    3.200 
#    3.600    8.000    0.000    0.000    0.000    0.000 
#    0.000    0.000    0.000    0.000    0.000    0.000 
#
# Total GULP energy -111899.212318 kJ/mol
# GULP energy per Si atom -5594.960616 kJ/mol
# Density = 2.836411 g / cm^3
# Si number density = 28.428817 Si / 1000 Ang^3
#
#
#
# Elastic Constant Matrix: (Units=GPa)
#
#
# Indices 1 2 3 4 5 6 
#
# 1 103.8739 34.6999 31.4052 0.0000 0.0000 0.0000
# 2 34.6999 59.9283 50.8058 0.0000 0.0000 0.0000
# 3 31.4052 50.8058 166.1202 0.0000 0.0000 0.0000
# 4 0.0000 0.0000 0.0000 27.6117 0.0000 0.0000
# 5 0.0000 0.0000 0.0000 0.0000 37.9218 0.0000
# 6 0.0000 0.0000 0.0000 0.0000 0.0000 36.6405
#
#
#
# Elastic Compliance Matrix: (Units=1/GPa)
#
#
# Indices 1 2 3 4 5 6 
#
# 1 0.011940 -0.006750 -0.000193 0.000000 0.000000 0.000000
# 2 -0.006750 0.026344 -0.006781 0.000000 0.000000 0.000000
# 3 -0.000193 -0.006781 0.008130 0.000000 0.000000 0.000000
# 4 0.000000 0.000000 0.000000 0.036216 0.000000 0.000000
# 5 0.000000 0.000000 0.000000 0.000000 0.026370 0.000000
# 6 0.000000 0.000000 0.000000 0.000000 0.000000 0.027292
#
#
# Mechanical properties :
#
#
# Convention : Reuss Voigt Hill
#
# Bulk Modulus (GPa) = 52.72494 62.63825 57.68160
# Shear Modulus (GPa) = 29.40094 34.63557 32.01826
#
# Velocity S-wave (km/s) = 3.21938 3.49424 3.35962
# Velocity P-wave (km/s) = 5.69261 6.19361 5.94839
#
# Compressibility (1/GPa) = 0.01896636
#
# Stress axis : x y z
#
# Youngs Moduli (GPa) = 83.74978 37.95974 123.00109
#
# Poissons Ratio (x) = 0.25624 0.02372
# Poissons Ratio (y) = 0.56533 0.83404
# Poissons Ratio (z) = 0.01615 0.25740
#
# Static dielectric constant tensor:
#      x y z
#    x 2.293150 0.000000 0.000000 
#    y 0.000000 2.197050 0.000000 
#    z 0.000000 0.000000 2.160640 
# 
# From -- ./inp_files/4393.got.cif
#   From: 2010.05.17/outbox.cif.g08.bks.cpg/sg29_3_cif.got.tgz:4393.got - 2010.06.04 01:19:37.
