data_PCOD9340709
_publ_section_title
;
Structure prediction by ZEFSAII (Michael W. Deem and Ramdas Pophale) SiO2 
 PCOD9340709
Probable space group: P C A 21
;
_chemical_formula_sum "Si O2"
_cell_formula_units_Z 32
_cell_length_a 11.043035
_cell_length_b 13.143238
_cell_length_c 8.958799
_cell_angle_alpha 90.000000
_cell_angle_beta 90.000000
_cell_angle_gamma 90.000000
_cell_volume 1300.291171
_symmetry_space_group_name_H-M "P C A 21"
_symmetry_group_IT_number 29
_symmetry_cell_setting 'orthorhombic'
loop_
_space_group_symop_operation_xyz
x,y,z
-x,-y,1/2+z
1/2-x,y,1/2+z
1/2+x,-y,z
loop_
_atom_site_type_symbol
_atom_site_label
_atom_site_fract_x
_atom_site_fract_y
_atom_site_fract_z
Si Si1 0.448433 0.501144 0.437260
Si Si2 0.368345 0.711555 0.644085
Si Si3 0.620805 0.251306 0.478024
Si Si4 0.567614 0.642384 0.188728
Si Si5 0.935052 0.906464 0.402583
Si Si6 0.401906 0.405780 0.121840
Si Si7 0.983351 0.914291 0.076435
Si Si8 0.300454 0.225338 0.928697
O O1 0.481137 0.588783 0.310868
O O2 0.376212 0.442477 0.576871
O O3 0.397989 0.424860 0.298035
O O4 0.589287 0.497022 0.511694
O O5 0.243123 0.731796 0.566635
O O6 0.451664 0.619837 0.582196
O O7 0.444922 0.811990 0.614410
O O8 0.359928 0.695029 0.819329
O O9 0.515737 0.291484 0.582670
O O10 0.569354 0.139822 0.434122
O O11 0.655065 0.715824 0.281946
O O12 0.925652 0.946307 0.233425
O O13 0.834182 0.819112 0.420128
O O14 0.927865 0.000707 0.513474
O O15 0.331804 0.309003 0.057180
O O16 0.883267 0.874259 0.960229
#
# Coordination Sequence:
#
# PCOD9340709 Si02
#       8
#     4   4   4   4   4   4   4   4
#     4   9  18  37  75 104 150 186 250 306 362 461
#     4  10  23  43  67 101 142 189 244 296 366 441
#     4  11  25  42  72  98 141 195 239 295 369 439
#     4  10  21  41  74 105 148 196 241 309 376 444
#     4  11  27  48  72 107 148 191 253 312 377 453
#     4   9  18  40  71 109 151 189 245 310 372 443
#     4  10  26  47  70 106 144 189 246 315 367 444
#     4  10  24  44  75 108 148 195 244 307 383 451
#
# _framework density 24.609873
#
# number of rings (size 3 to 8) (size 9 to 14) (size 15 to 20)
#    0.000    2.000    1.250    0.000   10.500    0.000 
#    0.000    1.250   27.500    0.000    0.000    0.000 
#    0.000    0.000    0.000    0.000    0.000    0.000 
#
# Total GULP energy -178232.233687 kJ/mol
# GULP energy per Si atom -5569.757303 kJ/mol
# Density = 2.455386 g / cm^3
# Si number density = 24.609873 Si / 1000 Ang^3
#
#
#
# Elastic Constant Matrix: (Units=GPa)
#
#
# Indices 1 2 3 4 5 6 
#
# 1 83.3919 8.6147 41.3206 0.0000 0.0000 0.0000
# 2 8.6147 45.4109 41.0885 0.0000 0.0000 0.0000
# 3 41.3206 41.0885 204.4762 0.0000 0.0000 0.0000
# 4 0.0000 0.0000 0.0000 5.7567 0.0000 0.0000
# 5 0.0000 0.0000 0.0000 0.0000 25.7074 0.0000
# 6 0.0000 0.0000 0.0000 0.0000 0.0000 36.2019
#
#
#
# Elastic Compliance Matrix: (Units=1/GPa)
#
#
# Indices 1 2 3 4 5 6 
#
# 1 0.013326 -0.000112 -0.002671 0.000000 0.000000 0.000000
# 2 -0.000112 0.026916 -0.005386 0.000000 0.000000 0.000000
# 3 -0.002671 -0.005386 0.006513 0.000000 0.000000 0.000000
# 4 0.000000 0.000000 0.000000 0.173709 0.000000 0.000000
# 5 0.000000 0.000000 0.000000 0.000000 0.038899 0.000000
# 6 0.000000 0.000000 0.000000 0.000000 0.000000 0.027623
#
#
# Mechanical properties :
#
#
# Convention : Reuss Voigt Hill
#
# Bulk Modulus (GPa) = 32.87525 57.25850 45.06688
# Shear Modulus (GPa) = 15.95089 29.68353 22.81721
#
# Velocity S-wave (km/s) = 2.54864 3.47675 3.04823
# Velocity P-wave (km/s) = 4.69556 6.27966 5.54447
#
# Compressibility (1/GPa) = 0.03041802
#
# Stress axis : x y z
#
# Youngs Moduli (GPa) = 75.03922 37.15302 153.55080
#
# Poissons Ratio (x) = 0.00415 0.41006
# Poissons Ratio (y) = 0.00838 0.82703
# Poissons Ratio (z) = 0.20040 0.20011
#
# Static dielectric constant tensor:
#      x y z
#    x 2.072200 0.000000 0.000000 
#    y 0.000000 2.845050 0.000000 
#    z 0.000000 0.000000 2.303370 
# 
# From -- ./inp_files/2198.got.cif
#   From: 2010.05.17/outbox.cif.g08.bks.cpg/sg29_2_cif.got.tgz:2198.got - 2010.06.04 01:19:37.
