data_PCOD9340642
_publ_section_title
;
Structure prediction by ZEFSAII (Michael W. Deem and Ramdas Pophale) SiO2 
 PCOD9340642
Probable space group: P C A 21
;
_chemical_formula_sum "Si O2"
_cell_formula_units_Z 16
_cell_length_a 5.563937
_cell_length_b 7.806300
_cell_length_c 12.705858
_cell_angle_alpha 90.000000
_cell_angle_beta 90.000000
_cell_angle_gamma 90.000000
_cell_volume 551.863205
_symmetry_space_group_name_H-M "P C A 21"
_symmetry_group_IT_number 29
_symmetry_cell_setting 'orthorhombic'
loop_
_space_group_symop_operation_xyz
x,y,z
-x,-y,1/2+z
1/2-x,y,1/2+z
1/2+x,-y,z
loop_
_atom_site_type_symbol
_atom_site_label
_atom_site_fract_x
_atom_site_fract_y
_atom_site_fract_z
Si Si1 0.142779 0.575041 0.548930
Si Si2 0.642779 0.075040 0.963148
Si Si3 0.355025 0.450301 0.284654
Si Si4 0.644975 0.950301 0.727423
O O1 0.360298 0.442530 0.523942
O O2 0.250000 0.750000 0.506039
O O3 0.143327 0.563055 0.677294
O O4 0.360298 0.057470 0.988136
O O5 0.643327 0.063055 0.834784
O O6 0.605034 0.500549 0.338903
O O7 0.358267 0.250000 0.256039
O O8 0.394965 0.000549 0.673175
#
# Coordination Sequence:
#
# PCOD9340642 Si02
#       4
#     4   4   4   4
#     4  10  21  40  62  90 122 160 202 250 302 360
#     4  10  21  40  62  90 122 160 202 250 302 360
#     4  10  21  40  62  90 122 160 202 250 302 360
#     4  10  21  40  62  90 122 160 202 250 302 360
#
# _framework density 28.992694
#
# number of rings (size 3 to 8) (size 9 to 14) (size 15 to 20)
#    0.000    2.000    0.000    3.000    0.000    0.000 
#    0.000   60.000    0.000    0.000    0.000    0.000 
#    0.000    0.000    0.000    0.000    0.000    0.000 
#
# Total GULP energy -89758.805230 kJ/mol
# GULP energy per Si atom -5609.925327 kJ/mol
# Density = 2.892671 g / cm^3
# Si number density = 28.992694 Si / 1000 Ang^3
#
#
#
# Elastic Constant Matrix: (Units=GPa)
#
#
# Indices 1 2 3 4 5 6 
#
# 1 310.1974 33.4787 52.0945 0.0000 0.0000 0.0000
# 2 33.4787 121.8832 11.7609 0.0000 0.0000 0.0000
# 3 52.0945 11.7609 89.3416 0.0000 0.0000 0.0000
# 4 0.0000 0.0000 0.0000 47.7674 0.0000 0.0000
# 5 0.0000 0.0000 0.0000 0.0000 84.8159 0.0000
# 6 0.0000 0.0000 0.0000 0.0000 0.0000 64.5687
#
#
#
# Elastic Compliance Matrix: (Units=1/GPa)
#
#
# Indices 1 2 3 4 5 6 
#
# 1 0.003651 -0.000808 -0.002022 0.000000 0.000000 0.000000
# 2 -0.000808 0.008489 -0.000647 0.000000 0.000000 0.000000
# 3 -0.002022 -0.000647 0.012457 0.000000 0.000000 0.000000
# 4 0.000000 0.000000 0.000000 0.020935 0.000000 0.000000
# 5 0.000000 0.000000 0.000000 0.000000 0.011790 0.000000
# 6 0.000000 0.000000 0.000000 0.000000 0.000000 0.015487
#
#
# Mechanical properties :
#
#
# Convention : Reuss Voigt Hill
#
# Bulk Modulus (GPa) = 56.67734 79.56560 68.12147
# Shear Modulus (GPa) = 58.38177 67.70295 63.04236
#
# Velocity S-wave (km/s) = 4.49226 4.83760 4.66813
# Velocity P-wave (km/s) = 6.81898 7.66199 7.25275
#
# Compressibility (1/GPa) = 0.01764374
#
# Stress axis : x y z
#
# Youngs Moduli (GPa) = 273.93231 117.80245 80.27426
#
# Poissons Ratio (x) = 0.09514 0.16234
# Poissons Ratio (y) = 0.22122 0.05190
# Poissons Ratio (z) = 0.55397 0.07617
#
# Static dielectric constant tensor:
#      x y z
#    x 2.337730 0.000000 0.000000 
#    y 0.000000 2.136920 0.000000 
#    z 0.000000 0.000000 2.383260 
# 
# From -- ./inp_files/3997.got.cif
#   From: 2010.05.17/outbox.cif.g08.bks.cpg/sg29_2_cif.got.tgz:3997.got - 2010.06.04 01:19:37.
