data_PCOD9340038
_publ_section_title
;
Structure prediction by ZEFSAII (Michael W. Deem and Ramdas Pophale) SiO2 
 PCOD9340038
Probable space group: P C A 21
;
_chemical_formula_sum "Si O2"
_cell_formula_units_Z 32
_cell_length_a 31.034839
_cell_length_b 8.787109
_cell_length_c 5.530589
_cell_angle_alpha 90.000000
_cell_angle_beta 90.000000
_cell_angle_gamma 90.000000
_cell_volume 1508.227642
_symmetry_space_group_name_H-M "P C A 21"
_symmetry_group_IT_number 29
_symmetry_cell_setting 'orthorhombic'
loop_
_space_group_symop_operation_xyz
x,y,z
-x,-y,1/2+z
1/2-x,y,1/2+z
1/2+x,-y,z
loop_
_atom_site_type_symbol
_atom_site_label
_atom_site_fract_x
_atom_site_fract_y
_atom_site_fract_z
Si Si1 0.087381 0.548085 0.196150
Si Si2 0.060934 0.763647 0.834184
Si Si3 0.261079 0.746958 0.132689
Si Si4 0.272021 0.398304 0.620369
Si Si5 0.431628 0.123835 0.330350
Si Si6 0.645468 0.378035 0.579925
Si Si7 0.359261 0.337109 0.373050
Si Si8 0.535743 0.728833 0.332694
O O1 0.131787 0.609479 0.304080
O O2 0.059455 0.434689 0.358500
O O3 0.063016 0.694843 0.103859
O O4 0.101336 0.435575 0.982572
O O5 0.102915 0.695822 0.700190
O O6 0.013889 0.708440 0.755863
O O7 0.063254 0.943634 0.821984
O O8 0.250920 0.827163 0.881031
O O9 0.234479 0.584455 0.125086
O O10 0.311578 0.710984 0.135556
O O11 0.255115 0.348268 0.882709
O O12 0.319949 0.339568 0.560112
O O13 0.381883 0.180613 0.302522
O O14 0.445535 0.176897 0.602043
O O15 0.456930 0.190782 0.094254
O O16 0.654845 0.552081 0.657666
#
# Coordination Sequence:
#
# PCOD9340038 Si02
#       8
#     4   4   4   4   4   4   4   4
#     4  10  23  37  62  93 126 161 210 274 316 370
#     4  11  27  39  64  93 133 169 215 264 333 383
#     4  10  19  32  56  86 121 153 201 253 312 372
#     4  10  18  29  56  88 117 149 202 259 306 360
#     4  11  25  45  64  90 126 177 217 263 318 393
#     4  11  21  37  60  93 126 160 207 269 320 374
#     4  10  20  37  59  91 122 161 210 261 312 378
#     4  11  25  44  67  88 127 172 226 263 315 382
#
# _framework density 21.216956
#
# number of rings (size 3 to 8) (size 9 to 14) (size 15 to 20)
#    0.000    1.500    3.750    2.250    7.000    0.000 
#    0.000    0.000    0.000    1.500    0.000    0.000 
#    0.000    0.000    0.000    0.000    0.000    0.000 
#
# Total GULP energy -178255.869236 kJ/mol
# GULP energy per Si atom -5570.495914 kJ/mol
# Density = 2.116867 g / cm^3
# Si number density = 21.216956 Si / 1000 Ang^3
#
#
#
# Elastic Constant Matrix: (Units=GPa)
#
#
# Indices 1 2 3 4 5 6 
#
# 1 98.4725 28.9775 13.2551 0.0000 0.0000 0.0000
# 2 28.9775 27.2624 25.0589 0.0000 0.0000 0.0000
# 3 13.2551 25.0589 91.1341 0.0000 0.0000 0.0000
# 4 0.0000 0.0000 0.0000 13.5302 0.0000 0.0000
# 5 0.0000 0.0000 0.0000 0.0000 36.0495 0.0000
# 6 0.0000 0.0000 0.0000 0.0000 0.0000 1.1168
#
#
#
# Elastic Compliance Matrix: (Units=1/GPa)
#
#
# Indices 1 2 3 4 5 6 
#
# 1 0.015374 -0.019118 0.003021 0.000000 0.000000 0.000000
# 2 -0.019118 0.072860 -0.017254 0.000000 0.000000 0.000000
# 3 0.003021 -0.017254 0.015278 0.000000 0.000000 0.000000
# 4 0.000000 0.000000 0.000000 0.073909 0.000000 0.000000
# 5 0.000000 0.000000 0.000000 0.000000 0.027740 0.000000
# 6 0.000000 0.000000 0.000000 0.000000 0.000000 0.895429
#
#
# Mechanical properties :
#
#
# Convention : Reuss Voigt Hill
#
# Bulk Modulus (GPa) = 27.16619 39.05023 33.10821
# Shear Modulus (GPa) = 4.23886 20.11115 12.17500
#
# Velocity S-wave (km/s) = 1.41499 3.08211 2.39808
# Velocity P-wave (km/s) = 3.93718 5.57772 4.82765
#
# Compressibility (1/GPa) = 0.03681046
#
# Stress axis : x y z
#
# Youngs Moduli (GPa) = 65.04307 13.72487 65.45516
#
# Poissons Ratio (x) = 0.26239 -0.19772
# Poissons Ratio (y) = 1.24351 1.12933
# Poissons Ratio (z) = -0.19648 0.23680
#
# Static dielectric constant tensor:
#      x y z
#    x 1.831810 0.000000 0.000000 
#    y 0.000000 1.734260 0.000000 
#    z 0.000000 0.000000 1.892560 
# 
# From -- ./inp_files/903.got.cif
#   From: 2010.05.17/outbox.cif.g08.bks.cpg/sg29_1_cif.got.tgz:903.got - 2010.06.04 01:19:37.
