data_PCOD9340526
_publ_section_title
;
Structure prediction by ZEFSAII (Michael W. Deem and Ramdas Pophale) SiO2 
 PCOD9340526
Probable space group: P C A 21
;
_chemical_formula_sum "Si O2"
_cell_formula_units_Z 28
_cell_length_a 16.126229
_cell_length_b 15.499727
_cell_length_c 4.958390
_cell_angle_alpha 90.000000
_cell_angle_beta 90.000000
_cell_angle_gamma 90.000000
_cell_volume 1239.360226
_symmetry_space_group_name_H-M "P C A 21"
_symmetry_group_IT_number 29
_symmetry_cell_setting 'orthorhombic'
loop_
_space_group_symop_operation_xyz
x,y,z
-x,-y,1/2+z
1/2-x,y,1/2+z
1/2+x,-y,z
loop_
_atom_site_type_symbol
_atom_site_label
_atom_site_fract_x
_atom_site_fract_y
_atom_site_fract_z
Si Si1 0.035422 0.748699 0.896340
Si Si2 0.799083 0.487911 0.089019
Si Si3 0.440941 0.004389 0.254660
Si Si4 0.189826 0.847645 0.736055
Si Si5 0.700252 0.694854 0.610701
Si Si6 0.558442 0.806963 0.874802
Si Si7 0.530989 0.450529 0.861246
O O1 0.127977 0.767457 0.791310
O O2 0.013366 0.648277 0.929839
O O3 0.972527 0.786433 0.672955
O O4 0.021411 0.796983 0.178952
O O5 0.723282 0.464177 0.286024
O O6 0.809590 0.591528 0.113650
O O7 0.881412 0.449925 0.211648
O O8 0.406344 0.097270 0.342989
O O9 0.516587 0.988021 0.462272
O O10 0.371812 0.930218 0.260857
O O11 0.236124 0.847919 0.451862
O O12 0.722205 0.718069 0.304990
O O13 0.622962 0.740433 0.746983
O O14 0.471448 0.491957 0.631965
#
# Coordination Sequence:
#
# PCOD9340526 Si02
#       7
#     4   4   4   4   4   4   4
#     4  12  25  43  68  98 132 183 219 283 338 397
#     4  10  21  38  59  84 123 168 206 262 334 387
#     4  12  23  45  70  97 134 178 222 272 337 410
#     4  12  26  44  69 104 140 176 228 283 338 403
#     4  10  21  36  58  91 126 161 210 270 325 380
#     4  12  23  42  70  94 134 173 226 262 343 408
#     4  12  25  42  66  98 133 171 237 282 329 395
#
# _framework density 22.592300000000002
#
# number of rings (size 3 to 8) (size 9 to 14) (size 15 to 20)
#    0.000    0.571    2.857    6.000    0.000    4.571 
#    0.000    0.000    0.000    0.000    0.000    0.000 
#    0.000    0.000    0.000    0.000    0.000    0.000 
#
# Total GULP energy -156721.780344 kJ/mol
# GULP energy per Si atom -5597.206441 kJ/mol
# Density = 2.254088 g / cm^3
# Si number density = 22.592300 Si / 1000 Ang^3
#
#
#
# Elastic Constant Matrix: (Units=GPa)
#
#
# Indices 1 2 3 4 5 6 
#
# 1 67.0280 6.0891 -6.1335 0.0000 0.0000 0.0000
# 2 6.0891 82.8286 10.0569 0.0000 0.0000 0.0000
# 3 -6.1335 10.0569 64.5099 0.0000 0.0000 0.0000
# 4 0.0000 0.0000 0.0000 16.6775 0.0000 0.0000
# 5 0.0000 0.0000 0.0000 0.0000 26.2046 0.0000
# 6 0.0000 0.0000 0.0000 0.0000 0.0000 41.8125
#
#
#
# Elastic Compliance Matrix: (Units=1/GPa)
#
#
# Indices 1 2 3 4 5 6 
#
# 1 0.015190 -0.001317 0.001650 0.000000 0.000000 0.000000
# 2 -0.001317 0.012420 -0.002061 0.000000 0.000000 0.000000
# 3 0.001650 -0.002061 0.015980 0.000000 0.000000 0.000000
# 4 0.000000 0.000000 0.000000 0.059961 0.000000 0.000000
# 5 0.000000 0.000000 0.000000 0.000000 0.038161 0.000000
# 6 0.000000 0.000000 0.000000 0.000000 0.000000 0.023916
#
#
# Mechanical properties :
#
#
# Convention : Reuss Voigt Hill
#
# Bulk Modulus (GPa) = 24.91788 26.04351 25.48070
# Shear Modulus (GPa) = 27.40278 30.56253 28.98265
#
# Velocity S-wave (km/s) = 3.48649 3.68201 3.58558
# Velocity P-wave (km/s) = 5.22118 5.44325 5.33337
#
# Compressibility (1/GPa) = 0.04013182
#
# Stress axis : x y z
#
# Youngs Moduli (GPa) = 65.83404 80.51368 62.57938
#
# Poissons Ratio (x) = 0.10603 -0.10323
# Poissons Ratio (y) = 0.08670 0.12901
# Poissons Ratio (z) = -0.10859 0.16598
#
# Static dielectric constant tensor:
#      x y z
#    x 1.861910 0.000000 0.000000 
#    y 0.000000 1.859690 0.000000 
#    z 0.000000 0.000000 1.805420 
# 
# From -- ./inp_files/244.got.cif
#   From: 2010.05.17/outbox.cif.g08.bks.cpg/sg29_1_cif.got.tgz:244.got - 2010.06.04 01:19:37.
