data_PCOD9340055
_publ_section_title
;
Structure prediction by ZEFSAII (Michael W. Deem and Ramdas Pophale) SiO2 
 PCOD9340055
Probable space group: P C A 21
;
_chemical_formula_sum "Si O2"
_cell_formula_units_Z 32
_cell_length_a 21.382980
_cell_length_b 8.570467
_cell_length_c 9.113946
_cell_angle_alpha 90.000000
_cell_angle_beta 90.000000
_cell_angle_gamma 90.000000
_cell_volume 1670.241106
_symmetry_space_group_name_H-M "P C A 21"
_symmetry_group_IT_number 29
_symmetry_cell_setting 'orthorhombic'
loop_
_space_group_symop_operation_xyz
x,y,z
-x,-y,1/2+z
1/2-x,y,1/2+z
1/2+x,-y,z
loop_
_atom_site_type_symbol
_atom_site_label
_atom_site_fract_x
_atom_site_fract_y
_atom_site_fract_z
Si Si1 0.440345 0.852367 0.338250
Si Si2 0.184540 0.329038 0.854887
Si Si3 0.433614 0.193507 0.195605
Si Si4 0.700926 0.812256 0.175691
Si Si5 0.293325 0.818294 0.632836
Si Si6 0.071400 0.831696 0.186834
Si Si7 0.686319 0.308071 0.823218
Si Si8 0.578363 0.840758 0.349978
O O1 0.434807 0.883261 0.514659
O O2 0.384632 0.740148 0.289359
O O3 0.508928 0.782238 0.308425
O O4 0.433456 0.017012 0.257339
O O5 0.117834 0.289154 0.783257
O O6 0.239027 0.265977 0.748989
O O7 0.190218 0.513960 0.871908
O O8 0.191872 0.244626 0.010307
O O9 0.505337 0.252498 0.214763
O O10 0.416217 0.182674 0.023947
O O11 0.638086 0.773122 0.266663
O O12 0.709330 0.999793 0.175449
O O13 0.360386 0.752541 0.690643
O O14 0.294066 0.801811 0.458430
O O15 0.234533 0.726932 0.694863
O O16 0.075430 0.977964 0.297573
#
# Coordination Sequence:
#
# PCOD9340055 Si02
#       8
#     4   4   4   4   4   4   4   4
#     4   9  18  36  58  82 113 149 188 232 281 337
#     4  12  24  38  55  83 117 149 182 233 289 340
#     4  10  18  33  59  85 111 145 187 233 280 335
#     4  11  22  39  61  84 110 147 194 236 281 337
#     4  10  20  38  60  82 107 146 191 233 274 331
#     4   8  17  33  56  83 111 143 188 239 280 324
#     4  11  23  38  55  82 116 148 183 230 286 339
#     4   9  18  33  58  87 109 139 191 242 277 323
#
# _framework density 19.158909999999999
#
# number of rings (size 3 to 8) (size 9 to 14) (size 15 to 20)
#    0.000    2.000    0.000    5.250    0.000    4.000 
#    0.000    5.000    0.000    0.000    0.000    0.000 
#    0.000    0.000    0.000    0.000    0.000    0.000 
#
# Total GULP energy -178514.041768 kJ/mol
# GULP energy per Si atom -5578.563805 kJ/mol
# Density = 1.911530 g / cm^3
# Si number density = 19.158910 Si / 1000 Ang^3
#
#
#
# Elastic Constant Matrix: (Units=GPa)
#
#
# Indices 1 2 3 4 5 6 
#
# 1 72.2438 24.6627 18.0604 0.0000 0.0000 0.0000
# 2 24.6627 39.9794 1.8012 0.0000 0.0000 0.0000
# 3 18.0604 1.8012 46.2912 0.0000 0.0000 0.0000
# 4 0.0000 0.0000 0.0000 13.9587 0.0000 0.0000
# 5 0.0000 0.0000 0.0000 0.0000 34.9223 0.0000
# 6 0.0000 0.0000 0.0000 0.0000 0.0000 -8.6937
#
#
#
# Elastic Compliance Matrix: (Units=1/GPa)
#
#
# Indices 1 2 3 4 5 6 
#
# 1 0.019680 -0.011815 -0.007218 0.000000 0.000000 0.000000
# 2 -0.011815 0.032150 0.003359 0.000000 0.000000 0.000000
# 3 -0.007218 0.003359 0.024288 0.000000 0.000000 0.000000
# 4 0.000000 0.000000 0.000000 0.071640 0.000000 0.000000
# 5 0.000000 0.000000 0.000000 0.000000 0.028635 0.000000
# 6 0.000000 0.000000 0.000000 0.000000 0.000000 -0.115026
#
#
# Mechanical properties :
#
#
# Convention : Reuss Voigt Hill
#
# Bulk Modulus (GPa) = 22.33715 27.50699 24.92207
# Shear Modulus (GPa) = 46.45159 15.63682 31.04421
#
# Velocity S-wave (km/s) = 4.92931 2.85996 4.02973
# Velocity P-wave (km/s) = 6.63940 5.02934 5.88965
#
# Compressibility (1/GPa) = 0.04476847
#
# Stress axis : x y z
#
# Youngs Moduli (GPa) = 50.81297 31.10408 41.17267
#
# Poissons Ratio (x) = 0.36750 0.29720
# Poissons Ratio (y) = 0.60036 -0.13829
# Poissons Ratio (z) = 0.36679 -0.10447
#
# Static dielectric constant tensor:
#      x y z
#    x 1.712120 0.000000 0.000000 
#    y 0.000000 1.615910 0.000000 
#    z 0.000000 0.000000 1.644290 
# 
# From -- ./inp_files/2295.got.cif
#   From: 2010.05.17/outbox.cif.g08.bks.cpg/sg29_2_cif.got.tgz:2295.got - 2010.06.04 01:19:37.
