data_PCOD9340695
_publ_section_title
;
Structure prediction by ZEFSAII (Michael W. Deem and Ramdas Pophale) SiO2 
 PCOD9340695
Probable space group: P C A 21
;
_chemical_formula_sum "Si O2"
_cell_formula_units_Z 24
_cell_length_a 8.521173
_cell_length_b 8.576961
_cell_length_c 13.771193
_cell_angle_alpha 90.000000
_cell_angle_beta 90.000000
_cell_angle_gamma 90.000000
_cell_volume 1006.478224
_symmetry_space_group_name_H-M "P C A 21"
_symmetry_group_IT_number 29
_symmetry_cell_setting 'orthorhombic'
loop_
_space_group_symop_operation_xyz
x,y,z
-x,-y,1/2+z
1/2-x,y,1/2+z
1/2+x,-y,z
loop_
_atom_site_type_symbol
_atom_site_label
_atom_site_fract_x
_atom_site_fract_y
_atom_site_fract_z
Si Si1 0.420398 0.843962 0.261270
Si Si2 0.360059 0.437550 0.710813
Si Si3 0.157686 0.235461 0.588552
Si Si4 0.000625 0.499901 0.498681
Si Si5 0.230303 0.663162 0.382807
Si Si6 0.861338 0.041598 0.644026
O O1 0.515443 0.683836 0.253450
O O2 0.312137 0.826619 0.356116
O O3 0.294061 0.866471 0.175050
O O4 0.548811 0.976166 0.240446
O O5 0.204223 0.337075 0.684166
O O6 0.428183 0.484729 0.605750
O O7 0.327802 0.578055 0.783989
O O8 0.130643 0.361834 0.505258
O O9 0.992545 0.146705 0.595195
O O10 0.296616 0.107981 0.584582
O O11 0.867311 0.441133 0.427979
O O12 0.087614 0.652672 0.458485
#
# Coordination Sequence:
#
# PCOD9340695 Si02
#       6
#     4   4   4   4   4   4
#     4  10  21  41  66  94 130 175 223 270 340 406
#     4  11  23  42  68 100 139 174 221 302 348 401
#     4  10  21  41  66  94 130 174 226 269 339 409
#     4  12  25  41  67 104 136 178 229 291 357 406
#     4  12  25  41  67 104 136 176 230 290 358 409
#     4   9  21  40  70  90 129 191 215 268 344 409
#
# _framework density 23.845521999999999
#
# number of rings (size 3 to 8) (size 9 to 14) (size 15 to 20)
#    0.000    1.333    3.333    2.000    4.667    0.000 
#    0.000    1.667    0.000    0.000    0.000    0.000 
#    0.000    0.000    0.000    0.000    0.000    0.000 
#
# Total GULP energy -133992.580026 kJ/mol
# GULP energy per Si atom -5583.024168 kJ/mol
# Density = 2.379125 g / cm^3
# Si number density = 23.845522 Si / 1000 Ang^3
#
#
#
# Elastic Constant Matrix: (Units=GPa)
#
#
# Indices 1 2 3 4 5 6 
#
# 1 110.4055 11.2802 25.3077 0.0000 0.0000 0.0000
# 2 11.2802 33.8822 1.0316 0.0000 0.0000 0.0000
# 3 25.3077 1.0316 80.2832 0.0000 0.0000 0.0000
# 4 0.0000 0.0000 0.0000 29.4085 0.0000 0.0000
# 5 0.0000 0.0000 0.0000 0.0000 33.9080 0.0000
# 6 0.0000 0.0000 0.0000 0.0000 0.0000 45.7982
#
#
#
# Elastic Compliance Matrix: (Units=1/GPa)
#
#
# Indices 1 2 3 4 5 6 
#
# 1 0.010113 -0.003271 -0.003146 0.000000 0.000000 0.000000
# 2 -0.003271 0.030584 0.000638 0.000000 0.000000 0.000000
# 3 -0.003146 0.000638 0.013439 0.000000 0.000000 0.000000
# 4 0.000000 0.000000 0.000000 0.034004 0.000000 0.000000
# 5 0.000000 0.000000 0.000000 0.000000 0.029492 0.000000
# 6 0.000000 0.000000 0.000000 0.000000 0.000000 0.021835
#
#
# Mechanical properties :
#
#
# Convention : Reuss Voigt Hill
#
# Bulk Modulus (GPa) = 23.48610 33.31220 28.39915
# Shear Modulus (GPa) = 30.26336 34.28637 32.27486
#
# Velocity S-wave (km/s) = 3.56637 3.79602 3.68298
# Velocity P-wave (km/s) = 5.17970 5.76310 5.47917
#
# Compressibility (1/GPa) = 0.04257838
#
# Stress axis : x y z
#
# Youngs Moduli (GPa) = 98.88436 32.69726 74.40825
#
# Poissons Ratio (x) = 0.10695 0.23408
# Poissons Ratio (y) = 0.32345 -0.04748
# Poissons Ratio (z) = 0.31107 -0.02087
#
# Static dielectric constant tensor:
#      x y z
#    x 1.954450 0.000000 0.000000 
#    y 0.000000 1.929010 0.000000 
#    z 0.000000 0.000000 1.935030 
# 
# From -- ./inp_files/4204.got.cif
#   From: 2010.05.17/outbox.cif.g08.bks.cpg/sg29_3_cif.got.tgz:4204.got - 2010.06.04 01:19:37.
