data_PCOD9340018
_publ_section_title
;
Structure prediction by ZEFSAII (Michael W. Deem and Ramdas Pophale) SiO2 
 PCOD9340018
Probable space group: P C A 21
;
_chemical_formula_sum "Si O2"
_cell_formula_units_Z 32
_cell_length_a 19.089665
_cell_length_b 7.975410
_cell_length_c 7.840958
_cell_angle_alpha 90.000000
_cell_angle_beta 90.000000
_cell_angle_gamma 90.000000
_cell_volume 1193.769430
_symmetry_space_group_name_H-M "P C A 21"
_symmetry_group_IT_number 29
_symmetry_cell_setting 'orthorhombic'
loop_
_space_group_symop_operation_xyz
x,y,z
-x,-y,1/2+z
1/2-x,y,1/2+z
1/2+x,-y,z
loop_
_atom_site_type_symbol
_atom_site_label
_atom_site_fract_x
_atom_site_fract_y
_atom_site_fract_z
Si Si1 0.278159 0.537649 0.334090
Si Si2 0.187126 0.193813 0.343312
Si Si3 0.844245 0.322191 0.992816
Si Si4 0.177642 0.045035 0.971511
Si Si5 0.593586 0.644403 0.884403
Si Si6 0.468899 0.847602 0.934505
Si Si7 0.937950 0.614087 0.994513
Si Si8 0.942252 0.172338 0.528982
O O1 0.231145 0.368168 0.325118
O O2 0.223654 0.684800 0.376115
O O3 0.311408 0.586609 0.155235
O O4 0.345521 0.481885 0.447778
O O5 0.168220 0.119091 0.161030
O O6 0.240801 0.064784 0.431316
O O7 0.116547 0.240455 0.441189
O O8 0.901659 0.451339 0.914413
O O9 0.894799 0.168036 0.031173
O O10 0.136289 0.869974 0.969655
O O11 0.136421 0.180049 0.855888
O O12 0.526316 0.705818 0.990419
O O13 0.566289 0.594437 0.698217
O O14 0.449247 0.833015 0.734091
O O15 0.509883 0.018127 0.966332
O O16 0.017441 0.665948 0.955756
#
# Coordination Sequence:
#
# PCOD9340018 Si02
#       8
#     4   4   4   4   4   4   4   4
#     4   9  17  34  58  85 119 152 190 246 300 349
#     4  10  17  30  55  88 116 155 204 240 292 362
#     4  10  20  37  61  88 118 153 194 241 296 355
#     4  10  18  30  53  81 113 152 199 243 283 346
#     4   8  16  33  56  82 109 146 193 239 288 344
#     4  10  21  39  61  86 118 158 202 245 291 349
#     4   9  18  35  60  84 112 150 198 252 297 346
#     4  10  21  40  60  84 119 156 198 248 295 345
#
# _framework density 26.805848999999998
#
# number of rings (size 3 to 8) (size 9 to 14) (size 15 to 20)
#    0.000    2.500    0.000    4.500    0.000    0.000 
#    0.000   26.250    0.000    4.500    0.000    0.000 
#    0.000    0.000    0.000    0.000    0.000    0.000 
#
# Total GULP energy -178905.083736 kJ/mol
# GULP energy per Si atom -5590.783867 kJ/mol
# Density = 2.674484 g / cm^3
# Si number density = 26.805849 Si / 1000 Ang^3
#
#
#
# Elastic Constant Matrix: (Units=GPa)
#
#
# Indices 1 2 3 4 5 6 
#
# 1 165.1248 26.8665 12.1166 0.0000 0.0000 0.0000
# 2 26.8665 81.4705 7.8846 0.0000 0.0000 0.0000
# 3 12.1166 7.8846 65.7296 0.0000 0.0000 0.0000
# 4 0.0000 0.0000 0.0000 6.7914 0.0000 0.0000
# 5 0.0000 0.0000 0.0000 0.0000 19.8256 0.0000
# 6 0.0000 0.0000 0.0000 0.0000 0.0000 57.2091
#
#
#
# Elastic Compliance Matrix: (Units=1/GPa)
#
#
# Indices 1 2 3 4 5 6 
#
# 1 0.006457 -0.002038 -0.000946 0.000000 0.000000 0.000000
# 2 -0.002038 0.013062 -0.001191 0.000000 0.000000 0.000000
# 3 -0.000946 -0.001191 0.015531 0.000000 0.000000 0.000000
# 4 0.000000 0.000000 0.000000 0.147246 0.000000 0.000000
# 5 0.000000 0.000000 0.000000 0.000000 0.050440 0.000000
# 6 0.000000 0.000000 0.000000 0.000000 0.000000 0.017480
#
#
# Mechanical properties :
#
#
# Convention : Reuss Voigt Hill
#
# Bulk Modulus (GPa) = 37.45295 45.11780 41.28538
# Shear Modulus (GPa) = 18.69405 34.46236 26.57821
#
# Velocity S-wave (km/s) = 2.64367 3.58946 3.15224
# Velocity P-wave (km/s) = 4.82918 5.83496 5.35573
#
# Compressibility (1/GPa) = 0.02670017
#
# Stress axis : x y z
#
# Youngs Moduli (GPa) = 154.87103 76.55998 64.38694
#
# Poissons Ratio (x) = 0.15601 0.06090
# Poissons Ratio (y) = 0.31559 0.07670
# Poissons Ratio (z) = 0.14648 0.09120
#
# Static dielectric constant tensor:
#      x y z
#    x 2.151560 0.000000 0.000000 
#    y 0.000000 2.216240 0.000000 
#    z 0.000000 0.000000 2.032220 
# 
# From -- ./inp_files/2340.got.cif
#   From: 2010.05.17/outbox.cif.g08.bks.cpg/sg29_2_cif.got.tgz:2340.got - 2010.06.04 01:19:37.
