data_PCOD9340954
_publ_section_title
;
Structure prediction by ZEFSAII (Michael W. Deem and Ramdas Pophale) SiO2 
 PCOD9340954
Probable space group: P C A 21
;
_chemical_formula_sum "Si O2"
_cell_formula_units_Z 24
_cell_length_a 5.734827
_cell_length_b 18.969804
_cell_length_c 8.541968
_cell_angle_alpha 90.000000
_cell_angle_beta 90.000000
_cell_angle_gamma 90.000000
_cell_volume 929.268263
_symmetry_space_group_name_H-M "P C A 21"
_symmetry_group_IT_number 29
_symmetry_cell_setting 'orthorhombic'
loop_
_space_group_symop_operation_xyz
x,y,z
-x,-y,1/2+z
1/2-x,y,1/2+z
1/2+x,-y,z
loop_
_atom_site_type_symbol
_atom_site_label
_atom_site_fract_x
_atom_site_fract_y
_atom_site_fract_z
Si Si1 0.417256 0.349268 0.024550
Si Si2 0.801019 0.363275 0.842571
Si Si3 0.544157 0.960177 0.509095
Si Si4 0.924261 0.764894 0.500790
Si Si5 0.695921 0.863427 0.242272
Si Si6 0.747372 0.501917 0.061698
O O1 0.590305 0.364873 0.171218
O O2 0.260453 0.418202 0.998613
O O3 0.533439 0.339226 0.854409
O O4 0.293986 0.278252 0.068166
O O5 0.919166 0.299555 0.939382
O O6 0.772237 0.439984 0.930579
O O7 0.564887 0.923273 0.340083
O O8 0.608008 0.900190 0.635137
O O9 0.281680 0.991174 0.522535
O O10 0.831674 0.812955 0.361214
O O11 0.987930 0.819026 0.637697
O O12 0.497539 0.503133 0.146576
#
# Coordination Sequence:
#
# PCOD9340954 Si02
#       6
#     4   4   4   4   4   4
#     4  11  25  44  68  99 141 195 253 319 379 443
#     4  11  25  44  68  99 141 195 253 319 379 443
#     4  11  24  50  78 112 149 188 238 294 355 430
#     4  11  22  48  64 102 149 188 246 300 377 436
#     4  10  24  44  72 110 144 192 240 294 362 448
#     4  10  22  42  68 100 130 188 248 314 372 432
#
# _framework density 25.826771000000001
#
# number of rings (size 3 to 8) (size 9 to 14) (size 15 to 20)
#    0.000    1.333    3.333    1.000    2.333    5.333 
#   18.000    0.000    0.000    0.000    0.000    0.000 
#    0.000    0.000    0.000    0.000    0.000    0.000 
#
# Total GULP energy -133881.431900 kJ/mol
# GULP energy per Si atom -5578.392996 kJ/mol
# Density = 2.576799 g / cm^3
# Si number density = 25.826771 Si / 1000 Ang^3
#
#
#
# Elastic Constant Matrix: (Units=GPa)
#
#
# Indices 1 2 3 4 5 6 
#
# 1 111.2223 32.5945 24.6263 0.0000 0.0000 0.0000
# 2 32.5945 131.1148 53.8837 0.0000 0.0000 0.0000
# 3 24.6263 53.8837 108.3203 0.0000 0.0000 0.0000
# 4 0.0000 0.0000 0.0000 61.0913 0.0000 0.0000
# 5 0.0000 0.0000 0.0000 0.0000 29.5669 0.0000
# 6 0.0000 0.0000 0.0000 0.0000 0.0000 21.7776
#
#
#
# Elastic Compliance Matrix: (Units=1/GPa)
#
#
# Indices 1 2 3 4 5 6 
#
# 1 0.009837 -0.001919 -0.001282 0.000000 0.000000 0.000000
# 2 -0.001919 0.009961 -0.004519 0.000000 0.000000 0.000000
# 3 -0.001282 -0.004519 0.011771 0.000000 0.000000 0.000000
# 4 0.000000 0.000000 0.000000 0.016369 0.000000 0.000000
# 5 0.000000 0.000000 0.000000 0.000000 0.033822 0.000000
# 6 0.000000 0.000000 0.000000 0.000000 0.000000 0.045919
#
#
# Mechanical properties :
#
#
# Convention : Reuss Voigt Hill
#
# Bulk Modulus (GPa) = 61.99503 63.65183 62.82343
# Shear Modulus (GPa) = 33.67133 38.45736 36.06434
#
# Velocity S-wave (km/s) = 3.61465 3.86301 3.74089
# Velocity P-wave (km/s) = 6.44028 6.67805 6.56024
#
# Compressibility (1/GPa) = 0.01613033
#
# Stress axis : x y z
#
# Youngs Moduli (GPa) = 101.65577 100.39205 84.95281
#
# Poissons Ratio (x) = 0.19261 0.10891
# Poissons Ratio (y) = 0.19504 0.38389
# Poissons Ratio (z) = 0.13033 0.45366
#
# Static dielectric constant tensor:
#      x y z
#    x 2.177500 0.000000 0.000000 
#    y 0.000000 2.029330 0.000000 
#    z 0.000000 0.000000 2.013660 
# 
# From -- ./inp_files/991.got.cif
#   From: 2010.05.17/outbox.cif.g08.bks.cpg/sg29_1_cif.got.tgz:991.got - 2010.06.04 01:19:37.
