data_PCOD9340574
_publ_section_title
;
Structure prediction by ZEFSAII (Michael W. Deem and Ramdas Pophale) SiO2 
 PCOD9340574
Probable space group: P C A 21
;
_chemical_formula_sum "Si O2"
_cell_formula_units_Z 28
_cell_length_a 10.284909
_cell_length_b 5.394001
_cell_length_c 19.898875
_cell_angle_alpha 90.000000
_cell_angle_beta 90.000000
_cell_angle_gamma 90.000000
_cell_volume 1103.926096
_symmetry_space_group_name_H-M "P C A 21"
_symmetry_group_IT_number 29
_symmetry_cell_setting 'orthorhombic'
loop_
_space_group_symop_operation_xyz
x,y,z
-x,-y,1/2+z
1/2-x,y,1/2+z
1/2+x,-y,z
loop_
_atom_site_type_symbol
_atom_site_label
_atom_site_fract_x
_atom_site_fract_y
_atom_site_fract_z
Si Si1 0.684876 0.813085 0.576680
Si Si2 0.506721 0.741345 0.453651
Si Si3 0.698594 0.004393 0.799082
Si Si4 0.095216 0.686480 0.609855
Si Si5 0.297355 0.488701 0.847151
Si Si6 0.437225 0.225966 0.736262
Si Si7 0.074550 0.247299 0.980905
O O1 0.556774 0.790974 0.529311
O O2 0.679613 0.560075 0.618487
O O3 0.803629 0.830912 0.525551
O O4 0.674748 0.062175 0.618173
O O5 0.619873 0.620654 0.409024
O O6 0.400009 0.523793 0.453231
O O7 0.463882 0.017945 0.433192
O O8 0.749087 0.229762 0.846481
O O9 0.565249 0.098389 0.767511
O O10 0.692705 0.729395 0.831577
O O11 0.815802 0.957561 0.745876
O O12 0.976377 0.694527 0.661682
O O13 0.043245 0.702751 0.533320
O O14 0.395296 0.455886 0.783207
#
# Coordination Sequence:
#
# PCOD9340574 Si02
#       7
#     4   4   4   4   4   4   4
#     4  10  22  38  60  89 123 162 212 258 326 374
#     4  10  21  40  60  92 121 163 208 260 317 385
#     4  10  25  41  65  93 129 168 219 266 327 388
#     4  10  23  37  60  87 124 160 214 257 323 379
#     4  10  24  40  65  94 132 167 224 263 334 385
#     4  10  26  42  66  95 133 173 221 269 332 393
#     4  10  21  38  62  90 122 163 206 265 317 378
#
# _framework density 25.364014999999998
#
# number of rings (size 3 to 8) (size 9 to 14) (size 15 to 20)
#    0.857    1.143    0.000    1.714    6.000    3.429 
#    0.000    0.000    0.000    0.000    0.000    0.000 
#    0.000    0.000    0.000    0.000    0.000    0.000 
#
# Total GULP energy -156442.869485 kJ/mol
# GULP energy per Si atom -5587.245339 kJ/mol
# Density = 2.530629 g / cm^3
# Si number density = 25.364015 Si / 1000 Ang^3
#
#
#
# Elastic Constant Matrix: (Units=GPa)
#
#
# Indices 1 2 3 4 5 6 
#
# 1 77.7402 16.4016 -2.9244 0.0000 0.0000 0.0000
# 2 16.4016 129.5295 5.6453 0.0000 0.0000 0.0000
# 3 -2.9244 5.6453 60.3231 0.0000 0.0000 0.0000
# 4 0.0000 0.0000 0.0000 8.6228 0.0000 0.0000
# 5 0.0000 0.0000 0.0000 0.0000 51.0227 0.0000
# 6 0.0000 0.0000 0.0000 0.0000 0.0000 -111.9229
#
#
#
# Elastic Compliance Matrix: (Units=1/GPa)
#
#
# Indices 1 2 3 4 5 6 
#
# 1 0.013255 -0.001713 0.000803 0.000000 0.000000 0.000000
# 2 -0.001713 0.007973 -0.000829 0.000000 0.000000 0.000000
# 3 0.000803 -0.000829 0.016694 0.000000 0.000000 0.000000
# 4 0.000000 0.000000 0.000000 0.115972 0.000000 0.000000
# 5 0.000000 0.000000 0.000000 0.000000 0.019599 0.000000
# 6 0.000000 0.000000 0.000000 0.000000 0.000000 -0.008935
#
#
# Mechanical properties :
#
#
# Convention : Reuss Voigt Hill
#
# Bulk Modulus (GPa) = 29.03356 33.98199 31.50778
# Shear Modulus (GPa) = 27.85223 6.10920 16.98072
#
# Velocity S-wave (km/s) = 3.31735 1.55365 2.59024
# Velocity P-wave (km/s) = 5.11319 4.07986 4.62547
#
# Compressibility (1/GPa) = 0.03444289
#
# Stress axis : x y z
#
# Youngs Moduli (GPa) = 75.44287 125.41778 59.90202
#
# Poissons Ratio (x) = 0.21489 -0.04810
# Poissons Ratio (y) = 0.12926 0.04967
# Poissons Ratio (z) = -0.06058 0.10400
#
# Static dielectric constant tensor:
#      x y z
#    x 1.988240 0.000000 0.000000 
#    y 0.000000 2.031910 0.000000 
#    z 0.000000 0.000000 2.050060 
# 
# From -- ./inp_files/5109.got.cif
#   From: 2010.05.17/outbox.cif.g08.bks.cpg/sg29_3_cif.got.tgz:5109.got - 2010.06.04 01:19:37.
