data_PCOD9340959
_publ_section_title
;
Structure prediction by ZEFSAII (Michael W. Deem and Ramdas Pophale) SiO2 
 PCOD9340959
Probable space group: P C A 21
;
_chemical_formula_sum "Si O2"
_cell_formula_units_Z 32
_cell_length_a 13.521321
_cell_length_b 5.063199
_cell_length_c 19.300912
_cell_angle_alpha 90.000000
_cell_angle_beta 90.000000
_cell_angle_gamma 90.000000
_cell_volume 1321.362419
_symmetry_space_group_name_H-M "P C A 21"
_symmetry_group_IT_number 29
_symmetry_cell_setting 'orthorhombic'
loop_
_space_group_symop_operation_xyz
x,y,z
-x,-y,1/2+z
1/2-x,y,1/2+z
1/2+x,-y,z
loop_
_atom_site_type_symbol
_atom_site_label
_atom_site_fract_x
_atom_site_fract_y
_atom_site_fract_z
Si Si1 0.287205 0.559240 0.928880
Si Si2 0.907691 0.998912 0.261726
Si Si3 0.864642 0.167828 0.123296
Si Si4 0.014147 0.877300 0.398770
Si Si5 0.729950 0.668587 0.137765
Si Si6 0.104573 0.478280 0.007594
Si Si7 0.427587 0.208268 0.009399
Si Si8 0.773077 0.505185 0.277766
O O1 0.376619 0.756357 0.910298
O O2 0.262663 0.431888 0.854721
O O3 0.189390 0.656579 0.969457
O O4 0.329840 0.346642 0.982744
O O5 0.938965 0.109479 0.186771
O O6 0.987749 0.947479 0.320684
O O7 0.857889 0.712529 0.257636
O O8 0.823078 0.215227 0.282200
O O9 0.774192 0.963730 0.139840
O O10 0.907417 0.054100 0.052428
O O11 0.819472 0.458607 0.121766
O O12 0.936990 0.704472 0.444536
O O13 0.016501 0.152806 0.437801
O O14 0.655482 0.658935 0.073772
O O15 0.697536 0.558702 0.213942
O O16 0.010251 0.614351 0.044131
#
# Coordination Sequence:
#
# PCOD9340959 Si02
#       8
#     4   4   4   4   4   4   4   4
#     4  11  23  41  64  95 132 176 223 279 332 401
#     4  10  22  43  68  96 134 173 219 274 332 399
#     4  10  22  43  68  96 134 173 219 274 332 399
#     4  11  25  39  64  99 132 178 225 277 341 398
#     4  10  22  42  69  96 128 175 220 270 333 396
#     4  11  23  41  64  95 132 176 223 279 332 401
#     4  11  25  39  64  99 132 178 225 277 341 398
#     4  10  22  42  69  96 128 175 220 270 333 396
#
# _framework density 24.217427000000001
#
# number of rings (size 3 to 8) (size 9 to 14) (size 15 to 20)
#    0.000    1.500    2.500    1.500    7.000    2.000 
#    0.000    1.250    0.000    0.000    0.000    0.000 
#    0.000    0.000    0.000    0.000    0.000    0.000 
#
# Total GULP energy -178525.666229 kJ/mol
# GULP energy per Si atom -5578.927070 kJ/mol
# Density = 2.416231 g / cm^3
# Si number density = 24.217427 Si / 1000 Ang^3
#
#
#
# Elastic Constant Matrix: (Units=GPa)
#
#
# Indices 1 2 3 4 5 6 
#
# 1 64.0479 10.7233 23.2853 0.0000 0.0000 0.0000
# 2 10.7233 74.9241 -0.8146 0.0000 0.0000 0.0000
# 3 23.2853 -0.8146 132.9391 0.0000 0.0000 0.0000
# 4 0.0000 0.0000 0.0000 31.2551 0.0000 0.0000
# 5 0.0000 0.0000 0.0000 0.0000 28.1492 0.0000
# 6 0.0000 0.0000 0.0000 0.0000 0.0000 3.7086
#
#
#
# Elastic Compliance Matrix: (Units=1/GPa)
#
#
# Indices 1 2 3 4 5 6 
#
# 1 0.017125 -0.002484 -0.003015 0.000000 0.000000 0.000000
# 2 -0.002484 0.013708 0.000519 0.000000 0.000000 0.000000
# 3 -0.003015 0.000519 0.008053 0.000000 0.000000 0.000000
# 4 0.000000 0.000000 0.000000 0.031995 0.000000 0.000000
# 5 0.000000 0.000000 0.000000 0.000000 0.035525 0.000000
# 6 0.000000 0.000000 0.000000 0.000000 0.000000 0.269644
#
#
# Mechanical properties :
#
#
# Convention : Reuss Voigt Hill
#
# Bulk Modulus (GPa) = 34.56909 37.58879 36.07894
# Shear Modulus (GPa) = 12.63735 28.53704 20.58720
#
# Velocity S-wave (km/s) = 2.28684 3.43646 2.91881
# Velocity P-wave (km/s) = 4.61284 5.59471 5.12733
#
# Compressibility (1/GPa) = 0.02892757
#
# Stress axis : x y z
#
# Youngs Moduli (GPa) = 58.39334 72.95027 124.16973
#
# Poissons Ratio (x) = 0.18119 0.37435
# Poissons Ratio (y) = 0.14504 -0.06445
# Poissons Ratio (z) = 0.17605 -0.03786
#
# Static dielectric constant tensor:
#      x y z
#    x 2.037640 0.000000 0.000000 
#    y 0.000000 1.942770 0.000000 
#    z 0.000000 0.000000 2.024760 
# 
# From -- ./inp_files/5231.got.cif
#   From: 2010.05.17/outbox.cif.g08.bks.cpg/sg29_3_cif.got.tgz:5231.got - 2010.06.04 01:19:37.
