data_PCOD9340484
_publ_section_title
;
Structure prediction by ZEFSAII (Michael W. Deem and Ramdas Pophale) SiO2 
 PCOD9340484
Probable space group: P C A 21
;
_chemical_formula_sum "Si O2"
_cell_formula_units_Z 20
_cell_length_a 11.228743
_cell_length_b 7.114764
_cell_length_c 8.730601
_cell_angle_alpha 90.000000
_cell_angle_beta 90.000000
_cell_angle_gamma 90.000000
_cell_volume 697.486461
_symmetry_space_group_name_H-M "P C A 21"
_symmetry_group_IT_number 29
_symmetry_cell_setting 'orthorhombic'
loop_
_space_group_symop_operation_xyz
x,y,z
-x,-y,1/2+z
1/2-x,y,1/2+z
1/2+x,-y,z
loop_
_atom_site_type_symbol
_atom_site_label
_atom_site_fract_x
_atom_site_fract_y
_atom_site_fract_z
Si Si1 0.148340 0.222439 0.076140
Si Si2 0.508489 0.448998 0.132987
Si Si3 0.170383 0.545519 0.856669
Si Si4 0.251412 0.941531 0.887644
Si Si5 0.499316 0.922703 0.831342
O O1 0.109704 0.397160 0.181280
O O2 0.203185 0.345020 0.929946
O O3 0.020717 0.152391 0.005347
O O4 0.229957 0.038955 0.052755
O O5 0.379202 0.522976 0.185039
O O6 0.550036 0.413408 0.959394
O O7 0.512735 0.250913 0.217787
O O8 0.258896 0.716290 0.886035
O O9 0.374024 0.027728 0.822456
O O10 0.123077 0.972819 0.808654
#
# Coordination Sequence:
#
# PCOD9340484 Si02
#       5
#     4   4   4   4   4
#     4   7  19  39  63  94 133 172 232 271 348 400
#     4   9  18  43  64 103 132 189 226 293 347 421
#     4   9  19  39  68  92 142 178 236 283 348 419
#     4  10  20  42  66  99 135 182 233 286 344 416
#     4   9  20  41  67 102 134 179 233 287 343 418
#
# _framework density 28.674391
#
# number of rings (size 3 to 8) (size 9 to 14) (size 15 to 20)
#    2.400    0.800    0.000    0.000    0.000    1.600 
#   10.800    2.000    0.000    0.000    0.000    0.000 
#    0.000    0.000    0.000    0.000    0.000    0.000 
#
# Total GULP energy -111359.107536 kJ/mol
# GULP energy per Si atom -5567.955377 kJ/mol
# Density = 2.860913 g / cm^3
# Si number density = 28.674391 Si / 1000 Ang^3
#
#
#
# Elastic Constant Matrix: (Units=GPa)
#
#
# Indices 1 2 3 4 5 6 
#
# 1 151.7516 23.6369 32.4482 0.0000 0.0000 0.0000
# 2 23.6369 90.7636 -32.4765 0.0000 0.0000 0.0000
# 3 32.4482 -32.4765 48.5812 0.0000 0.0000 0.0000
# 4 0.0000 0.0000 0.0000 -83.0241 0.0000 0.0000
# 5 0.0000 0.0000 0.0000 0.0000 46.4219 0.0000
# 6 0.0000 0.0000 0.0000 0.0000 0.0000 28.4480
#
#
#
# Elastic Compliance Matrix: (Units=1/GPa)
#
#
# Indices 1 2 3 4 5 6 
#
# 1 0.009968 -0.006543 -0.011032 0.000000 0.000000 0.000000
# 2 -0.006543 0.018777 0.016922 0.000000 0.000000 0.000000
# 3 -0.011032 0.016922 0.039265 0.000000 0.000000 0.000000
# 4 0.000000 0.000000 0.000000 -0.012045 0.000000 0.000000
# 5 0.000000 0.000000 0.000000 0.000000 0.021542 0.000000
# 6 0.000000 0.000000 0.000000 0.000000 0.000000 0.035152
#
#
# Mechanical properties :
#
#
# Convention : Reuss Voigt Hill
#
# Bulk Modulus (GPa) = 14.99144 37.59040 26.29092
# Shear Modulus (GPa) = 36.71135 16.20168 26.45651
#
# Velocity S-wave (km/s) = 3.58199 2.37960 3.04082
# Velocity P-wave (km/s) = 4.72726 4.54839 4.63869
#
# Compressibility (1/GPa) = 0.06670474
#
# Stress axis : x y z
#
# Youngs Moduli (GPa) = 100.32392 53.25753 25.46799
#
# Poissons Ratio (x) = 0.34847 0.28095
# Poissons Ratio (y) = 0.65643 -0.43098
# Poissons Ratio (z) = 1.10674 -0.90125
#
# Static dielectric constant tensor:
#      x y z
#    x 2.203050 0.000000 0.000000 
#    y 0.000000 2.856290 0.000000 
#    z 0.000000 0.000000 2.538780 
# 
# From -- ./inp_files/3062.got.cif
#   From: 2010.05.17/outbox.cif.g08.bks.cpg/sg29_2_cif.got.tgz:3062.got - 2010.06.04 01:19:37.
