data_PCOD9340153
_publ_section_title
;
Structure prediction by ZEFSAII (Michael W. Deem and Ramdas Pophale) SiO2 
 PCOD9340153
Probable space group: P C A 21
;
_chemical_formula_sum "Si O2"
_cell_formula_units_Z 32
_cell_length_a 16.922925
_cell_length_b 5.777292
_cell_length_c 14.877824
_cell_angle_alpha 90.000000
_cell_angle_beta 90.000000
_cell_angle_gamma 90.000000
_cell_volume 1454.585202
_symmetry_space_group_name_H-M "P C A 21"
_symmetry_group_IT_number 29
_symmetry_cell_setting 'orthorhombic'
loop_
_space_group_symop_operation_xyz
x,y,z
-x,-y,1/2+z
1/2-x,y,1/2+z
1/2+x,-y,z
loop_
_atom_site_type_symbol
_atom_site_label
_atom_site_fract_x
_atom_site_fract_y
_atom_site_fract_z
Si Si1 0.895077 0.136663 0.218380
Si Si2 0.500000 0.210829 0.331500
Si Si3 0.139996 0.496918 0.288222
Si Si4 0.777877 0.756336 0.223079
Si Si5 0.360004 0.503082 0.374779
Si Si6 0.722123 0.243664 0.439922
Si Si7 0.604923 0.863337 0.444621
Si Si8 0.612589 0.500000 0.581500
O O1 0.884685 0.314102 0.299282
O O2 0.926320 0.281213 0.132600
O O3 0.809251 0.014265 0.202706
O O4 0.951746 0.941418 0.259714
O O5 0.559613 0.365161 0.271546
O O6 0.440386 0.365161 0.391455
O O7 0.548254 0.058582 0.403287
O O8 0.189314 0.344233 0.217407
O O9 0.196056 0.688049 0.337754
O O10 0.115315 0.314102 0.363719
O O11 0.803944 0.688049 0.325247
O O12 0.831355 0.606568 0.157093
O O13 0.310686 0.655767 0.445594
O O14 0.668645 0.393432 0.505908
O O15 0.690749 0.985735 0.460295
O O16 0.573680 0.718787 0.530401
#
# Coordination Sequence:
#
# PCOD9340153 Si02
#       8
#     4   4   4   4   4   4   4   4
#     4  10  19  34  57  86 117 155 199 245 299 352
#     4  10  20  34  56  86 120 156 194 244 300 360
#     4   9  18  33  55  84 112 146 197 246 293 351
#     4   9  18  33  56  83 110 145 197 252 292 339
#     4   9  18  33  55  84 112 146 197 246 293 351
#     4   9  18  33  56  83 110 145 197 252 292 339
#     4  10  19  34  57  86 117 155 199 245 299 352
#     4  10  20  34  56  86 116 152 202 248 292 350
#
# _framework density 21.999399
#
# number of rings (size 3 to 8) (size 9 to 14) (size 15 to 20)
#    0.000    2.500    0.000    2.250    0.000    2.000 
#    0.000    0.000    0.000   36.000    0.000    0.000 
#    0.000    0.000    0.000    0.000    0.000    1.625 
#
# Total GULP energy -178138.045482 kJ/mol
# GULP energy per Si atom -5566.813921 kJ/mol
# Density = 2.194933 g / cm^3
# Si number density = 21.999399 Si / 1000 Ang^3
#
#
#
# Elastic Constant Matrix: (Units=GPa)
#
#
# Indices 1 2 3 4 5 6 
#
# 1 87.1937 48.7756 17.5967 0.0000 0.0000 0.0000
# 2 48.7756 120.4603 29.2918 0.0000 0.0000 0.0000
# 3 17.5967 29.2918 43.7261 0.0000 0.0000 0.0000
# 4 0.0000 0.0000 0.0000 38.4002 0.0000 0.0000
# 5 0.0000 0.0000 0.0000 0.0000 9.8394 0.0000
# 6 0.0000 0.0000 0.0000 0.0000 0.0000 38.6908
#
#
#
# Elastic Compliance Matrix: (Units=1/GPa)
#
#
# Indices 1 2 3 4 5 6 
#
# 1 0.015027 -0.005512 -0.002355 0.000000 0.000000 0.000000
# 2 -0.005512 0.011939 -0.005779 0.000000 0.000000 0.000000
# 3 -0.002355 -0.005779 0.027689 0.000000 0.000000 0.000000
# 4 0.000000 0.000000 0.000000 0.026042 0.000000 0.000000
# 5 0.000000 0.000000 0.000000 0.000000 0.101632 0.000000
# 6 0.000000 0.000000 0.000000 0.000000 0.000000 0.025846
#
#
# Mechanical properties :
#
#
# Convention : Reuss Voigt Hill
#
# Bulk Modulus (GPa) = 36.54693 49.18981 42.86837
# Shear Modulus (GPa) = 20.44248 27.76714 24.10481
#
# Velocity S-wave (km/s) = 3.05163 3.55657 3.31373
# Velocity P-wave (km/s) = 5.39123 6.26687 5.84547
#
# Compressibility (1/GPa) = 0.02736208
#
# Stress axis : x y z
#
# Youngs Moduli (GPa) = 66.54503 83.76077 36.11552
#
# Poissons Ratio (x) = 0.46170 0.08505
# Poissons Ratio (y) = 0.36680 0.20873
# Poissons Ratio (z) = 0.15671 0.48409
#
# Static dielectric constant tensor:
#      x y z
#    x 1.900680 0.000000 0.000000 
#    y 0.000000 1.951760 0.000000 
#    z 0.000000 0.000000 1.813540 
# 
# From -- ./inp_files/4825.got.cif
#   From: 2010.05.17/outbox.cif.g08.bks.cpg/sg29_3_cif.got.tgz:4825.got - 2010.06.04 01:19:37.
