data_PCOD9340201
_publ_section_title
;
Structure prediction by ZEFSAII (Michael W. Deem and Ramdas Pophale) SiO2 
 PCOD9340201
Probable space group: P C A 21
;
_chemical_formula_sum "Si O2"
_cell_formula_units_Z 32
_cell_length_a 16.495690
_cell_length_b 15.762582
_cell_length_c 5.383501
_cell_angle_alpha 90.000000
_cell_angle_beta 90.000000
_cell_angle_gamma 90.000000
_cell_volume 1399.789216
_symmetry_space_group_name_H-M "P C A 21"
_symmetry_group_IT_number 29
_symmetry_cell_setting 'orthorhombic'
loop_
_space_group_symop_operation_xyz
x,y,z
-x,-y,1/2+z
1/2-x,y,1/2+z
1/2+x,-y,z
loop_
_atom_site_type_symbol
_atom_site_label
_atom_site_fract_x
_atom_site_fract_y
_atom_site_fract_z
Si Si1 0.995334 0.691255 0.930740
Si Si2 0.450984 0.520925 0.547454
Si Si3 0.200644 0.050437 0.428381
Si Si4 0.913997 0.716510 0.427947
Si Si5 0.486127 0.106692 0.931625
Si Si6 0.969246 0.132779 0.929277
Si Si7 0.296410 0.843578 0.927819
Si Si8 0.794908 0.594460 0.564807
O O1 0.967600 0.675085 0.648952
O O2 0.008622 0.791979 0.936418
O O3 0.061157 0.622261 0.007851
O O4 0.928402 0.681252 0.150984
O O5 0.488319 0.504607 0.821314
O O6 0.369554 0.468230 0.513956
O O7 0.249870 0.074551 0.678656
O O8 0.109860 0.089592 0.428892
O O9 0.196004 0.947000 0.428021
O O10 0.947657 0.812370 0.426805
O O11 0.825528 0.691320 0.518083
O O12 0.530087 0.080449 0.680344
O O13 0.529408 0.078139 0.182062
O O14 0.888685 0.189051 0.926994
O O15 0.249686 0.819079 0.678392
O O16 0.768753 0.580139 0.846100
#
# Coordination Sequence:
#
# PCOD9340201 Si02
#       8
#     4   4   4   4   4   4   4   4
#     4  10  19  37  58  84 109 152 211 230 291 351
#     4  12  21  38  67  86 113 165 208 241 292 367
#     4  10  21  38  58  88 128 166 197 247 316 359
#     4  10  20  38  59  85 119 161 198 241 298 363
#     4  10  21  36  60  87 120 156 210 244 298 360
#     4  10  21  37  59  88 118 160 213 248 295 369
#     4  10  21  38  62  88 122 160 201 260 315 352
#     4  12  24  38  59  94 125 150 196 253 309 359
#
# _framework density 22.860586999999999
#
# number of rings (size 3 to 8) (size 9 to 14) (size 15 to 20)
#    0.000    1.500    2.500    3.000    0.000    1.000 
#    0.000   15.000    0.000   18.000    0.000    0.000 
#    0.000    0.000    0.000    0.000    0.000    0.000 
#
# Total GULP energy -178517.657879 kJ/mol
# GULP energy per Si atom -5578.676809 kJ/mol
# Density = 2.280856 g / cm^3
# Si number density = 22.860587 Si / 1000 Ang^3
#
#
#
# Elastic Constant Matrix: (Units=GPa)
#
#
# Indices 1 2 3 4 5 6 
#
# 1 77.2875 -4.0064 40.4959 0.0000 0.0000 0.0000
# 2 -4.0064 66.6840 -15.2521 0.0000 0.0000 0.0000
# 3 40.4959 -15.2521 195.1689 0.0000 0.0000 0.0000
# 4 0.0000 0.0000 0.0000 71.1141 0.0000 0.0000
# 5 0.0000 0.0000 0.0000 0.0000 42.5583 0.0000
# 6 0.0000 0.0000 0.0000 0.0000 0.0000 29.5754
#
#
#
# Elastic Compliance Matrix: (Units=1/GPa)
#
#
# Indices 1 2 3 4 5 6 
#
# 1 0.014519 0.000187 -0.002998 0.000000 0.000000 0.000000
# 2 0.000187 0.015271 0.001155 0.000000 0.000000 0.000000
# 3 -0.002998 0.001155 0.005836 0.000000 0.000000 0.000000
# 4 0.000000 0.000000 0.000000 0.014062 0.000000 0.000000
# 5 0.000000 0.000000 0.000000 0.000000 0.023497 0.000000
# 6 0.000000 0.000000 0.000000 0.000000 0.000000 0.033812
#
#
# Mechanical properties :
#
#
# Convention : Reuss Voigt Hill
#
# Bulk Modulus (GPa) = 30.94701 42.40169 36.67435
# Shear Modulus (GPa) = 41.29426 49.84311 45.56868
#
# Velocity S-wave (km/s) = 4.25473 4.67444 4.46952
# Velocity P-wave (km/s) = 6.14033 6.90812 6.53551
#
# Compressibility (1/GPa) = 0.03231330
#
# Stress axis : x y z
#
# Youngs Moduli (GPa) = 68.87413 65.48180 171.34811
#
# Poissons Ratio (x) = -0.01222 0.51371
# Poissons Ratio (y) = -0.01285 -0.19786
# Poissons Ratio (z) = 0.20649 -0.07561
#
# Static dielectric constant tensor:
#      x y z
#    x 1.872910 0.000000 0.000000 
#    y 0.000000 1.941490 0.000000 
#    z 0.000000 0.000000 1.988930 
# 
# From -- ./inp_files/276.got.cif
#   From: 2010.05.17/outbox.cif.g08.bks.cpg/sg29_1_cif.got.tgz:276.got - 2010.06.04 01:19:37.
