data_PCOD9340721
_publ_section_title
;
Structure prediction by ZEFSAII (Michael W. Deem and Ramdas Pophale) SiO2 
 PCOD9340721
Probable space group: P C A 21
;
_chemical_formula_sum "Si O2"
_cell_formula_units_Z 28
_cell_length_a 17.090796
_cell_length_b 8.576036
_cell_length_c 8.460850
_cell_angle_alpha 90.000000
_cell_angle_beta 90.000000
_cell_angle_gamma 90.000000
_cell_volume 1240.117629
_symmetry_space_group_name_H-M "P C A 21"
_symmetry_group_IT_number 29
_symmetry_cell_setting 'orthorhombic'
loop_
_space_group_symop_operation_xyz
x,y,z
-x,-y,1/2+z
1/2-x,y,1/2+z
1/2+x,-y,z
loop_
_atom_site_type_symbol
_atom_site_label
_atom_site_fract_x
_atom_site_fract_y
_atom_site_fract_z
Si Si1 0.755169 0.020134 0.315700
Si Si2 0.510902 0.231446 0.569009
Si Si3 0.151695 0.812851 0.063434
Si Si4 0.337600 0.169841 0.058795
Si Si5 0.996964 0.940185 0.897400
Si Si6 0.927365 0.487977 0.673860
Si Si7 0.907595 0.526661 0.047925
O O1 0.725797 0.883602 0.430585
O O2 0.821033 0.941873 0.206421
O O3 0.786760 0.160852 0.422430
O O4 0.685487 0.085912 0.207860
O O5 0.504896 0.122694 0.721162
O O6 0.437710 0.350933 0.576824
O O7 0.587772 0.341649 0.584947
O O8 0.511159 0.125988 0.415073
O O9 0.135085 0.635994 0.114253
O O10 0.072349 0.885505 0.994954
O O11 0.339595 0.354413 0.093230
O O12 0.420218 0.130802 0.978642
O O13 0.013898 0.417799 0.639484
O O14 0.918442 0.528794 0.857912
#
# Coordination Sequence:
#
# PCOD9340721 Si02
#       7
#     4   4   4   4   4   4   4
#     4  10  26  40  70 101 147 175 235 271 357 397
#     4  10  24  37  68 115 129 170 229 307 333 393
#     4  11  23  45  69 100 135 186 220 294 331 421
#     4  11  21  46  67  99 137 184 222 293 330 418
#     4  12  21  41  78  99 127 174 248 277 338 394
#     4  10  21  42  66 102 138 171 225 291 344 401
#     4  10  22  41  68 100 139 174 223 295 339 404
#
# _framework density 22.578502
#
# number of rings (size 3 to 8) (size 9 to 14) (size 15 to 20)
#    0.857    0.571    2.857    1.714    4.000    1.143 
#    0.000    1.429    0.000    0.000    0.000    0.000 
#    0.000    0.000    0.000    0.000    0.000    0.000 
#
# Total GULP energy -156361.498194 kJ/mol
# GULP energy per Si atom -5584.339221 kJ/mol
# Density = 2.252711 g / cm^3
# Si number density = 22.578502 Si / 1000 Ang^3
#
#
#
# Elastic Constant Matrix: (Units=GPa)
#
#
# Indices 1 2 3 4 5 6 
#
# 1 53.2225 15.3406 21.1409 0.0000 0.0000 0.0000
# 2 15.3406 155.1894 49.1203 0.0000 0.0000 0.0000
# 3 21.1409 49.1203 74.6453 0.0000 0.0000 0.0000
# 4 0.0000 0.0000 0.0000 34.4181 0.0000 0.0000
# 5 0.0000 0.0000 0.0000 0.0000 20.5641 0.0000
# 6 0.0000 0.0000 0.0000 0.0000 0.0000 15.1360
#
#
#
# Elastic Compliance Matrix: (Units=1/GPa)
#
#
# Indices 1 2 3 4 5 6 
#
# 1 0.021178 -0.000246 -0.005836 0.000000 0.000000 0.000000
# 2 -0.000246 0.008142 -0.005288 0.000000 0.000000 0.000000
# 3 -0.005836 -0.005288 0.018529 0.000000 0.000000 0.000000
# 4 0.000000 0.000000 0.000000 0.029055 0.000000 0.000000
# 5 0.000000 0.000000 0.000000 0.000000 0.048628 0.000000
# 6 0.000000 0.000000 0.000000 0.000000 0.000000 0.066068
#
#
# Mechanical properties :
#
#
# Convention : Reuss Voigt Hill
#
# Bulk Modulus (GPa) = 39.82662 50.47343 45.15003
# Shear Modulus (GPa) = 22.45071 27.18732 24.81902
#
# Velocity S-wave (km/s) = 3.15674 3.47381 3.31906
# Velocity P-wave (km/s) = 5.56454 6.20427 5.89309
#
# Compressibility (1/GPa) = 0.02510884
#
# Stress axis : x y z
#
# Youngs Moduli (GPa) = 47.21835 122.82257 53.96857
#
# Poissons Ratio (x) = 0.03025 0.31496
# Poissons Ratio (y) = 0.01163 0.28538
# Poissons Ratio (z) = 0.27557 0.64948
#
# Static dielectric constant tensor:
#      x y z
#    x 1.832010 0.000000 0.000000 
#    y 0.000000 1.915670 0.000000 
#    z 0.000000 0.000000 1.827990 
# 
# From -- ./inp_files/2093.got.cif
#   From: 2010.05.17/outbox.cif.g08.bks.cpg/sg29_2_cif.got.tgz:2093.got - 2010.06.04 01:19:37.
