data_PCOD9340901
_publ_section_title
;
Structure prediction by ZEFSAII (Michael W. Deem and Ramdas Pophale) SiO2 
 PCOD9340901
Probable space group: P C A 21
;
_chemical_formula_sum "Si O2"
_cell_formula_units_Z 20
_cell_length_a 15.787818
_cell_length_b 4.808913
_cell_length_c 10.836567
_cell_angle_alpha 90.000000
_cell_angle_beta 90.000000
_cell_angle_gamma 90.000000
_cell_volume 822.736475
_symmetry_space_group_name_H-M "P C A 21"
_symmetry_group_IT_number 29
_symmetry_cell_setting 'orthorhombic'
loop_
_space_group_symop_operation_xyz
x,y,z
-x,-y,1/2+z
1/2-x,y,1/2+z
1/2+x,-y,z
loop_
_atom_site_type_symbol
_atom_site_label
_atom_site_fract_x
_atom_site_fract_y
_atom_site_fract_z
Si Si1 0.512947 0.068213 0.397780
Si Si2 0.308837 0.905203 0.973716
Si Si3 0.399227 0.728463 0.216894
Si Si4 0.531274 0.429519 0.045680
Si Si5 0.302399 0.414356 0.432816
O O1 0.451118 0.954168 0.295105
O O2 0.481848 0.893330 0.517921
O O3 0.612353 0.010660 0.387352
O O4 0.502597 0.391492 0.428026
O O5 0.282189 0.590509 0.950033
O O6 0.228055 0.098145 0.945581
O O7 0.343305 0.889965 0.114105
O O8 0.342735 0.533561 0.306353
O O9 0.470437 0.539016 0.151293
O O10 0.630160 0.507925 0.040735
#
# Coordination Sequence:
#
# PCOD9340901 Si02
#       5
#     4   4   4   4   4
#     4  10  22  41  65  93 126 173 223 264 329 417
#     4  11  24  42  65 100 133 169 229 286 333 403
#     4  10  24  44  68  92 140 188 216 278 348 398
#     4  10  22  41  65  93 126 173 223 264 329 417
#     4  11  24  42  65 100 133 169 229 286 333 403
#
# _framework density 24.309118000000002
#
# number of rings (size 3 to 8) (size 9 to 14) (size 15 to 20)
#    0.000    1.600    0.000    4.800    0.000   17.600 
#    0.000    0.000    0.000    0.000    0.000    0.000 
#    0.000    0.000    0.000    0.000    0.000    0.000 
#
# Total GULP energy -111823.914257 kJ/mol
# GULP energy per Si atom -5591.195713 kJ/mol
# Density = 2.425379 g / cm^3
# Si number density = 24.309118 Si / 1000 Ang^3
#
#
#
# Elastic Constant Matrix: (Units=GPa)
#
#
# Indices 1 2 3 4 5 6 
#
# 1 119.4115 13.9871 31.3921 0.0000 0.0000 0.0000
# 2 13.9871 76.6199 16.8502 0.0000 0.0000 0.0000
# 3 31.3921 16.8502 120.5750 0.0000 0.0000 0.0000
# 4 0.0000 0.0000 0.0000 30.0552 0.0000 0.0000
# 5 0.0000 0.0000 0.0000 0.0000 53.8056 0.0000
# 6 0.0000 0.0000 0.0000 0.0000 0.0000 54.8200
#
#
#
# Elastic Compliance Matrix: (Units=1/GPa)
#
#
# Indices 1 2 3 4 5 6 
#
# 1 0.009091 -0.001175 -0.002203 0.000000 0.000000 0.000000
# 2 -0.001175 0.013617 -0.001597 0.000000 0.000000 0.000000
# 3 -0.002203 -0.001597 0.009090 0.000000 0.000000 0.000000
# 4 0.000000 0.000000 0.000000 0.033272 0.000000 0.000000
# 5 0.000000 0.000000 0.000000 0.000000 0.018585 0.000000
# 6 0.000000 0.000000 0.000000 0.000000 0.000000 0.018242
#
#
# Mechanical properties :
#
#
# Convention : Reuss Voigt Hill
#
# Bulk Modulus (GPa) = 45.76914 49.00726 47.38820
# Shear Modulus (GPa) = 41.97088 44.69465 43.33276
#
# Velocity S-wave (km/s) = 4.15968 4.29254 4.22663
# Velocity P-wave (km/s) = 6.47607 6.69116 6.58449
#
# Compressibility (1/GPa) = 0.02184878
#
# Stress axis : x y z
#
# Youngs Moduli (GPa) = 109.99754 73.43664 110.00799
#
# Poissons Ratio (x) = 0.08630 0.24231
# Poissons Ratio (y) = 0.12927 0.17569
# Poissons Ratio (z) = 0.24229 0.11728
#
# Static dielectric constant tensor:
#      x y z
#    x 1.948550 0.000000 0.000000 
#    y 0.000000 1.874380 0.000000 
#    z 0.000000 0.000000 2.005910 
# 
# From -- ./inp_files/3297.got.cif
#   From: 2010.05.17/outbox.cif.g08.bks.cpg/sg29_2_cif.got.tgz:3297.got - 2010.06.04 01:19:37.
