data_PCOD9340652
_publ_section_title
;
Structure prediction by ZEFSAII (Michael W. Deem and Ramdas Pophale) SiO2 
 PCOD9340652
Probable space group: P C A 21
;
_chemical_formula_sum "Si O2"
_cell_formula_units_Z 32
_cell_length_a 9.193559
_cell_length_b 10.290885
_cell_length_c 15.628825
_cell_angle_alpha 90.000000
_cell_angle_beta 90.000000
_cell_angle_gamma 90.000000
_cell_volume 1478.640920
_symmetry_space_group_name_H-M "P C A 21"
_symmetry_group_IT_number 29
_symmetry_cell_setting 'orthorhombic'
loop_
_space_group_symop_operation_xyz
x,y,z
-x,-y,1/2+z
1/2-x,y,1/2+z
1/2+x,-y,z
loop_
_atom_site_type_symbol
_atom_site_label
_atom_site_fract_x
_atom_site_fract_y
_atom_site_fract_z
Si Si1 0.420217 0.116013 0.910430
Si Si2 0.149483 0.697043 0.612920
Si Si3 0.521877 0.278933 0.061800
Si Si4 0.928107 0.561579 0.510988
Si Si5 0.787750 0.584287 0.171375
Si Si6 0.110086 0.886016 0.752484
Si Si7 0.680594 0.693890 0.849235
Si Si8 0.439588 0.876680 0.806611
O O1 0.535952 0.166562 0.839514
O O2 0.269202 0.180411 0.881410
O O3 0.419264 0.962135 0.893443
O O4 0.463528 0.163108 0.003652
O O5 0.313435 0.739925 0.592027
O O6 0.156635 0.564419 0.669192
O O7 0.070004 0.806016 0.668412
O O8 0.066406 0.653849 0.527150
O O9 0.524403 0.412318 0.006406
O O10 0.412887 0.318416 0.137557
O O11 0.835327 0.581859 0.598166
O O12 0.834949 0.599835 0.429539
O O13 0.747395 0.629317 0.266122
O O14 0.282366 0.874587 0.764221
O O15 0.048126 0.032434 0.750405
O O16 0.519291 0.742844 0.824353
#
# Coordination Sequence:
#
# PCOD9340652 Si02
#       8
#     4   4   4   4   4   4   4   4
#     4  10  21  40  65  84 127 165 204 256 315 356
#     4  10  22  41  60  95 128 158 207 265 310 387
#     4  10  21  42  59  94 131 159 198 268 314 376
#     4  10  23  39  63  95 131 158 209 259 317 386
#     4  10  22  41  64  94 129 158 208 259 319 379
#     4  10  21  40  66  86 125 163 205 261 311 361
#     4  12  22  41  69  90 123 174 207 257 320 370
#     4  10  22  40  62  96 120 161 220 261 294 383
#
# _framework density 21.641494000000002
#
# number of rings (size 3 to 8) (size 9 to 14) (size 15 to 20)
#    0.750    1.000    2.500    1.500    3.500    0.000 
#    2.250    3.750    0.000    0.000    0.000    0.000 
#    0.000    0.000    0.000    0.000    0.000    0.000 
#
# Total GULP energy -178617.253845 kJ/mol
# GULP energy per Si atom -5581.789183 kJ/mol
# Density = 2.159224 g / cm^3
# Si number density = 21.641494 Si / 1000 Ang^3
#
#
#
# Elastic Constant Matrix: (Units=GPa)
#
#
# Indices 1 2 3 4 5 6 
#
# 1 60.6682 -20.1587 -6.2343 0.0000 0.0000 0.0000
# 2 -20.1587 32.9076 21.8765 0.0000 0.0000 0.0000
# 3 -6.2343 21.8765 67.6555 0.0000 0.0000 0.0000
# 4 0.0000 0.0000 0.0000 26.7556 0.0000 0.0000
# 5 0.0000 0.0000 0.0000 0.0000 19.6646 0.0000
# 6 0.0000 0.0000 0.0000 0.0000 0.0000 21.8666
#
#
#
# Elastic Compliance Matrix: (Units=1/GPa)
#
#
# Indices 1 2 3 4 5 6 
#
# 1 0.021118 0.014831 -0.002850 0.000000 0.000000 0.000000
# 2 0.014831 0.049125 -0.014518 0.000000 0.000000 0.000000
# 3 -0.002850 -0.014518 0.019213 0.000000 0.000000 0.000000
# 4 0.000000 0.000000 0.000000 0.037375 0.000000 0.000000
# 5 0.000000 0.000000 0.000000 0.000000 0.050853 0.000000
# 6 0.000000 0.000000 0.000000 0.000000 0.000000 0.045732
#
#
# Mechanical properties :
#
#
# Convention : Reuss Voigt Hill
#
# Bulk Modulus (GPa) = 11.85075 16.91092 14.38083
# Shear Modulus (GPa) = 19.48438 24.70722 22.09580
#
# Velocity S-wave (km/s) = 3.00380 3.38251 3.19876
# Velocity P-wave (km/s) = 4.18548 4.80482 4.50580
#
# Compressibility (1/GPa) = 0.08438286
#
# Stress axis : x y z
#
# Youngs Moduli (GPa) = 47.35223 20.35638 52.04937
#
# Poissons Ratio (x) = -0.30191 0.14832
# Poissons Ratio (y) = -0.70229 0.75564
# Poissons Ratio (z) = 0.13494 0.29553
#
# Static dielectric constant tensor:
#      x y z
#    x 1.819100 0.000000 0.000000 
#    y 0.000000 1.776470 0.000000 
#    z 0.000000 0.000000 1.786810 
# 
# From -- ./inp_files/4302.got.cif
#   From: 2010.05.17/outbox.cif.g08.bks.cpg/sg29_3_cif.got.tgz:4302.got - 2010.06.04 01:19:37.
