data_PCOD9340334
_publ_section_title
;
Structure prediction by ZEFSAII (Michael W. Deem and Ramdas Pophale) SiO2 
 PCOD9340334
Probable space group: P C A 21
;
_chemical_formula_sum "Si O2"
_cell_formula_units_Z 28
_cell_length_a 19.629260
_cell_length_b 8.112146
_cell_length_c 8.974066
_cell_angle_alpha 90.000000
_cell_angle_beta 90.000000
_cell_angle_gamma 90.000000
_cell_volume 1428.989195
_symmetry_space_group_name_H-M "P C A 21"
_symmetry_group_IT_number 29
_symmetry_cell_setting 'orthorhombic'
loop_
_space_group_symop_operation_xyz
x,y,z
-x,-y,1/2+z
1/2-x,y,1/2+z
1/2+x,-y,z
loop_
_atom_site_type_symbol
_atom_site_label
_atom_site_fract_x
_atom_site_fract_y
_atom_site_fract_z
Si Si1 0.459238 0.007079 0.708620
Si Si2 0.731732 0.287641 0.633774
Si Si3 0.553792 0.474782 0.324530
Si Si4 0.938856 0.670246 0.519687
Si Si5 0.979060 0.227096 0.445149
Si Si6 0.840055 0.435026 0.403491
Si Si7 0.657889 0.190756 0.358820
O O1 0.437974 0.152497 0.595141
O O2 0.513689 0.088008 0.818469
O O3 0.482243 0.856766 0.605219
O O4 0.397003 0.942457 0.808515
O O5 0.782721 0.379596 0.520493
O O6 0.688939 0.410097 0.738556
O O7 0.682521 0.181680 0.528326
O O8 0.778394 0.184042 0.746887
O O9 0.545844 0.540569 0.155697
O O10 0.496943 0.353999 0.395378
O O11 0.540023 0.642627 0.416975
O O12 0.623281 0.372638 0.339253
O O13 0.868477 0.613689 0.445792
O O14 0.906836 0.318269 0.421349
#
# Coordination Sequence:
#
# PCOD9340334 Si02
#       7
#     4   4   4   4   4   4   4
#     4  11  22  37  59  92 127 156 189 263 320 360
#     4  10  22  37  66  77 114 168 203 252 282 374
#     4  10  20  36  61  87 115 155 199 251 295 361
#     4  10  21  36  60  90 123 150 199 259 306 356
#     4  10  22  37  60  90 125 152 200 255 310 359
#     4  10  20  41  59  87 113 154 216 239 300 367
#     4  11  21  40  61  85 117 155 212 239 311 363
#
# _framework density 19.594269000000001
#
# number of rings (size 3 to 8) (size 9 to 14) (size 15 to 20)
#    0.000    1.714    2.857    1.714    8.000    0.000 
#    0.000    1.429    0.000    0.000    0.000    0.000 
#    0.000    0.000    0.000    0.000    0.000    0.000 
#
# Total GULP energy -156236.727887 kJ/mol
# GULP energy per Si atom -5579.883139 kJ/mol
# Density = 1.954967 g / cm^3
# Si number density = 19.594269 Si / 1000 Ang^3
#
#
#
# Elastic Constant Matrix: (Units=GPa)
#
#
# Indices 1 2 3 4 5 6 
#
# 1 54.1799 39.5104 49.2307 0.0000 0.0000 0.0000
# 2 39.5104 66.8164 42.0992 0.0000 0.0000 0.0000
# 3 49.2307 42.0992 126.4698 0.0000 0.0000 0.0000
# 4 0.0000 0.0000 0.0000 39.1807 0.0000 0.0000
# 5 0.0000 0.0000 0.0000 0.0000 37.6031 0.0000
# 6 0.0000 0.0000 0.0000 0.0000 0.0000 -3.8810
#
#
#
# Elastic Compliance Matrix: (Units=1/GPa)
#
#
# Indices 1 2 3 4 5 6 
#
# 1 0.040176 -0.017593 -0.009783 0.000000 0.000000 0.000000
# 2 -0.017593 0.026643 -0.002020 0.000000 0.000000 0.000000
# 3 -0.009783 -0.002020 0.012388 0.000000 0.000000 0.000000
# 4 0.000000 0.000000 0.000000 0.025523 0.000000 0.000000
# 5 0.000000 0.000000 0.000000 0.000000 0.026594 0.000000
# 6 0.000000 0.000000 0.000000 0.000000 0.000000 -0.257664
#
#
# Mechanical properties :
#
#
# Convention : Reuss Voigt Hill
#
# Bulk Modulus (GPa) = 48.98693 56.57183 52.77938
# Shear Modulus (GPa) = -82.31226 22.35561 -29.97832
#
# Velocity S-wave (km/s) = -6.48841 3.38142 -3.91571
# Velocity P-wave (km/s) = 5.57475 6.64678 2.55948
#
# Compressibility (1/GPa) = 0.02041361
#
# Stress axis : x y z
#
# Youngs Moduli (GPa) = 24.89045 37.53367 80.72536
#
# Poissons Ratio (x) = 0.66034 0.78972
# Poissons Ratio (y) = 0.43791 0.16309
# Poissons Ratio (z) = 0.24350 0.07583
#
# Static dielectric constant tensor:
#      x y z
#    x 1.687190 0.000000 0.000000 
#    y 0.000000 1.726920 0.000000 
#    z 0.000000 0.000000 1.714810 
# 
# From -- ./inp_files/2217.got.cif
#   From: 2010.05.17/outbox.cif.g08.bks.cpg/sg29_2_cif.got.tgz:2217.got - 2010.06.04 01:19:37.
