data_PCOD9340363
_publ_section_title
;
Structure prediction by ZEFSAII (Michael W. Deem and Ramdas Pophale) SiO2 
 PCOD9340363
Probable space group: P C A 21
;
_chemical_formula_sum "Si O2"
_cell_formula_units_Z 24
_cell_length_a 24.973343
_cell_length_b 8.815734
_cell_length_c 5.005352
_cell_angle_alpha 90.000000
_cell_angle_beta 90.000000
_cell_angle_gamma 90.000000
_cell_volume 1101.970032
_symmetry_space_group_name_H-M "P C A 21"
_symmetry_group_IT_number 29
_symmetry_cell_setting 'orthorhombic'
loop_
_space_group_symop_operation_xyz
x,y,z
-x,-y,1/2+z
1/2-x,y,1/2+z
1/2+x,-y,z
loop_
_atom_site_type_symbol
_atom_site_label
_atom_site_fract_x
_atom_site_fract_y
_atom_site_fract_z
Si Si1 0.284128 0.537691 0.105700
Si Si2 0.127867 0.397335 0.948616
Si Si3 0.399635 0.721306 0.674128
Si Si4 0.711602 0.855783 0.894278
Si Si5 0.341560 0.838708 0.180886
Si Si6 0.492435 0.397668 0.364354
O O1 0.238282 0.497308 0.319082
O O2 0.339667 0.463079 0.193899
O O3 0.294259 0.715233 0.155595
O O4 0.165367 0.254788 0.007071
O O5 0.068205 0.341463 0.884457
O O6 0.120543 0.543766 0.145695
O O7 0.387835 0.782153 0.380523
O O8 0.461274 0.712291 0.759743
O O9 0.367110 0.824295 0.885227
O O10 0.741238 0.835218 0.609770
O O11 0.682981 0.015382 0.825331
O O12 0.508708 0.464387 0.651450
#
# Coordination Sequence:
#
# PCOD9340363 Si02
#       6
#     4   4   4   4   4   4
#     4  11  20  33  54  81 108 148 198 240 280 349
#     4  10  23  39  62  91 123 157 200 255 312 366
#     4  10  21  40  65  90 116 157 209 253 300 369
#     4  12  26  43  60  89 128 166 200 251 316 372
#     4  11  22  40  61  85 119 161 205 251 303 366
#     4  10  20  37  62  92 122 153 196 254 313 360
#
# _framework density 21.779177000000001
#
# number of rings (size 3 to 8) (size 9 to 14) (size 15 to 20)
#    0.000    1.333    0.000    8.000    0.000    6.667 
#    0.000    1.667    0.000    0.000    0.000    0.000 
#    0.000    0.000    0.000    0.000    0.000    0.000 
#
# Total GULP energy -133858.422284 kJ/mol
# GULP energy per Si atom -5577.434262 kJ/mol
# Density = 2.172961 g / cm^3
# Si number density = 21.779177 Si / 1000 Ang^3
#
#
#
# Elastic Constant Matrix: (Units=GPa)
#
#
# Indices 1 2 3 4 5 6 
#
# 1 106.2610 22.4687 13.5426 0.0000 0.0000 0.0000
# 2 22.4687 67.8945 -5.3893 0.0000 0.0000 0.0000
# 3 13.5426 -5.3893 73.7097 0.0000 0.0000 0.0000
# 4 0.0000 0.0000 0.0000 21.9500 0.0000 0.0000
# 5 0.0000 0.0000 0.0000 0.0000 25.3818 0.0000
# 6 0.0000 0.0000 0.0000 0.0000 0.0000 30.3325
#
#
#
# Elastic Compliance Matrix: (Units=1/GPa)
#
#
# Indices 1 2 3 4 5 6 
#
# 1 0.010458 -0.003635 -0.002187 0.000000 0.000000 0.000000
# 2 -0.003635 0.016078 0.001843 0.000000 0.000000 0.000000
# 3 -0.002187 0.001843 0.014103 0.000000 0.000000 0.000000
# 4 0.000000 0.000000 0.000000 0.045558 0.000000 0.000000
# 5 0.000000 0.000000 0.000000 0.000000 0.039398 0.000000
# 6 0.000000 0.000000 0.000000 0.000000 0.000000 0.032968
#
#
# Mechanical properties :
#
#
# Convention : Reuss Voigt Hill
#
# Bulk Modulus (GPa) = 30.59753 34.34548 32.47150
# Shear Modulus (GPa) = 28.18259 30.01575 29.09917
#
# Velocity S-wave (km/s) = 3.60115 3.71642 3.65924
# Velocity P-wave (km/s) = 5.60094 5.84977 5.72670
#
# Compressibility (1/GPa) = 0.03268237
#
# Stress axis : x y z
#
# Youngs Moduli (GPa) = 95.62004 62.19739 70.90516
#
# Poissons Ratio (x) = 0.22606 0.15508
# Poissons Ratio (y) = 0.34754 -0.13070
# Poissons Ratio (z) = 0.20914 -0.11465
#
# Static dielectric constant tensor:
#      x y z
#    x 1.798810 0.000000 0.000000 
#    y 0.000000 1.894170 0.000000 
#    z 0.000000 0.000000 1.796600 
# 
# From -- ./inp_files/647.got.cif
#   From: 2010.05.17/outbox.cif.g08.bks.cpg/sg29_1_cif.got.tgz:647.got - 2010.06.04 01:19:37.
