data_PCOD9340578
_publ_section_title
;
Structure prediction by ZEFSAII (Michael W. Deem and Ramdas Pophale) SiO2 
 PCOD9340578
Probable space group: P C A 21
;
_chemical_formula_sum "Si O2"
_cell_formula_units_Z 28
_cell_length_a 13.612012
_cell_length_b 5.058052
_cell_length_c 17.184755
_cell_angle_alpha 90.000000
_cell_angle_beta 90.000000
_cell_angle_gamma 90.000000
_cell_volume 1183.174927
_symmetry_space_group_name_H-M "P C A 21"
_symmetry_group_IT_number 29
_symmetry_cell_setting 'orthorhombic'
loop_
_space_group_symop_operation_xyz
x,y,z
-x,-y,1/2+z
1/2-x,y,1/2+z
1/2+x,-y,z
loop_
_atom_site_type_symbol
_atom_site_label
_atom_site_fract_x
_atom_site_fract_y
_atom_site_fract_z
Si Si1 0.629420 0.343156 0.828510
Si Si2 0.188346 0.307385 0.174854
Si Si3 0.598925 0.182891 0.243503
Si Si4 0.343621 0.127299 0.511744
Si Si5 0.768565 0.363626 0.963649
Si Si6 0.387076 0.159293 0.220142
Si Si7 0.981282 0.330639 0.912947
O O1 0.725575 0.284203 0.878812
O O2 0.638582 0.623294 0.785734
O O3 0.539063 0.400475 0.888017
O O4 0.613861 0.122565 0.763299
O O5 0.171379 0.597709 0.208328
O O6 0.130513 0.243410 0.096079
O O7 0.300744 0.218335 0.159652
O O8 0.146779 0.102534 0.237752
O O9 0.498182 0.202937 0.193313
O O10 0.560849 0.230308 0.330534
O O11 0.266168 0.338366 0.477548
O O12 0.436995 0.150934 0.454879
O O13 0.291444 0.842572 0.517340
O O14 0.885327 0.352660 0.966298
#
# Coordination Sequence:
#
# PCOD9340578 Si02
#       7
#     4   4   4   4   4   4   4
#     4  10  21  38  63  97 125 155 210 272 318 386
#     4  12  25  43  63  93 133 175 219 268 328 398
#     4  11  24  40  67  95 123 169 220 271 326 382
#     4  11  27  42  61  96 134 171 221 270 323 403
#     4  11  22  40  64  88 125 172 207 261 337 384
#     4  11  22  39  63  92 128 162 208 266 325 386
#     4  10  23  42  69  99 130 168 223 278 327 387
#
# _framework density 23.665141999999999
#
# number of rings (size 3 to 8) (size 9 to 14) (size 15 to 20)
#    0.000    1.143    0.000    7.714    0.000    9.143 
#    0.000    0.000    0.000    0.000    0.000    0.000 
#    0.000    0.000    0.000    0.000    0.000    0.000 
#
# Total GULP energy -156542.229082 kJ/mol
# GULP energy per Si atom -5590.793896 kJ/mol
# Density = 2.361128 g / cm^3
# Si number density = 23.665142 Si / 1000 Ang^3
#
#
#
# Elastic Constant Matrix: (Units=GPa)
#
#
# Indices 1 2 3 4 5 6 
#
# 1 146.1825 16.0000 -6.0010 0.0000 0.0000 0.0000
# 2 16.0000 80.8583 5.5838 0.0000 0.0000 0.0000
# 3 -6.0010 5.5838 42.4250 0.0000 0.0000 0.0000
# 4 0.0000 0.0000 0.0000 18.9480 0.0000 0.0000
# 5 0.0000 0.0000 0.0000 0.0000 21.6575 0.0000
# 6 0.0000 0.0000 0.0000 0.0000 0.0000 22.7633
#
#
#
# Elastic Compliance Matrix: (Units=1/GPa)
#
#
# Indices 1 2 3 4 5 6 
#
# 1 0.007051 -0.001478 0.001192 0.000000 0.000000 0.000000
# 2 -0.001478 0.012790 -0.001892 0.000000 0.000000 0.000000
# 3 0.001192 -0.001892 0.023989 0.000000 0.000000 0.000000
# 4 0.000000 0.000000 0.000000 0.052776 0.000000 0.000000
# 5 0.000000 0.000000 0.000000 0.000000 0.046173 0.000000
# 6 0.000000 0.000000 0.000000 0.000000 0.000000 0.043930
#
#
# Mechanical properties :
#
#
# Convention : Reuss Voigt Hill
#
# Bulk Modulus (GPa) = 25.33300 33.40347 29.36824
# Shear Modulus (GPa) = 24.48286 29.59930 27.04108
#
# Velocity S-wave (km/s) = 3.21994 3.54044 3.38398
# Velocity P-wave (km/s) = 4.95500 5.55505 5.26358
#
# Compressibility (1/GPa) = 0.03947420
#
# Stress axis : x y z
#
# Youngs Moduli (GPa) = 141.81536 78.18371 41.68637
#
# Poissons Ratio (x) = 0.11553 -0.04969
# Poissons Ratio (y) = 0.20955 0.07889
# Poissons Ratio (z) = -0.16903 0.14796
#
# Static dielectric constant tensor:
#      x y z
#    x 1.968020 0.000000 0.000000 
#    y 0.000000 1.852470 0.000000 
#    z 0.000000 0.000000 1.973630 
# 
# From -- ./inp_files/5189.got.cif
#   From: 2010.05.17/outbox.cif.g08.bks.cpg/sg29_3_cif.got.tgz:5189.got - 2010.06.04 01:19:37.
