data_PCOD9340893
_publ_section_title
;
Structure prediction by ZEFSAII (Michael W. Deem and Ramdas Pophale) SiO2 
 PCOD9340893
Probable space group: P C A 21
;
_chemical_formula_sum "Si O2"
_cell_formula_units_Z 28
_cell_length_a 13.684211
_cell_length_b 7.920848
_cell_length_c 12.014514
_cell_angle_alpha 90.000000
_cell_angle_beta 90.000000
_cell_angle_gamma 90.000000
_cell_volume 1302.259844
_symmetry_space_group_name_H-M "P C A 21"
_symmetry_group_IT_number 29
_symmetry_cell_setting 'orthorhombic'
loop_
_space_group_symop_operation_xyz
x,y,z
-x,-y,1/2+z
1/2-x,y,1/2+z
1/2+x,-y,z
loop_
_atom_site_type_symbol
_atom_site_label
_atom_site_fract_x
_atom_site_fract_y
_atom_site_fract_z
Si Si1 0.211819 0.470229 0.848880
Si Si2 0.508415 0.095438 0.425617
Si Si3 0.600256 0.541631 0.222988
Si Si4 0.577958 0.237568 0.815969
Si Si5 0.452379 0.287922 0.207034
Si Si6 0.820558 0.786292 0.545702
Si Si7 0.151738 0.971135 0.604553
O O1 0.319594 0.522221 0.810290
O O2 0.151441 0.638092 0.880998
O O3 0.141818 0.392312 0.751015
O O4 0.220065 0.321632 0.940859
O O5 0.501673 0.214029 0.318577
O O6 0.429055 0.159305 0.513334
O O7 0.467369 0.915872 0.384949
O O8 0.610945 0.096728 0.488030
O O9 0.515617 0.653375 0.278763
O O10 0.536938 0.403697 0.156247
O O11 0.665315 0.657228 0.144812
O O12 0.634442 0.157688 0.707442
O O13 0.415752 0.133706 0.133883
O O14 0.757186 0.946315 0.583933
#
# Coordination Sequence:
#
# PCOD9340893 Si02
#       7
#     4   4   4   4   4   4   4
#     4  10  22  42  59  93 124 163 212 255 309 377
#     4  10  22  41  61  93 124 161 207 254 315 369
#     4  11  21  43  63  88 125 167 207 250 322 360
#     4  10  23  42  64  91 129 161 209 268 306 380
#     4   9  22  39  63  87 126 160 200 263 302 370
#     4  11  23  40  66  90 124 167 204 257 318 378
#     4  11  21  41  66  94 124 163 209 257 320 372
#
# _framework density 21.501086000000001
#
# number of rings (size 3 to 8) (size 9 to 14) (size 15 to 20)
#    0.000    1.714    2.857    0.857    2.000    2.286 
#    5.143    0.000    0.000    0.000    0.000    0.000 
#    0.000    0.000    0.000    0.000    0.000    0.000 
#
# Total GULP energy -156259.791103 kJ/mol
# GULP energy per Si atom -5580.706825 kJ/mol
# Density = 2.145215 g / cm^3
# Si number density = 21.501086 Si / 1000 Ang^3
#
#
#
# Elastic Constant Matrix: (Units=GPa)
#
#
# Indices 1 2 3 4 5 6 
#
# 1 65.9111 14.3694 9.8034 0.0000 0.0000 0.0000
# 2 14.3694 43.7064 -11.9619 0.0000 0.0000 0.0000
# 3 9.8034 -11.9619 18.6740 0.0000 0.0000 0.0000
# 4 0.0000 0.0000 0.0000 9.9070 0.0000 0.0000
# 5 0.0000 0.0000 0.0000 0.0000 14.8713 0.0000
# 6 0.0000 0.0000 0.0000 0.0000 0.0000 41.6899
#
#
#
# Elastic Compliance Matrix: (Units=1/GPa)
#
#
# Indices 1 2 3 4 5 6 
#
# 1 0.020435 -0.011707 -0.018227 0.000000 0.000000 0.000000
# 2 -0.011707 0.034450 0.028213 0.000000 0.000000 0.000000
# 3 -0.018227 0.028213 0.081192 0.000000 0.000000 0.000000
# 4 0.000000 0.000000 0.000000 0.100938 0.000000 0.000000
# 5 0.000000 0.000000 0.000000 0.000000 0.067244 0.000000
# 6 0.000000 0.000000 0.000000 0.000000 0.000000 0.023987
#
#
# Mechanical properties :
#
#
# Convention : Reuss Voigt Hill
#
# Bulk Modulus (GPa) = 7.53942 16.96814 12.25378
# Shear Modulus (GPa) = 13.30145 21.03236 17.16691
#
# Velocity S-wave (km/s) = 2.48995 3.13101 2.82870
# Velocity P-wave (km/s) = 3.43229 4.58038 4.04725
#
# Compressibility (1/GPa) = 0.13263628
#
# Stress axis : x y z
#
# Youngs Moduli (GPa) = 48.93513 29.02718 12.31656
#
# Poissons Ratio (x) = 0.33982 0.22449
# Poissons Ratio (y) = 0.57288 -0.34749
# Poissons Ratio (z) = 0.89194 -0.81896
#
# Static dielectric constant tensor:
#      x y z
#    x 1.804170 0.000000 0.000000 
#    y 0.000000 1.862740 0.000000 
#    z 0.000000 0.000000 1.885330 
# 
# From -- ./inp_files/3165.got.cif
#   From: 2010.05.17/outbox.cif.g08.bks.cpg/sg29_2_cif.got.tgz:3165.got - 2010.06.04 01:19:37.
