data_PCOD9340753
_publ_section_title
;
Structure prediction by ZEFSAII (Michael W. Deem and Ramdas Pophale) SiO2 
 PCOD9340753
Probable space group: P C A 21
;
_chemical_formula_sum "Si O2"
_cell_formula_units_Z 28
_cell_length_a 12.776735
_cell_length_b 5.200469
_cell_length_c 17.028515
_cell_angle_alpha 90.000000
_cell_angle_beta 90.000000
_cell_angle_gamma 90.000000
_cell_volume 1131.459922
_symmetry_space_group_name_H-M "P C A 21"
_symmetry_group_IT_number 29
_symmetry_cell_setting 'orthorhombic'
loop_
_space_group_symop_operation_xyz
x,y,z
-x,-y,1/2+z
1/2-x,y,1/2+z
1/2+x,-y,z
loop_
_atom_site_type_symbol
_atom_site_label
_atom_site_fract_x
_atom_site_fract_y
_atom_site_fract_z
Si Si1 0.756279 0.891461 0.795540
Si Si2 0.431409 0.802992 0.254917
Si Si3 0.561988 0.738124 0.392941
Si Si4 0.230967 0.484950 0.676637
Si Si5 0.125841 0.968443 0.990189
Si Si6 0.763561 0.545573 0.997718
Si Si7 0.600037 0.110455 0.168173
O O1 0.847377 0.919143 0.857062
O O2 0.723522 0.609231 0.768602
O O3 0.658271 0.068220 0.808031
O O4 0.805710 0.955632 0.709882
O O5 0.505191 0.639804 0.313266
O O6 0.371383 0.670249 0.183427
O O7 0.499126 0.037035 0.218208
O O8 0.475833 0.888688 0.441601
O O9 0.629317 0.551623 0.448005
O O10 0.215491 0.375279 0.588622
O O11 0.348051 0.608159 0.670558
O O12 0.208501 0.731242 0.991655
O O13 0.087773 0.984286 0.080317
O O14 0.182373 0.235209 0.967080
#
# Coordination Sequence:
#
# PCOD9340753 Si02
#       7
#     4   4   4   4   4   4   4
#     4  10  21  44  67 101 141 187 235 306 364 433
#     4  10  23  43  70 105 139 193 242 306 365 448
#     4  11  26  44  70 106 146 196 240 303 373 439
#     4  10  22  42  73  99 144 188 249 307 363 436
#     4  11  25  47  72 106 143 188 246 300 365 439
#     4  11  26  49  74 106 147 192 240 311 364 430
#     4   9  21  41  68  99 136 186 246 297 366 427
#
# _framework density 24.746786
#
# number of rings (size 3 to 8) (size 9 to 14) (size 15 to 20)
#    0.000    1.714    1.429    0.857    4.000    4.571 
#   10.286    0.000    0.000    0.000    0.000    0.000 
#    0.000    0.000    0.000    0.000    0.000    0.000 
#
# Total GULP energy -156164.627323 kJ/mol
# GULP energy per Si atom -5577.308119 kJ/mol
# Density = 2.469046 g / cm^3
# Si number density = 24.746786 Si / 1000 Ang^3
#
#
#
# Elastic Constant Matrix: (Units=GPa)
#
#
# Indices 1 2 3 4 5 6 
#
# 1 107.1498 -22.3218 48.9444 0.0000 0.0000 0.0000
# 2 -22.3218 -6.3103 -12.9001 0.0000 0.0000 0.0000
# 3 48.9444 -12.9001 107.8254 0.0000 0.0000 0.0000
# 4 0.0000 0.0000 0.0000 20.9058 0.0000 0.0000
# 5 0.0000 0.0000 0.0000 0.0000 28.7060 0.0000
# 6 0.0000 0.0000 0.0000 0.0000 0.0000 14.0494
#
#
#
# Elastic Compliance Matrix: (Units=1/GPa)
#
#
# Indices 1 2 3 4 5 6 
#
# 1 0.008371 -0.017551 -0.005900 0.000000 0.000000 0.000000
# 2 -0.017551 -0.090531 -0.002864 0.000000 0.000000 0.000000
# 3 -0.005900 -0.002864 0.011610 0.000000 0.000000 0.000000
# 4 0.000000 0.000000 0.000000 0.047834 0.000000 0.000000
# 5 0.000000 0.000000 0.000000 0.000000 0.034836 0.000000
# 6 0.000000 0.000000 0.000000 0.000000 0.000000 0.071177
#
#
# Mechanical properties :
#
#
# Convention : Reuss Voigt Hill
#
# Bulk Modulus (GPa) = -8.11821 26.23442 9.05811
# Shear Modulus (GPa) = 52.70508 25.72841 39.21674
#
# Velocity S-wave (km/s) = 4.61995 3.22788 3.98517
# Velocity P-wave (km/s) = 5.01707 4.95141 4.98435
#
# Compressibility (1/GPa) = -0.12317993
#
# Stress axis : x y z
#
# Youngs Moduli (GPa) = 119.45595 -11.04599 86.13544
#
# Poissons Ratio (x) = -0.19387 0.50818
# Poissons Ratio (y) = 2.09661 0.24670
# Poissons Ratio (z) = 0.70476 -0.03164
#
# Static dielectric constant tensor:
#      x y z
#    x 1.979530 0.000000 0.000000 
#    y 0.000000 5.049430 0.000000 
#    z 0.000000 0.000000 2.910600 
# 
# From -- ./inp_files/5099.got.cif
#   From: 2010.05.17/outbox.cif.g08.bks.cpg/sg29_3_cif.got.tgz:5099.got - 2010.06.04 01:19:37.
