data_PCOD9340001
_publ_section_title
;
Structure prediction by ZEFSAII (Michael W. Deem and Ramdas Pophale) SiO2 
 PCOD9340001
Probable space group: P C A 21
;
_chemical_formula_sum "Si O2"
_cell_formula_units_Z 28
_cell_length_a 5.278572
_cell_length_b 6.806946
_cell_length_c 32.546734
_cell_angle_alpha 90.000000
_cell_angle_beta 90.000000
_cell_angle_gamma 90.000000
_cell_volume 1169.435220
_symmetry_space_group_name_H-M "P C A 21"
_symmetry_group_IT_number 29
_symmetry_cell_setting 'orthorhombic'
loop_
_space_group_symop_operation_xyz
x,y,z
-x,-y,1/2+z
1/2-x,y,1/2+z
1/2+x,-y,z
loop_
_atom_site_type_symbol
_atom_site_label
_atom_site_fract_x
_atom_site_fract_y
_atom_site_fract_z
Si Si1 0.141761 0.766734 0.738410
Si Si2 0.871782 0.738882 0.445020
Si Si3 0.277738 0.867290 0.828410
Si Si4 0.357674 0.210798 0.205596
Si Si5 0.214675 0.369404 0.531935
Si Si6 0.293069 0.367202 0.621531
Si Si7 0.870550 0.292553 0.412376
O O1 0.241821 0.763438 0.784558
O O2 0.364345 0.695165 0.708472
O O3 0.856700 0.690557 0.734034
O O4 0.102117 0.993233 0.723543
O O5 0.769689 0.753079 0.491098
O O6 0.908737 0.509313 0.431165
O O7 0.648003 0.802757 0.414584
O O8 0.157658 0.811083 0.440260
O O9 0.234800 0.720795 0.866419
O O10 0.550662 0.971788 0.830246
O O11 0.253708 0.222805 0.159526
O O12 0.432656 0.539620 0.530256
O O13 0.257975 0.272878 0.576379
O O14 0.568703 0.468808 0.623806
#
# Coordination Sequence:
#
# PCOD9340001 Si02
#       7
#     4   4   4   4   4   4   4
#     4  10  19  35  60  73  96 144 188 220 249 309
#     4  10  17  35  52  83 106 141 171 205 275 312
#     4  12  21  37  55  83 101 137 190 221 259 302
#     4  10  18  35  56  78 102 136 184 214 260 309
#     4  10  16  30  53  79 108 136 177 201 250 323
#     4  10  21  32  53  86 113 134 168 218 267 319
#     4  10  20  30  57  78 108 134 178 221 252 318
#
# _framework density 23.943180999999999
#
# number of rings (size 3 to 8) (size 9 to 14) (size 15 to 20)
#    0.000    1.714    5.714    1.714    0.000    0.000 
#    0.000    0.000   18.857    0.000   22.286    0.000 
#    0.000    0.000    0.000    0.000    0.000    0.000 
#
# Total GULP energy -156303.393801 kJ/mol
# GULP energy per Si atom -5582.264064 kJ/mol
# Density = 2.388869 g / cm^3
# Si number density = 23.943181 Si / 1000 Ang^3
#
#
#
# Elastic Constant Matrix: (Units=GPa)
#
#
# Indices 1 2 3 4 5 6 
#
# 1 159.1687 -25.8645 -20.2872 0.0000 0.0000 0.0000
# 2 -25.8645 57.1026 -13.6266 0.0000 0.0000 0.0000
# 3 -20.2872 -13.6266 151.5297 0.0000 0.0000 0.0000
# 4 0.0000 0.0000 0.0000 19.5917 0.0000 0.0000
# 5 0.0000 0.0000 0.0000 0.0000 41.4836 0.0000
# 6 0.0000 0.0000 0.0000 0.0000 0.0000 -158.1416
#
#
#
# Elastic Compliance Matrix: (Units=1/GPa)
#
#
# Indices 1 2 3 4 5 6 
#
# 1 0.007006 0.003472 0.001250 0.000000 0.000000 0.000000
# 2 0.003472 0.019617 0.002229 0.000000 0.000000 0.000000
# 3 0.001250 0.002229 0.006967 0.000000 0.000000 0.000000
# 4 0.000000 0.000000 0.000000 0.051042 0.000000 0.000000
# 5 0.000000 0.000000 0.000000 0.000000 0.024106 0.000000
# 6 0.000000 0.000000 0.000000 0.000000 0.000000 -0.006323
#
#
# Mechanical properties :
#
#
# Convention : Reuss Voigt Hill
#
# Bulk Modulus (GPa) = 21.05629 27.58272 24.31951
# Shear Modulus (GPa) = 47.91870 9.09203 28.50536
#
# Velocity S-wave (km/s) = 4.47850 1.95079 3.45417
# Velocity P-wave (km/s) = 5.96288 4.07666 5.10760
#
# Compressibility (1/GPa) = 0.04749174
#
# Stress axis : x y z
#
# Youngs Moduli (GPa) = 142.73193 50.97687 143.53004
#
# Poissons Ratio (x) = -0.17698 -0.17944
# Poissons Ratio (y) = -0.49553 -0.31991
# Poissons Ratio (z) = -0.17844 -0.11362
#
# Static dielectric constant tensor:
#      x y z
#    x 2.010610 0.000000 0.000000 
#    y 0.000000 4.940810 0.000000 
#    z 0.000000 0.000000 1.901510 
# 
# From -- ./inp_files/5745.got.cif
#   From: 2010.05.17/outbox.cif.g08.bks.cpg/sg29_3_cif.got.tgz:5745.got - 2010.06.04 01:19:37.
