data_PCOD9340744
_publ_section_title
;
Structure prediction by ZEFSAII (Michael W. Deem and Ramdas Pophale) SiO2 
 PCOD9340744
Probable space group: P C A 21
;
_chemical_formula_sum "Si O2"
_cell_formula_units_Z 24
_cell_length_a 10.490348
_cell_length_b 5.326272
_cell_length_c 18.078986
_cell_angle_alpha 90.000000
_cell_angle_beta 90.000000
_cell_angle_gamma 90.000000
_cell_volume 1010.153342
_symmetry_space_group_name_H-M "P C A 21"
_symmetry_group_IT_number 29
_symmetry_cell_setting 'orthorhombic'
loop_
_space_group_symop_operation_xyz
x,y,z
-x,-y,1/2+z
1/2-x,y,1/2+z
1/2+x,-y,z
loop_
_atom_site_type_symbol
_atom_site_label
_atom_site_fract_x
_atom_site_fract_y
_atom_site_fract_z
Si Si1 0.961248 0.486830 0.788070
Si Si2 0.009806 0.929613 0.003017
Si Si3 0.390846 0.413603 0.434675
Si Si4 0.746532 0.145978 0.242880
Si Si5 0.016388 0.094155 0.674563
Si Si6 0.667881 0.852296 0.376574
O O1 0.945126 0.764719 0.821196
O O2 0.019243 0.364286 0.862745
O O3 0.037505 0.352782 0.721369
O O4 0.817593 0.413860 0.761424
O O5 0.078025 0.680677 0.970666
O O6 0.887873 0.969260 0.950315
O O7 0.088623 0.184944 0.991731
O O8 0.974335 0.878991 0.087242
O O9 0.247961 0.385536 0.404888
O O10 0.878469 0.104284 0.201928
O O11 0.753694 0.021704 0.323981
O O12 0.631087 0.027078 0.193869
#
# Coordination Sequence:
#
# PCOD9340744 Si02
#       6
#     4   4   4   4   4   4
#     4   9  22  40  62 103 125 184 229 290 335 418
#     4  11  26  43  65 104 140 183 228 290 353 409
#     4  11  24  44  70  97 142 178 238 281 352 415
#     4  10  21  43  68  95 137 177 239 281 344 415
#     4  10  23  44  65 102 138 182 228 294 351 410
#     4  11  22  40  74  95 136 188 236 284 341 421
#
# _framework density 23.758769000000001
#
# number of rings (size 3 to 8) (size 9 to 14) (size 15 to 20)
#    1.000    0.667    3.333    0.000    4.667    2.667 
#    3.000    0.000    0.000    0.000    0.000    0.000 
#    0.000    0.000    0.000    0.000    0.000    0.000 
#
# Total GULP energy -133712.710902 kJ/mol
# GULP energy per Si atom -5571.362954 kJ/mol
# Density = 2.370469 g / cm^3
# Si number density = 23.758769 Si / 1000 Ang^3
#
#
#
# Elastic Constant Matrix: (Units=GPa)
#
#
# Indices 1 2 3 4 5 6 
#
# 1 98.1419 0.7062 12.6272 0.0000 0.0000 0.0000
# 2 0.7062 62.2099 11.9191 0.0000 0.0000 0.0000
# 3 12.6272 11.9191 150.3569 0.0000 0.0000 0.0000
# 4 0.0000 0.0000 0.0000 26.3076 0.0000 0.0000
# 5 0.0000 0.0000 0.0000 0.0000 25.2053 0.0000
# 6 0.0000 0.0000 0.0000 0.0000 0.0000 24.5728
#
#
#
# Elastic Compliance Matrix: (Units=1/GPa)
#
#
# Indices 1 2 3 4 5 6 
#
# 1 0.010301 0.000050 -0.000869 0.000000 0.000000 0.000000
# 2 0.000050 0.016323 -0.001298 0.000000 0.000000 0.000000
# 3 -0.000869 -0.001298 0.006827 0.000000 0.000000 0.000000
# 4 0.000000 0.000000 0.000000 0.038012 0.000000 0.000000
# 5 0.000000 0.000000 0.000000 0.000000 0.039674 0.000000
# 6 0.000000 0.000000 0.000000 0.000000 0.000000 0.040695
#
#
# Mechanical properties :
#
#
# Convention : Reuss Voigt Hill
#
# Bulk Modulus (GPa) = 34.22877 40.13484 37.18181
# Shear Modulus (GPa) = 30.15590 34.24758 32.20174
#
# Velocity S-wave (km/s) = 3.56652 3.80079 3.68552
# Velocity P-wave (km/s) = 5.60341 6.01587 5.81330
#
# Compressibility (1/GPa) = 0.02921519
#
# Stress axis : x y z
#
# Youngs Moduli (GPa) = 97.08008 61.26418 146.48309
#
# Poissons Ratio (x) = -0.00304 0.12729
# Poissons Ratio (y) = -0.00481 0.19015
# Poissons Ratio (z) = 0.08436 0.07953
#
# Static dielectric constant tensor:
#      x y z
#    x 1.986600 0.000000 0.000000 
#    y 0.000000 2.000330 0.000000 
#    z 0.000000 0.000000 1.853270 
# 
# From -- ./inp_files/5070.got.cif
#   From: 2010.05.17/outbox.cif.g08.bks.cpg/sg29_3_cif.got.tgz:5070.got - 2010.06.04 01:19:37.
