data_PCOD9340090
_publ_section_title
;
Structure prediction by ZEFSAII (Michael W. Deem and Ramdas Pophale) SiO2 
 PCOD9340090
Probable space group: P C A 21
;
_chemical_formula_sum "Si O2"
_cell_formula_units_Z 32
_cell_length_a 10.387840
_cell_length_b 8.905392
_cell_length_c 16.347503
_cell_angle_alpha 90.000000
_cell_angle_beta 90.000000
_cell_angle_gamma 90.000000
_cell_volume 1512.271329
_symmetry_space_group_name_H-M "P C A 21"
_symmetry_group_IT_number 29
_symmetry_cell_setting 'orthorhombic'
loop_
_space_group_symop_operation_xyz
x,y,z
-x,-y,1/2+z
1/2-x,y,1/2+z
1/2+x,-y,z
loop_
_atom_site_type_symbol
_atom_site_label
_atom_site_fract_x
_atom_site_fract_y
_atom_site_fract_z
Si Si1 0.653640 0.092385 0.095940
Si Si2 0.139798 0.103935 0.238189
Si Si3 0.477598 0.622386 0.782367
Si Si4 0.330328 0.301303 0.135256
Si Si5 0.901354 0.960582 0.025095
Si Si6 0.258753 0.610039 0.661359
Si Si7 0.921803 0.306688 0.307361
Si Si8 0.304845 0.873445 0.864431
O O1 0.556211 0.027353 0.028723
O O2 0.667676 0.269451 0.106630
O O3 0.586393 0.023646 0.176968
O O4 0.802176 0.042905 0.087562
O O5 0.209877 0.216255 0.176232
O O6 0.041329 0.196300 0.293421
O O7 0.226732 0.000341 0.296566
O O8 0.574252 0.682550 0.712891
O O9 0.358739 0.554760 0.730316
O O10 0.539656 0.478603 0.827448
O O11 0.418074 0.759029 0.834727
O O12 0.378640 0.209563 0.056667
O O13 0.294408 0.470462 0.112133
O O14 0.850805 0.032124 0.941751
O O15 0.148290 0.683890 0.717989
O O16 0.820469 0.232291 0.369588
#
# Coordination Sequence:
#
# PCOD9340090 Si02
#       8
#     4   4   4   4   4   4   4   4
#     4  11  22  41  65  95 130 177 224 281 325 402
#     4  11  21  35  65  94 124 167 223 266 326 382
#     4  10  19  39  66  98 130 164 228 276 324 396
#     4  10  21  37  66 100 125 172 219 278 325 398
#     4  11  25  41  63  96 139 173 219 273 345 400
#     4  10  18  37  65  97 125 165 223 278 328 383
#     4  10  21  37  63  98 130 163 219 283 330 387
#     4  11  25  39  65  96 131 175 211 273 333 404
#
# _framework density 21.160223999999999
#
# number of rings (size 3 to 8) (size 9 to 14) (size 15 to 20)
#    0.000    1.500    5.000    0.750    5.250    0.000 
#    0.000    1.250    5.500    0.000    0.000    0.000 
#    0.000    0.000    0.000    0.000    0.000    0.000 
#
# Total GULP energy -178192.273099 kJ/mol
# GULP energy per Si atom -5568.508534 kJ/mol
# Density = 2.111206 g / cm^3
# Si number density = 21.160224 Si / 1000 Ang^3
#
#
#
# Elastic Constant Matrix: (Units=GPa)
#
#
# Indices 1 2 3 4 5 6 
#
# 1 71.1339 32.2629 -1.1422 0.0000 0.0000 0.0000
# 2 32.2629 117.0699 31.0900 0.0000 0.0000 0.0000
# 3 -1.1422 31.0900 42.1528 0.0000 0.0000 0.0000
# 4 0.0000 0.0000 0.0000 27.3236 0.0000 0.0000
# 5 0.0000 0.0000 0.0000 0.0000 18.9476 0.0000
# 6 0.0000 0.0000 0.0000 0.0000 0.0000 37.8693
#
#
#
# Elastic Compliance Matrix: (Units=1/GPa)
#
#
# Indices 1 2 3 4 5 6 
#
# 1 0.016818 -0.005914 0.004818 0.000000 0.000000 0.000000
# 2 -0.005914 0.012702 -0.009529 0.000000 0.000000 0.000000
# 3 0.004818 -0.009529 0.030882 0.000000 0.000000 0.000000
# 4 0.000000 0.000000 0.000000 0.036598 0.000000 0.000000
# 5 0.000000 0.000000 0.000000 0.000000 0.052777 0.000000
# 6 0.000000 0.000000 0.000000 0.000000 0.000000 0.026407
#
#
# Mechanical properties :
#
#
# Convention : Reuss Voigt Hill
#
# Bulk Modulus (GPa) = 25.54203 39.41981 32.48092
# Shear Modulus (GPa) = 23.75464 28.03784 25.89624
#
# Velocity S-wave (km/s) = 3.35417 3.64404 3.50210
# Velocity P-wave (km/s) = 5.20553 6.03117 5.63350
#
# Compressibility (1/GPa) = 0.03915115
#
# Stress axis : x y z
#
# Youngs Moduli (GPa) = 59.46109 78.72561 32.38147
#
# Poissons Ratio (x) = 0.46560 -0.15600
# Poissons Ratio (y) = 0.35166 0.30856
# Poissons Ratio (z) = -0.28647 0.75017
#
# Static dielectric constant tensor:
#      x y z
#    x 1.855420 0.000000 0.000000 
#    y 0.000000 1.781490 0.000000 
#    z 0.000000 0.000000 1.807890 
# 
# From -- ./inp_files/5153.got.cif
#   From: 2010.05.17/outbox.cif.g08.bks.cpg/sg29_3_cif.got.tgz:5153.got - 2010.06.04 01:19:37.
