data_PCOD9340489
_publ_section_title
;
Structure prediction by ZEFSAII (Michael W. Deem and Ramdas Pophale) SiO2 
 PCOD9340489
Probable space group: P C A 21
;
_chemical_formula_sum "Si O2"
_cell_formula_units_Z 32
_cell_length_a 13.160383
_cell_length_b 4.940704
_cell_length_c 20.499265
_cell_angle_alpha 90.000000
_cell_angle_beta 90.000000
_cell_angle_gamma 90.000000
_cell_volume 1332.894126
_symmetry_space_group_name_H-M "P C A 21"
_symmetry_group_IT_number 29
_symmetry_cell_setting 'orthorhombic'
loop_
_space_group_symop_operation_xyz
x,y,z
-x,-y,1/2+z
1/2-x,y,1/2+z
1/2+x,-y,z
loop_
_atom_site_type_symbol
_atom_site_label
_atom_site_fract_x
_atom_site_fract_y
_atom_site_fract_z
Si Si1 0.476689 0.461677 0.412370
Si Si2 0.748838 0.172948 0.619575
Si Si3 0.297522 0.226807 0.817412
Si Si4 0.497498 0.935137 0.330373
Si Si5 0.795098 0.270961 0.367197
Si Si6 0.170302 0.324748 0.691531
Si Si7 0.516976 0.313959 0.112836
Si Si8 0.938088 0.187569 0.039925
O O1 0.531304 0.740504 0.391862
O O2 0.478231 0.237992 0.354344
O O3 0.360781 0.572902 0.422111
O O4 0.525789 0.304906 0.471730
O O5 0.698157 0.368586 0.673700
O O6 0.681523 0.220990 0.554717
O O7 0.865873 0.245773 0.617242
O O8 0.729504 0.864747 0.639871
O O9 0.292067 0.531873 0.842777
O O10 0.214467 0.240574 0.760258
O O11 0.403190 0.115702 0.787704
O O12 0.743262 0.980689 0.372532
O O13 0.390203 0.787583 0.317077
O O14 0.051467 0.269758 0.677662
O O15 0.496581 0.621326 0.091884
O O16 0.470117 0.117322 0.057090
#
# Coordination Sequence:
#
# PCOD9340489 Si02
#       8
#     4   4   4   4   4   4   4   4
#     4  10  20  43  57  84 126 157 189 266 292 345
#     4  10  21  41  58  90 118 152 198 247 295 371
#     4  12  22  39  63  88 119 167 200 247 304 360
#     4  10  22  39  57  83 124 155 199 247 292 354
#     4  10  22  39  57  85 122 151 206 245 288 358
#     4  10  23  37  61  87 122 152 196 250 298 349
#     4  10  21  39  62  88 117 154 196 249 296 366
#     4  10  21  39  61  85 120 150 198 243 303 353
#
# _framework density 24.007911
#
# number of rings (size 3 to 8) (size 9 to 14) (size 15 to 20)
#    0.750    1.000    1.250    3.000    0.000    2.000 
#    6.750    0.000    0.000    0.000    0.000    0.000 
#    0.000    0.000    0.000    0.000    0.000    0.000 
#
# Total GULP energy -178431.808487 kJ/mol
# GULP energy per Si atom -5575.994015 kJ/mol
# Density = 2.395327 g / cm^3
# Si number density = 24.007911 Si / 1000 Ang^3
#
#
#
# Elastic Constant Matrix: (Units=GPa)
#
#
# Indices 1 2 3 4 5 6 
#
# 1 135.9388 4.6068 -10.7387 0.0000 0.0000 0.0000
# 2 4.6068 106.7931 0.1884 0.0000 0.0000 0.0000
# 3 -10.7387 0.1884 16.9627 0.0000 0.0000 0.0000
# 4 0.0000 0.0000 0.0000 15.1226 0.0000 0.0000
# 5 0.0000 0.0000 0.0000 0.0000 11.2436 0.0000
# 6 0.0000 0.0000 0.0000 0.0000 0.0000 31.9847
#
#
#
# Elastic Compliance Matrix: (Units=1/GPa)
#
#
# Indices 1 2 3 4 5 6 
#
# 1 0.007756 -0.000343 0.004914 0.000000 0.000000 0.000000
# 2 -0.000343 0.009379 -0.000322 0.000000 0.000000 0.000000
# 3 0.004914 -0.000322 0.062067 0.000000 0.000000 0.000000
# 4 0.000000 0.000000 0.000000 0.066126 0.000000 0.000000
# 5 0.000000 0.000000 0.000000 0.000000 0.088939 0.000000
# 6 0.000000 0.000000 0.000000 0.000000 0.000000 0.031265
#
#
# Mechanical properties :
#
#
# Convention : Reuss Voigt Hill
#
# Bulk Modulus (GPa) = 11.40235 27.53418 19.46826
# Shear Modulus (GPa) = 17.46611 29.37938 23.42275
#
# Velocity S-wave (km/s) = 2.70017 3.50199 3.12689
# Velocity P-wave (km/s) = 3.80539 5.27689 4.60036
#
# Compressibility (1/GPa) = 0.08770125
#
# Stress axis : x y z
#
# Youngs Moduli (GPa) = 128.93123 106.61808 16.11153
#
# Poissons Ratio (x) = 0.03660 -0.07917
# Poissons Ratio (y) = 0.04426 0.00518
# Poissons Ratio (z) = -0.63357 0.03428
#
# Static dielectric constant tensor:
#      x y z
#    x 2.075240 0.000000 0.000000 
#    y 0.000000 1.865600 0.000000 
#    z 0.000000 0.000000 1.997750 
# 
# From -- ./inp_files/5532.got.cif
#   From: 2010.05.17/outbox.cif.g08.bks.cpg/sg29_3_cif.got.tgz:5532.got - 2010.06.04 01:19:37.
