data_PCOD9340867
_publ_section_title
;
Structure prediction by ZEFSAII (Michael W. Deem and Ramdas Pophale) SiO2 
 PCOD9340867
Probable space group: P C A 21
;
_chemical_formula_sum "Si O2"
_cell_formula_units_Z 28
_cell_length_a 8.724416
_cell_length_b 13.526908
_cell_length_c 11.368670
_cell_angle_alpha 90.000000
_cell_angle_beta 90.000000
_cell_angle_gamma 90.000000
_cell_volume 1341.666457
_symmetry_space_group_name_H-M "P C A 21"
_symmetry_group_IT_number 29
_symmetry_cell_setting 'orthorhombic'
loop_
_space_group_symop_operation_xyz
x,y,z
-x,-y,1/2+z
1/2-x,y,1/2+z
1/2+x,-y,z
loop_
_atom_site_type_symbol
_atom_site_label
_atom_site_fract_x
_atom_site_fract_y
_atom_site_fract_z
Si Si1 0.016664 0.634399 0.254240
Si Si2 0.854160 0.040738 0.521416
Si Si3 0.354160 0.959262 0.259430
Si Si4 0.250000 0.496768 0.640423
Si Si5 0.016664 0.634399 0.526606
Si Si6 0.573802 0.836378 0.656901
Si Si7 0.573802 0.836378 0.123945
O O1 0.167405 0.569372 0.232392
O O2 0.878216 0.572002 0.198037
O O3 0.986858 0.648401 0.390423
O O4 0.022241 0.742234 0.196308
O O5 0.750000 0.053934 0.640423
O O6 0.787420 0.055063 0.390423
O O7 0.995716 0.115061 0.542441
O O8 0.915615 0.928544 0.533893
O O9 0.495716 0.884939 0.238404
O O10 0.415615 0.071456 0.246953
O O11 0.378216 0.427998 0.582809
O O12 0.167405 0.569372 0.548454
O O13 0.022241 0.742234 0.584537
O O14 0.750000 0.804761 0.640423
#
# Coordination Sequence:
#
# PCOD9340867 Si02
#       7
#     4   4   4   4   4   4   4
#     4  11  22  42  66  90 126 167 207 265 323 375
#     4  10  23  42  65  96 133 170 215 265 317 384
#     4  10  23  42  65  96 133 170 215 265 317 384
#     4  10  24  42  62  96 122 156 220 262 316 382
#     4  11  22  42  66  90 126 167 207 265 323 375
#     4  10  22  40  63  94 129 168 213 255 316 379
#     4  10  22  40  63  94 129 168 213 255 316 379
#
# _framework density 20.869568000000001
#
# number of rings (size 3 to 8) (size 9 to 14) (size 15 to 20)
#    0.000    1.714    1.429    1.714    2.000   12.571 
#    0.000    1.429    0.000    0.000    0.000    0.000 
#    0.000    0.000    0.000    0.000    0.000    0.000 
#
# Total GULP energy -156274.674750 kJ/mol
# GULP energy per Si atom -5581.238384 kJ/mol
# Density = 2.082207 g / cm^3
# Si number density = 20.869568 Si / 1000 Ang^3
#
#
#
# Elastic Constant Matrix: (Units=GPa)
#
#
# Indices 1 2 3 4 5 6 
#
# 1 43.7528 10.2460 12.3328 0.0000 0.0000 0.0000
# 2 10.2460 119.4498 30.7545 0.0000 0.0000 0.0000
# 3 12.3328 30.7545 116.7598 0.0000 0.0000 0.0000
# 4 0.0000 0.0000 0.0000 2.4822 0.0000 0.0000
# 5 0.0000 0.0000 0.0000 0.0000 21.4317 0.0000
# 6 0.0000 0.0000 0.0000 0.0000 0.0000 17.0693
#
#
#
# Elastic Compliance Matrix: (Units=1/GPa)
#
#
# Indices 1 2 3 4 5 6 
#
# 1 0.023804 -0.001496 -0.002120 0.000000 0.000000 0.000000
# 2 -0.001496 0.009075 -0.002232 0.000000 0.000000 0.000000
# 3 -0.002120 -0.002232 0.009377 0.000000 0.000000 0.000000
# 4 0.000000 0.000000 0.000000 0.402874 0.000000 0.000000
# 5 0.000000 0.000000 0.000000 0.000000 0.046660 0.000000
# 6 0.000000 0.000000 0.000000 0.000000 0.000000 0.058585
#
#
# Mechanical properties :
#
#
# Convention : Reuss Voigt Hill
#
# Bulk Modulus (GPa) = 32.72460 42.95878 37.84169
# Shear Modulus (GPa) = 8.73734 23.30523 16.02129
#
# Velocity S-wave (km/s) = 2.04835 3.34534 2.77372
# Velocity P-wave (km/s) = 4.61615 5.96246 5.33197
#
# Compressibility (1/GPa) = 0.03055805
#
# Stress axis : x y z
#
# Youngs Moduli (GPa) = 42.01042 110.19563 106.64926
#
# Poissons Ratio (x) = 0.16484 0.22612
# Poissons Ratio (y) = 0.06284 0.23807
# Poissons Ratio (z) = 0.08907 0.24599
#
# Static dielectric constant tensor:
#      x y z
#    x 1.828400 0.000000 0.000000 
#    y 0.000000 1.709230 0.000000 
#    z 0.000000 0.000000 1.740800 
# 
# From -- ./inp_files/2868.got.cif
#   From: 2010.05.17/outbox.cif.g08.bks.cpg/sg29_2_cif.got.tgz:2868.got - 2010.06.04 01:19:37.
