data_PCOD9340019
_publ_section_title
;
Structure prediction by ZEFSAII (Michael W. Deem and Ramdas Pophale) SiO2 
 PCOD9340019
Probable space group: P C A 21
;
_chemical_formula_sum "Si O2"
_cell_formula_units_Z 32
_cell_length_a 23.884986
_cell_length_b 12.818717
_cell_length_c 5.599778
_cell_angle_alpha 90.000000
_cell_angle_beta 90.000000
_cell_angle_gamma 90.000000
_cell_volume 1714.511335
_symmetry_space_group_name_H-M "P C A 21"
_symmetry_group_IT_number 29
_symmetry_cell_setting 'orthorhombic'
loop_
_space_group_symop_operation_xyz
x,y,z
-x,-y,1/2+z
1/2-x,y,1/2+z
1/2+x,-y,z
loop_
_atom_site_type_symbol
_atom_site_label
_atom_site_fract_x
_atom_site_fract_y
_atom_site_fract_z
Si Si1 0.216115 0.411386 0.861740
Si Si2 0.412459 0.673758 0.901012
Si Si3 0.537465 0.134704 0.185216
Si Si4 0.119477 0.584020 0.902569
Si Si5 0.567817 0.934253 0.966709
Si Si6 0.465218 0.401394 0.470777
Si Si7 0.873642 0.755281 0.248730
Si Si8 0.951310 0.756079 0.853492
O O1 0.250686 0.416163 0.612940
O O2 0.171737 0.505970 0.872929
O O3 0.180451 0.304361 0.837328
O O4 0.430806 0.794318 0.876123
O O5 0.379200 0.643224 0.658473
O O6 0.385141 0.650173 0.158028
O O7 0.470686 0.608434 0.897060
O O8 0.486244 0.068411 0.294978
O O9 0.576357 0.050981 0.055117
O O10 0.505126 0.215470 0.013317
O O11 0.065051 0.508865 0.918943
O O12 0.551732 0.854243 0.176560
O O13 0.618027 0.873204 0.836733
O O14 0.426708 0.313642 0.341248
O O15 0.461075 0.356357 0.738173
O O16 0.889543 0.753782 0.971245
#
# Coordination Sequence:
#
# PCOD9340019 Si02
#       8
#     4   4   4   4   4   4   4   4
#     4  11  25  45  69  88 112 148 203 275 340 381
#     4  12  22  36  53  85 126 164 202 235 276 365
#     4  11  20  30  53  82 123 183 206 234 277 350
#     4  11  26  37  57  84 117 152 205 249 307 366
#     4  10  19  32  51  81 127 166 209 235 285 349
#     4  10  20  32  53  78 123 165 192 231 291 353
#     4   9  21  34  58  87 115 156 201 255 302 373
#     4  10  17  32  52  77 125 160 214 232 280 355
#
# _framework density 18.664207999999999
#
# number of rings (size 3 to 8) (size 9 to 14) (size 15 to 20)
#    0.000    1.500    5.000    2.250    8.750    0.000 
#    0.000    0.000    0.000    0.000    0.000    5.250 
#    0.000    0.000    0.000    0.000    0.000    0.000 
#
# Total GULP energy -178336.470786 kJ/mol
# GULP energy per Si atom -5573.014712 kJ/mol
# Density = 1.862173 g / cm^3
# Si number density = 18.664208 Si / 1000 Ang^3
#
#
#
# Elastic Constant Matrix: (Units=GPa)
#
#
# Indices 1 2 3 4 5 6 
#
# 1 68.3319 20.4266 38.5633 0.0000 0.0000 0.0000
# 2 20.4266 81.4305 35.4789 0.0000 0.0000 0.0000
# 3 38.5633 35.4789 109.9845 0.0000 0.0000 0.0000
# 4 0.0000 0.0000 0.0000 34.4628 0.0000 0.0000
# 5 0.0000 0.0000 0.0000 0.0000 23.2308 0.0000
# 6 0.0000 0.0000 0.0000 0.0000 0.0000 17.2292
#
#
#
# Elastic Compliance Matrix: (Units=1/GPa)
#
#
# Indices 1 2 3 4 5 6 
#
# 1 0.018553 -0.002117 -0.005822 0.000000 0.000000 0.000000
# 2 -0.002117 0.014530 -0.003945 0.000000 0.000000 0.000000
# 3 -0.005822 -0.003945 0.012406 0.000000 0.000000 0.000000
# 4 0.000000 0.000000 0.000000 0.029017 0.000000 0.000000
# 5 0.000000 0.000000 0.000000 0.000000 0.043046 0.000000
# 6 0.000000 0.000000 0.000000 0.000000 0.000000 0.058041
#
#
# Mechanical properties :
#
#
# Convention : Reuss Voigt Hill
#
# Bulk Modulus (GPa) = 46.03854 49.85383 47.94618
# Shear Modulus (GPa) = 24.20106 26.00310 25.10208
#
# Velocity S-wave (km/s) = 3.60482 3.73662 3.67131
# Velocity P-wave (km/s) = 6.48433 6.73686 6.61180
#
# Compressibility (1/GPa) = 0.02172093
#
# Stress axis : x y z
#
# Youngs Moduli (GPa) = 53.89913 68.82188 80.60540
#
# Poissons Ratio (x) = 0.14572 0.46930
# Poissons Ratio (y) = 0.11412 0.31797
# Poissons Ratio (z) = 0.31381 0.27149
#
# Static dielectric constant tensor:
#      x y z
#    x 1.633920 0.000000 0.000000 
#    y 0.000000 1.647830 0.000000 
#    z 0.000000 0.000000 1.834420 
# 
# From -- ./inp_files/704.got.cif
#   From: 2010.05.17/outbox.cif.g08.bks.cpg/sg29_1_cif.got.tgz:704.got - 2010.06.04 01:19:37.
