data_PCOD9340940
_publ_section_title
;
Structure prediction by ZEFSAII (Michael W. Deem and Ramdas Pophale) SiO2 
 PCOD9340940
Probable space group: P C A 21
;
_chemical_formula_sum "Si O2"
_cell_formula_units_Z 24
_cell_length_a 9.234259
_cell_length_b 10.761111
_cell_length_c 8.738924
_cell_angle_alpha 90.000000
_cell_angle_beta 90.000000
_cell_angle_gamma 90.000000
_cell_volume 868.394621
_symmetry_space_group_name_H-M "P C A 21"
_symmetry_group_IT_number 29
_symmetry_cell_setting 'orthorhombic'
loop_
_space_group_symop_operation_xyz
x,y,z
-x,-y,1/2+z
1/2-x,y,1/2+z
1/2+x,-y,z
loop_
_atom_site_type_symbol
_atom_site_label
_atom_site_fract_x
_atom_site_fract_y
_atom_site_fract_z
Si Si1 0.785947 0.283197 0.465460
Si Si2 0.089311 0.599173 0.677840
Si Si3 0.462454 0.013568 0.385480
Si Si4 0.702017 0.042693 0.157877
Si Si5 0.762465 0.642249 0.763010
Si Si6 0.589984 0.761427 0.538145
O O1 0.834779 0.299118 0.291052
O O2 0.656181 0.372527 0.512306
O O3 0.754978 0.147996 0.535311
O O4 0.938197 0.312410 0.551041
O O5 0.153856 0.471840 0.742798
O O6 0.918013 0.612951 0.686519
O O7 0.380297 0.055244 0.542257
O O8 0.340047 0.985348 0.259784
O O9 0.548281 0.889366 0.450012
O O10 0.580260 0.084010 0.281273
O O11 0.677499 0.760105 0.694252
O O12 0.806863 0.678964 0.932354
#
# Coordination Sequence:
#
# PCOD9340940 Si02
#       6
#     4   4   4   4   4   4
#     4  10  22  42  65  96 135 179 230 286 352 422
#     4  11  23  40  67  98 134 179 230 289 357 429
#     4  11  25  45  72 104 142 190 242 297 364 433
#     4  11  23  45  70 102 143 187 239 299 361 433
#     4  11  23  41  64  96 134 175 228 287 350 425
#     4  10  24  43  64  96 134 178 231 286 348 424
#
# _framework density 27.637205000000002
#
# number of rings (size 3 to 8) (size 9 to 14) (size 15 to 20)
#    0.000    1.333    0.000    6.000    0.000    9.333 
#    0.000   10.000    0.000    0.000    0.000    0.000 
#    0.000    0.000    0.000    0.000    0.000    0.000 
#
# Total GULP energy -134300.669050 kJ/mol
# GULP energy per Si atom -5595.861210 kJ/mol
# Density = 2.757430 g / cm^3
# Si number density = 27.637205 Si / 1000 Ang^3
#
#
#
# Elastic Constant Matrix: (Units=GPa)
#
#
# Indices 1 2 3 4 5 6 
#
# 1 158.1589 27.8772 65.8702 0.0000 0.0000 0.0000
# 2 27.8772 100.0650 11.2500 0.0000 0.0000 0.0000
# 3 65.8702 11.2500 108.1903 0.0000 0.0000 0.0000
# 4 0.0000 0.0000 0.0000 35.1907 0.0000 0.0000
# 5 0.0000 0.0000 0.0000 0.0000 76.9500 0.0000
# 6 0.0000 0.0000 0.0000 0.0000 0.0000 36.4784
#
#
#
# Elastic Compliance Matrix: (Units=1/GPa)
#
#
# Indices 1 2 3 4 5 6 
#
# 1 0.008804 -0.001872 -0.005166 0.000000 0.000000 0.000000
# 2 -0.001872 0.010510 0.000047 0.000000 0.000000 0.000000
# 3 -0.005166 0.000047 0.012383 0.000000 0.000000 0.000000
# 4 0.000000 0.000000 0.000000 0.028417 0.000000 0.000000
# 5 0.000000 0.000000 0.000000 0.000000 0.012995 0.000000
# 6 0.000000 0.000000 0.000000 0.000000 0.000000 0.027413
#
#
# Mechanical properties :
#
#
# Convention : Reuss Voigt Hill
#
# Bulk Modulus (GPa) = 56.44756 64.04546 60.24651
# Shear Modulus (GPa) = 41.52511 47.15160 44.33835
#
# Velocity S-wave (km/s) = 3.88042 4.13497 4.00972
# Velocity P-wave (km/s) = 6.36755 6.78389 6.57902
#
# Compressibility (1/GPa) = 0.01771556
#
# Stress axis : x y z
#
# Youngs Moduli (GPa) = 113.58368 95.14969 80.75526
#
# Poissons Ratio (x) = 0.17812 0.41715
# Poissons Ratio (y) = 0.21263 -0.00379
# Poissons Ratio (z) = 0.58673 -0.00446
#
# Static dielectric constant tensor:
#      x y z
#    x 2.139850 0.000000 0.000000 
#    y 0.000000 2.320730 0.000000 
#    z 0.000000 0.000000 2.114010 
# 
# From -- ./inp_files/1173.got.cif
#   From: 2010.05.17/outbox.cif.g08.bks.cpg/sg29_1_cif.got.tgz:1173.got - 2010.06.04 01:19:37.
