data_PCOD9340924
_publ_section_title
;
Structure prediction by ZEFSAII (Michael W. Deem and Ramdas Pophale) SiO2 
 PCOD9340924
Probable space group: P C A 21
;
_chemical_formula_sum "Si O2"
_cell_formula_units_Z 28
_cell_length_a 11.941273
_cell_length_b 8.483090
_cell_length_c 11.228030
_cell_angle_alpha 90.000000
_cell_angle_beta 90.000000
_cell_angle_gamma 90.000000
_cell_volume 1137.387016
_symmetry_space_group_name_H-M "P C A 21"
_symmetry_group_IT_number 29
_symmetry_cell_setting 'orthorhombic'
loop_
_space_group_symop_operation_xyz
x,y,z
-x,-y,1/2+z
1/2-x,y,1/2+z
1/2+x,-y,z
loop_
_atom_site_type_symbol
_atom_site_label
_atom_site_fract_x
_atom_site_fract_y
_atom_site_fract_z
Si Si1 0.270534 0.189071 0.588590
Si Si2 0.082275 0.774789 0.313430
Si Si3 0.829501 0.267461 0.251276
Si Si4 0.419686 0.409351 0.153048
Si Si5 0.025558 0.879514 0.562226
Si Si6 0.022459 0.767107 0.960000
Si Si7 0.170758 0.110849 0.338635
O O1 0.193765 0.343630 0.592053
O O2 0.404153 0.195458 0.584901
O O3 0.234045 0.097631 0.466588
O O4 0.251352 0.133869 0.725518
O O5 0.196193 0.712822 0.253276
O O6 0.076832 0.773510 0.455750
O O7 0.973438 0.696829 0.257856
O O8 0.095382 0.962671 0.298379
O O9 0.890953 0.424012 0.207035
O O10 0.884674 0.135510 0.167068
O O11 0.864627 0.229440 0.386491
O O12 0.510836 0.377697 0.049560
O O13 0.001405 0.064099 0.526127
O O14 0.920988 0.754754 0.864445
#
# Coordination Sequence:
#
# PCOD9340924 Si02
#       7
#     4   4   4   4   4   4   4
#     4  11  22  46  76 109 148 200 254 319 386 461
#     4  11  27  45  73 111 148 195 258 319 386 450
#     4  12  28  47  75 109 161 199 251 318 394 462
#     4  11  28  46  74 110 157 199 250 313 390 472
#     4  11  25  47  79 108 145 204 263 317 379 456
#     4  10  24  48  73 112 145 198 262 314 377 464
#     4  10  22  41  78 109 146 189 262 322 376 447
#
# _framework density 24.617827999999999
#
# number of rings (size 3 to 8) (size 9 to 14) (size 15 to 20)
#    0.000    1.143    1.429    2.571   14.000    0.000 
#    5.143    0.000    0.000    0.000    0.000    0.000 
#    0.000    0.000    0.000    0.000    0.000    0.000 
#
# Total GULP energy -156239.187311 kJ/mol
# GULP energy per Si atom -5579.970975 kJ/mol
# Density = 2.456180 g / cm^3
# Si number density = 24.617828 Si / 1000 Ang^3
#
#
#
# Elastic Constant Matrix: (Units=GPa)
#
#
# Indices 1 2 3 4 5 6 
#
# 1 137.1424 27.7710 38.1714 0.0000 0.0000 0.0000
# 2 27.7710 85.0805 39.3159 0.0000 0.0000 0.0000
# 3 38.1714 39.3159 124.9182 0.0000 0.0000 0.0000
# 4 0.0000 0.0000 0.0000 29.5986 0.0000 0.0000
# 5 0.0000 0.0000 0.0000 0.0000 43.7859 0.0000
# 6 0.0000 0.0000 0.0000 0.0000 0.0000 18.4931
#
#
#
# Elastic Compliance Matrix: (Units=1/GPa)
#
#
# Indices 1 2 3 4 5 6 
#
# 1 0.008192 -0.001775 -0.001945 0.000000 0.000000 0.000000
# 2 -0.001775 0.014139 -0.003907 0.000000 0.000000 0.000000
# 3 -0.001945 -0.003907 0.009829 0.000000 0.000000 0.000000
# 4 0.000000 0.000000 0.000000 0.033785 0.000000 0.000000
# 5 0.000000 0.000000 0.000000 0.000000 0.022838 0.000000
# 6 0.000000 0.000000 0.000000 0.000000 0.000000 0.054074
#
#
# Mechanical properties :
#
#
# Convention : Reuss Voigt Hill
#
# Bulk Modulus (GPa) = 59.15231 61.96195 60.55713
# Shear Modulus (GPa) = 30.53463 34.50105 32.51784
#
# Velocity S-wave (km/s) = 3.52568 3.74768 3.63837
# Velocity P-wave (km/s) = 6.37607 6.62955 6.50405
#
# Compressibility (1/GPa) = 0.01690551
#
# Stress axis : x y z
#
# Youngs Moduli (GPa) = 122.06341 70.72771 101.73741
#
# Poissons Ratio (x) = 0.12558 0.19784
# Poissons Ratio (y) = 0.21672 0.39753
# Poissons Ratio (z) = 0.23736 0.27636
#
# Static dielectric constant tensor:
#      x y z
#    x 1.926690 0.000000 0.000000 
#    y 0.000000 1.986010 0.000000 
#    z 0.000000 0.000000 2.105590 
# 
# From -- ./inp_files/3166.got.cif
#   From: 2010.05.17/outbox.cif.g08.bks.cpg/sg29_2_cif.got.tgz:3166.got - 2010.06.04 01:19:37.
