data_PCOD9340026
_publ_section_title
;
Structure prediction by ZEFSAII (Michael W. Deem and Ramdas Pophale) SiO2 
 PCOD9340026
Probable space group: P C A 21
;
_chemical_formula_sum "Si O2"
_cell_formula_units_Z 32
_cell_length_a 5.191269
_cell_length_b 16.274271
_cell_length_c 15.726857
_cell_angle_alpha 90.000000
_cell_angle_beta 90.000000
_cell_angle_gamma 90.000000
_cell_volume 1328.669651
_symmetry_space_group_name_H-M "P C A 21"
_symmetry_group_IT_number 29
_symmetry_cell_setting 'orthorhombic'
loop_
_space_group_symop_operation_xyz
x,y,z
-x,-y,1/2+z
1/2-x,y,1/2+z
1/2+x,-y,z
loop_
_atom_site_type_symbol
_atom_site_label
_atom_site_fract_x
_atom_site_fract_y
_atom_site_fract_z
Si Si1 0.053501 0.701684 0.940670
Si Si2 0.760735 0.549874 0.411129
Si Si3 0.924823 0.647947 0.765844
Si Si4 0.603198 0.292185 0.600990
Si Si5 0.711543 0.945952 0.762207
Si Si6 0.217614 0.123399 0.443812
Si Si7 0.616951 0.779571 0.673279
Si Si8 0.484496 0.977217 0.052501
O O1 0.113949 0.680599 0.841295
O O2 0.941539 0.793403 0.944823
O O3 0.833355 0.632752 0.957501
O O4 0.278382 0.690122 0.009158
O O5 0.043417 0.518193 0.430489
O O6 0.717856 0.572440 0.311220
O O7 0.713463 0.719756 0.749271
O O8 0.060374 0.637450 0.674311
O O9 0.322857 0.250554 0.602695
O O10 0.825798 0.235984 0.644993
O O11 0.682853 0.896449 0.851062
O O12 0.670799 0.873281 0.694527
O O13 0.496588 0.016341 0.763398
O O14 0.455401 0.108824 0.509209
O O15 0.048626 0.045745 0.477688
O O16 0.723896 0.014586 0.102301
#
# Coordination Sequence:
#
# PCOD9340026 Si02
#       8
#     4   4   4   4   4   4   4   4
#     4  10  22  43  73  99 130 188 215 281 339 403
#     4  10  23  43  66 103 139 166 220 277 330 406
#     4   8  22  41  71  94 127 175 218 266 337 398
#     4  10  22  45  64 102 131 167 235 279 325 411
#     4  12  20  33  60  87 126 178 221 275 341 386
#     4  10  17  35  54  95 117 167 221 258 326 383
#     4  10  22  42  63  94 134 166 236 279 317 413
#     4   8  16  30  45  76 124 145 202 269 287 376
#
# _framework density 24.084239
#
# number of rings (size 3 to 8) (size 9 to 14) (size 15 to 20)
#    2.250    0.000    2.500    0.750    1.750    1.000 
#    6.750    1.250    8.250    0.000    0.000    0.000 
#    0.000    0.000    0.000    0.000    0.000    0.000 
#
# Total GULP energy -178398.652197 kJ/mol
# GULP energy per Si atom -5574.957881 kJ/mol
# Density = 2.402942 g / cm^3
# Si number density = 24.084239 Si / 1000 Ang^3
#
#
#
# Elastic Constant Matrix: (Units=GPa)
#
#
# Indices 1 2 3 4 5 6 
#
# 1 75.6763 0.2976 3.5847 0.0000 0.0000 0.0000
# 2 0.2976 88.0523 -1.3988 0.0000 0.0000 0.0000
# 3 3.5847 -1.3988 81.2471 0.0000 0.0000 0.0000
# 4 0.0000 0.0000 0.0000 38.7266 0.0000 0.0000
# 5 0.0000 0.0000 0.0000 0.0000 25.8605 0.0000
# 6 0.0000 0.0000 0.0000 0.0000 0.0000 28.7565
#
#
#
# Elastic Compliance Matrix: (Units=1/GPa)
#
#
# Indices 1 2 3 4 5 6 
#
# 1 0.013242 -0.000054 -0.000585 0.000000 0.000000 0.000000
# 2 -0.000054 0.011360 0.000198 0.000000 0.000000 0.000000
# 3 -0.000585 0.000198 0.012337 0.000000 0.000000 0.000000
# 4 0.000000 0.000000 0.000000 0.025822 0.000000 0.000000
# 5 0.000000 0.000000 0.000000 0.000000 0.038669 0.000000
# 6 0.000000 0.000000 0.000000 0.000000 0.000000 0.034775
#
#
# Mechanical properties :
#
#
# Convention : Reuss Voigt Hill
#
# Bulk Modulus (GPa) = 27.73375 27.77141 27.75258
# Shear Modulus (GPa) = 33.53296 34.83487 34.18392
#
# Velocity S-wave (km/s) = 3.73543 3.80725 3.77151
# Velocity P-wave (km/s) = 5.49043 5.55724 5.52394
#
# Compressibility (1/GPa) = 0.03605715
#
# Stress axis : x y z
#
# Youngs Moduli (GPa) = 75.51667 88.02648 81.05463
#
# Poissons Ratio (x) = 0.00476 0.04743
# Poissons Ratio (y) = 0.00408 -0.01605
# Poissons Ratio (z) = 0.04419 -0.01743
#
# Static dielectric constant tensor:
#      x y z
#    x 2.004280 0.000000 0.000000 
#    y 0.000000 1.885590 0.000000 
#    z 0.000000 0.000000 2.040970 
# 
# From -- ./inp_files/4899.got.cif
#   From: 2010.05.17/outbox.cif.g08.bks.cpg/sg29_3_cif.got.tgz:4899.got - 2010.06.04 01:19:37.
