data_PCOD9340783
_publ_section_title
;
Structure prediction by ZEFSAII (Michael W. Deem and Ramdas Pophale) SiO2 
 PCOD9340783
Probable space group: P C A 21
;
_chemical_formula_sum "Si O2"
_cell_formula_units_Z 28
_cell_length_a 24.930939
_cell_length_b 5.623460
_cell_length_c 8.495788
_cell_angle_alpha 90.000000
_cell_angle_beta 90.000000
_cell_angle_gamma 90.000000
_cell_volume 1191.093660
_symmetry_space_group_name_H-M "P C A 21"
_symmetry_group_IT_number 29
_symmetry_cell_setting 'orthorhombic'
loop_
_space_group_symop_operation_xyz
x,y,z
-x,-y,1/2+z
1/2-x,y,1/2+z
1/2+x,-y,z
loop_
_atom_site_type_symbol
_atom_site_label
_atom_site_fract_x
_atom_site_fract_y
_atom_site_fract_z
Si Si1 0.627428 0.687161 0.747630
Si Si2 0.906748 0.877238 0.944114
Si Si3 0.698443 0.716332 0.042173
Si Si4 0.425546 0.625312 0.834830
Si Si5 0.518384 0.582514 0.605003
Si Si6 0.783236 0.339864 0.106763
Si Si7 0.273867 0.983465 0.827300
O O1 0.622994 0.894317 0.613584
O O2 0.648121 0.722796 0.924451
O O3 0.566963 0.583719 0.733571
O O4 0.671872 0.514137 0.671533
O O5 0.892169 0.618113 0.867365
O O6 0.967958 0.814403 0.997700
O O7 0.902244 0.110717 0.841332
O O8 0.748124 0.819834 0.939902
O O9 0.724111 0.464511 0.093269
O O10 0.692751 0.885711 0.192609
O O11 0.466149 0.625065 0.985172
O O12 0.461061 0.583814 0.681390
O O13 0.775069 0.137293 0.235678
O O14 0.796221 0.220686 0.940403
#
# Coordination Sequence:
#
# PCOD9340783 Si02
#       7
#     4   4   4   4   4   4   4
#     4   9  20  37  60  86 115 162 204 251 305 372
#     4   8  21  33  62  87 116 150 198 248 293 378
#     4  11  19  37  57  84 119 163 203 250 301 364
#     4   9  18  37  61  89 113 151 195 240 321 356
#     4   8  21  35  66  83 117 153 199 247 299 382
#     4  11  19  38  56  84 121 159 204 252 299 364
#     4  10  22  31  60  85 109 176 199 250 304 356
#
# _framework density 23.507804
#
# number of rings (size 3 to 8) (size 9 to 14) (size 15 to 20)
#    1.714    0.571    2.857    0.000    2.000    2.286 
#    0.000    0.000   18.857    0.000    0.000    0.000 
#    0.000    0.000    0.000    0.000    0.000    0.000 
#
# Total GULP energy -155889.962625 kJ/mol
# GULP energy per Si atom -5567.498665 kJ/mol
# Density = 2.345430 g / cm^3
# Si number density = 23.507804 Si / 1000 Ang^3
#
#
#
# Elastic Constant Matrix: (Units=GPa)
#
#
# Indices 1 2 3 4 5 6 
#
# 1 32.5946 8.7714 16.4092 0.0000 0.0000 0.0000
# 2 8.7714 85.2913 34.2832 0.0000 0.0000 0.0000
# 3 16.4092 34.2832 81.5075 0.0000 0.0000 0.0000
# 4 0.0000 0.0000 0.0000 40.7701 0.0000 0.0000
# 5 0.0000 0.0000 0.0000 0.0000 54.5042 0.0000
# 6 0.0000 0.0000 0.0000 0.0000 0.0000 21.2128
#
#
#
# Elastic Compliance Matrix: (Units=1/GPa)
#
#
# Indices 1 2 3 4 5 6 
#
# 1 0.034198 -0.000902 -0.006505 0.000000 0.000000 0.000000
# 2 -0.000902 0.014134 -0.005763 0.000000 0.000000 0.000000
# 3 -0.006505 -0.005763 0.016003 0.000000 0.000000 0.000000
# 4 0.000000 0.000000 0.000000 0.024528 0.000000 0.000000
# 5 0.000000 0.000000 0.000000 0.000000 0.018347 0.000000
# 6 0.000000 0.000000 0.000000 0.000000 0.000000 0.047141
#
#
# Mechanical properties :
#
#
# Convention : Reuss Voigt Hill
#
# Bulk Modulus (GPa) = 26.32078 35.36900 30.84489
# Shear Modulus (GPa) = 25.85900 32.62605 29.24253
#
# Velocity S-wave (km/s) = 3.32025 3.72947 3.53079
# Velocity P-wave (km/s) = 5.09114 5.79858 5.45634
#
# Compressibility (1/GPa) = 0.03799280
#
# Stress axis : x y z
#
# Youngs Moduli (GPa) = 29.24171 70.75205 62.48988
#
# Poissons Ratio (x) = 0.06382 0.40652
# Poissons Ratio (y) = 0.02638 0.36015
# Poissons Ratio (z) = 0.19023 0.40776
#
# Static dielectric constant tensor:
#      x y z
#    x 1.925470 0.000000 0.000000 
#    y 0.000000 1.906720 0.000000 
#    z 0.000000 0.000000 1.899170 
# 
# From -- ./inp_files/2537.got.cif
#   From: 2010.05.17/outbox.cif.g08.bks.cpg/sg29_2_cif.got.tgz:2537.got - 2010.06.04 01:19:37.
