data_PCOD9340751
_publ_section_title
;
Structure prediction by ZEFSAII (Michael W. Deem and Ramdas Pophale) SiO2 
 PCOD9340751
Probable space group: P C A 21
;
_chemical_formula_sum "Si O2"
_cell_formula_units_Z 32
_cell_length_a 14.330147
_cell_length_b 6.224553
_cell_length_c 16.095264
_cell_angle_alpha 90.000000
_cell_angle_beta 90.000000
_cell_angle_gamma 90.000000
_cell_volume 1435.677583
_symmetry_space_group_name_H-M "P C A 21"
_symmetry_group_IT_number 29
_symmetry_cell_setting 'orthorhombic'
loop_
_space_group_symop_operation_xyz
x,y,z
-x,-y,1/2+z
1/2-x,y,1/2+z
1/2+x,-y,z
loop_
_atom_site_type_symbol
_atom_site_label
_atom_site_fract_x
_atom_site_fract_y
_atom_site_fract_z
Si Si1 0.795929 0.019016 0.227440
Si Si2 0.564739 0.890295 0.370414
Si Si3 0.980195 0.337239 0.514173
Si Si4 0.959655 0.346761 0.254764
Si Si5 0.865363 0.626121 0.126984
Si Si6 0.758449 0.954590 0.412467
Si Si7 0.725419 0.272937 0.067930
Si Si8 0.046964 0.297734 0.895568
O O1 0.891817 0.142842 0.247379
O O2 0.745649 0.137318 0.151279
O O3 0.816981 0.779921 0.194216
O O4 0.747830 0.035613 0.316963
O O5 0.481970 0.806510 0.431118
O O6 0.556052 0.757190 0.285106
O O7 0.660451 0.830855 0.415723
O O8 0.534035 0.137426 0.363625
O O9 0.883029 0.327927 0.561082
O O10 0.990633 0.576939 0.476726
O O11 0.064981 0.245812 0.568063
O O12 0.940495 0.467129 0.169661
O O13 0.934577 0.525640 0.324035
O O14 0.789730 0.483854 0.078175
O O15 0.853646 0.816598 0.415077
O O16 0.755436 0.132443 0.484886
#
# Coordination Sequence:
#
# PCOD9340751 Si02
#       8
#     4   4   4   4   4   4   4   4
#     4  11  24  46  70 102 143 187 234 294 361 426
#     4  11  23  41  68 102 128 184 239 282 359 425
#     4  11  25  42  66 100 137 180 238 289 354 430
#     4  10  21  44  65  96 138 175 236 291 344 427
#     4  11  24  44  69  99 143 187 232 305 355 428
#     4  12  23  46  73  97 144 190 229 300 361 431
#     4  11  26  44  67 105 141 182 242 289 358 433
#     4  11  22  45  68  97 140 185 232 298 358 418
#
# _framework density 22.289126
#
# number of rings (size 3 to 8) (size 9 to 14) (size 15 to 20)
#    0.000    1.000    3.750    2.250    3.500    4.000 
#    4.500    0.000    0.000    0.000    0.000    0.000 
#    0.000    0.000    0.000    0.000    0.000    0.000 
#
# Total GULP energy -178396.293081 kJ/mol
# GULP energy per Si atom -5574.884159 kJ/mol
# Density = 2.223840 g / cm^3
# Si number density = 22.289126 Si / 1000 Ang^3
#
#
#
# Elastic Constant Matrix: (Units=GPa)
#
#
# Indices 1 2 3 4 5 6 
#
# 1 39.5103 -5.7311 5.2084 0.0000 0.0000 0.0000
# 2 -5.7311 52.9224 10.9400 0.0000 0.0000 0.0000
# 3 5.2084 10.9400 100.6176 0.0000 0.0000 0.0000
# 4 0.0000 0.0000 0.0000 37.0483 0.0000 0.0000
# 5 0.0000 0.0000 0.0000 0.0000 23.7011 0.0000
# 6 0.0000 0.0000 0.0000 0.0000 0.0000 19.1800
#
#
#
# Elastic Compliance Matrix: (Units=1/GPa)
#
#
# Indices 1 2 3 4 5 6 
#
# 1 0.025992 0.003164 -0.001689 0.000000 0.000000 0.000000
# 2 0.003164 0.019715 -0.002307 0.000000 0.000000 0.000000
# 3 -0.001689 -0.002307 0.010277 0.000000 0.000000 0.000000
# 4 0.000000 0.000000 0.000000 0.026992 0.000000 0.000000
# 5 0.000000 0.000000 0.000000 0.000000 0.042192 0.000000
# 6 0.000000 0.000000 0.000000 0.000000 0.000000 0.052138
#
#
# Mechanical properties :
#
#
# Convention : Reuss Voigt Hill
#
# Bulk Modulus (GPa) = 18.41016 23.76499 21.08758
# Shear Modulus (GPa) = 25.37079 28.16141 26.76610
#
# Velocity S-wave (km/s) = 3.37747 3.55837 3.46910
# Velocity P-wave (km/s) = 4.84638 5.25052 5.05249
#
# Compressibility (1/GPa) = 0.05431782
#
# Stress axis : x y z
#
# Youngs Moduli (GPa) = 38.47411 50.72229 97.30514
#
# Poissons Ratio (x) = -0.16048 0.16439
# Poissons Ratio (y) = -0.12173 0.22452
# Poissons Ratio (z) = 0.06500 0.11704
#
# Static dielectric constant tensor:
#      x y z
#    x 1.860430 0.000000 0.000000 
#    y 0.000000 1.892770 0.000000 
#    z 0.000000 0.000000 1.983120 
# 
# From -- ./inp_files/5223.got.cif
#   From: 2010.05.17/outbox.cif.g08.bks.cpg/sg29_3_cif.got.tgz:5223.got - 2010.06.04 01:19:37.
