data_PCOD9340536
_publ_section_title
;
Structure prediction by ZEFSAII (Michael W. Deem and Ramdas Pophale) SiO2 
 PCOD9340536
Probable space group: P C A 21
;
_chemical_formula_sum "Si O2"
_cell_formula_units_Z 32
_cell_length_a 31.501734
_cell_length_b 5.266843
_cell_length_c 8.710944
_cell_angle_alpha 90.000000
_cell_angle_beta 90.000000
_cell_angle_gamma 90.000000
_cell_volume 1445.273549
_symmetry_space_group_name_H-M "P C A 21"
_symmetry_group_IT_number 29
_symmetry_cell_setting 'orthorhombic'
loop_
_space_group_symop_operation_xyz
x,y,z
-x,-y,1/2+z
1/2-x,y,1/2+z
1/2+x,-y,z
loop_
_atom_site_type_symbol
_atom_site_label
_atom_site_fract_x
_atom_site_fract_y
_atom_site_fract_z
Si Si1 0.205978 0.522610 0.655750
Si Si2 0.963875 0.213846 0.723461
Si Si3 0.654184 0.509921 0.949538
Si Si4 0.268143 0.830851 0.872815
Si Si5 0.484081 0.498268 0.022730
Si Si6 0.275455 0.164471 0.601180
Si Si7 0.397839 0.986114 0.512005
Si Si8 0.971573 0.178317 0.285044
O O1 0.166398 0.503519 0.769131
O O2 0.243921 0.641911 0.758553
O O3 0.203664 0.683566 0.498574
O O4 0.226316 0.250840 0.618396
O O5 0.969286 0.293658 0.898653
O O6 0.922777 0.062097 0.671087
O O7 0.970075 0.459210 0.610202
O O8 0.005527 0.042454 0.689884
O O9 0.636773 0.237736 0.999749
O O10 0.621481 0.737553 0.985758
O O11 0.695615 0.606667 0.042593
O O12 0.289823 0.035432 0.759645
O O13 0.229613 0.965223 0.964105
O O14 0.491451 0.272088 0.900980
O O15 0.458576 0.586162 0.175199
O O16 0.432758 0.929849 0.380755
#
# Coordination Sequence:
#
# PCOD9340536 Si02
#       8
#     4   4   4   4   4   4   4   4
#     4  11  21  40  69  99 130 182 238 280 332 420
#     4  10  21  39  68  97 125 178 228 276 326 419
#     4  12  26  45  67 101 146 180 219 295 360 411
#     4  10  21  36  70 100 126 168 254 278 321 395
#     4   9  19  34  68  91 123 157 233 268 315 379
#     4  11  21  40  69  99 127 183 232 278 329 418
#     4  11  28  43  69 100 140 178 220 284 368 396
#     4  10  21  39  68  99 123 176 228 275 323 416
#
# _framework density 22.141134999999998
#
# number of rings (size 3 to 8) (size 9 to 14) (size 15 to 20)
#    0.000    1.500    2.500    2.250   14.000    0.000 
#    0.000    1.250    0.000    0.000    0.000    0.000 
#    0.000    0.000    0.000    0.000    0.000    0.000 
#
# Total GULP energy -178147.359231 kJ/mol
# GULP energy per Si atom -5567.104976 kJ/mol
# Density = 2.209074 g / cm^3
# Si number density = 22.141135 Si / 1000 Ang^3
#
#
#
# Elastic Constant Matrix: (Units=GPa)
#
#
# Indices 1 2 3 4 5 6 
#
# 1 38.2848 9.8215 2.1439 0.0000 0.0000 0.0000
# 2 9.8215 58.0355 27.3033 0.0000 0.0000 0.0000
# 3 2.1439 27.3033 116.1798 0.0000 0.0000 0.0000
# 4 0.0000 0.0000 0.0000 41.4998 0.0000 0.0000
# 5 0.0000 0.0000 0.0000 0.0000 35.0899 0.0000
# 6 0.0000 0.0000 0.0000 0.0000 0.0000 42.5959
#
#
#
# Elastic Compliance Matrix: (Units=1/GPa)
#
#
# Indices 1 2 3 4 5 6 
#
# 1 0.027350 -0.004937 0.000656 0.000000 0.000000 0.000000
# 2 -0.004937 0.020264 -0.004671 0.000000 0.000000 0.000000
# 3 0.000656 -0.004671 0.009693 0.000000 0.000000 0.000000
# 4 0.000000 0.000000 0.000000 0.024097 0.000000 0.000000
# 5 0.000000 0.000000 0.000000 0.000000 0.028498 0.000000
# 6 0.000000 0.000000 0.000000 0.000000 0.000000 0.023476
#
#
# Mechanical properties :
#
#
# Convention : Reuss Voigt Hill
#
# Bulk Modulus (GPa) = 25.37958 32.33750 28.85854
# Shear Modulus (GPa) = 30.41056 35.38589 32.89822
#
# Velocity S-wave (km/s) = 3.71008 4.00208 3.85884
# Velocity P-wave (km/s) = 5.46264 5.99937 5.73728
#
# Compressibility (1/GPa) = 0.03940176
#
# Stress axis : x y z
#
# Youngs Moduli (GPa) = 36.56336 49.34895 103.16725
#
# Poissons Ratio (x) = 0.24363 -0.06763
# Poissons Ratio (y) = 0.18051 0.48190
# Poissons Ratio (z) = -0.02397 0.23051
#
# Static dielectric constant tensor:
#      x y z
#    x 1.804920 0.000000 0.000000 
#    y 0.000000 1.904160 0.000000 
#    z 0.000000 0.000000 1.850660 
# 
# From -- ./inp_files/2631.got.cif
#   From: 2010.05.17/outbox.cif.g08.bks.cpg/sg29_2_cif.got.tgz:2631.got - 2010.06.04 01:19:37.
