data_PCOD9340251
_publ_section_title
;
Structure prediction by ZEFSAII (Michael W. Deem and Ramdas Pophale) SiO2 
 PCOD9340251
Probable space group: P C A 21
;
_chemical_formula_sum "Si O2"
_cell_formula_units_Z 24
_cell_length_a 9.934603
_cell_length_b 9.236867
_cell_length_c 9.868138
_cell_angle_alpha 90.000000
_cell_angle_beta 90.000000
_cell_angle_gamma 90.000000
_cell_volume 905.545802
_symmetry_space_group_name_H-M "P C A 21"
_symmetry_group_IT_number 29
_symmetry_cell_setting 'orthorhombic'
loop_
_space_group_symop_operation_xyz
x,y,z
-x,-y,1/2+z
1/2-x,y,1/2+z
1/2+x,-y,z
loop_
_atom_site_type_symbol
_atom_site_label
_atom_site_fract_x
_atom_site_fract_y
_atom_site_fract_z
Si Si1 0.760769 0.055739 0.296360
Si Si2 0.961806 0.278196 0.854789
Si Si3 0.798923 0.756636 0.165483
Si Si4 0.034665 0.769975 0.960775
Si Si5 0.305857 0.544911 0.653768
Si Si6 0.053711 0.726433 0.658751
O O1 0.617317 0.133212 0.309834
O O2 0.844187 0.138501 0.180486
O O3 0.856977 0.100124 0.426089
O O4 0.740302 0.895734 0.241610
O O5 0.859270 0.402357 0.801289
O O6 0.097140 0.305180 0.775203
O O7 0.997875 0.252421 0.008588
O O8 0.897893 0.803696 0.042149
O O9 0.697115 0.626387 0.133102
O O10 0.110748 0.642870 0.045959
O O11 0.997795 0.714716 0.811020
O O12 0.151114 0.589013 0.640712
#
# Coordination Sequence:
#
# PCOD9340251 Si02
#       6
#     4   4   4   4   4   4
#     4   9  21  41  68  97 134 194 237 293 362 427
#     4  10  21  43  69  93 147 194 232 306 362 424
#     4  11  24  39  71 107 140 186 263 279 364 443
#     4   9  21  41  70  96 147 185 234 301 366 422
#     4  10  19  41  66 101 139 188 235 297 358 432
#     4   9  18  39  68  90 139 193 227 292 380 410
#
# _framework density 26.503353000000001
#
# number of rings (size 3 to 8) (size 9 to 14) (size 15 to 20)
#    1.000    1.333    1.667    0.000    2.333    1.333 
#    0.000   11.667    0.000    0.000    0.000    0.000 
#    0.000    0.000    0.000    0.000    0.000    0.000 
#
# Total GULP energy -134052.068811 kJ/mol
# GULP energy per Si atom -5585.502867 kJ/mol
# Density = 2.644303 g / cm^3
# Si number density = 26.503353 Si / 1000 Ang^3
#
#
#
# Elastic Constant Matrix: (Units=GPa)
#
#
# Indices 1 2 3 4 5 6 
#
# 1 23.7230 29.1438 46.3861 0.0000 0.0000 0.0000
# 2 29.1438 183.7020 39.8794 0.0000 0.0000 0.0000
# 3 46.3861 39.8794 170.7798 0.0000 0.0000 0.0000
# 4 0.0000 0.0000 0.0000 -11.6222 0.0000 0.0000
# 5 0.0000 0.0000 0.0000 0.0000 41.9985 0.0000
# 6 0.0000 0.0000 0.0000 0.0000 0.0000 34.5719
#
#
#
# Elastic Compliance Matrix: (Units=1/GPa)
#
#
# Indices 1 2 3 4 5 6 
#
# 1 0.108684 -0.011412 -0.026855 0.000000 0.000000 0.000000
# 2 -0.011412 0.006933 0.001481 0.000000 0.000000 0.000000
# 3 -0.026855 0.001481 0.012804 0.000000 0.000000 0.000000
# 4 0.000000 0.000000 0.000000 -0.086042 0.000000 0.000000
# 5 0.000000 0.000000 0.000000 0.000000 0.023810 0.000000
# 6 0.000000 0.000000 0.000000 0.000000 0.000000 0.028925
#
#
# Mechanical properties :
#
#
# Convention : Reuss Voigt Hill
#
# Bulk Modulus (GPa) = 18.23249 67.66926 42.95087
# Shear Modulus (GPa) = 26.74239 30.50935 28.62587
#
# Velocity S-wave (km/s) = 3.17995 3.39654 3.29003
# Velocity P-wave (km/s) = 4.51409 6.40076 5.53836
#
# Compressibility (1/GPa) = 0.05484716
#
# Stress axis : x y z
#
# Youngs Moduli (GPa) = 9.20100 144.24453 78.10146
#
# Poissons Ratio (x) = 1.64619 2.09741
# Poissons Ratio (y) = 0.10501 -0.11566
# Poissons Ratio (z) = 0.24709 -0.21361
#
# Static dielectric constant tensor:
#      x y z
#    x 2.227490 0.000000 0.000000 
#    y 0.000000 2.271110 0.000000 
#    z 0.000000 0.000000 2.080650 
# 
# From -- ./inp_files/3108.got.cif
#   From: 2010.05.17/outbox.cif.g08.bks.cpg/sg29_2_cif.got.tgz:3108.got - 2010.06.04 01:19:37.
