data_PCOD9340312
_publ_section_title
;
Structure prediction by ZEFSAII (Michael W. Deem and Ramdas Pophale) SiO2 
 PCOD9340312
Probable space group: P C A 21
;
_chemical_formula_sum "Si O2"
_cell_formula_units_Z 32
_cell_length_a 8.643950
_cell_length_b 20.737865
_cell_length_c 7.824451
_cell_angle_alpha 90.000000
_cell_angle_beta 90.000000
_cell_angle_gamma 90.000000
_cell_volume 1402.588146
_symmetry_space_group_name_H-M "P C A 21"
_symmetry_group_IT_number 29
_symmetry_cell_setting 'orthorhombic'
loop_
_space_group_symop_operation_xyz
x,y,z
-x,-y,1/2+z
1/2-x,y,1/2+z
1/2+x,-y,z
loop_
_atom_site_type_symbol
_atom_site_label
_atom_site_fract_x
_atom_site_fract_y
_atom_site_fract_z
Si Si1 0.352691 0.830165 0.006190
Si Si2 0.979488 0.952511 0.636339
Si Si3 0.868987 0.689180 0.242436
Si Si4 0.850556 0.926985 0.010938
Si Si5 0.027724 0.289986 0.132505
Si Si6 0.994444 0.568320 0.692652
Si Si7 0.977727 0.192332 0.623640
Si Si8 0.329503 0.450216 0.324902
O O1 0.395911 0.900000 0.077951
O O2 0.169283 0.821484 0.006485
O O3 0.426124 0.774267 0.126823
O O4 0.423491 0.823045 0.817223
O O5 0.828591 0.945058 0.518091
O O6 0.917624 0.936061 0.822985
O O7 0.052795 0.022898 0.625629
O O8 0.925431 0.699892 0.434741
O O9 0.879512 0.612848 0.215704
O O10 0.969695 0.733757 0.119581
O O11 0.691915 0.712897 0.228405
O O12 0.882636 0.854809 0.074208
O O13 0.951314 0.357238 0.192880
O O14 0.855388 0.557375 0.827760
O O15 0.913242 0.554961 0.508499
O O16 0.124658 0.516724 0.735646
#
# Coordination Sequence:
#
# PCOD9340312 Si02
#       8
#     4   4   4   4   4   4   4   4
#     4  11  23  40  60  87 119 154 193 238 287 341
#     4  12  25  43  65  91 121 156 194 237 285 339
#     4   9  20  37  58  82 112 148 191 236 287 344
#     4  12  25  43  65  91 121 156 194 237 285 339
#     4   9  20  37  58  82 112 148 191 236 287 344
#     4  10  20  36  56  82 113 150 191 237 288 344
#     4  11  23  40  60  87 119 154 193 238 287 341
#     4  10  20  36  56  82 113 150 191 237 288 344
#
# _framework density 22.814964
#
# number of rings (size 3 to 8) (size 9 to 14) (size 15 to 20)
#    0.000    1.500    0.000    5.250    0.000    6.000 
#    0.000    2.500    0.000    0.000    0.000    0.000 
#    0.000    0.000    0.000    0.000    0.000    0.000 
#
# Total GULP energy -179106.962135 kJ/mol
# GULP energy per Si atom -5597.092567 kJ/mol
# Density = 2.276304 g / cm^3
# Si number density = 22.814964 Si / 1000 Ang^3
#
#
#
# Elastic Constant Matrix: (Units=GPa)
#
#
# Indices 1 2 3 4 5 6 
#
# 1 38.1203 -4.4244 -9.1111 0.0000 0.0000 0.0000
# 2 -4.4244 43.9641 7.1155 0.0000 0.0000 0.0000
# 3 -9.1111 7.1155 71.4968 0.0000 0.0000 0.0000
# 4 0.0000 0.0000 0.0000 21.2302 0.0000 0.0000
# 5 0.0000 0.0000 0.0000 0.0000 16.3101 0.0000
# 6 0.0000 0.0000 0.0000 0.0000 0.0000 29.3621
#
#
#
# Elastic Compliance Matrix: (Units=1/GPa)
#
#
# Indices 1 2 3 4 5 6 
#
# 1 0.027268 0.002217 0.003254 0.000000 0.000000 0.000000
# 2 0.002217 0.023299 -0.002036 0.000000 0.000000 0.000000
# 3 0.003254 -0.002036 0.014604 0.000000 0.000000 0.000000
# 4 0.000000 0.000000 0.000000 0.047103 0.000000 0.000000
# 5 0.000000 0.000000 0.000000 0.000000 0.061312 0.000000
# 6 0.000000 0.000000 0.000000 0.000000 0.000000 0.034058
#
#
# Mechanical properties :
#
#
# Convention : Reuss Voigt Hill
#
# Bulk Modulus (GPa) = 13.88091 15.63791 14.75941
# Shear Modulus (GPa) = 22.24348 24.04724 23.14536
#
# Velocity S-wave (km/s) = 3.12581 3.25008 3.18855
# Velocity P-wave (km/s) = 4.37320 4.57746 4.47649
#
# Compressibility (1/GPa) = 0.07204141
#
# Stress axis : x y z
#
# Youngs Moduli (GPa) = 36.67314 42.92117 68.47457
#
# Poissons Ratio (x) = -0.09518 -0.22283
# Poissons Ratio (y) = -0.08132 0.13942
# Poissons Ratio (z) = -0.11934 0.08739
#
# Static dielectric constant tensor:
#      x y z
#    x 1.819150 0.000000 0.000000 
#    y 0.000000 1.833130 0.000000 
#    z 0.000000 0.000000 1.867980 
# 
# From -- ./inp_files/1273.got.cif
#   From: 2010.05.17/outbox.cif.g08.bks.cpg/sg29_1_cif.got.tgz:1273.got - 2010.06.04 01:19:37.
