data_PCOD9340213
_publ_section_title
;
Structure prediction by ZEFSAII (Michael W. Deem and Ramdas Pophale) SiO2 
 PCOD9340213
Probable space group: P C A 21
;
_chemical_formula_sum "Si O2"
_cell_formula_units_Z 28
_cell_length_a 13.100928
_cell_length_b 14.977550
_cell_length_c 5.531446
_cell_angle_alpha 90.000000
_cell_angle_beta 90.000000
_cell_angle_gamma 90.000000
_cell_volume 1085.379251
_symmetry_space_group_name_H-M "P C A 21"
_symmetry_group_IT_number 29
_symmetry_cell_setting 'orthorhombic'
loop_
_space_group_symop_operation_xyz
x,y,z
-x,-y,1/2+z
1/2-x,y,1/2+z
1/2+x,-y,z
loop_
_atom_site_type_symbol
_atom_site_label
_atom_site_fract_x
_atom_site_fract_y
_atom_site_fract_z
Si Si1 0.307549 0.273329 0.411160
Si Si2 0.257537 0.475112 0.932946
Si Si3 0.878950 0.914916 0.906791
Si Si4 0.852216 0.988993 0.405881
Si Si5 0.460600 0.516471 0.806119
Si Si6 0.579558 0.187764 0.896272
Si Si7 0.049705 0.724878 0.396939
O O1 0.250799 0.244014 0.662081
O O2 0.299719 0.381314 0.417127
O O3 0.427305 0.252193 0.402098
O O4 0.242567 0.526204 0.683513
O O5 0.375747 0.447773 0.902209
O O6 0.956201 0.831450 0.894116
O O7 0.904257 0.962970 0.655577
O O8 0.756569 0.936782 0.911162
O O9 0.906362 0.953841 0.167572
O O10 0.855574 0.095945 0.388186
O O11 0.456443 0.508705 0.513961
O O12 0.440750 0.618448 0.872879
O O13 0.596969 0.242083 0.649372
O O14 0.597482 0.233825 0.154372
#
# Coordination Sequence:
#
# PCOD9340213 Si02
#       7
#     4   4   4   4   4   4   4
#     4  10  19  38  56  86 126 170 208 265 333 395
#     4  10  20  36  64  87 120 164 232 276 316 384
#     4  10  21  41  70 101 123 188 230 259 330 423
#     4  10  21  41  71  96 135 176 235 263 323 424
#     4  12  23  42  71  95 129 186 242 275 332 426
#     4  12  24  43  66 101 150 168 217 298 350 392
#     4  12  26  41  64 104 141 172 218 290 362 388
#
# _framework density 25.797435
#
# number of rings (size 3 to 8) (size 9 to 14) (size 15 to 20)
#    0.000    1.143    0.000    8.571    0.000    0.000 
#   15.429    0.000   18.857    0.000    0.000    0.000 
#    0.000    0.000    0.000    0.000    0.000    0.000 
#
# Total GULP energy -156087.626154 kJ/mol
# GULP energy per Si atom -5574.558077 kJ/mol
# Density = 2.573872 g / cm^3
# Si number density = 25.797435 Si / 1000 Ang^3
#
#
#
# Elastic Constant Matrix: (Units=GPa)
#
#
# Indices 1 2 3 4 5 6 
#
# 1 36.9328 -10.7642 8.4424 0.0000 0.0000 0.0000
# 2 -10.7642 101.6094 63.7916 0.0000 0.0000 0.0000
# 3 8.4424 63.7916 257.0086 0.0000 0.0000 0.0000
# 4 0.0000 0.0000 0.0000 46.7266 0.0000 0.0000
# 5 0.0000 0.0000 0.0000 0.0000 -5.4478 0.0000
# 6 0.0000 0.0000 0.0000 0.0000 0.0000 23.2314
#
#
#
# Elastic Compliance Matrix: (Units=1/GPa)
#
#
# Indices 1 2 3 4 5 6 
#
# 1 0.028796 0.004317 -0.002017 0.000000 0.000000 0.000000
# 2 0.004317 0.012306 -0.003196 0.000000 0.000000 0.000000
# 3 -0.002017 -0.003196 0.004750 0.000000 0.000000 0.000000
# 4 0.000000 0.000000 0.000000 0.021401 0.000000 0.000000
# 5 0.000000 0.000000 0.000000 0.000000 -0.183559 0.000000
# 6 0.000000 0.000000 0.000000 0.000000 0.000000 0.043045
#
#
# Mechanical properties :
#
#
# Convention : Reuss Voigt Hill
#
# Bulk Modulus (GPa) = 22.69701 57.61003 40.15352
# Shear Modulus (GPa) = -88.05616 35.17410 -26.44103
#
# Velocity S-wave (km/s) = -5.84874 3.69653 -3.20495
# Velocity P-wave (km/s) = 6.06573 6.37176 1.37952
#
# Compressibility (1/GPa) = 0.04405866
#
# Stress axis : x y z
#
# Youngs Moduli (GPa) = 34.72753 81.26428 210.50417
#
# Poissons Ratio (x) = -0.35083 0.42468
# Poissons Ratio (y) = -0.14992 0.67280
# Poissons Ratio (z) = 0.07006 0.25973
#
# Static dielectric constant tensor:
#      x y z
#    x 2.154670 0.000000 0.000000 
#    y 0.000000 1.965060 0.000000 
#    z 0.000000 0.000000 2.122030 
# 
# From -- ./inp_files/247.got.cif
#   From: 2010.05.17/outbox.cif.g08.bks.cpg/sg29_1_cif.got.tgz:247.got - 2010.06.04 01:19:37.
