data_PCOD9340838
_publ_section_title
;
Structure prediction by ZEFSAII (Michael W. Deem and Ramdas Pophale) SiO2 
 PCOD9340838
Probable space group: P C A 21
;
_chemical_formula_sum "Si O2"
_cell_formula_units_Z 32
_cell_length_a 16.703386
_cell_length_b 8.735753
_cell_length_c 11.633301
_cell_angle_alpha 90.000000
_cell_angle_beta 90.000000
_cell_angle_gamma 90.000000
_cell_volume 1697.492361
_symmetry_space_group_name_H-M "P C A 21"
_symmetry_group_IT_number 29
_symmetry_cell_setting 'orthorhombic'
loop_
_space_group_symop_operation_xyz
x,y,z
-x,-y,1/2+z
1/2-x,y,1/2+z
1/2+x,-y,z
loop_
_atom_site_type_symbol
_atom_site_label
_atom_site_fract_x
_atom_site_fract_y
_atom_site_fract_z
Si Si1 0.191418 0.082879 0.071260
Si Si2 0.856914 0.146719 0.771956
Si Si3 0.139741 0.148615 0.674356
Si Si4 0.553784 0.934085 0.443121
Si Si5 0.032745 0.212842 0.028475
Si Si6 0.009175 0.354780 0.794925
Si Si7 0.029467 0.710824 0.774571
Si Si8 0.184264 0.873323 0.844158
O O1 0.271664 0.162731 0.119344
O O2 0.126672 0.215569 0.051360
O O3 0.154171 0.970245 0.167161
O O4 0.201435 0.971587 0.960172
O O5 0.767493 0.201914 0.801514
O O6 0.928913 0.266672 0.751236
O O7 0.884001 0.045609 0.880801
O O8 0.084565 0.122127 0.564164
O O9 0.090286 0.273490 0.747767
O O10 0.152187 0.000608 0.754298
O O11 0.532468 0.800059 0.356108
O O12 0.480027 0.046727 0.469243
O O13 0.981833 0.224294 0.145100
O O14 0.007500 0.333983 0.932886
O O15 0.011344 0.532133 0.765758
O O16 0.114293 0.747328 0.835878
#
# Coordination Sequence:
#
# PCOD9340838 Si02
#       8
#     4   4   4   4   4   4   4   4
#     4  11  20  37  70  93 120 161 227 277 313 366
#     4  10  22  39  62  94 122 165 217 281 314 381
#     4  11  22  39  65  92 126 164 217 278 320 381
#     4  11  20  37  65  91 117 167 218 271 312 380
#     4  11  22  42  64  91 126 169 219 272 312 390
#     4  11  26  42  60  93 142 173 213 259 343 404
#     4  12  25  40  66  96 133 178 215 264 342 400
#     4  11  21  40  64  96 122 165 226 278 320 372
#
# _framework density 18.851334999999999
#
# number of rings (size 3 to 8) (size 9 to 14) (size 15 to 20)
#    0.000    1.000    6.250    1.500    1.750    0.000 
#    2.250    0.000    0.000    0.000    0.000    0.000 
#    0.000    0.000    0.000    0.000    0.000    0.000 
#
# Total GULP energy -178361.822946 kJ/mol
# GULP energy per Si atom -5573.806967 kJ/mol
# Density = 1.880843 g / cm^3
# Si number density = 18.851335 Si / 1000 Ang^3
#
#
#
# Elastic Constant Matrix: (Units=GPa)
#
#
# Indices 1 2 3 4 5 6 
#
# 1 97.5600 30.3439 10.4857 0.0000 0.0000 0.0000
# 2 30.3439 71.4035 10.0415 0.0000 0.0000 0.0000
# 3 10.4857 10.0415 95.1113 0.0000 0.0000 0.0000
# 4 0.0000 0.0000 0.0000 11.7861 0.0000 0.0000
# 5 0.0000 0.0000 0.0000 0.0000 29.8726 0.0000
# 6 0.0000 0.0000 0.0000 0.0000 0.0000 14.9337
#
#
#
# Elastic Compliance Matrix: (Units=1/GPa)
#
#
# Indices 1 2 3 4 5 6 
#
# 1 0.011869 -0.004933 -0.000788 0.000000 0.000000 0.000000
# 2 -0.004933 0.016266 -0.001173 0.000000 0.000000 0.000000
# 3 -0.000788 -0.001173 0.010725 0.000000 0.000000 0.000000
# 4 0.000000 0.000000 0.000000 0.084845 0.000000 0.000000
# 5 0.000000 0.000000 0.000000 0.000000 0.033476 0.000000
# 6 0.000000 0.000000 0.000000 0.000000 0.000000 0.066963
#
#
# Mechanical properties :
#
#
# Convention : Reuss Voigt Hill
#
# Bulk Modulus (GPa) = 39.88592 40.64634 40.26613
# Shear Modulus (GPa) = 20.30131 25.53207 22.91669
#
# Velocity S-wave (km/s) = 3.28520 3.68420 3.49040
# Velocity P-wave (km/s) = 5.96608 6.30128 6.13597
#
# Compressibility (1/GPa) = 0.02507150
#
# Stress axis : x y z
#
# Youngs Moduli (GPa) = 84.25220 61.47654 93.24249
#
# Poissons Ratio (x) = 0.30327 0.07345
# Poissons Ratio (y) = 0.41563 0.10942
# Poissons Ratio (z) = 0.06637 0.07214
#
# Static dielectric constant tensor:
#      x y z
#    x 1.750830 0.000000 0.000000 
#    y 0.000000 1.620620 0.000000 
#    z 0.000000 0.000000 1.665230 
# 
# From -- ./inp_files/3478.got.cif
#   From: 2010.05.17/outbox.cif.g08.bks.cpg/sg29_2_cif.got.tgz:3478.got - 2010.06.04 01:19:37.
