data_PCOD9340594
_publ_section_title
;
Structure prediction by ZEFSAII (Michael W. Deem and Ramdas Pophale) SiO2 
 PCOD9340594
Probable space group: P C A 21
;
_chemical_formula_sum "Si O2"
_cell_formula_units_Z 32
_cell_length_a 12.244972
_cell_length_b 5.054963
_cell_length_c 21.691403
_cell_angle_alpha 90.000000
_cell_angle_beta 90.000000
_cell_angle_gamma 90.000000
_cell_volume 1342.651869
_symmetry_space_group_name_H-M "P C A 21"
_symmetry_group_IT_number 29
_symmetry_cell_setting 'orthorhombic'
loop_
_space_group_symop_operation_xyz
x,y,z
-x,-y,1/2+z
1/2-x,y,1/2+z
1/2+x,-y,z
loop_
_atom_site_type_symbol
_atom_site_label
_atom_site_fract_x
_atom_site_fract_y
_atom_site_fract_z
Si Si1 0.092634 0.290823 0.000000
Si Si2 0.247579 0.427994 0.724954
Si Si3 0.948399 0.235218 0.203171
Si Si4 0.377808 0.554463 0.620626
Si Si5 0.372094 0.928440 0.775967
Si Si6 0.167767 0.282088 0.485491
Si Si7 0.910200 0.217454 0.916857
Si Si8 0.042825 0.056733 0.593545
O O1 0.210303 0.164941 0.989644
O O2 0.030407 0.327195 0.935774
O O3 0.125057 0.525053 0.046666
O O4 0.003024 0.143819 0.042321
O O5 0.128601 0.550558 0.735568
O O6 0.268831 0.443012 0.651352
O O7 0.331709 0.661933 0.743430
O O8 0.282929 0.160091 0.759460
O O9 0.031247 0.386093 0.157643
O O10 0.888070 0.053831 0.151344
O O11 0.015638 0.057571 0.251036
O O12 0.430518 0.842801 0.625530
O O13 0.385275 0.828504 0.845677
O O14 0.165640 0.567261 0.452270
O O15 0.108416 0.268246 0.552038
O O16 0.102429 0.077622 0.443142
#
# Coordination Sequence:
#
# PCOD9340594 Si02
#       8
#     4   4   4   4   4   4   4   4
#     4  10  24  40  67  98 136 182 222 283 358 411
#     4  11  25  41  71 100 138 184 230 284 353 420
#     4  10  24  40  67 102 141 185 225 285 359 420
#     4  10  21  39  62 102 139 172 224 278 350 423
#     4  11  25  47  66  97 137 181 241 293 334 409
#     4  11  25  41  70 100 136 180 233 281 357 413
#     4  11  25  47  66  96 134 180 239 296 329 409
#     4  10  21  39  63 103 141 178 218 288 346 435
#
# _framework density 23.833428999999999
#
# number of rings (size 3 to 8) (size 9 to 14) (size 15 to 20)
#    0.000    1.500    2.500    0.750    7.000    1.000 
#    0.000    3.750    0.000    0.000    0.000    0.000 
#    0.000    0.000    0.000    0.000    0.000    0.000 
#
# Total GULP energy -178323.532158 kJ/mol
# GULP energy per Si atom -5572.610380 kJ/mol
# Density = 2.377918 g / cm^3
# Si number density = 23.833429 Si / 1000 Ang^3
#
#
#
# Elastic Constant Matrix: (Units=GPa)
#
#
# Indices 1 2 3 4 5 6 
#
# 1 64.5095 6.8353 29.8486 0.0000 0.0000 0.0000
# 2 6.8353 108.2450 36.8308 0.0000 0.0000 0.0000
# 3 29.8486 36.8308 104.6121 0.0000 0.0000 0.0000
# 4 0.0000 0.0000 0.0000 26.1537 0.0000 0.0000
# 5 0.0000 0.0000 0.0000 0.0000 14.9939 0.0000
# 6 0.0000 0.0000 0.0000 0.0000 0.0000 29.9722
#
#
#
# Elastic Compliance Matrix: (Units=1/GPa)
#
#
# Indices 1 2 3 4 5 6 
#
# 1 0.017905 0.000690 -0.005352 0.000000 0.000000 0.000000
# 2 0.000690 0.010522 -0.003902 0.000000 0.000000 0.000000
# 3 -0.005352 -0.003902 0.012460 0.000000 0.000000 0.000000
# 4 0.000000 0.000000 0.000000 0.038236 0.000000 0.000000
# 5 0.000000 0.000000 0.000000 0.000000 0.066694 0.000000
# 6 0.000000 0.000000 0.000000 0.000000 0.000000 0.033364
#
#
# Mechanical properties :
#
#
# Convention : Reuss Voigt Hill
#
# Bulk Modulus (GPa) = 42.08616 47.15511 44.62064
# Shear Modulus (GPa) = 24.48263 27.81409 26.14836
#
# Velocity S-wave (km/s) = 3.20853 3.41987 3.31589
# Velocity P-wave (km/s) = 5.60563 5.95166 5.78123
#
# Compressibility (1/GPa) = 0.02376078
#
# Stress axis : x y z
#
# Youngs Moduli (GPa) = 55.85130 95.03695 80.25854
#
# Poissons Ratio (x) = -0.06561 0.42952
# Poissons Ratio (y) = -0.03856 0.31313
# Poissons Ratio (z) = 0.29890 0.37079
#
# Static dielectric constant tensor:
#      x y z
#    x 2.018820 0.000000 0.000000 
#    y 0.000000 2.083740 0.000000 
#    z 0.000000 0.000000 2.022850 
# 
# From -- ./inp_files/5561.got.cif
#   From: 2010.05.17/outbox.cif.g08.bks.cpg/sg29_3_cif.got.tgz:5561.got - 2010.06.04 01:19:37.
