data_PCOD9340499
_publ_section_title
;
Structure prediction by ZEFSAII (Michael W. Deem and Ramdas Pophale) SiO2 
 PCOD9340499
Probable space group: P C A 21
;
_chemical_formula_sum "Si O2"
_cell_formula_units_Z 28
_cell_length_a 14.098805
_cell_length_b 6.416476
_cell_length_c 13.662000
_cell_angle_alpha 90.000000
_cell_angle_beta 90.000000
_cell_angle_gamma 90.000000
_cell_volume 1235.927965
_symmetry_space_group_name_H-M "P C A 21"
_symmetry_group_IT_number 29
_symmetry_cell_setting 'orthorhombic'
loop_
_space_group_symop_operation_xyz
x,y,z
-x,-y,1/2+z
1/2-x,y,1/2+z
1/2+x,-y,z
loop_
_atom_site_type_symbol
_atom_site_label
_atom_site_fract_x
_atom_site_fract_y
_atom_site_fract_z
Si Si1 0.148033 0.737467 0.668710
Si Si2 0.430003 0.867787 0.907164
Si Si3 0.795134 0.474757 0.815365
Si Si4 0.513928 0.474257 0.004571
Si Si5 0.142846 0.157676 0.576168
Si Si6 0.974239 0.739666 0.796860
Si Si7 0.774408 0.508228 0.529522
O O1 0.218334 0.621866 0.743340
O O2 0.042198 0.685850 0.706185
O O3 0.198665 0.661235 0.568286
O O4 0.144101 0.987684 0.661179
O O5 0.363128 0.714103 0.847552
O O6 0.490853 0.717403 0.979865
O O7 0.480162 0.017820 0.828097
O O8 0.374653 0.029735 0.976423
O O9 0.867120 0.656126 0.781070
O O10 0.742379 0.541455 0.914475
O O11 0.510887 0.375674 0.895257
O O12 0.438248 0.337359 0.067001
O O13 0.618105 0.448845 0.048269
O O14 0.241646 0.277574 0.577939
#
# Coordination Sequence:
#
# PCOD9340499 Si02
#       7
#     4   4   4   4   4   4   4
#     4  12  27  42  71 110 146 188 250 303 368 450
#     4  10  20  43  72  95 138 189 236 301 358 438
#     4  11  23  46  71 101 144 191 245 301 370 441
#     4  10  22  42  74  97 137 194 233 298 376 429
#     4  11  23  44  68 103 141 186 240 305 359 440
#     4  10  23  44  69 100 140 190 242 302 364 434
#     4  12  24  45  71 102 146 194 246 306 373 440
#
# _framework density 22.655041000000001
#
# number of rings (size 3 to 8) (size 9 to 14) (size 15 to 20)
#    0.000    1.143    7.143    0.000    0.000   10.286 
#    0.000    0.000    0.000    0.000    0.000    0.000 
#    0.000    0.000    0.000    0.000    0.000    0.000 
#
# Total GULP energy -156218.557227 kJ/mol
# GULP energy per Si atom -5579.234187 kJ/mol
# Density = 2.260348 g / cm^3
# Si number density = 22.655041 Si / 1000 Ang^3
#
#
#
# Elastic Constant Matrix: (Units=GPa)
#
#
# Indices 1 2 3 4 5 6 
#
# 1 117.9618 33.1945 26.5601 0.0000 0.0000 0.0000
# 2 33.1945 114.9224 21.5860 0.0000 0.0000 0.0000
# 3 26.5601 21.5860 70.2751 0.0000 0.0000 0.0000
# 4 0.0000 0.0000 0.0000 36.2630 0.0000 0.0000
# 5 0.0000 0.0000 0.0000 0.0000 29.6969 0.0000
# 6 0.0000 0.0000 0.0000 0.0000 0.0000 23.9902
#
#
#
# Elastic Compliance Matrix: (Units=1/GPa)
#
#
# Indices 1 2 3 4 5 6 
#
# 1 0.009791 -0.002264 -0.003005 0.000000 0.000000 0.000000
# 2 -0.002264 0.009758 -0.002142 0.000000 0.000000 0.000000
# 3 -0.003005 -0.002142 0.016023 0.000000 0.000000 0.000000
# 4 0.000000 0.000000 0.000000 0.027576 0.000000 0.000000
# 5 0.000000 0.000000 0.000000 0.000000 0.033674 0.000000
# 6 0.000000 0.000000 0.000000 0.000000 0.000000 0.041684
#
#
# Mechanical properties :
#
#
# Convention : Reuss Voigt Hill
#
# Bulk Modulus (GPa) = 48.19007 51.76005 49.97506
# Shear Modulus (GPa) = 31.20253 32.77792 31.99023
#
# Velocity S-wave (km/s) = 3.71521 3.80784 3.76181
# Velocity P-wave (km/s) = 6.30247 6.49843 6.40120
#
# Compressibility (1/GPa) = 0.02075116
#
# Stress axis : x y z
#
# Youngs Moduli (GPa) = 102.13540 102.48403 62.40870
#
# Poissons Ratio (x) = 0.23198 0.18755
# Poissons Ratio (y) = 0.23119 0.13366
# Poissons Ratio (z) = 0.30693 0.21949
#
# Static dielectric constant tensor:
#      x y z
#    x 1.835800 0.000000 0.000000 
#    y 0.000000 1.877930 0.000000 
#    z 0.000000 0.000000 1.923240 
# 
# From -- ./inp_files/4675.got.cif
#   From: 2010.05.17/outbox.cif.g08.bks.cpg/sg29_3_cif.got.tgz:4675.got - 2010.06.04 01:19:37.
