data_PCOD9340482
_publ_section_title
;
Structure prediction by ZEFSAII (Michael W. Deem and Ramdas Pophale) SiO2 
 PCOD9340482
Probable space group: P C A 21
;
_chemical_formula_sum "Si O2"
_cell_formula_units_Z 32
_cell_length_a 10.591103
_cell_length_b 9.266531
_cell_length_c 14.574568
_cell_angle_alpha 90.000000
_cell_angle_beta 90.000000
_cell_angle_gamma 90.000000
_cell_volume 1430.388683
_symmetry_space_group_name_H-M "P C A 21"
_symmetry_group_IT_number 29
_symmetry_cell_setting 'orthorhombic'
loop_
_space_group_symop_operation_xyz
x,y,z
-x,-y,1/2+z
1/2-x,y,1/2+z
1/2+x,-y,z
loop_
_atom_site_type_symbol
_atom_site_label
_atom_site_fract_x
_atom_site_fract_y
_atom_site_fract_z
Si Si1 0.247442 0.209559 0.180230
Si Si2 0.820595 0.028271 0.294323
Si Si3 0.503319 0.736306 0.052542
Si Si4 0.625455 0.347103 0.820560
Si Si5 0.825439 0.513166 0.483005
Si Si6 0.682825 0.490130 0.649689
Si Si7 0.564258 0.021259 0.411844
Si Si8 0.633658 0.703168 0.374988
O O1 0.122634 0.213258 0.116075
O O2 0.340093 0.337321 0.147310
O O3 0.212034 0.242826 0.286935
O O4 0.305173 0.052660 0.197334
O O5 0.867941 0.189675 0.279892
O O6 0.688138 0.049575 0.348968
O O7 0.931965 0.958318 0.356545
O O8 0.413642 0.627917 0.109854
O O9 0.560217 0.625460 0.976562
O O10 0.442898 0.872560 0.999444
O O11 0.671173 0.369668 0.923535
O O12 0.700319 0.452337 0.755144
O O13 0.479332 0.385799 0.829134
O O14 0.807217 0.474307 0.588525
O O15 0.708414 0.605769 0.445634
O O16 0.579286 0.847142 0.425744
#
# Coordination Sequence:
#
# PCOD9340482 Si02
#       8
#     4   4   4   4   4   4   4   4
#     4  10  21  42  65  91 137 178 223 285 354 415
#     4  10  23  45  66 101 130 188 237 277 357 420
#     4  11  22  41  65 101 138 177 231 298 347 431
#     4  11  22  41  68  96 136 177 229 294 336 424
#     4  11  23  41  66  98 132 182 229 290 360 420
#     4  11  23  40  64 100 131 175 230 286 351 413
#     4  10  22  42  70  95 135 181 232 286 351 422
#     4  10  20  42  66  90 131 180 227 280 354 421
#
# _framework density 22.371541000000001
#
# number of rings (size 3 to 8) (size 9 to 14) (size 15 to 20)
#    0.000    1.500    2.500    3.000    0.000    0.000 
#   15.750    0.000    0.000    0.000    0.000    0.000 
#    0.000    0.000    0.000    0.000    0.000    0.000 
#
# Total GULP energy -178314.859412 kJ/mol
# GULP energy per Si atom -5572.339357 kJ/mol
# Density = 2.232062 g / cm^3
# Si number density = 22.371541 Si / 1000 Ang^3
#
#
#
# Elastic Constant Matrix: (Units=GPa)
#
#
# Indices 1 2 3 4 5 6 
#
# 1 70.5403 17.9941 18.7162 0.0000 0.0000 0.0000
# 2 17.9941 88.7892 36.2007 0.0000 0.0000 0.0000
# 3 18.7162 36.2007 63.6631 0.0000 0.0000 0.0000
# 4 0.0000 0.0000 0.0000 48.4682 0.0000 0.0000
# 5 0.0000 0.0000 0.0000 0.0000 32.3534 0.0000
# 6 0.0000 0.0000 0.0000 0.0000 0.0000 27.2344
#
#
#
# Elastic Compliance Matrix: (Units=1/GPa)
#
#
# Indices 1 2 3 4 5 6 
#
# 1 0.015565 -0.001678 -0.003622 0.000000 0.000000 0.000000
# 2 -0.001678 0.014843 -0.007947 0.000000 0.000000 0.000000
# 3 -0.003622 -0.007947 0.021291 0.000000 0.000000 0.000000
# 4 0.000000 0.000000 0.000000 0.020632 0.000000 0.000000
# 5 0.000000 0.000000 0.000000 0.000000 0.030909 0.000000
# 6 0.000000 0.000000 0.000000 0.000000 0.000000 0.036718
#
#
# Mechanical properties :
#
#
# Convention : Reuss Voigt Hill
#
# Bulk Modulus (GPa) = 39.67271 40.97942 40.32606
# Shear Modulus (GPa) = 28.59543 31.61666 30.10605
#
# Velocity S-wave (km/s) = 3.57908 3.76340 3.67240
# Velocity P-wave (km/s) = 5.90354 6.10260 6.00390
#
# Compressibility (1/GPa) = 0.02520625
#
# Stress axis : x y z
#
# Youngs Moduli (GPa) = 64.24557 67.37346 46.96764
#
# Poissons Ratio (x) = 0.11303 0.17012
# Poissons Ratio (y) = 0.10779 0.37324
# Poissons Ratio (z) = 0.23270 0.53540
#
# Static dielectric constant tensor:
#      x y z
#    x 1.872860 0.000000 0.000000 
#    y 0.000000 1.923610 0.000000 
#    z 0.000000 0.000000 1.874020 
# 
# From -- ./inp_files/4556.got.cif
#   From: 2010.05.17/outbox.cif.g08.bks.cpg/sg29_3_cif.got.tgz:4556.got - 2010.06.04 01:19:37.
