data_PCOD9340464
_publ_section_title
;
Structure prediction by ZEFSAII (Michael W. Deem and Ramdas Pophale) SiO2 
 PCOD9340464
Probable space group: P C A 21
;
_chemical_formula_sum "Si O2"
_cell_formula_units_Z 32
_cell_length_a 15.650532
_cell_length_b 7.818999
_cell_length_c 12.835169
_cell_angle_alpha 90.000000
_cell_angle_beta 90.000000
_cell_angle_gamma 90.000000
_cell_volume 1570.658807
_symmetry_space_group_name_H-M "P C A 21"
_symmetry_group_IT_number 29
_symmetry_cell_setting 'orthorhombic'
loop_
_space_group_symop_operation_xyz
x,y,z
-x,-y,1/2+z
1/2-x,y,1/2+z
1/2+x,-y,z
loop_
_atom_site_type_symbol
_atom_site_label
_atom_site_fract_x
_atom_site_fract_y
_atom_site_fract_z
Si Si1 0.589571 0.993673 0.994200
Si Si2 0.150300 0.172378 0.349526
Si Si3 0.540704 0.285916 0.831142
Si Si4 0.425164 0.597842 0.105257
Si Si5 0.403837 0.955421 0.047728
Si Si6 0.087185 0.420627 0.986398
Si Si7 0.770061 0.608963 0.019241
Si Si8 0.762546 0.946335 0.645823
O O1 0.579114 0.125953 0.897991
O O2 0.501943 0.012442 0.061932
O O3 0.593256 0.787493 0.965305
O O4 0.670909 0.036255 0.066435
O O5 0.205107 0.320977 0.404771
O O6 0.199881 0.072099 0.260241
O O7 0.058751 0.240107 0.311341
O O8 0.130302 0.050469 0.446676
O O9 0.583142 0.328797 0.720911
O O10 0.547527 0.461363 0.896616
O O11 0.407758 0.755253 0.027977
O O12 0.523125 0.549824 0.083047
O O13 0.354859 0.463257 0.072208
O O14 0.333941 0.987599 0.136547
O O15 0.182220 0.493082 0.006415
O O16 0.742007 0.757525 0.097870
#
# Coordination Sequence:
#
# PCOD9340464 Si02
#       8
#     4   4   4   4   4   4   4   4
#     4   9  21  42  64  94 130 165 215 267 314 388
#     4  10  20  41  65  91 127 167 215 261 327 387
#     4  11  22  40  69  93 126 179 211 266 329 383
#     4  11  23  43  61  94 133 164 220 270 321 387
#     4   9  21  38  61  90 124 162 209 272 310 377
#     4  10  22  43  64  92 133 167 215 269 321 384
#     4  10  22  39  62  90 129 163 210 269 317 384
#     4  10  21  40  64  90 124 171 209 260 327 384
#
# _framework density 20.373616999999999
#
# number of rings (size 3 to 8) (size 9 to 14) (size 15 to 20)
#    0.000    2.000    1.250    2.250    3.500    3.000 
#    2.250    5.000    0.000    0.000    0.000    0.000 
#    0.000    0.000    0.000    0.000    0.000    0.000 
#
# Total GULP energy -178260.965939 kJ/mol
# GULP energy per Si atom -5570.655186 kJ/mol
# Density = 2.032725 g / cm^3
# Si number density = 20.373617 Si / 1000 Ang^3
#
#
#
# Elastic Constant Matrix: (Units=GPa)
#
#
# Indices 1 2 3 4 5 6 
#
# 1 72.7583 13.7670 36.9034 0.0000 0.0000 0.0000
# 2 13.7670 42.9342 23.2502 0.0000 0.0000 0.0000
# 3 36.9034 23.2502 60.8475 0.0000 0.0000 0.0000
# 4 0.0000 0.0000 0.0000 27.6126 0.0000 0.0000
# 5 0.0000 0.0000 0.0000 0.0000 -43.6283 0.0000
# 6 0.0000 0.0000 0.0000 0.0000 0.0000 29.5022
#
#
#
# Elastic Compliance Matrix: (Units=1/GPa)
#
#
# Indices 1 2 3 4 5 6 
#
# 1 0.019852 0.000195 -0.012114 0.000000 0.000000 0.000000
# 2 0.000195 0.029370 -0.011341 0.000000 0.000000 0.000000
# 3 -0.012114 -0.011341 0.028115 0.000000 0.000000 0.000000
# 4 0.000000 0.000000 0.000000 0.036215 0.000000 0.000000
# 5 0.000000 0.000000 0.000000 0.000000 -0.022921 0.000000
# 6 0.000000 0.000000 0.000000 0.000000 0.000000 0.033896
#
#
# Mechanical properties :
#
#
# Convention : Reuss Voigt Hill
#
# Bulk Modulus (GPa) = 32.44997 36.04236 34.24616
# Shear Modulus (GPa) = 27.57554 9.53859 18.55707
#
# Velocity S-wave (km/s) = 3.68298 2.16610 3.02128
# Velocity P-wave (km/s) = 5.83505 4.89746 5.38669
#
# Compressibility (1/GPa) = 0.03081667
#
# Stress axis : x y z
#
# Youngs Moduli (GPa) = 50.37350 34.04791 35.56812
#
# Poissons Ratio (x) = -0.00663 0.43088
# Poissons Ratio (y) = -0.00981 0.40337
# Poissons Ratio (z) = 0.61024 0.38613
#
# Static dielectric constant tensor:
#      x y z
#    x 1.819290 0.000000 0.000000 
#    y 0.000000 1.771180 0.000000 
#    z 0.000000 0.000000 1.718910 
# 
# From -- ./inp_files/3486.got.cif
#   From: 2010.05.17/outbox.cif.g08.bks.cpg/sg29_2_cif.got.tgz:3486.got - 2010.06.04 01:19:37.
