data_PCOD9340293
_publ_section_title
;
Structure prediction by ZEFSAII (Michael W. Deem and Ramdas Pophale) SiO2 
 PCOD9340293
Probable space group: P C A 21
;
_chemical_formula_sum "Si O2"
_cell_formula_units_Z 28
_cell_length_a 19.138746
_cell_length_b 13.920411
_cell_length_c 5.433236
_cell_angle_alpha 90.000000
_cell_angle_beta 90.000000
_cell_angle_gamma 90.000000
_cell_volume 1447.518445
_symmetry_space_group_name_H-M "P C A 21"
_symmetry_group_IT_number 29
_symmetry_cell_setting 'orthorhombic'
loop_
_space_group_symop_operation_xyz
x,y,z
-x,-y,1/2+z
1/2-x,y,1/2+z
1/2+x,-y,z
loop_
_atom_site_type_symbol
_atom_site_label
_atom_site_fract_x
_atom_site_fract_y
_atom_site_fract_z
Si Si1 0.076032 0.501111 0.565560
Si Si2 0.999700 0.124443 0.833147
Si Si3 0.078996 0.061575 0.335258
Si Si4 0.206469 0.193464 0.415698
Si Si5 0.150039 0.379086 0.187117
Si Si6 0.518703 0.658257 0.884616
Si Si7 0.270763 0.527362 0.187071
O O1 0.106272 0.465844 0.305852
O O2 0.028056 0.414540 0.658578
O O3 0.147214 0.509478 0.722773
O O4 0.033047 0.598662 0.560488
O O5 0.038793 0.100312 0.577595
O O6 0.988186 0.237881 0.834121
O O7 0.045284 0.099279 0.078318
O O8 0.933402 0.053029 0.839690
O O9 0.155975 0.103691 0.365819
O O10 0.238526 0.193202 0.688765
O O11 0.163924 0.292636 0.376893
O O12 0.224703 0.429843 0.133718
O O13 0.097988 0.333238 0.988147
O O14 0.239627 0.578377 0.425013
#
# Coordination Sequence:
#
# PCOD9340293 Si02
#       7
#     4   4   4   4   4   4   4
#     4  11  23  36  54  85 127 162 202 252 305 360
#     4  10  22  38  66  85 123 159 201 254 309 371
#     4  10  21  42  60  92 120 156 200 255 315 372
#     4  12  24  36  61  92 122 158 198 255 321 375
#     4  11  22  36  55  84 122 157 203 249 308 366
#     4  12  22  37  57  90 122 164 206 256 304 370
#     4  10  20  35  53  74 110 156 190 237 294 352
#
# _framework density 19.343449
#
# number of rings (size 3 to 8) (size 9 to 14) (size 15 to 20)
#    0.000    1.143    4.286    3.429    2.000    0.000 
#    0.000    0.000    0.000    3.429    0.000    0.000 
#    0.000    0.000    0.000    0.000    0.000    0.000 
#
# Total GULP energy -156077.099549 kJ/mol
# GULP energy per Si atom -5574.182127 kJ/mol
# Density = 1.929942 g / cm^3
# Si number density = 19.343449 Si / 1000 Ang^3
#
#
#
# Elastic Constant Matrix: (Units=GPa)
#
#
# Indices 1 2 3 4 5 6 
#
# 1 81.2557 42.0160 9.7630 0.0000 0.0000 0.0000
# 2 42.0160 119.4599 11.5142 0.0000 0.0000 0.0000
# 3 9.7630 11.5142 83.1086 0.0000 0.0000 0.0000
# 4 0.0000 0.0000 0.0000 18.9303 0.0000 0.0000
# 5 0.0000 0.0000 0.0000 0.0000 29.5902 0.0000
# 6 0.0000 0.0000 0.0000 0.0000 0.0000 28.4192
#
#
#
# Elastic Compliance Matrix: (Units=1/GPa)
#
#
# Indices 1 2 3 4 5 6 
#
# 1 0.015133 -0.005221 -0.001054 0.000000 0.000000 0.000000
# 2 -0.005221 0.010286 -0.000812 0.000000 0.000000 0.000000
# 3 -0.001054 -0.000812 0.012269 0.000000 0.000000 0.000000
# 4 0.000000 0.000000 0.000000 0.052825 0.000000 0.000000
# 5 0.000000 0.000000 0.000000 0.000000 0.033795 0.000000
# 6 0.000000 0.000000 0.000000 0.000000 0.000000 0.035188
#
#
# Mechanical properties :
#
#
# Convention : Reuss Voigt Hill
#
# Bulk Modulus (GPa) = 42.52892 45.60117 44.06505
# Shear Modulus (GPa) = 27.54711 30.09001 28.81856
#
# Velocity S-wave (km/s) = 3.77783 3.94834 3.86403
# Velocity P-wave (km/s) = 6.40806 6.66420 6.53738
#
# Compressibility (1/GPa) = 0.02351341
#
# Stress axis : x y z
#
# Youngs Moduli (GPa) = 66.07996 97.22389 81.50777
#
# Poissons Ratio (x) = 0.50760 0.08594
# Poissons Ratio (y) = 0.34500 0.06616
# Poissons Ratio (z) = 0.06968 0.07891
#
# Static dielectric constant tensor:
#      x y z
#    x 1.742190 0.000000 0.000000 
#    y 0.000000 1.649440 0.000000 
#    z 0.000000 0.000000 1.808290 
# 
# From -- ./inp_files/411.got.cif
#   From: 2010.05.17/outbox.cif.g08.bks.cpg/sg29_1_cif.got.tgz:411.got - 2010.06.04 01:19:37.
