data_PCOD9340568
_publ_section_title
;
Structure prediction by ZEFSAII (Michael W. Deem and Ramdas Pophale) SiO2 
 PCOD9340568
Probable space group: P C A 21
;
_chemical_formula_sum "Si O2"
_cell_formula_units_Z 20
_cell_length_a 16.686675
_cell_length_b 6.355660
_cell_length_c 8.105555
_cell_angle_alpha 90.000000
_cell_angle_beta 90.000000
_cell_angle_gamma 90.000000
_cell_volume 859.633281
_symmetry_space_group_name_H-M "P C A 21"
_symmetry_group_IT_number 29
_symmetry_cell_setting 'orthorhombic'
loop_
_space_group_symop_operation_xyz
x,y,z
-x,-y,1/2+z
1/2-x,y,1/2+z
1/2+x,-y,z
loop_
_atom_site_type_symbol
_atom_site_label
_atom_site_fract_x
_atom_site_fract_y
_atom_site_fract_z
Si Si1 0.649273 0.292409 0.277280
Si Si2 0.999333 0.655777 0.068678
Si Si3 0.841905 0.943815 0.032387
Si Si4 0.596960 0.327610 0.736673
Si Si5 0.727639 0.536820 0.580016
O O1 0.556814 0.291200 0.223034
O O2 0.678529 0.450552 0.422022
O O3 0.698342 0.386115 0.121757
O O4 0.667062 0.067184 0.359692
O O5 0.922538 0.804049 0.042306
O O6 0.968053 0.419782 0.106692
O O7 0.052297 0.685208 0.907218
O O8 0.767458 0.786628 0.059968
O O9 0.859041 0.120053 0.170927
O O10 0.667600 0.500080 0.735585
#
# Coordination Sequence:
#
# PCOD9340568 Si02
#       5
#     4   4   4   4   4
#     4  11  23  42  66  95 134 172 226 286 341 416
#     4  11  21  39  66  95 128 171 219 278 338 404
#     4  10  22  40  63  93 128 173 221 270 341 411
#     4  10  21  38  60  91 130 166 214 269 327 400
#     4  10  23  41  61  92 130 174 220 277 343 407
#
# _framework density 23.265733000000001
#
# number of rings (size 3 to 8) (size 9 to 14) (size 15 to 20)
#    0.000    1.600    0.000    6.000    0.000    4.800 
#    0.000    4.000    0.000    0.000    0.000    0.000 
#    0.000    0.000    0.000    0.000    0.000    0.000 
#
# Total GULP energy -111562.275746 kJ/mol
# GULP energy per Si atom -5578.113787 kJ/mol
# Density = 2.321278 g / cm^3
# Si number density = 23.265733 Si / 1000 Ang^3
#
#
#
# Elastic Constant Matrix: (Units=GPa)
#
#
# Indices 1 2 3 4 5 6 
#
# 1 75.3541 37.7218 24.9741 0.0000 0.0000 0.0000
# 2 37.7218 135.2077 40.7859 0.0000 0.0000 0.0000
# 3 24.9741 40.7859 103.0152 0.0000 0.0000 0.0000
# 4 0.0000 0.0000 0.0000 28.8859 0.0000 0.0000
# 5 0.0000 0.0000 0.0000 0.0000 39.2930 0.0000
# 6 0.0000 0.0000 0.0000 0.0000 0.0000 34.4783
#
#
#
# Elastic Compliance Matrix: (Units=1/GPa)
#
#
# Indices 1 2 3 4 5 6 
#
# 1 0.015925 -0.003723 -0.002387 0.000000 0.000000 0.000000
# 2 -0.003723 0.009270 -0.002767 0.000000 0.000000 0.000000
# 3 -0.002387 -0.002767 0.011382 0.000000 0.000000 0.000000
# 4 0.000000 0.000000 0.000000 0.034619 0.000000 0.000000
# 5 0.000000 0.000000 0.000000 0.000000 0.025450 0.000000
# 6 0.000000 0.000000 0.000000 0.000000 0.000000 0.029004
#
#
# Mechanical properties :
#
#
# Convention : Reuss Voigt Hill
#
# Bulk Modulus (GPa) = 53.12919 57.83787 55.48353
# Shear Modulus (GPa) = 33.40508 34.53776 33.97142
#
# Velocity S-wave (km/s) = 3.79331 3.85709 3.82533
# Velocity P-wave (km/s) = 6.48622 6.68953 6.58866
#
# Compressibility (1/GPa) = 0.01882204
#
# Stress axis : x y z
#
# Youngs Moduli (GPa) = 62.79249 107.88016 87.86098
#
# Poissons Ratio (x) = 0.40165 0.20971
# Poissons Ratio (y) = 0.23378 0.24315
# Poissons Ratio (z) = 0.14987 0.29855
#
# Static dielectric constant tensor:
#      x y z
#    x 1.957970 0.000000 0.000000 
#    y 0.000000 1.909410 0.000000 
#    z 0.000000 0.000000 1.944070 
# 
# From -- ./inp_files/1930.got.cif
#   From: 2010.05.17/outbox.cif.g08.bks.cpg/sg29_1_cif.got.tgz:1930.got - 2010.06.04 01:19:37.
