data_PCOD9340986
_publ_section_title
;
Structure prediction by ZEFSAII (Michael W. Deem and Ramdas Pophale) SiO2 
 PCOD9340986
Probable space group: P C A 21
;
_chemical_formula_sum "Si O2"
_cell_formula_units_Z 32
_cell_length_a 14.670241
_cell_length_b 11.453373
_cell_length_c 8.784930
_cell_angle_alpha 90.000000
_cell_angle_beta 90.000000
_cell_angle_gamma 90.000000
_cell_volume 1476.076813
_symmetry_space_group_name_H-M "P C A 21"
_symmetry_group_IT_number 29
_symmetry_cell_setting 'orthorhombic'
loop_
_space_group_symop_operation_xyz
x,y,z
-x,-y,1/2+z
1/2-x,y,1/2+z
1/2+x,-y,z
loop_
_atom_site_type_symbol
_atom_site_label
_atom_site_fract_x
_atom_site_fract_y
_atom_site_fract_z
Si Si1 0.215588 0.223753 0.130200
Si Si2 0.113182 0.257358 0.449285
Si Si3 0.180344 0.950387 0.142968
Si Si4 0.036935 0.929060 0.918642
Si Si5 0.359118 0.813623 0.186172
Si Si6 0.949838 0.154448 0.883146
Si Si7 0.461490 0.596790 0.278559
Si Si8 0.439496 0.364562 0.452428
O O1 0.178589 0.241818 0.301552
O O2 0.147131 0.294401 0.018890
O O3 0.210942 0.082818 0.111186
O O4 0.317331 0.268259 0.089938
O O5 0.049758 0.143371 0.474708
O O6 0.039592 0.354099 0.394803
O O7 0.264093 0.876299 0.203764
O O8 0.099860 0.929274 0.263731
O O9 0.132269 0.894662 0.996432
O O10 0.057565 0.893670 0.746534
O O11 0.025206 0.065095 0.945548
O O12 0.379678 0.690158 0.263296
O O13 0.376042 0.807881 0.006645
O O14 0.001589 0.274009 0.849920
O O15 0.425332 0.477021 0.348069
O O16 0.506375 0.597748 0.108693
#
# Coordination Sequence:
#
# PCOD9340986 Si02
#       8
#     4   4   4   4   4   4   4   4
#     4  11  23  40  65 101 134 169 228 279 344 404
#     4  10  23  42  64  96 132 176 219 279 337 404
#     4  12  23  36  63 100 133 173 217 277 346 415
#     4  11  21  39  61  94 137 169 213 266 348 414
#     4  10  23  40  62  94 134 173 217 279 330 407
#     4  11  21  39  62  95 131 171 220 265 350 404
#     4   9  22  45  68  91 133 180 231 278 336 398
#     4  10  22  43  69  91 130 181 229 287 329 402
#
# _framework density 21.679089999999999
#
# number of rings (size 3 to 8) (size 9 to 14) (size 15 to 20)
#    0.000    1.500    2.500    3.000    1.750    4.000 
#    2.250    0.000    0.000    0.000    0.000    0.000 
#    0.000    0.000    0.000    0.000    0.000    0.000 
#
# Total GULP energy -178457.587107 kJ/mol
# GULP energy per Si atom -5576.799597 kJ/mol
# Density = 2.162975 g / cm^3
# Si number density = 21.679090 Si / 1000 Ang^3
#
#
#
# Elastic Constant Matrix: (Units=GPa)
#
#
# Indices 1 2 3 4 5 6 
#
# 1 92.1108 56.5331 22.4193 0.0000 0.0000 0.0000
# 2 56.5331 123.1636 32.6344 0.0000 0.0000 0.0000
# 3 22.4193 32.6344 25.8672 0.0000 0.0000 0.0000
# 4 0.0000 0.0000 0.0000 26.9127 0.0000 0.0000
# 5 0.0000 0.0000 0.0000 0.0000 36.4450 0.0000
# 6 0.0000 0.0000 0.0000 0.0000 0.0000 15.9689
#
#
#
# Elastic Compliance Matrix: (Units=1/GPa)
#
#
# Indices 1 2 3 4 5 6 
#
# 1 0.015886 -0.005473 -0.006864 0.000000 0.000000 0.000000
# 2 -0.005473 0.014082 -0.013022 0.000000 0.000000 0.000000
# 3 -0.006864 -0.013022 0.061037 0.000000 0.000000 0.000000
# 4 0.000000 0.000000 0.000000 0.037157 0.000000 0.000000
# 5 0.000000 0.000000 0.000000 0.000000 0.027439 0.000000
# 6 0.000000 0.000000 0.000000 0.000000 0.000000 0.062622
#
#
# Mechanical properties :
#
#
# Convention : Reuss Voigt Hill
#
# Bulk Modulus (GPa) = 24.82202 51.59056 38.20629
# Shear Modulus (GPa) = 17.70723 24.50230 21.10477
#
# Velocity S-wave (km/s) = 2.86105 3.36553 3.12349
# Velocity P-wave (km/s) = 4.73168 6.24111 5.53806
#
# Compressibility (1/GPa) = 0.04028680
#
# Stress axis : x y z
#
# Youngs Moduli (GPa) = 62.94737 71.01205 16.38351
#
# Poissons Ratio (x) = 0.38867 0.11245
# Poissons Ratio (y) = 0.34453 0.21335
# Poissons Ratio (z) = 0.43204 0.92475
#
# Static dielectric constant tensor:
#      x y z
#    x 1.791410 0.000000 0.000000 
#    y 0.000000 1.764910 0.000000 
#    z 0.000000 0.000000 1.905560 
# 
# From -- ./inp_files/1870.got.cif
#   From: 2010.05.17/outbox.cif.g08.bks.cpg/sg29_1_cif.got.tgz:1870.got - 2010.06.04 01:19:37.
