data_PCOD9340696
_publ_section_title
;
Structure prediction by ZEFSAII (Michael W. Deem and Ramdas Pophale) SiO2 
 PCOD9340696
Probable space group: P C A 21
;
_chemical_formula_sum "Si O2"
_cell_formula_units_Z 28
_cell_length_a 10.974650
_cell_length_b 12.349745
_cell_length_c 8.877961
_cell_angle_alpha 90.000000
_cell_angle_beta 90.000000
_cell_angle_gamma 90.000000
_cell_volume 1203.266711
_symmetry_space_group_name_H-M "P C A 21"
_symmetry_group_IT_number 29
_symmetry_cell_setting 'orthorhombic'
loop_
_space_group_symop_operation_xyz
x,y,z
-x,-y,1/2+z
1/2-x,y,1/2+z
1/2+x,-y,z
loop_
_atom_site_type_symbol
_atom_site_label
_atom_site_fract_x
_atom_site_fract_y
_atom_site_fract_z
Si Si1 0.483868 0.595990 0.524110
Si Si2 0.080527 0.023886 0.522029
Si Si3 0.597928 0.821138 0.052001
Si Si4 0.950001 0.627204 0.359477
Si Si5 0.238672 0.934292 0.259523
Si Si6 0.696580 0.724553 0.361743
Si Si7 0.613600 0.191226 0.004881
O O1 0.481266 0.606664 0.704258
O O2 0.461944 0.476494 0.465554
O O3 0.608325 0.646336 0.456300
O O4 0.384904 0.683291 0.468491
O O5 0.136941 0.990849 0.361584
O O6 0.182249 0.010030 0.650499
O O7 0.971878 0.935321 0.551934
O O8 0.021413 0.141984 0.526003
O O9 0.627648 0.775147 0.217904
O O10 0.516722 0.734089 0.957246
O O11 0.725455 0.813220 0.958775
O O12 0.809905 0.649023 0.311224
O O13 0.330719 0.878384 0.372597
O O14 0.182597 0.841615 0.155365
#
# Coordination Sequence:
#
# PCOD9340696 Si02
#       7
#     4   4   4   4   4   4   4
#     4  12  23  45  68  95 140 176 228 293 342 415
#     4  11  23  44  70 100 143 178 226 276 335 413
#     4  10  21  41  67 101 137 177 231 278 334 413
#     4  10  23  42  64 100 130 176 232 282 345 398
#     4  10  24  44  62 103 138 181 224 268 349 401
#     4  10  21  42  65 105 128 180 233 279 344 401
#     4  11  25  44  66 102 134 182 222 282 343 405
#
# _framework density 23.269987
#
# number of rings (size 3 to 8) (size 9 to 14) (size 15 to 20)
#    0.857    0.571    1.429    3.429    0.000    3.429 
#   15.429    0.000    0.000    0.000    0.000    0.000 
#    0.000    0.000    0.000    0.000    0.000    0.000 
#
# Total GULP energy -156674.404137 kJ/mol
# GULP energy per Si atom -5595.514433 kJ/mol
# Density = 2.321702 g / cm^3
# Si number density = 23.269987 Si / 1000 Ang^3
#
#
#
# Elastic Constant Matrix: (Units=GPa)
#
#
# Indices 1 2 3 4 5 6 
#
# 1 59.3144 -0.1126 13.9072 0.0000 0.0000 0.0000
# 2 -0.1126 103.7410 16.1455 0.0000 0.0000 0.0000
# 3 13.9072 16.1455 127.6692 0.0000 0.0000 0.0000
# 4 0.0000 0.0000 0.0000 70.6655 0.0000 0.0000
# 5 0.0000 0.0000 0.0000 0.0000 36.3955 0.0000
# 6 0.0000 0.0000 0.0000 0.0000 0.0000 11.8231
#
#
#
# Elastic Compliance Matrix: (Units=1/GPa)
#
#
# Indices 1 2 3 4 5 6 
#
# 1 0.017312 0.000319 -0.001926 0.000000 0.000000 0.000000
# 2 0.000319 0.009839 -0.001279 0.000000 0.000000 0.000000
# 3 -0.001926 -0.001279 0.008204 0.000000 0.000000 0.000000
# 4 0.000000 0.000000 0.000000 0.014151 0.000000 0.000000
# 5 0.000000 0.000000 0.000000 0.000000 0.027476 0.000000
# 6 0.000000 0.000000 0.000000 0.000000 0.000000 0.084580
#
#
# Mechanical properties :
#
#
# Convention : Reuss Voigt Hill
#
# Bulk Modulus (GPa) = 33.80472 38.95609 36.38041
# Shear Modulus (GPa) = 28.21743 41.16245 34.68994
#
# Velocity S-wave (km/s) = 3.48603 4.21040 3.86522
# Velocity P-wave (km/s) = 5.54635 6.35719 5.96556
#
# Compressibility (1/GPa) = 0.02958167
#
# Stress axis : x y z
#
# Youngs Moduli (GPa) = 57.76506 101.63862 121.88741
#
# Poissons Ratio (x) = -0.03238 0.23476
# Poissons Ratio (y) = -0.01840 0.15589
# Poissons Ratio (z) = 0.11126 0.12999
#
# Static dielectric constant tensor:
#      x y z
#    x 1.938360 0.000000 0.000000 
#    y 0.000000 1.414470 0.000000 
#    z 0.000000 0.000000 1.878510 
# 
# From -- ./inp_files/1466.got.cif
#   From: 2010.05.17/outbox.cif.g08.bks.cpg/sg29_1_cif.got.tgz:1466.got - 2010.06.04 01:19:37.
