data_PCOD9340987
_publ_section_title
;
Structure prediction by ZEFSAII (Michael W. Deem and Ramdas Pophale) SiO2 
 PCOD9340987
Probable space group: P C A 21
;
_chemical_formula_sum "Si O2"
_cell_formula_units_Z 28
_cell_length_a 25.610619
_cell_length_b 5.705117
_cell_length_c 8.381393
_cell_angle_alpha 90.000000
_cell_angle_beta 90.000000
_cell_angle_gamma 90.000000
_cell_volume 1224.618556
_symmetry_space_group_name_H-M "P C A 21"
_symmetry_group_IT_number 29
_symmetry_cell_setting 'orthorhombic'
loop_
_space_group_symop_operation_xyz
x,y,z
-x,-y,1/2+z
1/2-x,y,1/2+z
1/2+x,-y,z
loop_
_atom_site_type_symbol
_atom_site_label
_atom_site_fract_x
_atom_site_fract_y
_atom_site_fract_z
Si Si1 0.073458 0.391630 0.125000
Si Si2 0.124538 0.000584 0.336112
Si Si3 0.171340 0.020014 0.686426
Si Si4 0.819056 0.348048 0.633110
Si Si5 0.721673 0.469703 0.786547
Si Si6 0.471730 0.799081 0.701112
Si Si7 0.564864 0.980758 0.872847
O O1 0.094357 0.215554 0.258126
O O2 0.124109 0.550836 0.105299
O O3 0.021831 0.521896 0.185049
O O4 0.065085 0.272624 0.956363
O O5 0.149804 0.041521 0.506441
O O6 0.168172 0.905012 0.210948
O O7 0.074726 0.823355 0.332627
O O8 0.196969 0.274483 0.737795
O O9 0.121649 0.974027 0.801810
O O10 0.204280 0.774420 0.695268
O O11 0.783742 0.485815 0.760275
O O12 0.790430 0.395375 0.467130
O O13 0.520282 0.959607 0.741362
O O14 0.451908 0.864865 0.523655
#
# Coordination Sequence:
#
# PCOD9340987 Si02
#       7
#     4   4   4   4   4   4   4
#     4  10  22  43  69  99 141 188 233 315 356 440
#     4  10  24  44  69 101 142 183 244 303 372 431
#     4  12  27  46  71 109 144 192 243 309 366 451
#     4  11  25  46  70 101 144 187 244 306 368 441
#     4  12  28  45  74 104 141 195 245 299 377 438
#     4  10  23  42  70 102 140 195 242 302 370 446
#     4  11  23  44  67 102 148 188 249 300 377 439
#
# _framework density 22.864262
#
# number of rings (size 3 to 8) (size 9 to 14) (size 15 to 20)
#    0.000    1.143    1.429    4.286    8.000    3.429 
#    0.000    0.000    0.000    0.000    0.000    0.000 
#    0.000    0.000    0.000    0.000    0.000    0.000 
#
# Total GULP energy -155991.814496 kJ/mol
# GULP energy per Si atom -5571.136232 kJ/mol
# Density = 2.281222 g / cm^3
# Si number density = 22.864262 Si / 1000 Ang^3
#
#
#
# Elastic Constant Matrix: (Units=GPa)
#
#
# Indices 1 2 3 4 5 6 
#
# 1 31.6811 24.1375 -16.7229 0.0000 0.0000 0.0000
# 2 24.1375 95.1465 30.4787 0.0000 0.0000 0.0000
# 3 -16.7229 30.4787 53.2764 0.0000 0.0000 0.0000
# 4 0.0000 0.0000 0.0000 24.6165 0.0000 0.0000
# 5 0.0000 0.0000 0.0000 0.0000 38.2884 0.0000
# 6 0.0000 0.0000 0.0000 0.0000 0.0000 17.7869
#
#
#
# Elastic Compliance Matrix: (Units=1/GPa)
#
#
# Indices 1 2 3 4 5 6 
#
# 1 0.084648 -0.036714 0.047574 0.000000 0.000000 0.000000
# 2 -0.036714 0.028792 -0.027996 0.000000 0.000000 0.000000
# 3 0.047574 -0.027996 0.049719 0.000000 0.000000 0.000000
# 4 0.000000 0.000000 0.000000 0.040623 0.000000 0.000000
# 5 0.000000 0.000000 0.000000 0.000000 0.026118 0.000000
# 6 0.000000 0.000000 0.000000 0.000000 0.000000 0.056221
#
#
# Mechanical properties :
#
#
# Convention : Reuss Voigt Hill
#
# Bulk Modulus (GPa) = 7.75870 28.43231 18.09550
# Shear Modulus (GPa) = 13.76067 25.61905 19.68986
#
# Velocity S-wave (km/s) = 2.45591 3.35100 2.93774
# Velocity P-wave (km/s) = 3.38271 5.23779 4.40892
#
# Compressibility (1/GPa) = 0.12888756
#
# Stress axis : x y z
#
# Youngs Moduli (GPa) = 11.81361 34.73204 20.11312
#
# Poissons Ratio (x) = 1.27514 -0.95685
# Poissons Ratio (y) = 0.43372 0.56308
# Poissons Ratio (z) = -0.56202 0.97234
#
# Static dielectric constant tensor:
#      x y z
#    x 1.909350 0.000000 0.000000 
#    y 0.000000 2.169600 0.000000 
#    z 0.000000 0.000000 1.832140 
# 
# From -- ./inp_files/2539.got.cif
#   From: 2010.05.17/outbox.cif.g08.bks.cpg/sg29_2_cif.got.tgz:2539.got - 2010.06.04 01:19:37.
