data_PCOD9340442
_publ_section_title
;
Structure prediction by ZEFSAII (Michael W. Deem and Ramdas Pophale) SiO2 
 PCOD9340442
Probable space group: P C A 21
;
_chemical_formula_sum "Si O2"
_cell_formula_units_Z 32
_cell_length_a 27.135477
_cell_length_b 5.230280
_cell_length_c 8.434025
_cell_angle_alpha 90.000000
_cell_angle_beta 90.000000
_cell_angle_gamma 90.000000
_cell_volume 1197.008635
_symmetry_space_group_name_H-M "P C A 21"
_symmetry_group_IT_number 29
_symmetry_cell_setting 'orthorhombic'
loop_
_space_group_symop_operation_xyz
x,y,z
-x,-y,1/2+z
1/2-x,y,1/2+z
1/2+x,-y,z
loop_
_atom_site_type_symbol
_atom_site_label
_atom_site_fract_x
_atom_site_fract_y
_atom_site_fract_z
Si Si1 0.820385 0.086767 0.593470
Si Si2 0.384444 0.262152 0.212901
Si Si3 0.096450 0.707547 0.275840
Si Si4 0.113385 0.378337 0.055021
Si Si5 0.469870 0.001575 0.546910
Si Si6 0.319557 0.528237 0.992451
Si Si7 0.943252 0.239498 0.227188
Si Si8 0.763265 0.279774 0.297593
O O1 0.848624 0.830247 0.623451
O O2 0.864670 0.307675 0.613104
O O3 0.794589 0.137700 0.429465
O O4 0.779546 0.105458 0.725617
O O5 0.361698 0.389784 0.372144
O O6 0.347392 0.284742 0.063469
O O7 0.398536 0.965526 0.230270
O O8 0.427733 0.473896 0.179812
O O9 0.080847 0.429259 0.228723
O O10 0.136504 0.699572 0.411838
O O11 0.054434 0.885959 0.209095
O O12 0.065343 0.223724 0.982288
O O13 0.466143 0.789920 0.405515
O O14 0.521703 0.119197 0.593154
O O15 0.295329 0.648908 0.147509
O O16 0.272179 0.502564 0.876896
#
# Coordination Sequence:
#
# PCOD9340442 Si02
#       8
#     4   4   4   4   4   4   4   4
#     4   9  19  38  63  92 127 177 214 288 343 414
#     4  11  25  45  69 103 139 187 230 287 349 415
#     4  10  20  40  64  94 135 175 229 280 351 410
#     4  10  21  41  66  93 134 178 225 283 345 412
#     4  10  24  42  66 101 137 184 230 286 342 408
#     4  10  22  40  70  97 134 182 228 291 354 418
#     4  11  26  44  71 102 144 184 238 286 344 417
#     4   9  19  40  67  94 136 167 236 283 350 424
#
# _framework density 26.733307
#
# number of rings (size 3 to 8) (size 9 to 14) (size 15 to 20)
#    0.000    2.000    1.250    0.750    7.000    1.000 
#    4.500   10.000    0.000    0.000    0.000    0.000 
#    0.000    0.000    0.000    0.000    0.000    0.000 
#
# Total GULP energy -178199.879061 kJ/mol
# GULP energy per Si atom -5568.746221 kJ/mol
# Density = 2.667246 g / cm^3
# Si number density = 26.733307 Si / 1000 Ang^3
#
#
#
# Elastic Constant Matrix: (Units=GPa)
#
#
# Indices 1 2 3 4 5 6 
#
# 1 29.8179 6.4354 0.9039 0.0000 0.0000 0.0000
# 2 6.4354 81.6733 4.6521 0.0000 0.0000 0.0000
# 3 0.9039 4.6521 95.0509 0.0000 0.0000 0.0000
# 4 0.0000 0.0000 0.0000 27.4560 0.0000 0.0000
# 5 0.0000 0.0000 0.0000 0.0000 55.9239 0.0000
# 6 0.0000 0.0000 0.0000 0.0000 0.0000 17.0281
#
#
#
# Elastic Compliance Matrix: (Units=1/GPa)
#
#
# Indices 1 2 3 4 5 6 
#
# 1 0.034121 -0.002677 -0.000193 0.000000 0.000000 0.000000
# 2 -0.002677 0.012488 -0.000586 0.000000 0.000000 0.000000
# 3 -0.000193 -0.000586 0.010551 0.000000 0.000000 0.000000
# 4 0.000000 0.000000 0.000000 0.036422 0.000000 0.000000
# 5 0.000000 0.000000 0.000000 0.000000 0.017881 0.000000
# 6 0.000000 0.000000 0.000000 0.000000 0.000000 0.058727
#
#
# Mechanical properties :
#
#
# Convention : Reuss Voigt Hill
#
# Bulk Modulus (GPa) = 19.90180 25.61388 22.75784
# Shear Modulus (GPa) = 25.79283 33.05164 29.42224
#
# Velocity S-wave (km/s) = 3.10952 3.51999 3.32110
# Velocity P-wave (km/s) = 4.51142 5.11101 4.82055
#
# Compressibility (1/GPa) = 0.05024672
#
# Stress axis : x y z
#
# Youngs Moduli (GPa) = 29.30773 80.07533 94.77603
#
# Poissons Ratio (x) = 0.21440 0.01833
# Poissons Ratio (y) = 0.07847 0.05552
# Poissons Ratio (z) = 0.00567 0.04690
#
# Static dielectric constant tensor:
#      x y z
#    x 2.200560 0.000000 0.000000 
#    y 0.000000 2.107990 0.000000 
#    z 0.000000 0.000000 2.347700 
# 
# From -- ./inp_files/2606.got.cif
#   From: 2010.05.17/outbox.cif.g08.bks.cpg/sg29_2_cif.got.tgz:2606.got - 2010.06.04 01:19:37.
