data_PCOD9340157
_publ_section_title
;
Structure prediction by ZEFSAII (Michael W. Deem and Ramdas Pophale) SiO2 
 PCOD9340157
Probable space group: P C A 21
;
_chemical_formula_sum "Si O2"
_cell_formula_units_Z 24
_cell_length_a 22.282209
_cell_length_b 6.294325
_cell_length_c 7.675947
_cell_angle_alpha 90.000000
_cell_angle_beta 90.000000
_cell_angle_gamma 90.000000
_cell_volume 1076.562813
_symmetry_space_group_name_H-M "P C A 21"
_symmetry_group_IT_number 29
_symmetry_cell_setting 'orthorhombic'
loop_
_space_group_symop_operation_xyz
x,y,z
-x,-y,1/2+z
1/2-x,y,1/2+z
1/2+x,-y,z
loop_
_atom_site_type_symbol
_atom_site_label
_atom_site_fract_x
_atom_site_fract_y
_atom_site_fract_z
Si Si1 0.822475 0.903801 0.093620
Si Si2 0.504556 0.144740 0.306427
Si Si3 0.603312 0.785389 0.283603
Si Si4 0.602865 0.191743 0.792705
Si Si5 0.494256 0.543527 0.139475
Si Si6 0.813380 0.932916 0.480374
O O1 0.859290 0.122788 0.122417
O O2 0.818681 0.820102 0.291647
O O3 0.859914 0.761366 0.961402
O O4 0.756089 0.951266 0.026231
O O5 0.446930 0.993018 0.320119
O O6 0.496628 0.289551 0.133274
O O7 0.507453 0.300567 0.473460
O O8 0.562557 0.997707 0.293134
O O9 0.555807 0.605504 0.236997
O O10 0.651189 0.813071 0.130107
O O11 0.651644 0.157158 0.944977
O O12 0.564011 0.398003 0.756188
#
# Coordination Sequence:
#
# PCOD9340157 Si02
#       6
#     4   4   4   4   4   4
#     4  10  19  34  61  85 109 153 194 231 284 339
#     4  11  23  35  59  88 115 153 187 235 294 339
#     4  11  21  40  58  84 121 149 190 236 286 341
#     4   9  21  38  54  84 119 143 190 234 278 343
#     4  11  23  35  59  88 115 153 187 235 294 339
#     4  10  19  34  61  85 109 153 194 231 284 339
#
# _framework density 22.293172999999999
#
# number of rings (size 3 to 8) (size 9 to 14) (size 15 to 20)
#    1.000    0.667    5.000    0.000    4.667    0.000 
#    0.000    0.000    0.000   12.000    0.000    0.000 
#    0.000    0.000    0.000    0.000    0.000    0.000 
#
# Total GULP energy -133964.379615 kJ/mol
# GULP energy per Si atom -5581.849151 kJ/mol
# Density = 2.224243 g / cm^3
# Si number density = 22.293173 Si / 1000 Ang^3
#
#
#
# Elastic Constant Matrix: (Units=GPa)
#
#
# Indices 1 2 3 4 5 6 
#
# 1 146.9786 18.5258 50.6015 0.0000 0.0000 0.0000
# 2 18.5258 53.8469 11.6736 0.0000 0.0000 0.0000
# 3 50.6015 11.6736 117.4691 0.0000 0.0000 0.0000
# 4 0.0000 0.0000 0.0000 23.0847 0.0000 0.0000
# 5 0.0000 0.0000 0.0000 0.0000 42.9902 0.0000
# 6 0.0000 0.0000 0.0000 0.0000 0.0000 11.3165
#
#
#
# Elastic Compliance Matrix: (Units=1/GPa)
#
#
# Indices 1 2 3 4 5 6 
#
# 1 0.008215 -0.002105 -0.003330 0.000000 0.000000 0.000000
# 2 -0.002105 0.019519 -0.001033 0.000000 0.000000 0.000000
# 3 -0.003330 -0.001033 0.010050 0.000000 0.000000 0.000000
# 4 0.000000 0.000000 0.000000 0.043319 0.000000 0.000000
# 5 0.000000 0.000000 0.000000 0.000000 0.023261 0.000000
# 6 0.000000 0.000000 0.000000 0.000000 0.000000 0.088366
#
#
# Mechanical properties :
#
#
# Convention : Reuss Voigt Hill
#
# Bulk Modulus (GPa) = 40.24227 53.32181 46.78204
# Shear Modulus (GPa) = 23.37010 31.31121 27.34065
#
# Velocity S-wave (km/s) = 3.24127 3.75176 3.50582
# Velocity P-wave (km/s) = 5.66554 6.53743 6.11704
#
# Compressibility (1/GPa) = 0.02484949
#
# Stress axis : x y z
#
# Youngs Moduli (GPa) = 121.72366 51.23151 99.50379
#
# Poissons Ratio (x) = 0.10782 0.33132
# Poissons Ratio (y) = 0.25618 0.10280
# Poissons Ratio (z) = 0.40531 0.05293
#
# Static dielectric constant tensor:
#      x y z
#    x 1.794220 0.000000 0.000000 
#    y 0.000000 1.830370 0.000000 
#    z 0.000000 0.000000 1.950600 
# 
# From -- ./inp_files/2385.got.cif
#   From: 2010.05.17/outbox.cif.g08.bks.cpg/sg29_2_cif.got.tgz:2385.got - 2010.06.04 01:19:37.
