data_PCOD9340630
_publ_section_title
;
Structure prediction by ZEFSAII (Michael W. Deem and Ramdas Pophale) SiO2 
 PCOD9340630
Probable space group: P C A 21
;
_chemical_formula_sum "Si O2"
_cell_formula_units_Z 28
_cell_length_a 13.126422
_cell_length_b 9.829541
_cell_length_c 9.048282
_cell_angle_alpha 90.000000
_cell_angle_beta 90.000000
_cell_angle_gamma 90.000000
_cell_volume 1167.469996
_symmetry_space_group_name_H-M "P C A 21"
_symmetry_group_IT_number 29
_symmetry_cell_setting 'orthorhombic'
loop_
_space_group_symop_operation_xyz
x,y,z
-x,-y,1/2+z
1/2-x,y,1/2+z
1/2+x,-y,z
loop_
_atom_site_type_symbol
_atom_site_label
_atom_site_fract_x
_atom_site_fract_y
_atom_site_fract_z
Si Si1 0.383323 0.781557 0.182100
Si Si2 0.517843 0.930413 0.714693
Si Si3 0.326670 0.152806 0.975157
Si Si4 0.289496 0.335506 0.714057
Si Si5 0.307545 0.869094 0.860182
Si Si6 0.018038 0.466031 0.099340
Si Si7 0.073078 0.347829 0.802445
O O1 0.282093 0.787046 0.281715
O O2 0.448229 0.644311 0.184237
O O3 0.449767 0.913100 0.232008
O O4 0.349864 0.801301 0.010051
O O5 0.571016 0.895143 0.558101
O O6 0.399118 0.902630 0.744805
O O7 0.568255 0.814854 0.821682
O O8 0.346589 0.249849 0.838247
O O9 0.271632 0.017876 0.914903
O O10 0.255546 0.233190 0.090756
O O11 0.365498 0.442755 0.645151
O O12 0.189226 0.394012 0.791641
O O13 0.978943 0.612068 0.147905
O O14 0.013371 0.426289 0.928803
#
# Coordination Sequence:
#
# PCOD9340630 Si02
#       7
#     4   4   4   4   4   4   4
#     4  11  26  44  71 105 140 188 233 294 363 422
#     4  10  23  44  71  99 143 181 239 297 353 430
#     4  10  21  39  73 105 136 189 237 289 360 426
#     4  11  23  45  72 103 138 188 245 291 343 448
#     4  11  22  42  67 105 147 179 230 298 361 423
#     4  12  27  48  73 104 145 188 242 297 357 429
#     4  11  26  48  71 103 141 189 240 290 359 422
#
# _framework density 23.983484000000001
#
# number of rings (size 3 to 8) (size 9 to 14) (size 15 to 20)
#    0.000    1.143    2.857    3.429    4.000    4.571 
#    2.571    0.000    0.000    0.000    0.000    0.000 
#    0.000    0.000    0.000    0.000    0.000    0.000 
#
# Total GULP energy -156601.160430 kJ/mol
# GULP energy per Si atom -5592.898587 kJ/mol
# Density = 2.392890 g / cm^3
# Si number density = 23.983484 Si / 1000 Ang^3
#
#
#
# Elastic Constant Matrix: (Units=GPa)
#
#
# Indices 1 2 3 4 5 6 
#
# 1 115.9218 29.8676 26.6080 0.0000 0.0000 0.0000
# 2 29.8676 77.4206 14.6513 0.0000 0.0000 0.0000
# 3 26.6080 14.6513 88.8290 0.0000 0.0000 0.0000
# 4 0.0000 0.0000 0.0000 30.3481 0.0000 0.0000
# 5 0.0000 0.0000 0.0000 0.0000 34.2190 0.0000
# 6 0.0000 0.0000 0.0000 0.0000 0.0000 27.0613
#
#
#
# Elastic Compliance Matrix: (Units=1/GPa)
#
#
# Indices 1 2 3 4 5 6 
#
# 1 0.010071 -0.003421 -0.002452 0.000000 0.000000 0.000000
# 2 -0.003421 0.014495 -0.001366 0.000000 0.000000 0.000000
# 3 -0.002452 -0.001366 0.012217 0.000000 0.000000 0.000000
# 4 0.000000 0.000000 0.000000 0.032951 0.000000 0.000000
# 5 0.000000 0.000000 0.000000 0.000000 0.029224 0.000000
# 6 0.000000 0.000000 0.000000 0.000000 0.000000 0.036953
#
#
# Mechanical properties :
#
#
# Convention : Reuss Voigt Hill
#
# Bulk Modulus (GPa) = 44.83457 47.15836 45.99647
# Shear Modulus (GPa) = 31.68077 32.39529 32.03803
#
# Velocity S-wave (km/s) = 3.63842 3.67922 3.65888
# Velocity P-wave (km/s) = 6.03202 6.14446 6.08850
#
# Compressibility (1/GPa) = 0.02230422
#
# Stress axis : x y z
#
# Youngs Moduli (GPa) = 99.29637 68.99042 81.84988
#
# Poissons Ratio (x) = 0.23602 0.20073
# Poissons Ratio (y) = 0.33970 0.11181
# Poissons Ratio (z) = 0.24351 0.09424
#
# Static dielectric constant tensor:
#      x y z
#    x 1.910160 0.000000 0.000000 
#    y 0.000000 1.894890 0.000000 
#    z 0.000000 0.000000 1.943530 
# 
# From -- ./inp_files/1471.got.cif
#   From: 2010.05.17/outbox.cif.g08.bks.cpg/sg29_1_cif.got.tgz:1471.got - 2010.06.04 01:19:37.
