data_PCOD9340014
_publ_section_title
;
Structure prediction by ZEFSAII (Michael W. Deem and Ramdas Pophale) SiO2 
 PCOD9340014
Probable space group: P C A 21
;
_chemical_formula_sum "Si O2"
_cell_formula_units_Z 28
_cell_length_a 14.780464
_cell_length_b 13.735169
_cell_length_c 5.647701
_cell_angle_alpha 90.000000
_cell_angle_beta 90.000000
_cell_angle_gamma 90.000000
_cell_volume 1146.552041
_symmetry_space_group_name_H-M "P C A 21"
_symmetry_group_IT_number 29
_symmetry_cell_setting 'orthorhombic'
loop_
_space_group_symop_operation_xyz
x,y,z
-x,-y,1/2+z
1/2-x,y,1/2+z
1/2+x,-y,z
loop_
_atom_site_type_symbol
_atom_site_label
_atom_site_fract_x
_atom_site_fract_y
_atom_site_fract_z
Si Si1 0.736555 0.094010 0.911630
Si Si2 0.979793 0.745794 0.911629
Si Si3 0.201863 0.125466 0.411629
Si Si4 0.605511 0.562754 0.911629
Si Si5 0.029106 0.233932 0.911628
Si Si6 0.406630 0.475091 0.911629
Si Si7 0.950398 0.984619 0.411629
O O1 0.750000 0.145767 0.661630
O O2 0.798522 0.993971 0.911630
O O3 0.635772 0.052536 0.911630
O O4 0.894730 0.820186 0.911629
O O5 0.025837 0.758751 0.657040
O O6 0.942967 0.636059 0.911629
O O7 0.025837 0.758751 0.166217
O O8 0.250000 0.151652 0.661629
O O9 0.604486 0.680295 0.911628
O O10 0.496691 0.540923 0.911629
O O11 0.640899 0.518124 0.666334
O O12 0.640899 0.518124 0.156923
O O13 0.073825 0.128679 0.911628
O O14 0.000000 1.000000 0.661629
#
# Coordination Sequence:
#
# PCOD9340014 Si02
#       7
#     4   4   4   4   4   4   4
#     4  10  19  34  53  70  93 129 171 206 252 318
#     4  10  17  28  46  68  92 122 159 194 233 285
#     4  10  18  27  42  63  87 116 156 193 225 283
#     4   8  14  24  39  60  86 120 151 178 218 275
#     4  10  18  30  46  63  92 131 161 191 245 303
#     4   8  14  23  38  62  90 114 145 183 217 264
#     4  12  24  36  50  74 106 136 171 223 278 312
#
# _framework density 24.421047999999999
#
# number of rings (size 3 to 8) (size 9 to 14) (size 15 to 20)
#    0.000    2.286    0.000    6.000    0.000    0.000 
#    0.000    0.000    0.000    0.000    0.000    0.000 
#    0.000    6.857    0.000    0.000    0.000    0.000 
#
# Total GULP energy -156252.498792 kJ/mol
# GULP energy per Si atom -5580.446385 kJ/mol
# Density = 2.436546 g / cm^3
# Si number density = 24.421048 Si / 1000 Ang^3
#
#
#
# Elastic Constant Matrix: (Units=GPa)
#
#
# Indices 1 2 3 4 5 6 
#
# 1 50.8648 2.7028 39.6784 0.0000 0.0000 0.0000
# 2 2.7028 25.8797 14.5165 0.0000 0.0000 0.0000
# 3 39.6784 14.5165 341.5454 0.0000 0.0000 0.0000
# 4 0.0000 0.0000 0.0000 27.3969 0.0000 0.0000
# 5 0.0000 0.0000 0.0000 0.0000 23.6365 0.0000
# 6 0.0000 0.0000 0.0000 0.0000 0.0000 4.0145
#
#
#
# Elastic Compliance Matrix: (Units=1/GPa)
#
#
# Indices 1 2 3 4 5 6 
#
# 1 0.021638 -0.000871 -0.002477 0.000000 0.000000 0.000000
# 2 -0.000871 0.039619 -0.001583 0.000000 0.000000 0.000000
# 3 -0.002477 -0.001583 0.003283 0.000000 0.000000 0.000000
# 4 0.000000 0.000000 0.000000 0.036500 0.000000 0.000000
# 5 0.000000 0.000000 0.000000 0.000000 0.042307 0.000000
# 6 0.000000 0.000000 0.000000 0.000000 0.000000 0.249099
#
#
# Mechanical properties :
#
#
# Convention : Reuss Voigt Hill
#
# Bulk Modulus (GPa) = 18.28823 59.12059 38.70441
# Shear Modulus (GPa) = 11.88964 35.10239 23.49602
#
# Velocity S-wave (km/s) = 2.20888 3.79540 3.10517
# Velocity P-wave (km/s) = 3.74307 6.59304 5.36091
#
# Compressibility (1/GPa) = 0.05467998
#
# Stress axis : x y z
#
# Youngs Moduli (GPa) = 46.21433 25.24036 304.61092
#
# Poissons Ratio (x) = 0.02197 0.75446
# Poissons Ratio (y) = 0.04023 0.48213
# Poissons Ratio (z) = 0.11446 0.03995
#
# Static dielectric constant tensor:
#      x y z
#    x 1.925060 0.000000 0.000000 
#    y 0.000000 1.924470 0.000000 
#    z 0.000000 0.000000 2.116670 
# 
# From -- ./inp_files/238.got.cif
#   From: 2010.05.17/outbox.cif.g08.bks.cpg/sg29_1_cif.got.tgz:238.got - 2010.06.04 01:19:37.
