data_PCOD9340809
_publ_section_title
;
Structure prediction by ZEFSAII (Michael W. Deem and Ramdas Pophale) SiO2 
 PCOD9340809
Probable space group: P C A 21
;
_chemical_formula_sum "Si O2"
_cell_formula_units_Z 28
_cell_length_a 21.767259
_cell_length_b 5.823404
_cell_length_c 9.011772
_cell_angle_alpha 90.000000
_cell_angle_beta 90.000000
_cell_angle_gamma 90.000000
_cell_volume 1142.328102
_symmetry_space_group_name_H-M "P C A 21"
_symmetry_group_IT_number 29
_symmetry_cell_setting 'orthorhombic'
loop_
_space_group_symop_operation_xyz
x,y,z
-x,-y,1/2+z
1/2-x,y,1/2+z
1/2+x,-y,z
loop_
_atom_site_type_symbol
_atom_site_label
_atom_site_fract_x
_atom_site_fract_y
_atom_site_fract_z
Si Si1 0.488557 0.085831 0.810590
Si Si2 0.738956 0.723871 0.092853
Si Si3 0.890671 0.413075 0.317233
Si Si4 0.541889 0.716810 0.009120
Si Si5 0.574671 0.587286 0.514534
Si Si6 0.686013 0.425751 0.351986
Si Si7 0.282491 0.948421 0.340221
O O1 0.549051 0.249628 0.811525
O O2 0.457279 0.113174 0.649526
O O3 0.440405 0.173633 0.934989
O O4 0.515402 0.846223 0.864520
O O5 0.700210 0.558529 0.199874
O O6 0.780210 0.878080 0.203282
O O7 0.777739 0.568892 0.979011
O O8 0.705293 0.910718 0.989627
O O9 0.898690 0.578071 0.458011
O O10 0.831512 0.253183 0.320288
O O11 0.891408 0.568719 0.170456
O O12 0.490796 0.527427 0.044679
O O13 0.615202 0.440733 0.398207
O O14 0.715836 0.174562 0.349011
#
# Coordination Sequence:
#
# PCOD9340809 Si02
#       7
#     4   4   4   4   4   4   4
#     4  10  22  38  60  88 120 156 203 254 302 373
#     4  10  24  40  62  94 122 164 211 249 317 377
#     4  10  22  40  61  85 119 160 201 250 309 364
#     4  10  22  40  62  89 119 159 203 251 312 365
#     4  10  22  40  61  86 118 160 203 250 308 365
#     4  11  23  42  64  90 126 163 205 258 308 370
#     4  11  23  42  64  92 128 164 208 262 312 374
#
# _framework density 24.511344999999999
#
# number of rings (size 3 to 8) (size 9 to 14) (size 15 to 20)
#    0.000    1.714    0.000    3.429    0.000   12.571 
#    0.000    0.000    0.000    0.000    0.000    0.000 
#    0.000    0.000    0.000    0.000    0.000    0.000 
#
# Total GULP energy -156724.565604 kJ/mol
# GULP energy per Si atom -5597.305914 kJ/mol
# Density = 2.445556 g / cm^3
# Si number density = 24.511345 Si / 1000 Ang^3
#
#
#
# Elastic Constant Matrix: (Units=GPa)
#
#
# Indices 1 2 3 4 5 6 
#
# 1 57.9205 5.4952 15.6662 0.0000 0.0000 0.0000
# 2 5.4952 55.8638 24.9266 0.0000 0.0000 0.0000
# 3 15.6662 24.9266 138.4866 0.0000 0.0000 0.0000
# 4 0.0000 0.0000 0.0000 34.3212 0.0000 0.0000
# 5 0.0000 0.0000 0.0000 0.0000 31.5245 0.0000
# 6 0.0000 0.0000 0.0000 0.0000 0.0000 46.6859
#
#
#
# Elastic Compliance Matrix: (Units=1/GPa)
#
#
# Indices 1 2 3 4 5 6 
#
# 1 0.017854 -0.000930 -0.001852 0.000000 0.000000 0.000000
# 2 -0.000930 0.019512 -0.003407 0.000000 0.000000 0.000000
# 3 -0.001852 -0.003407 0.008044 0.000000 0.000000 0.000000
# 4 0.000000 0.000000 0.000000 0.029136 0.000000 0.000000
# 5 0.000000 0.000000 0.000000 0.000000 0.031721 0.000000
# 6 0.000000 0.000000 0.000000 0.000000 0.000000 0.021420
#
#
# Mechanical properties :
#
#
# Convention : Reuss Voigt Hill
#
# Bulk Modulus (GPa) = 30.27350 38.27188 34.27269
# Shear Modulus (GPa) = 33.09577 36.25185 34.67381
#
# Velocity S-wave (km/s) = 3.67852 3.84993 3.76520
# Velocity P-wave (km/s) = 5.51540 5.95067 5.73716
#
# Compressibility (1/GPa) = 0.03303219
#
# Stress axis : x y z
#
# Youngs Moduli (GPa) = 56.00893 51.24967 124.32118
#
# Poissons Ratio (x) = 0.04765 0.23029
# Poissons Ratio (y) = 0.05207 0.42355
# Poissons Ratio (z) = 0.10375 0.17460
#
# Static dielectric constant tensor:
#      x y z
#    x 1.963390 0.000000 0.000000 
#    y 0.000000 1.909810 0.000000 
#    z 0.000000 0.000000 1.944100 
# 
# From -- ./inp_files/2411.got.cif
#   From: 2010.05.17/outbox.cif.g08.bks.cpg/sg29_2_cif.got.tgz:2411.got - 2010.06.04 01:19:37.
