data_PCOD9340100
_publ_section_title
;
Structure prediction by ZEFSAII (Michael W. Deem and Ramdas Pophale) SiO2 
 PCOD9340100
Probable space group: P C A 21
;
_chemical_formula_sum "Si O2"
_cell_formula_units_Z 32
_cell_length_a 14.918012
_cell_length_b 15.620926
_cell_length_c 5.519730
_cell_angle_alpha 90.000000
_cell_angle_beta 90.000000
_cell_angle_gamma 90.000000
_cell_volume 1286.280133
_symmetry_space_group_name_H-M "P C A 21"
_symmetry_group_IT_number 29
_symmetry_cell_setting 'orthorhombic'
loop_
_space_group_symop_operation_xyz
x,y,z
-x,-y,1/2+z
1/2-x,y,1/2+z
1/2+x,-y,z
loop_
_atom_site_type_symbol
_atom_site_label
_atom_site_fract_x
_atom_site_fract_y
_atom_site_fract_z
Si Si1 0.103100 0.020866 0.835030
Si Si2 0.605036 0.050584 0.336077
Si Si3 0.099195 0.571343 0.356998
Si Si4 0.046770 0.758139 0.327959
Si Si5 0.790846 0.832848 0.169502
Si Si6 0.774514 0.640196 0.686272
Si Si7 0.973259 0.696718 0.823758
Si Si8 0.588733 0.479352 0.853248
O O1 0.141752 0.970802 0.602667
O O2 0.122797 0.120022 0.776049
O O3 0.143096 0.990041 0.089715
O O4 0.996179 0.011481 0.850169
O O5 0.596971 0.152290 0.303420
O O6 0.135829 0.524497 0.594373
O O7 0.109584 0.673096 0.346215
O O8 0.990825 0.550082 0.353890
O O9 0.133894 0.529008 0.112822
O O10 0.998381 0.754699 0.591109
O O11 0.988485 0.741741 0.083238
O O12 0.722165 0.858908 0.388484
O O13 0.779553 0.731007 0.164390
O O14 0.773575 0.600916 0.418755
O O15 0.874839 0.662789 0.765146
O O16 0.036019 0.612871 0.836153
#
# Coordination Sequence:
#
# PCOD9340100 Si02
#       8
#     4   4   4   4   4   4   4   4
#     4  10  21  36  46  67  93 121 163 193 246 297
#     4  10  21  33  50  66  92 129 153 203 239 291
#     4   8  14  25  40  63  91 117 153 172 218 262
#     4  10  19  29  48  70  91 127 156 196 232 286
#     4  10  21  33  51  68  87 121 155 204 235 283
#     4  10  21  32  43  67  88 124 154 197 235 261
#     4  10  19  29  46  68  97 122 161 190 230 284
#     4   8  14  25  40  61  91 125 141 181 209 262
#
# _framework density 24.877936999999999
#
# number of rings (size 3 to 8) (size 9 to 14) (size 15 to 20)
#    0.000    2.500    0.000    2.250    7.000    0.000 
#    0.000    0.000    0.000    0.000    0.000    0.000 
#    0.000    6.000    0.000    0.000    0.000    0.000 
#
# Total GULP energy -178698.292996 kJ/mol
# GULP energy per Si atom -5584.321656 kJ/mol
# Density = 2.482131 g / cm^3
# Si number density = 24.877937 Si / 1000 Ang^3
#
#
#
# Elastic Constant Matrix: (Units=GPa)
#
#
# Indices 1 2 3 4 5 6 
#
# 1 17.5012 -13.4295 7.3608 0.0000 0.0000 0.0000
# 2 -13.4295 107.7996 54.3338 0.0000 0.0000 0.0000
# 3 7.3608 54.3338 267.7957 0.0000 0.0000 0.0000
# 4 0.0000 0.0000 0.0000 39.9383 0.0000 0.0000
# 5 0.0000 0.0000 0.0000 0.0000 21.7498 0.0000
# 6 0.0000 0.0000 0.0000 0.0000 0.0000 18.8247
#
#
#
# Elastic Compliance Matrix: (Units=1/GPa)
#
#
# Indices 1 2 3 4 5 6 
#
# 1 0.066677 0.010282 -0.003919 0.000000 0.000000 0.000000
# 2 0.010282 0.011919 -0.002701 0.000000 0.000000 0.000000
# 3 -0.003919 -0.002701 0.004390 0.000000 0.000000 0.000000
# 4 0.000000 0.000000 0.000000 0.025039 0.000000 0.000000
# 5 0.000000 0.000000 0.000000 0.000000 0.045977 0.000000
# 6 0.000000 0.000000 0.000000 0.000000 0.000000 0.053122
#
#
# Mechanical properties :
#
#
# Convention : Reuss Voigt Hill
#
# Bulk Modulus (GPa) = 11.07303 54.40296 32.73799
# Shear Modulus (GPa) = 21.74839 39.09133 30.41986
#
# Velocity S-wave (km/s) = 2.95990 3.96829 3.50060
# Velocity P-wave (km/s) = 4.01771 6.55072 5.43387
#
# Compressibility (1/GPa) = 0.09030952
#
# Stress axis : x y z
#
# Youngs Moduli (GPa) = 14.99771 83.90227 227.79664
#
# Poissons Ratio (x) = -0.86266 0.89269
# Poissons Ratio (y) = -0.15420 0.61524
# Poissons Ratio (z) = 0.05877 0.22660
#
# Static dielectric constant tensor:
#      x y z
#    x 1.987400 0.000000 0.000000 
#    y 0.000000 1.983650 0.000000 
#    z 0.000000 0.000000 2.087460 
# 
# From -- ./inp_files/436.got.cif
#   From: 2010.05.17/outbox.cif.g08.bks.cpg/sg29_1_cif.got.tgz:436.got - 2010.06.04 01:19:37.
