data_PCOD9340023
_publ_section_title
;
Structure prediction by ZEFSAII (Michael W. Deem and Ramdas Pophale) SiO2 
 PCOD9340023
Probable space group: P C A 21
;
_chemical_formula_sum "Si O2"
_cell_formula_units_Z 28
_cell_length_a 24.438824
_cell_length_b 4.933894
_cell_length_c 8.217447
_cell_angle_alpha 90.000000
_cell_angle_beta 90.000000
_cell_angle_gamma 90.000000
_cell_volume 990.847984
_symmetry_space_group_name_H-M "P C A 21"
_symmetry_group_IT_number 29
_symmetry_cell_setting 'orthorhombic'
loop_
_space_group_symop_operation_xyz
x,y,z
-x,-y,1/2+z
1/2-x,y,1/2+z
1/2+x,-y,z
loop_
_atom_site_type_symbol
_atom_site_label
_atom_site_fract_x
_atom_site_fract_y
_atom_site_fract_z
Si Si1 0.899091 0.097555 0.230230
Si Si2 0.814457 0.135877 0.525856
Si Si3 0.532488 0.445740 0.949252
Si Si4 0.887040 0.713928 0.683032
Si Si5 0.340743 0.415466 0.100073
Si Si6 0.259826 0.352150 0.409271
Si Si7 0.444903 0.786503 0.780619
O O1 0.861848 0.127866 0.391832
O O2 0.953382 0.244850 0.298936
O O3 0.870951 0.301784 0.105568
O O4 0.886214 0.807586 0.150662
O O5 0.837615 0.924488 0.657583
O O6 0.792970 0.441653 0.532084
O O7 0.765017 0.964117 0.450992
O O8 0.484056 0.651252 0.910805
O O9 0.583291 0.641996 0.007541
O O10 0.524034 0.259603 0.107480
O O11 0.927353 0.904634 0.789592
O O12 0.892647 0.413223 0.755209
O O13 0.293976 0.394293 0.243206
O O14 0.303968 0.400548 0.938617
#
# Coordination Sequence:
#
# PCOD9340023 Si02
#       7
#     4   4   4   4   4   4   4
#     4  10  19  33  60  81 108 151 196 230 274 357
#     4  10  17  34  57  85 102 147 194 236 267 346
#     4  10  22  38  61  87 119 154 209 241 300 348
#     4  10  20  34  58  86 113 150 204 239 290 349
#     4  10  21  35  57  85 111 145 190 235 291 341
#     4  10  20  33  59  83 111 142 189 237 288 344
#     4  10  23  33  62  85 120 151 202 254 292 347
#
# _framework density 28.258624000000001
#
# number of rings (size 3 to 8) (size 9 to 14) (size 15 to 20)
#    0.857    1.143    1.429    4.286    2.000    0.000 
#    0.000    0.000    9.429    0.000    3.714    0.000 
#    0.000    0.000    0.000    0.000    0.000    0.000 
#
# Total GULP energy -156393.647047 kJ/mol
# GULP energy per Si atom -5585.487395 kJ/mol
# Density = 2.819431 g / cm^3
# Si number density = 28.258624 Si / 1000 Ang^3
#
#
#
# Elastic Constant Matrix: (Units=GPa)
#
#
# Indices 1 2 3 4 5 6 
#
# 1 53.2257 4.0087 24.4052 0.0000 0.0000 0.0000
# 2 4.0087 169.6559 11.7428 0.0000 0.0000 0.0000
# 3 24.4052 11.7428 112.6492 0.0000 0.0000 0.0000
# 4 0.0000 0.0000 0.0000 21.6979 0.0000 0.0000
# 5 0.0000 0.0000 0.0000 0.0000 47.3810 0.0000
# 6 0.0000 0.0000 0.0000 0.0000 0.0000 32.4918
#
#
#
# Elastic Compliance Matrix: (Units=1/GPa)
#
#
# Indices 1 2 3 4 5 6 
#
# 1 0.020866 -0.000181 -0.004502 0.000000 0.000000 0.000000
# 2 -0.000181 0.005939 -0.000580 0.000000 0.000000 0.000000
# 3 -0.004502 -0.000580 0.009913 0.000000 0.000000 0.000000
# 4 0.000000 0.000000 0.000000 0.046087 0.000000 0.000000
# 5 0.000000 0.000000 0.000000 0.000000 0.021106 0.000000
# 6 0.000000 0.000000 0.000000 0.000000 0.000000 0.030777
#
#
# Mechanical properties :
#
#
# Convention : Reuss Voigt Hill
#
# Bulk Modulus (GPa) = 38.18018 46.20493 42.19256
# Shear Modulus (GPa) = 32.47953 40.00575 36.24264
#
# Velocity S-wave (km/s) = 3.39391 3.76666 3.58513
# Velocity P-wave (km/s) = 5.37573 5.94165 5.66576
#
# Compressibility (1/GPa) = 0.02619160
#
# Stress axis : x y z
#
# Youngs Moduli (GPa) = 47.92561 168.38704 100.87952
#
# Poissons Ratio (x) = 0.03055 0.45412
# Poissons Ratio (y) = 0.00870 0.05849
# Poissons Ratio (z) = 0.21574 0.09762
#
# Static dielectric constant tensor:
#      x y z
#    x 2.345680 0.000000 0.000000 
#    y 0.000000 2.070130 0.000000 
#    z 0.000000 0.000000 2.359960 
# 
# From -- ./inp_files/2542.got.cif
#   From: 2010.05.17/outbox.cif.g08.bks.cpg/sg29_2_cif.got.tgz:2542.got - 2010.06.04 01:19:37.
