data_PCOD9340110
_publ_section_title
;
Structure prediction by ZEFSAII (Michael W. Deem and Ramdas Pophale) SiO2 
 PCOD9340110
Probable space group: P C A 21
;
_chemical_formula_sum "Si O2"
_cell_formula_units_Z 32
_cell_length_a 13.343021
_cell_length_b 5.319171
_cell_length_c 17.228285
_cell_angle_alpha 90.000000
_cell_angle_beta 90.000000
_cell_angle_gamma 90.000000
_cell_volume 1222.757032
_symmetry_space_group_name_H-M "P C A 21"
_symmetry_group_IT_number 29
_symmetry_cell_setting 'orthorhombic'
loop_
_space_group_symop_operation_xyz
x,y,z
-x,-y,1/2+z
1/2-x,y,1/2+z
1/2+x,-y,z
loop_
_atom_site_type_symbol
_atom_site_label
_atom_site_fract_x
_atom_site_fract_y
_atom_site_fract_z
Si Si1 0.471959 0.413378 0.709890
Si Si2 0.233921 0.409585 0.751414
Si Si3 0.015599 0.409968 0.880755
Si Si4 0.959644 0.089786 0.458648
Si Si5 0.192651 0.087825 0.500185
Si Si6 0.710110 0.088966 0.675176
Si Si7 0.440941 0.910783 0.635601
Si Si8 0.222159 0.585411 0.422512
O O1 0.351364 0.394369 0.726366
O O2 0.515543 0.504428 0.791743
O O3 0.487334 0.635392 0.647418
O O4 0.498663 0.137043 0.678123
O O5 0.183411 0.628563 0.699912
O O6 0.234063 0.496726 0.840328
O O7 0.188771 0.135701 0.735102
O O8 0.066187 0.630705 0.930898
O O9 0.898235 0.398823 0.905602
O O10 0.059634 0.137063 0.899573
O O11 0.080861 0.101071 0.466444
O O12 0.926553 0.026289 0.545684
O O13 0.237297 0.364378 0.485858
O O14 0.183438 0.003109 0.589043
O O15 0.247588 0.863571 0.453535
O O16 0.831706 0.104400 0.673155
#
# Coordination Sequence:
#
# PCOD9340110 Si02
#       8
#     4   4   4   4   4   4   4   4
#     4   9  17  30  49  71  92 119 158 196 226 263
#     4   9  17  30  49  71  92 119 158 196 226 263
#     4   9  17  30  49  71  92 119 158 196 226 263
#     4  10  19  31  49  71  95 122 152 190 232 274
#     4  10  19  31  49  71  95 122 152 190 232 274
#     4  10  19  31  49  71  95 122 152 190 232 274
#     4  10  19  31  49  71  95 122 152 190 232 274
#     4   9  17  30  49  71  92 119 158 196 226 263
#
# _framework density 26.170365
#
# number of rings (size 3 to 8) (size 9 to 14) (size 15 to 20)
#    0.000    2.500    0.000    3.000    0.000    6.000 
#    0.000    0.000    0.000    9.000    0.000    0.000 
#    0.000    0.000    0.000    0.000    0.000    0.000 
#
# Total GULP energy -179341.755527 kJ/mol
# GULP energy per Si atom -5604.429860 kJ/mol
# Density = 2.611080 g / cm^3
# Si number density = 26.170365 Si / 1000 Ang^3
#
#
#
# Elastic Constant Matrix: (Units=GPa)
#
#
# Indices 1 2 3 4 5 6 
#
# 1 58.5074 15.7589 -11.0899 0.0000 0.0000 0.0000
# 2 15.7589 188.0261 61.5435 0.0000 0.0000 0.0000
# 3 -11.0899 61.5435 104.7408 0.0000 0.0000 0.0000
# 4 0.0000 0.0000 0.0000 46.9285 0.0000 0.0000
# 5 0.0000 0.0000 0.0000 0.0000 40.1160 0.0000
# 6 0.0000 0.0000 0.0000 0.0000 0.0000 42.9918
#
#
#
# Elastic Compliance Matrix: (Units=1/GPa)
#
#
# Indices 1 2 3 4 5 6 
#
# 1 0.018496 -0.002713 0.003552 0.000000 0.000000 0.000000
# 2 -0.002713 0.006983 -0.004390 0.000000 0.000000 0.000000
# 3 0.003552 -0.004390 0.012503 0.000000 0.000000 0.000000
# 4 0.000000 0.000000 0.000000 0.021309 0.000000 0.000000
# 5 0.000000 0.000000 0.000000 0.000000 0.024928 0.000000
# 6 0.000000 0.000000 0.000000 0.000000 0.000000 0.023260
#
#
# Mechanical properties :
#
#
# Convention : Reuss Voigt Hill
#
# Bulk Modulus (GPa) = 32.38305 53.74437 43.06371
# Shear Modulus (GPa) = 40.04051 45.01139 42.52595
#
# Velocity S-wave (km/s) = 3.91576 4.15171 4.03546
# Velocity P-wave (km/s) = 5.73106 6.60024 6.18095
#
# Compressibility (1/GPa) = 0.03088035
#
# Stress axis : x y z
#
# Youngs Moduli (GPa) = 54.06599 143.21007 79.98038
#
# Poissons Ratio (x) = 0.38852 -0.28412
# Poissons Ratio (y) = 0.14668 0.35113
# Poissons Ratio (z) = -0.19206 0.62872
#
# Static dielectric constant tensor:
#      x y z
#    x 2.249280 0.000000 0.000000 
#    y 0.000000 1.984890 0.000000 
#    z 0.000000 0.000000 1.932690 
# 
# From -- ./inp_files/2640.got.cif
#   From: 2010.05.17/outbox.cif.g08.bks.cpg/sg29_2_cif.got.tgz:2640.got - 2010.06.04 01:19:37.
