data_PCOD9340769
_publ_section_title
;
Structure prediction by ZEFSAII (Michael W. Deem and Ramdas Pophale) SiO2 
 PCOD9340769
Probable space group: P C A 21
;
_chemical_formula_sum "Si O2"
_cell_formula_units_Z 32
_cell_length_a 18.493810
_cell_length_b 6.133112
_cell_length_c 12.360317
_cell_angle_alpha 90.000000
_cell_angle_beta 90.000000
_cell_angle_gamma 90.000000
_cell_volume 1401.964111
_symmetry_space_group_name_H-M "P C A 21"
_symmetry_group_IT_number 29
_symmetry_cell_setting 'orthorhombic'
loop_
_space_group_symop_operation_xyz
x,y,z
-x,-y,1/2+z
1/2-x,y,1/2+z
1/2+x,-y,z
loop_
_atom_site_type_symbol
_atom_site_label
_atom_site_fract_x
_atom_site_fract_y
_atom_site_fract_z
Si Si1 0.405702 0.069466 0.165240
Si Si2 0.298452 0.025875 0.983627
Si Si3 0.371903 0.674785 0.302248
Si Si4 0.045395 0.178692 0.102619
Si Si5 0.870616 0.129525 0.773356
Si Si6 0.492366 0.554481 0.752218
Si Si7 0.829053 0.656829 0.481076
Si Si8 0.747840 0.362916 0.636500
O O1 0.373327 0.926361 0.264135
O O2 0.464862 0.920504 0.099988
O O3 0.344305 0.132444 0.080608
O O4 0.451030 0.265853 0.212818
O O5 0.230874 0.169649 0.946817
O O6 0.274011 0.796400 0.037268
O O7 0.348334 0.995005 0.880247
O O8 0.456947 0.616234 0.313605
O O9 0.338245 0.553169 0.404749
O O10 0.324590 0.578264 0.202211
O O11 0.095527 0.215578 0.998648
O O12 0.038087 0.419658 0.151615
O O13 0.089299 0.023551 0.185775
O O14 0.799382 0.227600 0.717432
O O15 0.925848 0.322689 0.805667
O O16 0.795903 0.561054 0.592567
#
# Coordination Sequence:
#
# PCOD9340769 Si02
#       8
#     4   4   4   4   4   4   4   4
#     4   9  22  46  64  96 135 174 220 281 333 402
#     4  11  25  41  69  99 130 178 223 275 339 406
#     4  10  24  40  67  98 130 174 229 275 340 400
#     4  10  22  42  64  93 132 174 223 279 335 401
#     4  11  23  41  65  95 134 173 224 277 339 399
#     4  10  21  45  67  91 135 175 215 282 332 398
#     4  12  24  39  67 100 129 180 226 275 343 405
#     4  11  23  44  63  94 137 174 220 282 335 407
#
# _framework density 22.825120999999999
#
# number of rings (size 3 to 8) (size 9 to 14) (size 15 to 20)
#    0.000    1.500    2.500    1.500    3.500    4.000 
#    6.750    0.000    0.000    0.000    0.000    0.000 
#    0.000    0.000    0.000    0.000    0.000    0.000 
#
# Total GULP energy -178707.270587 kJ/mol
# GULP energy per Si atom -5584.602206 kJ/mol
# Density = 2.277317 g / cm^3
# Si number density = 22.825121 Si / 1000 Ang^3
#
#
#
# Elastic Constant Matrix: (Units=GPa)
#
#
# Indices 1 2 3 4 5 6 
#
# 1 97.8187 13.9507 16.4264 0.0000 0.0000 0.0000
# 2 13.9507 27.5782 5.9226 0.0000 0.0000 0.0000
# 3 16.4264 5.9226 48.7075 0.0000 0.0000 0.0000
# 4 0.0000 0.0000 0.0000 16.7656 0.0000 0.0000
# 5 0.0000 0.0000 0.0000 0.0000 24.1103 0.0000
# 6 0.0000 0.0000 0.0000 0.0000 0.0000 53.3834
#
#
#
# Elastic Compliance Matrix: (Units=1/GPa)
#
#
# Indices 1 2 3 4 5 6 
#
# 1 0.011500 -0.005118 -0.003256 0.000000 0.000000 0.000000
# 2 -0.005118 0.039511 -0.003078 0.000000 0.000000 0.000000
# 3 -0.003256 -0.003078 0.022003 0.000000 0.000000 0.000000
# 4 0.000000 0.000000 0.000000 0.059646 0.000000 0.000000
# 5 0.000000 0.000000 0.000000 0.000000 0.041476 0.000000
# 6 0.000000 0.000000 0.000000 0.000000 0.000000 0.018732
#
#
# Mechanical properties :
#
#
# Convention : Reuss Voigt Hill
#
# Bulk Modulus (GPa) = 19.95649 27.41151 23.68400
# Shear Modulus (GPa) = 21.50770 28.03884 24.77327
#
# Velocity S-wave (km/s) = 3.07299 3.50869 3.29804
# Velocity P-wave (km/s) = 4.62096 5.33385 4.99015
#
# Compressibility (1/GPa) = 0.05010900
#
# Stress axis : x y z
#
# Youngs Moduli (GPa) = 86.95905 25.30971 45.44824
#
# Poissons Ratio (x) = 0.12953 0.14797
# Poissons Ratio (y) = 0.44506 0.13990
# Poissons Ratio (z) = 0.28313 0.07791
#
# Static dielectric constant tensor:
#      x y z
#    x 1.871970 0.000000 0.000000 
#    y 0.000000 1.861700 0.000000 
#    z 0.000000 0.000000 1.848520 
# 
# From -- ./inp_files/3808.got.cif
#   From: 2010.05.17/outbox.cif.g08.bks.cpg/sg29_2_cif.got.tgz:3808.got - 2010.06.04 01:19:37.
