data_PCOD9340935
_publ_section_title
;
Structure prediction by ZEFSAII (Michael W. Deem and Ramdas Pophale) SiO2 
 PCOD9340935
Probable space group: P C A 21
;
_chemical_formula_sum "Si O2"
_cell_formula_units_Z 32
_cell_length_a 10.127753
_cell_length_b 13.408429
_cell_length_c 9.138953
_cell_angle_alpha 90.000000
_cell_angle_beta 90.000000
_cell_angle_gamma 90.000000
_cell_volume 1241.044750
_symmetry_space_group_name_H-M "P C A 21"
_symmetry_group_IT_number 29
_symmetry_cell_setting 'orthorhombic'
loop_
_space_group_symop_operation_xyz
x,y,z
-x,-y,1/2+z
1/2-x,y,1/2+z
1/2+x,-y,z
loop_
_atom_site_type_symbol
_atom_site_label
_atom_site_fract_x
_atom_site_fract_y
_atom_site_fract_z
Si Si1 0.423931 0.328502 0.953100
Si Si2 0.280441 0.660536 0.443339
Si Si3 0.124762 0.450411 0.053598
Si Si4 0.444436 0.544429 0.817931
Si Si5 0.870353 0.163239 0.095462
Si Si6 0.288653 0.280326 0.215250
Si Si7 0.346965 0.102189 0.588114
Si Si8 0.737089 0.030291 0.337250
O O1 0.407127 0.445764 0.914913
O O2 0.300104 0.277120 0.866039
O O3 0.572761 0.302903 0.896732
O O4 0.427242 0.306003 0.128537
O O5 0.308792 0.555478 0.521230
O O6 0.174099 0.623320 0.322970
O O7 0.208894 0.738987 0.548237
O O8 0.017253 0.485997 0.172041
O O9 0.209549 0.369076 0.133860
O O10 0.067669 0.408739 0.903043
O O11 0.821863 0.109822 0.243690
O O12 0.027129 0.174230 0.091918
O O13 0.842236 0.086192 0.963429
O O14 0.270637 0.170443 0.146965
O O15 0.357271 0.019244 0.715406
O O16 0.320930 0.049855 0.432663
#
# Coordination Sequence:
#
# PCOD9340935 Si02
#       8
#     4   4   4   4   4   4   4   4
#     4  10  24  43  63 103 144 188 234 298 339 429
#     4  11  24  43  70 107 143 190 240 294 359 426
#     4  10  23  40  67  99 143 186 238 290 344 427
#     4  10  22  42  64  95 142 190 236 288 349 407
#     4  11  25  45  75 106 143 184 233 295 367 428
#     4  11  22  43  68 100 138 191 236 288 360 418
#     4  11  23  46  76 102 138 188 236 294 359 430
#     4  10  25  48  69 110 139 179 237 303 361 425
#
# _framework density 25.784725999999999
#
# number of rings (size 3 to 8) (size 9 to 14) (size 15 to 20)
#    0.000    1.500    1.250    2.250    3.500    5.000 
#   15.750    0.000    0.000    1.500    0.000    0.000 
#    0.000    0.000    0.000    0.000    0.000    0.000 
#
# Total GULP energy -178448.410397 kJ/mol
# GULP energy per Si atom -5576.512825 kJ/mol
# Density = 2.572604 g / cm^3
# Si number density = 25.784726 Si / 1000 Ang^3
#
#
#
# Elastic Constant Matrix: (Units=GPa)
#
#
# Indices 1 2 3 4 5 6 
#
# 1 87.8050 10.5781 9.3505 0.0000 0.0000 0.0000
# 2 10.5781 52.7979 9.9022 0.0000 0.0000 0.0000
# 3 9.3505 9.9022 136.0899 0.0000 0.0000 0.0000
# 4 0.0000 0.0000 0.0000 38.0428 0.0000 0.0000
# 5 0.0000 0.0000 0.0000 0.0000 28.5332 0.0000
# 6 0.0000 0.0000 0.0000 0.0000 0.0000 35.1110
#
#
#
# Elastic Compliance Matrix: (Units=1/GPa)
#
#
# Indices 1 2 3 4 5 6 
#
# 1 0.011726 -0.002229 -0.000644 0.000000 0.000000 0.000000
# 2 -0.002229 0.019626 -0.001275 0.000000 0.000000 0.000000
# 3 -0.000644 -0.001275 0.007485 0.000000 0.000000 0.000000
# 4 0.000000 0.000000 0.000000 0.026286 0.000000 0.000000
# 5 0.000000 0.000000 0.000000 0.000000 0.035047 0.000000
# 6 0.000000 0.000000 0.000000 0.000000 0.000000 0.028481
#
#
# Mechanical properties :
#
#
# Convention : Reuss Voigt Hill
#
# Bulk Modulus (GPa) = 32.74102 37.37269 35.05686
# Shear Modulus (GPa) = 33.98454 36.79488 35.38971
#
# Velocity S-wave (km/s) = 3.63438 3.78167 3.70875
# Velocity P-wave (km/s) = 5.50791 5.79600 5.65379
#
# Compressibility (1/GPa) = 0.03054272
#
# Stress axis : x y z
#
# Youngs Moduli (GPa) = 85.28144 50.95347 133.59939
#
# Poissons Ratio (x) = 0.11355 0.08597
# Poissons Ratio (y) = 0.19006 0.17032
# Poissons Ratio (z) = 0.05488 0.06496
#
# Static dielectric constant tensor:
#      x y z
#    x 2.206080 0.000000 0.000000 
#    y 0.000000 2.014360 0.000000 
#    z 0.000000 0.000000 2.168430 
# 
# From -- ./inp_files/1552.got.cif
#   From: 2010.05.17/outbox.cif.g08.bks.cpg/sg29_1_cif.got.tgz:1552.got - 2010.06.04 01:19:37.
