data_PCOD9340000
_publ_section_title
;
Structure prediction by ZEFSAII (Michael W. Deem and Ramdas Pophale) SiO2 
 PCOD9340000
Probable space group: P C A 21
;
_chemical_formula_sum "Si O2"
_cell_formula_units_Z 24
_cell_length_a 5.568246
_cell_length_b 7.295257
_cell_length_c 22.500078
_cell_angle_alpha 90.000000
_cell_angle_beta 90.000000
_cell_angle_gamma 90.000000
_cell_volume 913.993345
_symmetry_space_group_name_H-M "P C A 21"
_symmetry_group_IT_number 29
_symmetry_cell_setting 'orthorhombic'
loop_
_space_group_symop_operation_xyz
x,y,z
-x,-y,1/2+z
1/2-x,y,1/2+z
1/2+x,-y,z
loop_
_atom_site_type_symbol
_atom_site_label
_atom_site_fract_x
_atom_site_fract_y
_atom_site_fract_z
Si Si1 0.156848 0.268488 0.206500
Si Si2 0.340650 0.693566 0.751515
Si Si3 0.784696 0.607081 0.585479
Si Si4 0.719239 0.487468 0.963165
Si Si5 0.789233 0.087236 0.496933
Si Si6 0.802620 0.090464 0.353068
O O1 0.403078 0.213625 0.238870
O O2 0.144369 0.485863 0.227243
O O3 0.203979 0.242095 0.136536
O O4 0.885928 0.208041 0.220241
O O5 0.271822 0.720914 0.820719
O O6 0.532307 0.504086 0.597885
O O7 0.784257 0.642264 0.514518
O O8 0.468971 0.497008 0.929731
O O9 0.718640 0.305891 0.003924
O O10 0.795282 0.083884 0.424511
O O11 0.539996 0.998556 0.518289
O O12 0.576742 0.959257 0.336548
#
# Coordination Sequence:
#
# PCOD9340000 Si02
#       6
#     4   4   4   4   4   4
#     4  10  17  30  50  80 101 135 165 217 273 312
#     4  10  18  30  50  76 102 132 179 213 258 316
#     4  10  16  30  51  78 105 137 175 211 283 333
#     4  10  21  35  58  91 111 143 186 247 284 322
#     4  10  21  40  61  79 114 158 189 222 290 355
#     4  10  21  37  54  74 103 149 186 216 264 326
#
# _framework density 26.258400000000002
#
# number of rings (size 3 to 8) (size 9 to 14) (size 15 to 20)
#    0.000    2.000    3.333    2.000    0.000    0.000 
#    6.000    0.000    0.000    2.000    0.000    0.000 
#    0.000    0.000    0.000    0.000    0.000    0.000 
#
# Total GULP energy -133789.949167 kJ/mol
# GULP energy per Si atom -5574.581215 kJ/mol
# Density = 2.619863 g / cm^3
# Si number density = 26.258400 Si / 1000 Ang^3
#
#
#
# Elastic Constant Matrix: (Units=GPa)
#
#
# Indices 1 2 3 4 5 6 
#
# 1 302.4356 29.5943 38.3379 0.0000 0.0000 0.0000
# 2 29.5943 75.6335 -10.8468 0.0000 0.0000 0.0000
# 3 38.3379 -10.8468 52.7103 0.0000 0.0000 0.0000
# 4 0.0000 0.0000 0.0000 16.5605 0.0000 0.0000
# 5 0.0000 0.0000 0.0000 0.0000 29.5236 0.0000
# 6 0.0000 0.0000 0.0000 0.0000 0.0000 23.8731
#
#
#
# Elastic Compliance Matrix: (Units=1/GPa)
#
#
# Indices 1 2 3 4 5 6 
#
# 1 0.003915 -0.001999 -0.003259 0.000000 0.000000 0.000000
# 2 -0.001999 0.014645 0.004468 0.000000 0.000000 0.000000
# 3 -0.003259 0.004468 0.022262 0.000000 0.000000 0.000000
# 4 0.000000 0.000000 0.000000 0.060384 0.000000 0.000000
# 5 0.000000 0.000000 0.000000 0.000000 0.033871 0.000000
# 6 0.000000 0.000000 0.000000 0.000000 0.000000 0.041888
#
#
# Mechanical properties :
#
#
# Convention : Reuss Voigt Hill
#
# Bulk Modulus (GPa) = 25.48409 60.55000 43.01705
# Shear Modulus (GPa) = 26.09238 38.90439 32.49838
#
# Velocity S-wave (km/s) = 3.15568 3.85333 3.52182
# Velocity P-wave (km/s) = 4.79625 6.55033 5.74068
#
# Compressibility (1/GPa) = 0.03924017
#
# Stress axis : x y z
#
# Youngs Moduli (GPa) = 255.40967 68.28389 44.92055
#
# Poissons Ratio (x) = 0.13653 0.14640
# Poissons Ratio (y) = 0.51067 -0.20070
# Poissons Ratio (z) = 0.83242 -0.30508
#
# Static dielectric constant tensor:
#      x y z
#    x 2.077420 0.000000 0.000000 
#    y 0.000000 2.181700 0.000000 
#    z 0.000000 0.000000 2.050500 
# 
# From -- ./inp_files/5621.got.cif
#   From: 2010.05.17/outbox.cif.g08.bks.cpg/sg29_3_cif.got.tgz:5621.got - 2010.06.04 01:19:37.
