data_PCOD9340768
_publ_section_title
;
Structure prediction by ZEFSAII (Michael W. Deem and Ramdas Pophale) SiO2 
 PCOD9340768
Probable space group: P C A 21
;
_chemical_formula_sum "Si O2"
_cell_formula_units_Z 32
_cell_length_a 11.308529
_cell_length_b 10.906837
_cell_length_c 11.937719
_cell_angle_alpha 90.000000
_cell_angle_beta 90.000000
_cell_angle_gamma 90.000000
_cell_volume 1472.401634
_symmetry_space_group_name_H-M "P C A 21"
_symmetry_group_IT_number 29
_symmetry_cell_setting 'orthorhombic'
loop_
_space_group_symop_operation_xyz
x,y,z
-x,-y,1/2+z
1/2-x,y,1/2+z
1/2+x,-y,z
loop_
_atom_site_type_symbol
_atom_site_label
_atom_site_fract_x
_atom_site_fract_y
_atom_site_fract_z
Si Si1 0.008158 0.436494 0.796850
Si Si2 0.394771 0.682738 0.317804
Si Si3 0.042689 0.791907 0.180538
Si Si4 0.194086 0.288423 0.931986
Si Si5 0.521193 0.118181 0.434541
Si Si6 0.068060 0.162543 0.464190
Si Si7 0.798168 0.454446 0.968691
Si Si8 0.793902 0.221745 0.106787
O O1 0.948178 0.353455 0.703395
O O2 0.925989 0.450210 0.907678
O O3 0.034056 0.573005 0.758821
O O4 0.125762 0.359239 0.830830
O O5 0.476824 0.742026 0.411093
O O6 0.287093 0.614709 0.379539
O O7 0.353881 0.782470 0.228367
O O8 0.035475 0.848483 0.303820
O O9 0.162933 0.830619 0.119417
O O10 0.934749 0.820904 0.098593
O O11 0.304693 0.197926 0.913061
O O12 0.251690 0.408076 0.992730
O O13 0.090307 0.199306 0.978158
O O14 0.632434 0.158675 0.509129
O O15 0.519385 0.972535 0.441403
O O16 0.793350 0.365501 0.074323
#
# Coordination Sequence:
#
# PCOD9340768 Si02
#       8
#     4   4   4   4   4   4   4   4
#     4  10  21  45  67 104 148 177 229 310 364 427
#     4  11  24  39  71 105 136 188 238 289 366 431
#     4  11  25  47  73  99 141 192 232 304 361 415
#     4  10  24  45  69 100 143 185 235 304 358 427
#     4  11  28  51  67 103 149 188 249 298 351 432
#     4  12  27  46  72 103 141 193 249 284 361 439
#     4  11  20  43  68 101 145 177 235 298 368 428
#     4  12  23  42  75 101 137 192 231 303 365 421
#
# _framework density 21.733198999999999
#
# number of rings (size 3 to 8) (size 9 to 14) (size 15 to 20)
#    0.000    1.000    6.250    0.000    5.250    1.000 
#    6.750    0.000    0.000    0.000    0.000    0.000 
#    0.000    0.000    0.000    0.000    0.000    0.000 
#
# Total GULP energy -178542.649998 kJ/mol
# GULP energy per Si atom -5579.457812 kJ/mol
# Density = 2.168373 g / cm^3
# Si number density = 21.733199 Si / 1000 Ang^3
#
#
#
# Elastic Constant Matrix: (Units=GPa)
#
#
# Indices 1 2 3 4 5 6 
#
# 1 82.1047 15.7138 29.4720 0.0000 0.0000 0.0000
# 2 15.7138 106.6598 16.3948 0.0000 0.0000 0.0000
# 3 29.4720 16.3948 70.9645 0.0000 0.0000 0.0000
# 4 0.0000 0.0000 0.0000 9.6850 0.0000 0.0000
# 5 0.0000 0.0000 0.0000 0.0000 28.1716 0.0000
# 6 0.0000 0.0000 0.0000 0.0000 0.0000 22.0873
#
#
#
# Elastic Compliance Matrix: (Units=1/GPa)
#
#
# Indices 1 2 3 4 5 6 
#
# 1 0.014473 -0.001253 -0.005721 0.000000 0.000000 0.000000
# 2 -0.001253 0.009829 -0.001751 0.000000 0.000000 0.000000
# 3 -0.005721 -0.001751 0.016872 0.000000 0.000000 0.000000
# 4 0.000000 0.000000 0.000000 0.103252 0.000000 0.000000
# 5 0.000000 0.000000 0.000000 0.000000 0.035497 0.000000
# 6 0.000000 0.000000 0.000000 0.000000 0.000000 0.045275
#
#
# Mechanical properties :
#
#
# Convention : Reuss Voigt Hill
#
# Bulk Modulus (GPa) = 42.14957 42.54336 42.34647
# Shear Modulus (GPa) = 19.95560 25.19866 22.57713
#
# Velocity S-wave (km/s) = 3.03348 3.40877 3.22659
# Velocity P-wave (km/s) = 5.63077 5.92543 5.77998
#
# Compressibility (1/GPa) = 0.02372503
#
# Stress axis : x y z
#
# Youngs Moduli (GPa) = 69.09392 101.73710 59.26960
#
# Poissons Ratio (x) = 0.12746 0.33910
# Poissons Ratio (y) = 0.08656 0.10375
# Poissons Ratio (z) = 0.39531 0.17809
#
# Static dielectric constant tensor:
#      x y z
#    x 1.853860 0.000000 0.000000 
#    y 0.000000 1.800680 0.000000 
#    z 0.000000 0.000000 1.786710 
# 
# From -- ./inp_files/3218.got.cif
#   From: 2010.05.17/outbox.cif.g08.bks.cpg/sg29_2_cif.got.tgz:3218.got - 2010.06.04 01:19:37.
