data_PCOD9340749
_publ_section_title
;
Structure prediction by ZEFSAII (Michael W. Deem and Ramdas Pophale) SiO2 
 PCOD9340749
Probable space group: P C A 21
;
_chemical_formula_sum "Si O2"
_cell_formula_units_Z 28
_cell_length_a 15.789712
_cell_length_b 13.391060
_cell_length_c 5.051705
_cell_angle_alpha 90.000000
_cell_angle_beta 90.000000
_cell_angle_gamma 90.000000
_cell_volume 1068.137460
_symmetry_space_group_name_H-M "P C A 21"
_symmetry_group_IT_number 29
_symmetry_cell_setting 'orthorhombic'
loop_
_space_group_symop_operation_xyz
x,y,z
-x,-y,1/2+z
1/2-x,y,1/2+z
1/2+x,-y,z
loop_
_atom_site_type_symbol
_atom_site_label
_atom_site_fract_x
_atom_site_fract_y
_atom_site_fract_z
Si Si1 0.527690 0.753619 0.922020
Si Si2 0.800433 0.228942 0.457967
Si Si3 0.539473 0.460631 0.378630
Si Si4 0.200748 0.531369 0.015839
Si Si5 0.890203 0.905427 0.818988
Si Si6 0.934232 0.092186 0.575712
Si Si7 0.694242 0.750145 0.606833
O O1 0.471451 0.655199 0.959781
O O2 0.466068 0.839063 0.815636
O O3 0.599587 0.724451 0.703684
O O4 0.582498 0.806335 0.153178
O O5 0.729833 0.199630 0.248607
O O6 0.807310 0.348448 0.473021
O O7 0.886196 0.172151 0.392637
O O8 0.532367 0.515319 0.659024
O O9 0.619537 0.491445 0.197573
O O10 0.276537 0.500336 0.217197
O O11 0.872969 0.999425 0.633421
O O12 0.822114 0.868435 0.032589
O O13 0.977231 0.942059 0.952790
O O14 0.743307 0.719450 0.342732
#
# Coordination Sequence:
#
# PCOD9340749 Si02
#       7
#     4   4   4   4   4   4   4
#     4  11  25  47  72 102 146 186 236 309 353 424
#     4  10  23  39  63  98 133 178 219 276 354 410
#     4  12  28  47  76 110 138 187 250 299 364 435
#     4  10  21  43  71  99 139 178 216 289 367 417
#     4  11  24  40  73 101 141 197 239 290 357 420
#     4  11  23  40  67 104 139 186 242 283 348 434
#     4  11  24  46  70 100 142 194 242 294 357 420
#
# _framework density 26.213854999999999
#
# number of rings (size 3 to 8) (size 9 to 14) (size 15 to 20)
#    0.000    1.143    4.286    0.857    6.000    2.286 
#    0.000    4.286    0.000    0.000    0.000    0.000 
#    0.000    0.000    0.000    0.000    0.000    0.000 
#
# Total GULP energy -156366.630594 kJ/mol
# GULP energy per Si atom -5584.522521 kJ/mol
# Density = 2.615419 g / cm^3
# Si number density = 26.213855 Si / 1000 Ang^3
#
#
#
# Elastic Constant Matrix: (Units=GPa)
#
#
# Indices 1 2 3 4 5 6 
#
# 1 54.0825 0.8958 2.3394 0.0000 0.0000 0.0000
# 2 0.8958 71.4288 26.8143 0.0000 0.0000 0.0000
# 3 2.3394 26.8143 130.0887 0.0000 0.0000 0.0000
# 4 0.0000 0.0000 0.0000 24.8408 0.0000 0.0000
# 5 0.0000 0.0000 0.0000 0.0000 40.0505 0.0000
# 6 0.0000 0.0000 0.0000 0.0000 0.0000 17.3021
#
#
#
# Elastic Compliance Matrix: (Units=1/GPa)
#
#
# Indices 1 2 3 4 5 6 
#
# 1 0.018506 -0.000116 -0.000309 0.000000 0.000000 0.000000
# 2 -0.000116 0.015175 -0.003126 0.000000 0.000000 0.000000
# 3 -0.000309 -0.003126 0.008337 0.000000 0.000000 0.000000
# 4 0.000000 0.000000 0.000000 0.040256 0.000000 0.000000
# 5 0.000000 0.000000 0.000000 0.000000 0.024969 0.000000
# 6 0.000000 0.000000 0.000000 0.000000 0.000000 0.057796
#
#
# Mechanical properties :
#
#
# Convention : Reuss Voigt Hill
#
# Bulk Modulus (GPa) = 28.64039 35.07767 31.85903
# Shear Modulus (GPa) = 27.20661 31.47536 29.34099
#
# Velocity S-wave (km/s) = 3.22510 3.46889 3.34921
# Velocity P-wave (km/s) = 4.98174 5.42722 5.20924
#
# Compressibility (1/GPa) = 0.03491573
#
# Stress axis : x y z
#
# Youngs Moduli (GPa) = 54.03784 65.89858 119.94842
#
# Poissons Ratio (x) = 0.00765 0.03705
# Poissons Ratio (y) = 0.00628 0.37493
# Poissons Ratio (z) = 0.01669 0.20599
#
# Static dielectric constant tensor:
#      x y z
#    x 2.208840 0.000000 0.000000 
#    y 0.000000 2.167940 0.000000 
#    z 0.000000 0.000000 2.095630 
# 
# From -- ./inp_files/232.got.cif
#   From: 2010.05.17/outbox.cif.g08.bks.cpg/sg29_1_cif.got.tgz:232.got - 2010.06.04 01:19:37.
