data_PCOD9340173
_publ_section_title
;
Structure prediction by ZEFSAII (Michael W. Deem and Ramdas Pophale) SiO2 
 PCOD9340173
Probable space group: P C A 21
;
_chemical_formula_sum "Si O2"
_cell_formula_units_Z 32
_cell_length_a 5.696445
_cell_length_b 18.815923
_cell_length_c 11.132278
_cell_angle_alpha 90.000000
_cell_angle_beta 90.000000
_cell_angle_gamma 90.000000
_cell_volume 1193.200643
_symmetry_space_group_name_H-M "P C A 21"
_symmetry_group_IT_number 29
_symmetry_cell_setting 'orthorhombic'
loop_
_space_group_symop_operation_xyz
x,y,z
-x,-y,1/2+z
1/2-x,y,1/2+z
1/2+x,-y,z
loop_
_atom_site_type_symbol
_atom_site_label
_atom_site_fract_x
_atom_site_fract_y
_atom_site_fract_z
Si Si1 0.508643 0.162287 0.372410
Si Si2 0.370108 0.623308 0.646756
Si Si3 0.871203 0.596249 0.655168
Si Si4 0.367731 0.253795 0.791805
Si Si5 0.628513 0.478014 0.360210
Si Si6 0.132935 0.773141 0.032411
Si Si7 0.352220 0.872213 0.193571
Si Si8 0.141429 0.040444 0.035955
O O1 0.366081 0.207786 0.277623
O O2 0.631059 0.222677 0.452416
O O3 0.702285 0.111918 0.310224
O O4 0.356942 0.108690 0.449787
O O5 0.617815 0.596984 0.593598
O O6 0.364790 0.598063 0.787936
O O7 0.373229 0.706348 0.619649
O O8 0.122440 0.597943 0.588964
O O9 0.866326 0.667729 0.738790
O O10 0.876691 0.529866 0.742986
O O11 0.435138 0.244375 0.932185
O O12 0.547201 0.205536 0.718714
O O13 0.376513 0.497935 0.418313
O O14 0.162300 0.852873 0.089098
O O15 0.565652 0.924150 0.164210
O O16 0.892960 0.997042 0.021515
#
# Coordination Sequence:
#
# PCOD9340173 Si02
#       8
#     4   4   4   4   4   4   4   4
#     4  10  25  42  68  97 136 170 225 280 331 398
#     4  10  19  35  61  88 123 171 219 263 329 392
#     4  10  20  35  61  92 120 169 219 262 332 390
#     4  11  23  38  66  96 135 173 221 288 334 392
#     4   8  16  31  54  85 116 162 216 260 310 393
#     4  10  22  38  61  98 130 171 219 282 332 395
#     4  10  23  44  67  96 130 174 225 268 335 398
#     4  11  28  47  70 100 136 176 216 269 329 400
#
# _framework density 26.818625999999998
#
# number of rings (size 3 to 8) (size 9 to 14) (size 15 to 20)
#    0.000    2.000    1.250    0.750   10.500    2.000 
#    0.000    0.000    0.000   13.500    0.000    0.000 
#    0.000    0.000    0.000    0.000    0.000    0.000 
#
# Total GULP energy -178522.710912 kJ/mol
# GULP energy per Si atom -5578.834716 kJ/mol
# Density = 2.675759 g / cm^3
# Si number density = 26.818626 Si / 1000 Ang^3
#
#
#
# Elastic Constant Matrix: (Units=GPa)
#
#
# Indices 1 2 3 4 5 6 
#
# 1 198.9705 49.7771 29.8644 0.0000 0.0000 0.0000
# 2 49.7771 115.9185 21.0300 0.0000 0.0000 0.0000
# 3 29.8644 21.0300 37.5964 0.0000 0.0000 0.0000
# 4 0.0000 0.0000 0.0000 38.4491 0.0000 0.0000
# 5 0.0000 0.0000 0.0000 0.0000 21.6239 0.0000
# 6 0.0000 0.0000 0.0000 0.0000 0.0000 43.4311
#
#
#
# Elastic Compliance Matrix: (Units=1/GPa)
#
#
# Indices 1 2 3 4 5 6 
#
# 1 0.006070 -0.001927 -0.003743 0.000000 0.000000 0.000000
# 2 -0.001927 0.010213 -0.004182 0.000000 0.000000 0.000000
# 3 -0.003743 -0.004182 0.031911 0.000000 0.000000 0.000000
# 4 0.000000 0.000000 0.000000 0.026008 0.000000 0.000000
# 5 0.000000 0.000000 0.000000 0.000000 0.046245 0.000000
# 6 0.000000 0.000000 0.000000 0.000000 0.000000 0.023025
#
#
# Mechanical properties :
#
#
# Convention : Reuss Voigt Hill
#
# Bulk Modulus (GPa) = 35.10163 61.53647 48.31905
# Shear Modulus (GPa) = 28.95629 37.48843 33.22236
#
# Velocity S-wave (km/s) = 3.28946 3.74284 3.52345
# Velocity P-wave (km/s) = 5.24827 6.45552 5.88294
#
# Compressibility (1/GPa) = 0.02848870
#
# Stress axis : x y z
#
# Youngs Moduli (GPa) = 164.74672 97.91389 31.33707
#
# Poissons Ratio (x) = 0.18872 0.11731
# Poissons Ratio (y) = 0.31753 0.13105
# Poissons Ratio (z) = 0.61673 0.40946
#
# Static dielectric constant tensor:
#      x y z
#    x 2.214940 0.000000 0.000000 
#    y 0.000000 2.018530 0.000000 
#    z 0.000000 0.000000 2.206280 
# 
# From -- ./inp_files/2703.got.cif
#   From: 2010.05.17/outbox.cif.g08.bks.cpg/sg29_2_cif.got.tgz:2703.got - 2010.06.04 01:19:37.
