data_PCOD9340294
_publ_section_title
;
Structure prediction by ZEFSAII (Michael W. Deem and Ramdas Pophale) SiO2 
 PCOD9340294
Probable space group: P C A 21
;
_chemical_formula_sum "Si O2"
_cell_formula_units_Z 32
_cell_length_a 12.547668
_cell_length_b 14.761487
_cell_length_c 9.082133
_cell_angle_alpha 90.000000
_cell_angle_beta 90.000000
_cell_angle_gamma 90.000000
_cell_volume 1682.213001
_symmetry_space_group_name_H-M "P C A 21"
_symmetry_group_IT_number 29
_symmetry_cell_setting 'orthorhombic'
loop_
_space_group_symop_operation_xyz
x,y,z
-x,-y,1/2+z
1/2-x,y,1/2+z
1/2+x,-y,z
loop_
_atom_site_type_symbol
_atom_site_label
_atom_site_fract_x
_atom_site_fract_y
_atom_site_fract_z
Si Si1 0.879874 0.374678 0.625000
Si Si2 0.221894 0.114525 0.232970
Si Si3 0.650860 0.781261 0.500654
Si Si4 0.029692 0.015722 0.090057
Si Si5 0.367845 0.413354 0.124020
Si Si6 0.750886 0.476068 0.375403
Si Si7 0.590756 0.176784 0.035434
Si Si8 0.363198 0.958530 0.312298
O O1 0.833228 0.419875 0.476240
O O2 0.813969 0.413748 0.761856
O O3 0.866171 0.266034 0.612623
O O4 0.004581 0.401879 0.639740
O O5 0.309449 0.143998 0.115601
O O6 0.206500 0.195156 0.347961
O O7 0.113670 0.087863 0.151467
O O8 0.263812 0.024756 0.313699
O O9 0.673955 0.684854 0.572509
O O10 0.525225 0.792975 0.477076
O O11 0.068059 0.913156 0.133184
O O12 0.045023 0.005600 0.914756
O O13 0.915669 0.044169 0.152157
O O14 0.313752 0.451324 0.272933
O O15 0.331408 0.478392 0.990287
O O16 0.655203 0.135734 0.896425
#
# Coordination Sequence:
#
# PCOD9340294 Si02
#       8
#     4   4   4   4   4   4   4   4
#     4  10  21  38  63  81 119 149 191 243 287 347
#     4  12  19  33  52  80 106 152 180 227 273 332
#     4  11  20  32  56  77 111 137 185 230 282 323
#     4  10  20  35  54  75 112 146 186 221 274 323
#     4  10  21  38  59  90 112 148 187 250 292 353
#     4  10  21  39  62  84 114 152 192 229 305 362
#     4   9  20  36  52  78 108 146 181 231 271 321
#     4  10  20  35  54  75 112 146 186 221 274 323
#
# _framework density 19.022559000000001
#
# number of rings (size 3 to 8) (size 9 to 14) (size 15 to 20)
#    0.750    1.000    3.750    1.500    0.000    1.000 
#    0.000    0.000    5.500    3.000    0.000    0.000 
#    0.000    0.000    0.000    0.000    0.000    0.000 
#
# Total GULP energy -178224.844950 kJ/mol
# GULP energy per Si atom -5569.526405 kJ/mol
# Density = 1.897926 g / cm^3
# Si number density = 19.022559 Si / 1000 Ang^3
#
#
#
# Elastic Constant Matrix: (Units=GPa)
#
#
# Indices 1 2 3 4 5 6 
#
# 1 32.4054 0.2807 -0.9201 0.0000 0.0000 0.0000
# 2 0.2807 62.8918 -0.8649 0.0000 0.0000 0.0000
# 3 -0.9201 -0.8649 57.8532 0.0000 0.0000 0.0000
# 4 0.0000 0.0000 0.0000 27.7978 0.0000 0.0000
# 5 0.0000 0.0000 0.0000 0.0000 14.0748 0.0000
# 6 0.0000 0.0000 0.0000 0.0000 0.0000 26.9017
#
#
#
# Elastic Compliance Matrix: (Units=1/GPa)
#
#
# Indices 1 2 3 4 5 6 
#
# 1 0.030874 -0.000131 0.000489 0.000000 0.000000 0.000000
# 2 -0.000131 0.015904 0.000236 0.000000 0.000000 0.000000
# 3 0.000489 0.000236 0.017296 0.000000 0.000000 0.000000
# 4 0.000000 0.000000 0.000000 0.035974 0.000000 0.000000
# 5 0.000000 0.000000 0.000000 0.000000 0.071049 0.000000
# 6 0.000000 0.000000 0.000000 0.000000 0.000000 0.037172
#
#
# Mechanical properties :
#
#
# Convention : Reuss Voigt Hill
#
# Bulk Modulus (GPa) = 15.32286 16.68242 16.00264
# Shear Modulus (GPa) = 21.84965 24.06518 22.95741
#
# Velocity S-wave (km/s) = 3.39280 3.56066 3.47775
# Velocity P-wave (km/s) = 4.83950 5.06885 4.95550
#
# Compressibility (1/GPa) = 0.06526197
#
# Stress axis : x y z
#
# Youngs Moduli (GPa) = 32.38967 62.87663 57.81538
#
# Poissons Ratio (x) = 0.00824 -0.02828
# Poissons Ratio (y) = 0.00425 -0.01363
# Poissons Ratio (z) = -0.01584 -0.01482
#
# Static dielectric constant tensor:
#      x y z
#    x 1.660100 0.000000 0.000000 
#    y 0.000000 1.669340 0.000000 
#    z 0.000000 0.000000 1.650800 
# 
# From -- ./inp_files/1530.got.cif
#   From: 2010.05.17/outbox.cif.g08.bks.cpg/sg29_1_cif.got.tgz:1530.got - 2010.06.04 01:19:37.
