data_PCOD9340080
_publ_section_title
;
Structure prediction by ZEFSAII (Michael W. Deem and Ramdas Pophale) SiO2 
 PCOD9340080
Probable space group: P C A 21
;
_chemical_formula_sum "Si O2"
_cell_formula_units_Z 32
_cell_length_a 15.691877
_cell_length_b 5.108627
_cell_length_c 17.099677
_cell_angle_alpha 90.000000
_cell_angle_beta 90.000000
_cell_angle_gamma 90.000000
_cell_volume 1370.777593
_symmetry_space_group_name_H-M "P C A 21"
_symmetry_group_IT_number 29
_symmetry_cell_setting 'orthorhombic'
loop_
_space_group_symop_operation_xyz
x,y,z
-x,-y,1/2+z
1/2-x,y,1/2+z
1/2+x,-y,z
loop_
_atom_site_type_symbol
_atom_site_label
_atom_site_fract_x
_atom_site_fract_y
_atom_site_fract_z
Si Si1 0.997153 0.236835 0.015300
Si Si2 0.696686 0.823060 0.300418
Si Si3 0.576144 0.763522 0.439919
Si Si4 0.695342 0.031004 0.136006
Si Si5 0.115396 0.714338 0.660863
Si Si6 0.804832 0.651635 0.056152
Si Si7 0.846637 0.397310 0.500135
Si Si8 0.682278 0.313266 0.823513
O O1 0.957010 0.179981 0.101783
O O2 0.944252 0.473374 0.972401
O O3 0.089035 0.366708 0.017743
O O4 0.993305 0.978854 0.961963
O O5 0.661033 0.951039 0.220194
O O6 0.760399 0.052003 0.329150
O O7 0.616238 0.766940 0.355272
O O8 0.755613 0.559047 0.299044
O O9 0.653895 0.852954 0.496935
O O10 0.789003 0.167277 0.147614
O O11 0.724883 0.757727 0.101796
O O12 0.642712 0.191218 0.071781
O O13 0.128632 0.428219 0.622562
O O14 0.111586 0.713728 0.754207
O O15 0.756085 0.443735 0.002063
O O16 0.860105 0.346896 0.407955
#
# Coordination Sequence:
#
# PCOD9340080 Si02
#       8
#     4   4   4   4   4   4   4   4
#     4  11  25  41  62  90 135 172 210 252 336 394
#     4  11  22  39  66  99 120 158 222 281 314 374
#     4  11  22  41  65  89 121 168 214 265 311 392
#     4  10  20  38  64  93 123 162 217 273 319 370
#     4   9  20  38  60  90 120 164 211 263 313 387
#     4  10  18  36  67  87 119 161 217 262 314 369
#     4  11  25  39  61  97 130 176 207 272 327 398
#     4  11  22  38  65  95 124 161 220 272 324 376
#
# _framework density 23.344412999999999
#
# number of rings (size 3 to 8) (size 9 to 14) (size 15 to 20)
#    0.000    1.500    3.750    1.500    3.500    0.000 
#    2.250    0.000    0.000    0.000    0.000    0.000 
#    0.000    0.000    0.000    0.000    0.000    0.000 
#
# Total GULP energy -178195.971103 kJ/mol
# GULP energy per Si atom -5568.624097 kJ/mol
# Density = 2.329128 g / cm^3
# Si number density = 23.344413 Si / 1000 Ang^3
#
#
#
# Elastic Constant Matrix: (Units=GPa)
#
#
# Indices 1 2 3 4 5 6 
#
# 1 45.6398 11.7960 30.4227 0.0000 0.0000 0.0000
# 2 11.7960 82.7258 14.5166 0.0000 0.0000 0.0000
# 3 30.4227 14.5166 143.2690 0.0000 0.0000 0.0000
# 4 0.0000 0.0000 0.0000 26.4264 0.0000 0.0000
# 5 0.0000 0.0000 0.0000 0.0000 21.9483 0.0000
# 6 0.0000 0.0000 0.0000 0.0000 0.0000 32.0512
#
#
#
# Elastic Compliance Matrix: (Units=1/GPa)
#
#
# Indices 1 2 3 4 5 6 
#
# 1 0.026147 -0.002804 -0.005268 0.000000 0.000000 0.000000
# 2 -0.002804 0.012608 -0.000682 0.000000 0.000000 0.000000
# 3 -0.005268 -0.000682 0.008168 0.000000 0.000000 0.000000
# 4 0.000000 0.000000 0.000000 0.037841 0.000000 0.000000
# 5 0.000000 0.000000 0.000000 0.000000 0.045562 0.000000
# 6 0.000000 0.000000 0.000000 0.000000 0.000000 0.031200
#
#
# Mechanical properties :
#
#
# Convention : Reuss Voigt Hill
#
# Bulk Modulus (GPa) = 33.99725 42.78945 38.39335
# Shear Modulus (GPa) = 26.47776 30.41181 28.44479
#
# Velocity S-wave (km/s) = 3.37148 3.61327 3.49447
# Velocity P-wave (km/s) = 5.45442 5.98139 5.72398
#
# Compressibility (1/GPa) = 0.02941414
#
# Stress axis : x y z
#
# Youngs Moduli (GPa) = 38.24529 79.31708 122.43414
#
# Poissons Ratio (x) = 0.22240 0.64500
# Poissons Ratio (y) = 0.10724 0.08351
# Poissons Ratio (z) = 0.20148 0.05410
#
# Static dielectric constant tensor:
#      x y z
#    x 2.004640 0.000000 0.000000 
#    y 0.000000 2.088290 0.000000 
#    z 0.000000 0.000000 1.942630 
# 
# From -- ./inp_files/5301.got.cif
#   From: 2010.05.17/outbox.cif.g08.bks.cpg/sg29_3_cif.got.tgz:5301.got - 2010.06.04 01:19:37.
