data_PCOD9340673
_publ_section_title
;
Structure prediction by ZEFSAII (Michael W. Deem and Ramdas Pophale) SiO2 
 PCOD9340673
Probable space group: P C A 21
;
_chemical_formula_sum "Si O2"
_cell_formula_units_Z 32
_cell_length_a 12.320694
_cell_length_b 9.182749
_cell_length_c 10.723453
_cell_angle_alpha 90.000000
_cell_angle_beta 90.000000
_cell_angle_gamma 90.000000
_cell_volume 1213.228315
_symmetry_space_group_name_H-M "P C A 21"
_symmetry_group_IT_number 29
_symmetry_cell_setting 'orthorhombic'
loop_
_space_group_symop_operation_xyz
x,y,z
-x,-y,1/2+z
1/2-x,y,1/2+z
1/2+x,-y,z
loop_
_atom_site_type_symbol
_atom_site_label
_atom_site_fract_x
_atom_site_fract_y
_atom_site_fract_z
Si Si1 0.261590 0.801947 0.425210
Si Si2 0.652570 0.738505 0.544338
Si Si3 0.840442 0.270550 0.670217
Si Si4 0.996840 0.517326 0.608700
Si Si5 0.014608 0.754771 0.824473
Si Si6 0.945319 0.971949 0.650945
Si Si7 0.894723 0.740669 0.458386
Si Si8 0.296376 0.078695 0.256116
O O1 0.186593 0.738909 0.316350
O O2 0.243285 0.774048 0.572629
O O3 0.378039 0.726531 0.402940
O O4 0.281168 0.965581 0.373594
O O5 0.595675 0.594980 0.601380
O O6 0.587448 0.756004 0.415295
O O7 0.779793 0.706922 0.525006
O O8 0.649031 0.893462 0.618450
O O9 0.891263 0.423849 0.641934
O O10 0.927106 0.142749 0.641789
O O11 0.007623 0.638062 0.715224
O O12 0.973761 0.605085 0.480765
O O13 0.028224 0.910503 0.753491
O O14 0.952832 0.880015 0.524234
O O15 0.828886 0.921922 0.709864
O O16 0.854808 0.785341 0.323072
#
# Coordination Sequence:
#
# PCOD9340673 Si02
#       8
#     4   4   4   4   4   4   4   4
#     4  11  25  44  74 102 145 179 241 295 365 419
#     4  11  24  42  70  97 139 179 237 286 352 426
#     4  11  24  46  68 105 141 183 229 299 355 427
#     4  11  27  43  66 102 139 186 228 286 356 431
#     4  11  24  45  66 100 136 181 235 294 345 434
#     4   9  20  41  69  96 130 170 232 280 345 414
#     4  10  21  43  69  96 135 180 229 280 346 420
#     4  10  21  40  72 102 127 188 225 290 352 417
#
# _framework density 26.375907999999999
#
# number of rings (size 3 to 8) (size 9 to 14) (size 15 to 20)
#    0.000    1.500    3.750    0.000    5.250    1.000 
#    0.000    0.000    0.000    0.000    0.000    0.000 
#    0.000    0.000    0.000    0.000    0.000    0.000 
#
# Total GULP energy -178748.983177 kJ/mol
# GULP energy per Si atom -5585.905724 kJ/mol
# Density = 2.631588 g / cm^3
# Si number density = 26.375908 Si / 1000 Ang^3
#
#
#
# Elastic Constant Matrix: (Units=GPa)
#
#
# Indices 1 2 3 4 5 6 
#
# 1 23.6822 -3.8084 -1.1835 0.0000 0.0000 0.0000
# 2 -3.8084 101.8171 37.6525 0.0000 0.0000 0.0000
# 3 -1.1835 37.6525 65.4940 0.0000 0.0000 0.0000
# 4 0.0000 0.0000 0.0000 17.4781 0.0000 0.0000
# 5 0.0000 0.0000 0.0000 0.0000 44.6485 0.0000
# 6 0.0000 0.0000 0.0000 0.0000 0.0000 81.7314
#
#
#
# Elastic Compliance Matrix: (Units=1/GPa)
#
#
# Indices 1 2 3 4 5 6 
#
# 1 0.042483 0.001658 -0.000185 0.000000 0.000000 0.000000
# 2 0.001658 0.012538 -0.007178 0.000000 0.000000 0.000000
# 3 -0.000185 -0.007178 0.019392 0.000000 0.000000 0.000000
# 4 0.000000 0.000000 0.000000 0.057215 0.000000 0.000000
# 5 0.000000 0.000000 0.000000 0.000000 0.022397 0.000000
# 6 0.000000 0.000000 0.000000 0.000000 0.000000 0.012235
#
#
# Mechanical properties :
#
#
# Convention : Reuss Voigt Hill
#
# Bulk Modulus (GPa) = 15.87266 28.47940 22.17603
# Shear Modulus (GPa) = 25.16707 39.32712 32.24710
#
# Velocity S-wave (km/s) = 3.09231 3.86557 3.50036
# Velocity P-wave (km/s) = 4.33368 5.54477 4.97620
#
# Compressibility (1/GPa) = 0.06300141
#
# Stress axis : x y z
#
# Youngs Moduli (GPa) = 23.53876 79.75716 51.56770
#
# Poissons Ratio (x) = -0.13220 0.00955
# Poissons Ratio (y) = -0.03902 0.37016
# Poissons Ratio (z) = 0.00436 0.57251
#
# Static dielectric constant tensor:
#      x y z
#    x 2.152760 0.000000 0.000000 
#    y 0.000000 2.202710 0.000000 
#    z 0.000000 0.000000 2.163370 
# 
# From -- ./inp_files/3459.got.cif
#   From: 2010.05.17/outbox.cif.g08.bks.cpg/sg29_2_cif.got.tgz:3459.got - 2010.06.04 01:19:37.
