data_PCOD9340025
_publ_section_title
;
Structure prediction by ZEFSAII (Michael W. Deem and Ramdas Pophale) SiO2 
 PCOD9340025
Probable space group: P C A 21
;
_chemical_formula_sum "Si O2"
_cell_formula_units_Z 32
_cell_length_a 9.004017
_cell_length_b 14.755037
_cell_length_c 10.598972
_cell_angle_alpha 90.000000
_cell_angle_beta 90.000000
_cell_angle_gamma 90.000000
_cell_volume 1408.122228
_symmetry_space_group_name_H-M "P C A 21"
_symmetry_group_IT_number 29
_symmetry_cell_setting 'orthorhombic'
loop_
_space_group_symop_operation_xyz
x,y,z
-x,-y,1/2+z
1/2-x,y,1/2+z
1/2+x,-y,z
loop_
_atom_site_type_symbol
_atom_site_label
_atom_site_fract_x
_atom_site_fract_y
_atom_site_fract_z
Si Si1 0.361160 0.086648 0.011560
Si Si2 0.494306 0.420620 0.272151
Si Si3 0.568605 0.285243 0.620945
Si Si4 0.003186 0.109690 0.992441
Si Si5 0.055767 0.215149 0.733757
Si Si6 0.116787 0.238045 0.337953
Si Si7 0.125632 0.533917 0.549556
Si Si8 0.710050 0.629629 0.973794
O O1 0.444975 0.145799 0.117801
O O2 0.180419 0.096580 0.024410
O O3 0.406718 0.136251 0.881811
O O4 0.418776 0.984822 0.005197
O O5 0.523808 0.314416 0.233307
O O6 0.484237 0.491773 0.157763
O O7 0.577997 0.455033 0.400966
O O8 0.332107 0.408132 0.336508
O O9 0.583511 0.182256 0.579644
O O10 0.516761 0.282307 0.764050
O O11 0.678972 0.367109 0.593777
O O12 0.427905 0.319418 0.536118
O O13 0.002053 0.157276 0.855036
O O14 0.231639 0.234986 0.756965
O O15 0.158353 0.299375 0.457879
O O16 0.245188 0.456036 0.551116
#
# Coordination Sequence:
#
# PCOD9340025 Si02
#       8
#     4   4   4   4   4   4   4   4
#     4  11  23  37  69  94 122 166 218 260 321 397
#     4  10  21  36  60  93 124 164 214 264 324 384
#     4  11  20  37  59  86 120 161 203 259 314 373
#     4  11  23  40  64  95 121 167 209 265 321 380
#     4  10  19  39  63  89 124 162 212 263 316 382
#     4  10  17  34  60  91 114 158 210 254 304 385
#     4  11  21  34  61  92 122 162 209 269 310 388
#     4  10  18  35  60  86 117 162 215 250 308 385
#
# _framework density 22.725299
#
# number of rings (size 3 to 8) (size 9 to 14) (size 15 to 20)
#    0.000    1.500    6.250    3.000    1.750    1.000 
#    0.000    0.000   16.500    0.000    0.000    0.000 
#    0.000    0.000    0.000    0.000    0.000    0.000 
#
# Total GULP energy -178251.034615 kJ/mol
# GULP energy per Si atom -5570.344832 kJ/mol
# Density = 2.267357 g / cm^3
# Si number density = 22.725299 Si / 1000 Ang^3
#
#
#
# Elastic Constant Matrix: (Units=GPa)
#
#
# Indices 1 2 3 4 5 6 
#
# 1 5.9233 46.3056 19.4754 0.0000 0.0000 0.0000
# 2 46.3056 173.4134 36.2494 0.0000 0.0000 0.0000
# 3 19.4754 36.2494 59.5818 0.0000 0.0000 0.0000
# 4 0.0000 0.0000 0.0000 39.7785 0.0000 0.0000
# 5 0.0000 0.0000 0.0000 0.0000 -105.3223 0.0000
# 6 0.0000 0.0000 0.0000 0.0000 0.0000 32.9201
#
#
#
# Elastic Compliance Matrix: (Units=1/GPa)
#
#
# Indices 1 2 3 4 5 6 
#
# 1 -0.120676 0.027472 0.022731 0.000000 0.000000 0.000000
# 2 0.027472 0.000353 -0.009194 0.000000 0.000000 0.000000
# 3 0.022731 -0.009194 0.014947 0.000000 0.000000 0.000000
# 4 0.000000 0.000000 0.000000 0.025139 0.000000 0.000000
# 5 0.000000 0.000000 0.000000 0.000000 -0.009495 0.000000
# 6 0.000000 0.000000 0.000000 0.000000 0.000000 0.030377
#
#
# Mechanical properties :
#
#
# Convention : Reuss Voigt Hill
#
# Bulk Modulus (GPa) = -42.81149 49.21991 3.20421
# Shear Modulus (GPa) = -33.52144 2.60115 -15.46015
#
# Velocity S-wave (km/s) = -3.84483 1.07102 -2.61110
# Velocity P-wave (km/s) = 6.21208 4.82028 2.77081
#
# Compressibility (1/GPa) = -0.02335821
#
# Stress axis : x y z
#
# Youngs Moduli (GPa) = -8.28666 2833.82389 66.90164
#
# Poissons Ratio (x) = -77.85011 -1.52076
# Poissons Ratio (y) = 0.22765 0.61512
# Poissons Ratio (z) = 0.18837 26.05510
#
# Static dielectric constant tensor:
#      x y z
#    x 1.983940 0.000000 0.000000 
#    y 0.000000 1.885030 0.000000 
#    z 0.000000 0.000000 1.911780 
# 
# From -- ./inp_files/3237.got.cif
#   From: 2010.05.17/outbox.cif.g08.bks.cpg/sg29_2_cif.got.tgz:3237.got - 2010.06.04 01:19:37.
