data_PCOD9340797
_publ_section_title
;
Structure prediction by ZEFSAII (Michael W. Deem and Ramdas Pophale) SiO2 
 PCOD9340797
Probable space group: P C A 21
;
_chemical_formula_sum "Si O2"
_cell_formula_units_Z 32
_cell_length_a 13.424966
_cell_length_b 13.111480
_cell_length_c 7.757405
_cell_angle_alpha 90.000000
_cell_angle_beta 90.000000
_cell_angle_gamma 90.000000
_cell_volume 1365.467529
_symmetry_space_group_name_H-M "P C A 21"
_symmetry_group_IT_number 29
_symmetry_cell_setting 'orthorhombic'
loop_
_space_group_symop_operation_xyz
x,y,z
-x,-y,1/2+z
1/2-x,y,1/2+z
1/2+x,-y,z
loop_
_atom_site_type_symbol
_atom_site_label
_atom_site_fract_x
_atom_site_fract_y
_atom_site_fract_z
Si Si1 0.192656 0.586312 0.873490
Si Si2 0.698283 0.569484 0.614372
Si Si3 0.164129 0.122954 0.732181
Si Si4 0.836413 0.713268 0.812710
Si Si5 0.463798 0.888748 0.869979
Si Si6 0.834919 0.103468 0.210233
Si Si7 0.164258 0.734525 0.159011
Si Si8 0.529686 0.880578 0.376768
O O1 0.139288 0.499430 0.755147
O O2 0.273797 0.653483 0.772741
O O3 0.260549 0.516201 0.991180
O O4 0.133912 0.667241 0.992238
O O5 0.797134 0.622151 0.694101
O O6 0.650091 0.658445 0.499203
O O7 0.245597 0.205970 0.783991
O O8 0.096527 0.127730 0.554484
O O9 0.081298 0.125887 0.879969
O O10 0.208845 0.009534 0.730564
O O11 0.931874 0.781621 0.774748
O O12 0.421675 0.795149 0.758375
O O13 0.449581 0.005605 0.802385
O O14 0.411003 0.891616 0.052096
O O15 0.749597 0.179120 0.149373
O O16 0.908411 0.124039 0.374172
#
# Coordination Sequence:
#
# PCOD9340797 Si02
#       8
#     4   4   4   4   4   4   4   4
#     4   9  20  36  60  88 110 146 199 255 301 345
#     4   9  20  36  60  88 110 146 199 255 301 345
#     4  10  22  37  56  89 126 157 197 242 290 361
#     4  11  19  38  63  86 114 163 200 237 305 369
#     4  10  22  37  56  89 126 157 197 242 290 361
#     4  10  22  37  56  89 126 158 195 242 292 362
#     4  11  19  38  63  86 114 163 200 237 305 369
#     4  10  22  37  56  89 126 158 195 242 292 362
#
# _framework density 23.435196999999999
#
# number of rings (size 3 to 8) (size 9 to 14) (size 15 to 20)
#    0.000    2.000    2.500    0.750    3.500    0.000 
#    0.000    0.000    0.000   22.500    0.000    0.000 
#    0.000    0.000    0.000    0.000    0.000    0.000 
#
# Total GULP energy -178192.729738 kJ/mol
# GULP energy per Si atom -5568.522804 kJ/mol
# Density = 2.338186 g / cm^3
# Si number density = 23.435197 Si / 1000 Ang^3
#
#
#
# Elastic Constant Matrix: (Units=GPa)
#
#
# Indices 1 2 3 4 5 6 
#
# 1 62.5650 26.8852 6.9800 0.0000 0.0000 0.0000
# 2 26.8852 150.3257 45.1617 0.0000 0.0000 0.0000
# 3 6.9800 45.1617 63.5519 0.0000 0.0000 0.0000
# 4 0.0000 0.0000 0.0000 44.6125 0.0000 0.0000
# 5 0.0000 0.0000 0.0000 0.0000 15.9992 0.0000
# 6 0.0000 0.0000 0.0000 0.0000 0.0000 18.6623
#
#
#
# Elastic Compliance Matrix: (Units=1/GPa)
#
#
# Indices 1 2 3 4 5 6 
#
# 1 0.017321 -0.003212 0.000380 0.000000 0.000000 0.000000
# 2 -0.003212 0.009054 -0.006081 0.000000 0.000000 0.000000
# 3 0.000380 -0.006081 0.020015 0.000000 0.000000 0.000000
# 4 0.000000 0.000000 0.000000 0.022415 0.000000 0.000000
# 5 0.000000 0.000000 0.000000 0.000000 0.062503 0.000000
# 6 0.000000 0.000000 0.000000 0.000000 0.000000 0.053584
#
#
# Mechanical properties :
#
#
# Convention : Reuss Voigt Hill
#
# Bulk Modulus (GPa) = 35.00928 48.27739 41.64333
# Shear Modulus (GPa) = 23.55839 29.01584 26.28711
#
# Velocity S-wave (km/s) = 3.17402 3.52253 3.35280
# Velocity P-wave (km/s) = 5.32951 6.09831 5.72683
#
# Compressibility (1/GPa) = 0.02856386
#
# Stress axis : x y z
#
# Youngs Moduli (GPa) = 57.73258 110.45387 49.96331
#
# Poissons Ratio (x) = 0.35478 -0.01899
# Poissons Ratio (y) = 0.18544 0.30382
# Poissons Ratio (z) = -0.02195 0.67166
#
# Static dielectric constant tensor:
#      x y z
#    x 1.837770 0.000000 0.000000 
#    y 0.000000 1.935710 0.000000 
#    z 0.000000 0.000000 2.079070 
# 
# From -- ./inp_files/1871.got.cif
#   From: 2010.05.17/outbox.cif.g08.bks.cpg/sg29_1_cif.got.tgz:1871.got - 2010.06.04 01:19:37.
