data_PCOD9340515
_publ_section_title
;
Structure prediction by ZEFSAII (Michael W. Deem and Ramdas Pophale) SiO2 
 PCOD9340515
Probable space group: P C A 21
;
_chemical_formula_sum "Si O2"
_cell_formula_units_Z 32
_cell_length_a 8.039570
_cell_length_b 8.793213
_cell_length_c 19.931926
_cell_angle_alpha 90.000000
_cell_angle_beta 90.000000
_cell_angle_gamma 90.000000
_cell_volume 1409.060629
_symmetry_space_group_name_H-M "P C A 21"
_symmetry_group_IT_number 29
_symmetry_cell_setting 'orthorhombic'
loop_
_space_group_symop_operation_xyz
x,y,z
-x,-y,1/2+z
1/2-x,y,1/2+z
1/2+x,-y,z
loop_
_atom_site_type_symbol
_atom_site_label
_atom_site_fract_x
_atom_site_fract_y
_atom_site_fract_z
Si Si1 0.795216 0.211825 0.987980
Si Si2 0.690285 0.511407 0.573441
Si Si3 0.601549 0.672237 0.911619
Si Si4 0.022429 0.344433 0.463196
Si Si5 0.224077 0.667824 0.205766
Si Si6 0.865026 0.601979 0.260142
Si Si7 0.815159 0.766909 0.648385
Si Si8 0.652513 0.061362 0.629409
O O1 0.614406 0.212562 0.952751
O O2 0.961800 0.215253 0.943022
O O3 0.791966 0.383075 0.018235
O O4 0.800306 0.103313 0.052666
O O5 0.543100 0.614437 0.542857
O O6 0.690026 0.417645 0.642235
O O7 0.826559 0.639994 0.590457
O O8 0.788898 0.693307 0.940092
O O9 0.539859 0.499249 0.927381
O O10 0.611364 0.678816 0.831576
O O11 0.319089 0.577685 0.265481
O O12 0.245163 0.842910 0.185648
O O13 0.032521 0.628400 0.217669
O O14 0.716643 0.681456 0.218083
O O15 0.970220 0.875155 0.642262
O O16 0.664096 0.882416 0.637947
#
# Coordination Sequence:
#
# PCOD9340515 Si02
#       8
#     4   4   4   4   4   4   4   4
#     4  10  23  39  64  99 124 163 204 266 319 384
#     4   9  20  33  61  92 122 152 206 258 325 365
#     4  11  21  37  58  97 128 167 209 258 309 379
#     4  11  20  33  63  90 130 160 201 262 324 363
#     4  10  21  35  61  91 121 161 208 264 313 372
#     4  11  23  39  61  90 130 165 214 257 310 374
#     4  11  24  39  61  90 124 165 204 264 317 382
#     4  11  24  41  63  93 123 159 212 261 331 371
#
# _framework density 22.710166999999998
#
# number of rings (size 3 to 8) (size 9 to 14) (size 15 to 20)
#    0.000    1.500    2.500    3.750   12.250    0.000 
#    0.000    0.000    0.000    9.000    0.000    0.000 
#    0.000    0.000    0.000    0.000    0.000    0.000 
#
# Total GULP energy -178473.086372 kJ/mol
# GULP energy per Si atom -5577.283949 kJ/mol
# Density = 2.265848 g / cm^3
# Si number density = 22.710167 Si / 1000 Ang^3
#
#
#
# Elastic Constant Matrix: (Units=GPa)
#
#
# Indices 1 2 3 4 5 6 
#
# 1 122.2067 0.5701 32.8122 0.0000 0.0000 0.0000
# 2 0.5701 67.5025 17.6521 0.0000 0.0000 0.0000
# 3 32.8122 17.6521 85.8345 0.0000 0.0000 0.0000
# 4 0.0000 0.0000 0.0000 14.1504 0.0000 0.0000
# 5 0.0000 0.0000 0.0000 0.0000 18.4705 0.0000
# 6 0.0000 0.0000 0.0000 0.0000 0.0000 29.1586
#
#
#
# Elastic Compliance Matrix: (Units=1/GPa)
#
#
# Indices 1 2 3 4 5 6 
#
# 1 0.009169 0.000887 -0.003687 0.000000 0.000000 0.000000
# 2 0.000887 0.015742 -0.003576 0.000000 0.000000 0.000000
# 3 -0.003687 -0.003576 0.013795 0.000000 0.000000 0.000000
# 4 0.000000 0.000000 0.000000 0.070669 0.000000 0.000000
# 5 0.000000 0.000000 0.000000 0.000000 0.054140 0.000000
# 6 0.000000 0.000000 0.000000 0.000000 0.000000 0.034295
#
#
# Mechanical properties :
#
#
# Convention : Reuss Voigt Hill
#
# Bulk Modulus (GPa) = 38.53220 41.95695 40.24457
# Shear Modulus (GPa) = 22.80859 27.32319 25.06589
#
# Velocity S-wave (km/s) = 3.17256 3.47237 3.32585
# Velocity P-wave (km/s) = 5.51579 5.88146 5.70156
#
# Compressibility (1/GPa) = 0.02595232
#
# Stress axis : x y z
#
# Youngs Moduli (GPa) = 109.06596 63.52426 72.48799
#
# Poissons Ratio (x) = -0.05633 0.26729
# Poissons Ratio (y) = -0.09672 0.25925
# Poissons Ratio (z) = 0.40216 0.22719
#
# Static dielectric constant tensor:
#      x y z
#    x 2.016230 0.000000 0.000000 
#    y 0.000000 1.842590 0.000000 
#    z 0.000000 0.000000 1.875940 
# 
# From -- ./inp_files/5408.got.cif
#   From: 2010.05.17/outbox.cif.g08.bks.cpg/sg29_3_cif.got.tgz:5408.got - 2010.06.04 01:19:37.
