data_PCOD9340703
_publ_section_title
;
Structure prediction by ZEFSAII (Michael W. Deem and Ramdas Pophale) SiO2 
 PCOD9340703
Probable space group: P C A 21
;
_chemical_formula_sum "Si O2"
_cell_formula_units_Z 32
_cell_length_a 28.528036
_cell_length_b 6.647386
_cell_length_c 7.766444
_cell_angle_alpha 90.000000
_cell_angle_beta 90.000000
_cell_angle_gamma 90.000000
_cell_volume 1472.804109
_symmetry_space_group_name_H-M "P C A 21"
_symmetry_group_IT_number 29
_symmetry_cell_setting 'orthorhombic'
loop_
_space_group_symop_operation_xyz
x,y,z
-x,-y,1/2+z
1/2-x,y,1/2+z
1/2+x,-y,z
loop_
_atom_site_type_symbol
_atom_site_label
_atom_site_fract_x
_atom_site_fract_y
_atom_site_fract_z
Si Si1 0.693443 0.729119 0.046180
Si Si2 0.404013 0.310727 0.642106
Si Si3 0.001295 0.193969 0.291433
Si Si4 0.140652 0.847088 0.583352
Si Si5 0.666883 0.502833 0.360261
Si Si6 0.292158 0.207779 0.156882
Si Si7 0.414699 0.529449 0.298573
Si Si8 0.058214 0.132481 0.622187
O O1 0.641273 0.818106 0.079323
O O2 0.691555 0.536253 0.175118
O O3 0.738144 0.846374 0.118068
O O4 0.701097 0.694029 0.844887
O O5 0.453308 0.205153 0.668825
O O6 0.385143 0.408782 0.819552
O O7 0.408902 0.485037 0.499823
O O8 0.021783 0.206989 0.481599
O O9 0.965354 0.374996 0.260173
O O10 0.971421 0.992925 0.261639
O O11 0.162124 0.721295 0.427012
O O12 0.123279 0.681604 0.721291
O O13 0.177365 0.006589 0.653737
O O14 0.094547 0.976101 0.536337
O O15 0.691201 0.642176 0.504588
O O16 0.413541 0.312374 0.209128
#
# Coordination Sequence:
#
# PCOD9340703 Si02
#       8
#     4   4   4   4   4   4   4   4
#     4  10  23  43  73  98 139 183 229 291 364 418
#     4  10  21  41  68  96 136 184 233 284 359 419
#     4  11  23  39  65 100 132 186 235 289 352 430
#     4  11  24  42  70  99 136 184 235 286 361 419
#     4  10  24  45  70 100 137 186 228 290 357 424
#     4  12  22  49  71 102 142 181 234 302 351 433
#     4  11  23  43  65  98 137 189 230 292 354 424
#     4  11  24  40  66  97 141 179 234 298 352 419
#
# _framework density 21.727260999999999
#
# number of rings (size 3 to 8) (size 9 to 14) (size 15 to 20)
#    0.750    0.500    1.250    5.250    0.000    5.000 
#    4.500    0.000    0.000    0.000    0.000    0.000 
#    0.000    0.000    0.000    0.000    0.000    0.000 
#
# Total GULP energy -178649.563282 kJ/mol
# GULP energy per Si atom -5582.798853 kJ/mol
# Density = 2.167781 g / cm^3
# Si number density = 21.727261 Si / 1000 Ang^3
#
#
#
# Elastic Constant Matrix: (Units=GPa)
#
#
# Indices 1 2 3 4 5 6 
#
# 1 129.1913 37.7868 28.7231 0.0000 0.0000 0.0000
# 2 37.7868 89.4493 34.6337 0.0000 0.0000 0.0000
# 3 28.7231 34.6337 124.6735 0.0000 0.0000 0.0000
# 4 0.0000 0.0000 0.0000 20.4940 0.0000 0.0000
# 5 0.0000 0.0000 0.0000 0.0000 39.9206 0.0000
# 6 0.0000 0.0000 0.0000 0.0000 0.0000 16.4524
#
#
#
# Elastic Compliance Matrix: (Units=1/GPa)
#
#
# Indices 1 2 3 4 5 6 
#
# 1 0.008973 -0.003351 -0.001137 0.000000 0.000000 0.000000
# 2 -0.003351 0.013778 -0.003056 0.000000 0.000000 0.000000
# 3 -0.001137 -0.003056 0.009132 0.000000 0.000000 0.000000
# 4 0.000000 0.000000 0.000000 0.048795 0.000000 0.000000
# 5 0.000000 0.000000 0.000000 0.000000 0.025050 0.000000
# 6 0.000000 0.000000 0.000000 0.000000 0.000000 0.060782
#
#
# Mechanical properties :
#
#
# Convention : Reuss Voigt Hill
#
# Bulk Modulus (GPa) = 59.53263 60.62235 60.07749
# Shear Modulus (GPa) = 26.71036 31.51808 29.11422
#
# Velocity S-wave (km/s) = 3.51001 3.81284 3.66455
# Velocity P-wave (km/s) = 6.62468 6.88082 6.75396
#
# Compressibility (1/GPa) = 0.01679751
#
# Stress axis : x y z
#
# Youngs Moduli (GPa) = 111.44376 72.57964 109.50984
#
# Poissons Ratio (x) = 0.24318 0.12446
# Poissons Ratio (y) = 0.37340 0.33461
# Poissons Ratio (z) = 0.12666 0.22177
#
# Static dielectric constant tensor:
#      x y z
#    x 1.839440 0.000000 0.000000 
#    y 0.000000 1.761690 0.000000 
#    z 0.000000 0.000000 1.810240 
# 
# From -- ./inp_files/2610.got.cif
#   From: 2010.05.17/outbox.cif.g08.bks.cpg/sg29_2_cif.got.tgz:2610.got - 2010.06.04 01:19:37.
