data_PCOD9340276
_publ_section_title
;
Structure prediction by ZEFSAII (Michael W. Deem and Ramdas Pophale) SiO2 
 PCOD9340276
Probable space group: P C A 21
;
_chemical_formula_sum "Si O2"
_cell_formula_units_Z 24
_cell_length_a 7.335242
_cell_length_b 16.884393
_cell_length_c 7.583927
_cell_angle_alpha 90.000000
_cell_angle_beta 90.000000
_cell_angle_gamma 90.000000
_cell_volume 939.277767
_symmetry_space_group_name_H-M "P C A 21"
_symmetry_group_IT_number 29
_symmetry_cell_setting 'orthorhombic'
loop_
_space_group_symop_operation_xyz
x,y,z
-x,-y,1/2+z
1/2-x,y,1/2+z
1/2+x,-y,z
loop_
_atom_site_type_symbol
_atom_site_label
_atom_site_fract_x
_atom_site_fract_y
_atom_site_fract_z
Si Si1 0.958486 0.918333 0.094700
Si Si2 0.159450 0.914851 0.723946
Si Si3 0.544119 0.753493 0.640744
Si Si4 0.837950 0.417580 0.004923
Si Si5 0.458666 0.415960 0.129926
Si Si6 0.360963 0.754073 0.025528
O O1 0.850043 0.835459 0.108923
O O2 0.863258 0.001017 0.127176
O O3 0.121871 0.908899 0.236544
O O4 0.054563 0.921645 0.906048
O O5 0.094181 0.834563 0.628501
O O6 0.641358 0.668980 0.614619
O O7 0.361816 0.757921 0.517826
O O8 0.459792 0.752539 0.837434
O O9 0.620609 0.411918 0.987405
O O10 0.893673 0.334884 0.099884
O O11 0.859914 0.501883 0.099357
O O12 0.945257 0.419239 0.821135
#
# Coordination Sequence:
#
# PCOD9340276 Si02
#       6
#     4   4   4   4   4   4
#     4  11  21  35  55  79 106 137 172 213 257 306
#     4  11  21  35  55  79 106 137 172 213 257 306
#     4   9  17  31  51  75 101 134 173 211 252 305
#     4  10  20  34  54  78 106 137 173 214 257 305
#     4  10  20  34  54  78 106 137 173 214 257 305
#     4   9  17  31  51  75 101 134 173 211 252 305
#
# _framework density 25.551549000000001
#
# number of rings (size 3 to 8) (size 9 to 14) (size 15 to 20)
#    0.000    2.000    0.000    7.000    0.000    4.000 
#    0.000    1.667    0.000    8.000    0.000    0.000 
#    0.000    0.000    0.000    0.000    0.000    0.000 
#
# Total GULP energy -134056.675800 kJ/mol
# GULP energy per Si atom -5585.694825 kJ/mol
# Density = 2.549339 g / cm^3
# Si number density = 25.551549 Si / 1000 Ang^3
#
#
#
# Elastic Constant Matrix: (Units=GPa)
#
#
# Indices 1 2 3 4 5 6 
#
# 1 34.8348 25.3679 -9.8563 0.0000 0.0000 0.0000
# 2 25.3679 338.3069 48.7545 0.0000 0.0000 0.0000
# 3 -9.8563 48.7545 60.5263 0.0000 0.0000 0.0000
# 4 0.0000 0.0000 0.0000 43.1918 0.0000 0.0000
# 5 0.0000 0.0000 0.0000 0.0000 25.3029 0.0000
# 6 0.0000 0.0000 0.0000 0.0000 0.0000 28.4873
#
#
#
# Elastic Compliance Matrix: (Units=1/GPa)
#
#
# Indices 1 2 3 4 5 6 
#
# 1 0.033875 -0.003773 0.008556 0.000000 0.000000 0.000000
# 2 -0.003773 0.003764 -0.003647 0.000000 0.000000 0.000000
# 3 0.008556 -0.003647 0.020852 0.000000 0.000000 0.000000
# 4 0.000000 0.000000 0.000000 0.023153 0.000000 0.000000
# 5 0.000000 0.000000 0.000000 0.000000 0.039521 0.000000
# 6 0.000000 0.000000 0.000000 0.000000 0.000000 0.035103
#
#
# Mechanical properties :
#
#
# Convention : Reuss Voigt Hill
#
# Bulk Modulus (GPa) = 16.45717 62.46671 39.46194
# Shear Modulus (GPa) = 28.69407 44.02320 36.35864
#
# Velocity S-wave (km/s) = 3.35474 4.15531 3.77630
# Velocity P-wave (km/s) = 4.63254 6.89366 5.87294
#
# Compressibility (1/GPa) = 0.06076381
#
# Stress axis : x y z
#
# Youngs Moduli (GPa) = 29.51998 265.64995 47.95621
#
# Poissons Ratio (x) = 1.00233 -0.41030
# Poissons Ratio (y) = 0.11138 0.17488
# Poissons Ratio (z) = -0.25256 0.96873
#
# Static dielectric constant tensor:
#      x y z
#    x 1.995140 0.000000 0.000000 
#    y 0.000000 2.102210 0.000000 
#    z 0.000000 0.000000 2.045830 
# 
# From -- ./inp_files/1160.got.cif
#   From: 2010.05.17/outbox.cif.g08.bks.cpg/sg29_1_cif.got.tgz:1160.got - 2010.06.04 01:19:37.
