data_PCOD9340700
_publ_section_title
;
Structure prediction by ZEFSAII (Michael W. Deem and Ramdas Pophale) SiO2 
 PCOD9340700
Probable space group: P C A 21
;
_chemical_formula_sum "Si O2"
_cell_formula_units_Z 32
_cell_length_a 14.404665
_cell_length_b 11.988519
_cell_length_c 8.015436
_cell_angle_alpha 90.000000
_cell_angle_beta 90.000000
_cell_angle_gamma 90.000000
_cell_volume 1384.190452
_symmetry_space_group_name_H-M "P C A 21"
_symmetry_group_IT_number 29
_symmetry_cell_setting 'orthorhombic'
loop_
_space_group_symop_operation_xyz
x,y,z
-x,-y,1/2+z
1/2-x,y,1/2+z
1/2+x,-y,z
loop_
_atom_site_type_symbol
_atom_site_label
_atom_site_fract_x
_atom_site_fract_y
_atom_site_fract_z
Si Si1 0.547315 0.350976 0.077700
Si Si2 0.392857 0.894623 0.638261
Si Si3 0.391738 0.136606 0.607437
Si Si4 0.731699 0.181277 0.847576
Si Si5 0.160222 0.598120 0.400090
Si Si6 0.743536 0.777822 0.842200
Si Si7 0.662196 0.623683 0.583660
Si Si8 0.062339 0.709899 0.697408
O O1 0.548449 0.217733 0.117695
O O2 0.618875 0.405424 0.211296
O O3 0.445595 0.394430 0.116291
O O4 0.560960 0.355783 0.875898
O O5 0.318099 0.886793 0.490112
O O6 0.327131 0.876418 0.796542
O O7 0.437442 0.014959 0.622463
O O8 0.347130 0.170091 0.429464
O O9 0.299876 0.139739 0.723298
O O10 0.465874 0.226520 0.669934
O O11 0.761401 0.306698 0.898863
O O12 0.649465 0.204351 0.714612
O O13 0.195582 0.485059 0.484624
O O14 0.082417 0.640356 0.530865
O O15 0.714066 0.664373 0.747663
O O16 0.819654 0.733111 0.972091
#
# Coordination Sequence:
#
# PCOD9340700 Si02
#       8
#     4   4   4   4   4   4   4   4
#     4  10  24  45  63 104 138 168 240 289 326 437
#     4  10  21  41  68  94 137 177 227 284 358 403
#     4  11  22  45  67 100 134 195 218 294 359 410
#     4  10  21  43  63 102 131 171 235 291 331 436
#     4  11  25  43  73  96 139 181 222 293 363 396
#     4  10  24  43  66  94 144 170 244 276 340 438
#     4  11  24  44  66 101 131 186 221 287 346 411
#     4  11  23  44  68  99 140 170 235 284 339 423
#
# _framework density 23.118203999999999
#
# number of rings (size 3 to 8) (size 9 to 14) (size 15 to 20)
#    0.000    1.500    2.500    1.500    3.500    0.000 
#   20.250    0.000    0.000    0.000    0.000    0.000 
#    0.000    0.000    0.000    0.000    0.000    0.000 
#
# Total GULP energy -178559.405465 kJ/mol
# GULP energy per Si atom -5579.981421 kJ/mol
# Density = 2.306559 g / cm^3
# Si number density = 23.118204 Si / 1000 Ang^3
#
#
#
# Elastic Constant Matrix: (Units=GPa)
#
#
# Indices 1 2 3 4 5 6 
#
# 1 52.3579 3.2139 21.3665 0.0000 0.0000 0.0000
# 2 3.2139 82.6940 19.2191 0.0000 0.0000 0.0000
# 3 21.3665 19.2191 88.1365 0.0000 0.0000 0.0000
# 4 0.0000 0.0000 0.0000 3.1712 0.0000 0.0000
# 5 0.0000 0.0000 0.0000 0.0000 24.8844 0.0000
# 6 0.0000 0.0000 0.0000 0.0000 0.0000 18.5487
#
#
#
# Elastic Compliance Matrix: (Units=1/GPa)
#
#
# Indices 1 2 3 4 5 6 
#
# 1 0.021208 0.000390 -0.005227 0.000000 0.000000 0.000000
# 2 0.000390 0.012746 -0.002874 0.000000 0.000000 0.000000
# 3 -0.005227 -0.002874 0.013240 0.000000 0.000000 0.000000
# 4 0.000000 0.000000 0.000000 0.315337 0.000000 0.000000
# 5 0.000000 0.000000 0.000000 0.000000 0.040186 0.000000
# 6 0.000000 0.000000 0.000000 0.000000 0.000000 0.053912
#
#
# Mechanical properties :
#
#
# Convention : Reuss Voigt Hill
#
# Bulk Modulus (GPa) = 31.47282 34.53193 33.00237
# Shear Modulus (GPa) = 10.35969 21.28012 15.81991
#
# Velocity S-wave (km/s) = 2.11918 3.03725 2.61876
# Velocity P-wave (km/s) = 4.43072 5.22201 4.84256
#
# Compressibility (1/GPa) = 0.03177345
#
# Stress axis : x y z
#
# Youngs Moduli (GPa) = 47.15149 78.45885 75.52997
#
# Poissons Ratio (x) = -0.03063 0.39476
# Poissons Ratio (y) = -0.01841 0.21707
# Poissons Ratio (z) = 0.24644 0.22549
#
# Static dielectric constant tensor:
#      x y z
#    x 1.827730 0.000000 0.000000 
#    y 0.000000 1.891820 0.000000 
#    z 0.000000 0.000000 1.962000 
# 
# From -- ./inp_files/1874.got.cif
#   From: 2010.05.17/outbox.cif.g08.bks.cpg/sg29_1_cif.got.tgz:1874.got - 2010.06.04 01:19:37.
