data_PCOD9340538
_publ_section_title
;
Structure prediction by ZEFSAII (Michael W. Deem and Ramdas Pophale) SiO2 
 PCOD9340538
Probable space group: P C A 21
;
_chemical_formula_sum "Si O2"
_cell_formula_units_Z 32
_cell_length_a 5.060505
_cell_length_b 17.738519
_cell_length_c 15.134603
_cell_angle_alpha 90.000000
_cell_angle_beta 90.000000
_cell_angle_gamma 90.000000
_cell_volume 1358.570716
_symmetry_space_group_name_H-M "P C A 21"
_symmetry_group_IT_number 29
_symmetry_cell_setting 'orthorhombic'
loop_
_space_group_symop_operation_xyz
x,y,z
-x,-y,1/2+z
1/2-x,y,1/2+z
1/2+x,-y,z
loop_
_atom_site_type_symbol
_atom_site_label
_atom_site_fract_x
_atom_site_fract_y
_atom_site_fract_z
Si Si1 0.480260 0.951572 0.292360
Si Si2 0.727465 0.789500 0.967775
Si Si3 0.282342 0.695318 0.508269
Si Si4 0.101326 0.822136 0.302428
Si Si5 0.093763 0.455664 0.240694
Si Si6 0.541290 0.539646 0.453735
Si Si7 0.631766 0.293213 0.700725
Si Si8 0.204275 0.144899 0.153636
O O1 0.534279 0.925043 0.190562
O O2 0.341338 0.876466 0.329423
O O3 0.765137 0.984930 0.315184
O O4 0.516969 0.721717 0.989098
O O5 0.723255 0.848443 0.048820
O O6 0.018050 0.755385 0.966339
O O7 0.619771 0.821712 0.876787
O O8 0.387448 0.615316 0.476985
O O9 0.310425 0.698516 0.614086
O O10 0.975161 0.853094 0.210312
O O11 0.194586 0.736845 0.282175
O O12 0.876418 0.515905 0.208690
O O13 0.076739 0.460252 0.347442
O O14 0.017155 0.371090 0.215767
O O15 0.839115 0.525661 0.486019
O O16 0.437425 0.223047 0.682703
#
# Coordination Sequence:
#
# PCOD9340538 Si02
#       8
#     4   4   4   4   4   4   4   4
#     4  11  23  43  72  98 135 175 211 259 323 386
#     4  11  25  40  65  98 133 166 224 275 329 393
#     4  11  23  40  60  91 125 167 219 285 334 401
#     4  11  23  42  72  98 134 178 218 277 329 393
#     4  10  23  37  56  86 122 167 218 274 334 402
#     4  10  21  37  54  80 120 163 213 270 339 406
#     4  10  23  39  64  93 127 169 229 277 336 401
#     4  10  23  44  67 102 132 175 220 273 330 396
#
# _framework density 23.554165000000001
#
# number of rings (size 3 to 8) (size 9 to 14) (size 15 to 20)
#    0.000    1.500    2.500    1.500    7.000    2.000 
#    0.000    1.250    0.000    0.000    0.000    0.000 
#    0.000    0.000    0.000    0.000    0.000    0.000 
#
# Total GULP energy -178837.205827 kJ/mol
# GULP energy per Si atom -5588.662682 kJ/mol
# Density = 2.350056 g / cm^3
# Si number density = 23.554165 Si / 1000 Ang^3
#
#
#
# Elastic Constant Matrix: (Units=GPa)
#
#
# Indices 1 2 3 4 5 6 
#
# 1 83.3243 -0.6133 4.6320 0.0000 0.0000 0.0000
# 2 -0.6133 39.5927 -13.8804 0.0000 0.0000 0.0000
# 3 4.6320 -13.8804 46.2587 0.0000 0.0000 0.0000
# 4 0.0000 0.0000 0.0000 22.8677 0.0000 0.0000
# 5 0.0000 0.0000 0.0000 0.0000 12.2250 0.0000
# 6 0.0000 0.0000 0.0000 0.0000 0.0000 31.6337
#
#
#
# Elastic Compliance Matrix: (Units=1/GPa)
#
#
# Indices 1 2 3 4 5 6 
#
# 1 0.012071 -0.000265 -0.001288 0.000000 0.000000 0.000000
# 2 -0.000265 0.028232 0.008498 0.000000 0.000000 0.000000
# 3 -0.001288 0.008498 0.024296 0.000000 0.000000 0.000000
# 4 0.000000 0.000000 0.000000 0.043730 0.000000 0.000000
# 5 0.000000 0.000000 0.000000 0.000000 0.081799 0.000000
# 6 0.000000 0.000000 0.000000 0.000000 0.000000 0.031612
#
#
# Mechanical properties :
#
#
# Convention : Reuss Voigt Hill
#
# Bulk Modulus (GPa) = 12.74048 16.60582 14.67315
# Shear Modulus (GPa) = 21.36628 25.28113 23.32370
#
# Velocity S-wave (km/s) = 3.01510 3.27971 3.15018
# Velocity P-wave (km/s) = 4.18830 4.62681 4.41300
#
# Compressibility (1/GPa) = 0.07848997
#
# Stress axis : x y z
#
# Youngs Moduli (GPa) = 82.84349 35.42046 41.15838
#
# Poissons Ratio (x) = 0.00937 0.05302
# Poissons Ratio (y) = 0.02192 -0.34976
# Poissons Ratio (z) = 0.10671 -0.30100
#
# Static dielectric constant tensor:
#      x y z
#    x 1.915130 0.000000 0.000000 
#    y 0.000000 1.906410 0.000000 
#    z 0.000000 0.000000 1.909030 
# 
# From -- ./inp_files/4129.got.cif
#   From: 2010.05.17/outbox.cif.g08.bks.cpg/sg29_3_cif.got.tgz:4129.got - 2010.06.04 01:19:37.
