data_PCOD9340516
_publ_section_title
;
Structure prediction by ZEFSAII (Michael W. Deem and Ramdas Pophale) SiO2 
 PCOD9340516
Probable space group: P C A 21
;
_chemical_formula_sum "Si O2"
_cell_formula_units_Z 20
_cell_length_a 16.191783
_cell_length_b 8.939920
_cell_length_c 5.454915
_cell_angle_alpha 90.000000
_cell_angle_beta 90.000000
_cell_angle_gamma 90.000000
_cell_volume 789.616646
_symmetry_space_group_name_H-M "P C A 21"
_symmetry_group_IT_number 29
_symmetry_cell_setting 'orthorhombic'
loop_
_space_group_symop_operation_xyz
x,y,z
-x,-y,1/2+z
1/2-x,y,1/2+z
1/2+x,-y,z
loop_
_atom_site_type_symbol
_atom_site_label
_atom_site_fract_x
_atom_site_fract_y
_atom_site_fract_z
Si Si1 0.457034 0.946672 0.649490
Si Si2 0.082802 0.606589 0.276555
Si Si3 0.902968 0.501599 0.276048
Si Si4 0.231436 0.925405 0.105787
Si Si5 0.207051 0.249908 0.617467
O O1 0.447669 0.771959 0.713402
O O2 0.504033 0.976044 0.391951
O O3 0.361135 0.990564 0.609122
O O4 0.122207 0.598698 0.544800
O O5 0.002193 0.499391 0.302142
O O6 0.131156 0.549150 0.038334
O O7 0.874974 0.667770 0.202687
O O8 0.249508 0.841392 0.356304
O O9 0.291787 0.070017 0.114160
O O10 0.231199 0.293441 0.340747
#
# Coordination Sequence:
#
# PCOD9340516 Si02
#       5
#     4   4   4   4   4
#     4  12  26  42  70 103 139 182 229 278 350 405
#     4  10  23  40  64  94 133 169 213 278 327 393
#     4  10  21  41  62  92 130 169 220 266 333 392
#     4  10  23  42  63  97 132 177 222 285 330 402
#     4  10  21  35  63  92 126 163 228 269 324 390
#
# _framework density 25.328747
#
# number of rings (size 3 to 8) (size 9 to 14) (size 15 to 20)
#    0.000    1.600    0.000    3.600   11.200    0.000 
#    0.000    6.000    0.000    0.000    0.000    0.000 
#    0.000    0.000    0.000    0.000    0.000    0.000 
#
# Total GULP energy -111753.858887 kJ/mol
# GULP energy per Si atom -5587.692944 kJ/mol
# Density = 2.527110 g / cm^3
# Si number density = 25.328747 Si / 1000 Ang^3
#
#
#
# Elastic Constant Matrix: (Units=GPa)
#
#
# Indices 1 2 3 4 5 6 
#
# 1 62.8842 -2.2093 37.3979 0.0000 0.0000 0.0000
# 2 -2.2093 64.8266 11.8935 0.0000 0.0000 0.0000
# 3 37.3979 11.8935 250.7197 0.0000 0.0000 0.0000
# 4 0.0000 0.0000 0.0000 28.8406 0.0000 0.0000
# 5 0.0000 0.0000 0.0000 0.0000 34.9456 0.0000
# 6 0.0000 0.0000 0.0000 0.0000 0.0000 35.8765
#
#
#
# Elastic Compliance Matrix: (Units=1/GPa)
#
#
# Indices 1 2 3 4 5 6 
#
# 1 0.017526 0.001086 -0.002666 0.000000 0.000000 0.000000
# 2 0.001086 0.015629 -0.000903 0.000000 0.000000 0.000000
# 3 -0.002666 -0.000903 0.004429 0.000000 0.000000 0.000000
# 4 0.000000 0.000000 0.000000 0.034673 0.000000 0.000000
# 5 0.000000 0.000000 0.000000 0.000000 0.028616 0.000000
# 6 0.000000 0.000000 0.000000 0.000000 0.000000 0.027873
#
#
# Mechanical properties :
#
#
# Convention : Reuss Voigt Hill
#
# Bulk Modulus (GPa) = 30.65818 52.51051 41.58434
# Shear Modulus (GPa) = 34.58195 42.02243 38.30219
#
# Velocity S-wave (km/s) = 3.69904 4.07760 3.89292
# Velocity P-wave (km/s) = 5.51128 6.55330 6.05475
#
# Compressibility (1/GPa) = 0.03261773
#
# Stress axis : x y z
#
# Youngs Moduli (GPa) = 57.05892 63.98552 225.78474
#
# Poissons Ratio (x) = -0.06951 0.60188
# Poissons Ratio (y) = -0.06199 0.20398
# Poissons Ratio (z) = 0.15210 0.05781
#
# Static dielectric constant tensor:
#      x y z
#    x 2.035330 0.000000 0.000000 
#    y 0.000000 1.950060 0.000000 
#    z 0.000000 0.000000 2.085110 
# 
# From -- ./inp_files/325.got.cif
#   From: 2010.05.17/outbox.cif.g08.bks.cpg/sg29_1_cif.got.tgz:325.got - 2010.06.04 01:19:37.
