data_PCOD9340942
_publ_section_title
;
Structure prediction by ZEFSAII (Michael W. Deem and Ramdas Pophale) SiO2 
 PCOD9340942
Probable space group: P C A 21
;
_chemical_formula_sum "Si O2"
_cell_formula_units_Z 20
_cell_length_a 12.482673
_cell_length_b 4.812152
_cell_length_c 12.417206
_cell_angle_alpha 90.000000
_cell_angle_beta 90.000000
_cell_angle_gamma 90.000000
_cell_volume 745.883185
_symmetry_space_group_name_H-M "P C A 21"
_symmetry_group_IT_number 29
_symmetry_cell_setting 'orthorhombic'
loop_
_space_group_symop_operation_xyz
x,y,z
-x,-y,1/2+z
1/2-x,y,1/2+z
1/2+x,-y,z
loop_
_atom_site_type_symbol
_atom_site_label
_atom_site_fract_x
_atom_site_fract_y
_atom_site_fract_z
Si Si1 0.313455 0.572478 0.539510
Si Si2 0.557082 0.597580 0.767893
Si Si3 0.442919 0.097576 0.487970
Si Si4 0.686546 0.072481 0.716352
Si Si5 0.148739 0.749999 0.377931
O O1 0.376900 0.291991 0.571143
O O2 0.250001 0.750001 0.627930
O O3 0.225810 0.546264 0.444116
O O4 0.406414 0.785308 0.501396
O O5 0.593339 0.750003 0.877931
O O6 0.593588 0.285314 0.754466
O O7 0.430243 0.620073 0.787496
O O8 0.623100 0.791996 0.684719
O O9 0.569758 0.120074 0.468367
O O10 0.774190 0.046267 0.811746
#
# Coordination Sequence:
#
# PCOD9340942 Si02
#       5
#     4   4   4   4   4
#     4  12  24  42  66  96 125 163 213 261 306 370
#     4  10  23  41  62  91 125 167 213 242 321 374
#     4  10  23  41  62  91 125 167 213 242 321 374
#     4  12  24  42  66  96 125 163 213 261 306 370
#     4  10  22  42  66  86 134 170 194 270 306 364
#
# _framework density 26.813852000000001
#
# number of rings (size 3 to 8) (size 9 to 14) (size 15 to 20)
#    1.200    0.000    4.000    1.200    0.000    9.600 
#    0.000    0.000    0.000    0.000    0.000    0.000 
#    0.000    0.000    0.000    0.000    0.000    0.000 
#
# Total GULP energy -111639.286755 kJ/mol
# GULP energy per Si atom -5581.964338 kJ/mol
# Density = 2.675282 g / cm^3
# Si number density = 26.813852 Si / 1000 Ang^3
#
#
#
# Elastic Constant Matrix: (Units=GPa)
#
#
# Indices 1 2 3 4 5 6 
#
# 1 198.4529 52.1779 25.3363 0.0000 0.0000 0.0000
# 2 52.1779 155.3022 0.0147 0.0000 0.0000 0.0000
# 3 25.3363 0.0147 59.4258 0.0000 0.0000 0.0000
# 4 0.0000 0.0000 0.0000 27.5651 0.0000 0.0000
# 5 0.0000 0.0000 0.0000 0.0000 21.4555 0.0000
# 6 0.0000 0.0000 0.0000 0.0000 0.0000 13.4495
#
#
#
# Elastic Compliance Matrix: (Units=1/GPa)
#
#
# Indices 1 2 3 4 5 6 
#
# 1 0.005878 -0.001975 -0.002506 0.000000 0.000000 0.000000
# 2 -0.001975 0.007102 0.000840 0.000000 0.000000 0.000000
# 3 -0.002506 0.000840 0.017896 0.000000 0.000000 0.000000
# 4 0.000000 0.000000 0.000000 0.036278 0.000000 0.000000
# 5 0.000000 0.000000 0.000000 0.000000 0.046608 0.000000
# 6 0.000000 0.000000 0.000000 0.000000 0.000000 0.074352
#
#
# Mechanical properties :
#
#
# Convention : Reuss Voigt Hill
#
# Bulk Modulus (GPa) = 42.38010 63.13762 52.75886
# Shear Modulus (GPa) = 24.59902 34.87081 29.73491
#
# Velocity S-wave (km/s) = 3.03215 3.61013 3.33369
# Velocity P-wave (km/s) = 5.30077 6.40118 5.87679
#
# Compressibility (1/GPa) = 0.02359598
#
# Stress axis : x y z
#
# Youngs Moduli (GPa) = 170.12441 140.79712 55.87907
#
# Poissons Ratio (x) = 0.27803 0.14001
# Poissons Ratio (y) = 0.33594 -0.04695
# Poissons Ratio (z) = 0.42627 -0.11829
#
# Static dielectric constant tensor:
#      x y z
#    x 2.052400 0.000000 0.000000 
#    y 0.000000 2.207910 0.000000 
#    z 0.000000 0.000000 2.367020 
# 
# From -- ./inp_files/4404.got.cif
#   From: 2010.05.17/outbox.cif.g08.bks.cpg/sg29_3_cif.got.tgz:4404.got - 2010.06.04 01:19:37.
