data_PCOD9340548
_publ_section_title
;
Structure prediction by ZEFSAII (Michael W. Deem and Ramdas Pophale) SiO2 
 PCOD9340548
Probable space group: P C A 21
;
_chemical_formula_sum "Si O2"
_cell_formula_units_Z 28
_cell_length_a 5.410263
_cell_length_b 14.464359
_cell_length_c 14.997509
_cell_angle_alpha 90.000000
_cell_angle_beta 90.000000
_cell_angle_gamma 90.000000
_cell_volume 1173.644859
_symmetry_space_group_name_H-M "P C A 21"
_symmetry_group_IT_number 29
_symmetry_cell_setting 'orthorhombic'
loop_
_space_group_symop_operation_xyz
x,y,z
-x,-y,1/2+z
1/2-x,y,1/2+z
1/2+x,-y,z
loop_
_atom_site_type_symbol
_atom_site_label
_atom_site_fract_x
_atom_site_fract_y
_atom_site_fract_z
Si Si1 0.881366 0.666080 0.340930
Si Si2 0.094491 0.785335 0.061176
Si Si3 0.263449 0.322238 0.657869
Si Si4 0.864962 0.223715 0.363138
Si Si5 0.458344 0.024458 0.052510
Si Si6 0.517388 0.131311 0.696889
Si Si7 0.501732 0.442157 0.520046
O O1 0.802005 0.621474 0.246428
O O2 0.629520 0.721724 0.368693
O O3 0.963709 0.601703 0.422101
O O4 0.130280 0.724665 0.318973
O O5 0.263067 0.826222 0.138207
O O6 0.963663 0.692752 0.091293
O O7 0.893203 0.867803 0.051928
O O8 0.218989 0.781288 0.965491
O O9 0.325137 0.217599 0.691545
O O10 0.475424 0.365569 0.597760
O O11 0.913848 0.133256 0.301600
O O12 0.522223 0.966955 0.145295
O O13 0.224861 0.979033 0.006608
O O14 0.761847 0.492628 0.529746
#
# Coordination Sequence:
#
# PCOD9340548 Si02
#       7
#     4   4   4   4   4   4   4
#     4  11  24  44  68  99 133 172 226 276 340 407
#     4  11  21  40  68  96 137 181 230 274 337 399
#     4  11  23  43  73  96 132 183 224 272 344 418
#     4  11  23  38  70  99 127 183 229 274 330 407
#     4  10  21  37  60  92 136 176 215 275 330 371
#     4  10  22  41  66  99 139 177 230 277 336 399
#     4  12  28  45  69 101 136 170 218 288 341 407
#
# _framework density 23.857301
#
# number of rings (size 3 to 8) (size 9 to 14) (size 15 to 20)
#    0.000    1.143    4.286    1.714    2.000    1.143 
#    0.000    5.714    0.000    0.000    0.000    0.000 
#    0.000    0.000    0.000    0.000    0.000    0.000 
#
# Total GULP energy -155957.288068 kJ/mol
# GULP energy per Si atom -5569.903145 kJ/mol
# Density = 2.380300 g / cm^3
# Si number density = 23.857301 Si / 1000 Ang^3
#
#
#
# Elastic Constant Matrix: (Units=GPa)
#
#
# Indices 1 2 3 4 5 6 
#
# 1 97.2170 20.5093 -14.8501 0.0000 0.0000 0.0000
# 2 20.5093 47.9395 20.9054 0.0000 0.0000 0.0000
# 3 -14.8501 20.9054 114.4649 0.0000 0.0000 0.0000
# 4 0.0000 0.0000 0.0000 30.9130 0.0000 0.0000
# 5 0.0000 0.0000 0.0000 0.0000 26.1346 0.0000
# 6 0.0000 0.0000 0.0000 0.0000 0.0000 44.8886
#
#
#
# Elastic Compliance Matrix: (Units=1/GPa)
#
#
# Indices 1 2 3 4 5 6 
#
# 1 0.012038 -0.006336 0.002719 0.000000 0.000000 0.000000
# 2 -0.006336 0.025999 -0.005570 0.000000 0.000000 0.000000
# 3 0.002719 -0.005570 0.010106 0.000000 0.000000 0.000000
# 4 0.000000 0.000000 0.000000 0.032349 0.000000 0.000000
# 5 0.000000 0.000000 0.000000 0.000000 0.038263 0.000000
# 6 0.000000 0.000000 0.000000 0.000000 0.000000 0.022277
#
#
# Mechanical properties :
#
#
# Convention : Reuss Voigt Hill
#
# Bulk Modulus (GPa) = 33.59156 34.75007 34.17081
# Shear Modulus (GPa) = 29.52794 35.92436 32.72615
#
# Velocity S-wave (km/s) = 3.52190 3.88468 3.70773
# Velocity P-wave (km/s) = 5.53616 5.89223 5.71697
#
# Compressibility (1/GPa) = 0.02976939
#
# Stress axis : x y z
#
# Youngs Moduli (GPa) = 83.06886 38.46263 98.94739
#
# Poissons Ratio (x) = 0.24369 -0.26903
# Poissons Ratio (y) = 0.52631 0.55117
# Poissons Ratio (z) = -0.22586 0.21425
#
# Static dielectric constant tensor:
#      x y z
#    x 1.965620 0.000000 0.000000 
#    y 0.000000 2.044250 0.000000 
#    z 0.000000 0.000000 1.992070 
# 
# From -- ./inp_files/4061.got.cif
#   From: 2010.05.17/outbox.cif.g08.bks.cpg/sg29_3_cif.got.tgz:4061.got - 2010.06.04 01:19:37.
