data_PCOD9340058
_publ_section_title
;
Structure prediction by ZEFSAII (Michael W. Deem and Ramdas Pophale) SiO2 
 PCOD9340058
Probable space group: P C A 21
;
_chemical_formula_sum "Si O2"
_cell_formula_units_Z 28
_cell_length_a 17.382585
_cell_length_b 5.489696
_cell_length_c 12.278893
_cell_angle_alpha 90.000000
_cell_angle_beta 90.000000
_cell_angle_gamma 90.000000
_cell_volume 1171.714683
_symmetry_space_group_name_H-M "P C A 21"
_symmetry_group_IT_number 29
_symmetry_cell_setting 'orthorhombic'
loop_
_space_group_symop_operation_xyz
x,y,z
-x,-y,1/2+z
1/2-x,y,1/2+z
1/2+x,-y,z
loop_
_atom_site_type_symbol
_atom_site_label
_atom_site_fract_x
_atom_site_fract_y
_atom_site_fract_z
Si Si1 0.760236 0.272138 0.804340
Si Si2 0.556687 0.634117 0.152293
Si Si3 0.808650 0.774710 0.248611
Si Si4 0.926919 0.150714 0.893789
Si Si5 0.475178 0.136730 0.176683
Si Si6 0.642017 0.504980 0.948676
Si Si7 0.969978 0.646456 0.907574
O O1 0.741061 0.523804 0.738504
O O2 0.846392 0.199447 0.835166
O O3 0.711149 0.322752 0.915800
O O4 0.732360 0.032885 0.741584
O O5 0.516167 0.375250 0.130736
O O6 0.565033 0.640754 0.283667
O O7 0.509821 0.883437 0.132864
O O8 0.627698 0.606057 0.069419
O O9 0.839195 0.735151 0.372247
O O10 0.885311 0.805112 0.178650
O O11 0.994507 0.134397 0.803246
O O12 0.940847 0.396404 0.959354
O O13 0.935069 0.894239 0.953713
O O14 0.562669 0.377820 0.905347
#
# Coordination Sequence:
#
# PCOD9340058 Si02
#       7
#     4   4   4   4   4   4   4
#     4  10  20  31  56  85 108 147 188 229 289 346
#     4  10  20  32  57  85 111 143 191 242 271 335
#     4  10  19  35  54  85 109 144 193 233 281 337
#     4  10  18  34  55  81 109 147 185 227 284 344
#     4  10  19  36  55  82 110 144 193 232 279 337
#     4  10  22  34  60  85 114 148 197 235 287 334
#     4  10  20  36  57  83 111 149 191 232 281 343
#
# _framework density 23.896605000000001
#
# number of rings (size 3 to 8) (size 9 to 14) (size 15 to 20)
#    0.857    1.143    2.857    3.429    2.000    0.000 
#    0.000    0.000    0.000   17.143    7.429    0.000 
#    0.000    0.000    0.000    0.000    0.000    0.000 
#
# Total GULP energy -156021.400302 kJ/mol
# GULP energy per Si atom -5572.192868 kJ/mol
# Density = 2.384222 g / cm^3
# Si number density = 23.896605 Si / 1000 Ang^3
#
#
#
# Elastic Constant Matrix: (Units=GPa)
#
#
# Indices 1 2 3 4 5 6 
#
# 1 83.5881 37.4037 -6.2542 0.0000 0.0000 0.0000
# 2 37.4037 235.4266 15.5468 0.0000 0.0000 0.0000
# 3 -6.2542 15.5468 67.7323 0.0000 0.0000 0.0000
# 4 0.0000 0.0000 0.0000 33.8089 0.0000 0.0000
# 5 0.0000 0.0000 0.0000 0.0000 8.1358 0.0000
# 6 0.0000 0.0000 0.0000 0.0000 0.0000 15.8951
#
#
#
# Elastic Compliance Matrix: (Units=1/GPa)
#
#
# Indices 1 2 3 4 5 6 
#
# 1 0.013071 -0.002190 0.001710 0.000000 0.000000 0.000000
# 2 -0.002190 0.004680 -0.001276 0.000000 0.000000 0.000000
# 3 0.001710 -0.001276 0.015215 0.000000 0.000000 0.000000
# 4 0.000000 0.000000 0.000000 0.029578 0.000000 0.000000
# 5 0.000000 0.000000 0.000000 0.000000 0.122914 0.000000
# 6 0.000000 0.000000 0.000000 0.000000 0.000000 0.062912
#
#
# Mechanical properties :
#
#
# Convention : Reuss Voigt Hill
#
# Bulk Modulus (GPa) = 33.95247 53.34884 43.65066
# Shear Modulus (GPa) = 19.10584 34.23802 26.67193
#
# Velocity S-wave (km/s) = 2.83065 3.78928 3.34449
# Velocity P-wave (km/s) = 4.99223 6.44346 5.76370
#
# Compressibility (1/GPa) = 0.02945294
#
# Stress axis : x y z
#
# Youngs Moduli (GPa) = 76.50456 213.68590 65.72534
#
# Poissons Ratio (x) = 0.46788 -0.11236
# Poissons Ratio (y) = 0.16751 0.08389
# Poissons Ratio (z) = -0.13079 0.27274
#
# Static dielectric constant tensor:
#      x y z
#    x 2.002420 0.000000 0.000000 
#    y 0.000000 1.958520 0.000000 
#    z 0.000000 0.000000 2.070260 
# 
# From -- ./inp_files/5289.got.cif
#   From: 2010.05.17/outbox.cif.g08.bks.cpg/sg29_3_cif.got.tgz:5289.got - 2010.06.04 01:19:37.
