data_PCOD9340035
_publ_section_title
;
Structure prediction by ZEFSAII (Michael W. Deem and Ramdas Pophale) SiO2 
 PCOD9340035
Probable space group: P C A 21
;
_chemical_formula_sum "Si O2"
_cell_formula_units_Z 32
_cell_length_a 30.661575
_cell_length_b 7.096654
_cell_length_c 5.753850
_cell_angle_alpha 90.000000
_cell_angle_beta 90.000000
_cell_angle_gamma 90.000000
_cell_volume 1252.006625
_symmetry_space_group_name_H-M "P C A 21"
_symmetry_group_IT_number 29
_symmetry_cell_setting 'orthorhombic'
loop_
_space_group_symop_operation_xyz
x,y,z
-x,-y,1/2+z
1/2-x,y,1/2+z
1/2+x,-y,z
loop_
_atom_site_type_symbol
_atom_site_label
_atom_site_fract_x
_atom_site_fract_y
_atom_site_fract_z
Si Si1 0.139607 0.539844 0.770390
Si Si2 0.357043 0.923458 0.521346
Si Si3 0.911647 0.234440 0.889449
Si Si4 0.558877 0.553257 0.033670
Si Si5 0.011914 0.265160 0.429052
Si Si6 0.055311 0.020897 0.754205
Si Si7 0.770278 0.392622 0.068055
Si Si8 0.260010 0.044542 0.544966
O O1 0.153567 0.710028 0.940394
O O2 0.107323 0.631068 0.584268
O O3 0.183669 0.505798 0.627745
O O4 0.106183 0.409886 0.914136
O O5 0.375183 0.900208 0.780051
O O6 0.311876 0.027566 0.513083
O O7 0.396538 0.998418 0.361661
O O8 0.929516 0.371565 0.695648
O O9 0.945021 0.100685 0.016862
O O10 0.543862 0.719228 0.206253
O O11 0.516524 0.456573 0.913944
O O12 0.039330 0.223802 0.664692
O O13 0.977786 0.094203 0.412722
O O14 0.742665 0.439699 0.302093
O O15 0.765750 0.159752 0.062765
O O16 0.245558 0.132778 0.300289
#
# Coordination Sequence:
#
# PCOD9340035 Si02
#       8
#     4   4   4   4   4   4   4   4
#     4  10  19  33  54  86 127 166 213 267 350 381
#     4  10  19  33  54  86 127 166 213 267 350 381
#     4  10  18  38  58  87 122 172 201 276 330 394
#     4  11  24  40  61  90 125 170 216 282 332 413
#     4  12  24  44  64  91 126 174 227 276 350 402
#     4  11  24  40  61  90 125 170 216 282 332 413
#     4  10  18  28  50  87 126 168 209 273 331 403
#     4  10  18  28  50  87 126 168 209 273 331 403
#
# _framework density 25.558969999999999
#
# number of rings (size 3 to 8) (size 9 to 14) (size 15 to 20)
#    0.000    1.500    6.250    3.000    3.500    0.000 
#    0.000    0.000    0.000    0.000    0.000    1.750 
#    0.000    0.000    0.000    0.000    0.000    0.000 
#
# Total GULP energy -178656.698427 kJ/mol
# GULP energy per Si atom -5583.021826 kJ/mol
# Density = 2.550080 g / cm^3
# Si number density = 25.558970 Si / 1000 Ang^3
#
#
#
# Elastic Constant Matrix: (Units=GPa)
#
#
# Indices 1 2 3 4 5 6 
#
# 1 74.5376 18.0161 -4.3697 0.0000 0.0000 0.0000
# 2 18.0161 80.9675 9.1583 0.0000 0.0000 0.0000
# 3 -4.3697 9.1583 82.2690 0.0000 0.0000 0.0000
# 4 0.0000 0.0000 0.0000 27.2889 0.0000 0.0000
# 5 0.0000 0.0000 0.0000 0.0000 18.0386 0.0000
# 6 0.0000 0.0000 0.0000 0.0000 0.0000 12.4198
#
#
#
# Elastic Compliance Matrix: (Units=1/GPa)
#
#
# Indices 1 2 3 4 5 6 
#
# 1 0.014281 -0.003305 0.001126 0.000000 0.000000 0.000000
# 2 -0.003305 0.013273 -0.001653 0.000000 0.000000 0.000000
# 3 0.001126 -0.001653 0.012399 0.000000 0.000000 0.000000
# 4 0.000000 0.000000 0.000000 0.036645 0.000000 0.000000
# 5 0.000000 0.000000 0.000000 0.000000 0.055437 0.000000
# 6 0.000000 0.000000 0.000000 0.000000 0.000000 0.080517
#
#
# Mechanical properties :
#
#
# Convention : Reuss Voigt Hill
#
# Bulk Modulus (GPa) = 30.96973 31.48706 31.22839
# Shear Modulus (GPa) = 21.64707 25.88075 23.76391
#
# Velocity S-wave (km/s) = 2.91339 3.18557 3.05252
# Velocity P-wave (km/s) = 4.84359 5.08691 4.96674
#
# Compressibility (1/GPa) = 0.03228960
#
# Stress axis : x y z
#
# Youngs Moduli (GPa) = 70.02342 75.34075 80.65100
#
# Poissons Ratio (x) = 0.24901 -0.09085
# Poissons Ratio (y) = 0.23143 0.13333
# Poissons Ratio (z) = -0.07888 0.12455
#
# Static dielectric constant tensor:
#      x y z
#    x 2.007990 0.000000 0.000000 
#    y 0.000000 2.163850 0.000000 
#    z 0.000000 0.000000 2.087100 
# 
# From -- ./inp_files/889.got.cif
#   From: 2010.05.17/outbox.cif.g08.bks.cpg/sg29_1_cif.got.tgz:889.got - 2010.06.04 01:19:37.
