data_PCOD9340846
_publ_section_title
;
Structure prediction by ZEFSAII (Michael W. Deem and Ramdas Pophale) SiO2 
 PCOD9340846
Probable space group: P C A 21
;
_chemical_formula_sum "Si O2"
_cell_formula_units_Z 28
_cell_length_a 23.980604
_cell_length_b 5.730827
_cell_length_c 7.949200
_cell_angle_alpha 90.000000
_cell_angle_beta 90.000000
_cell_angle_gamma 90.000000
_cell_volume 1092.448165
_symmetry_space_group_name_H-M "P C A 21"
_symmetry_group_IT_number 29
_symmetry_cell_setting 'orthorhombic'
loop_
_space_group_symop_operation_xyz
x,y,z
-x,-y,1/2+z
1/2-x,y,1/2+z
1/2+x,-y,z
loop_
_atom_site_type_symbol
_atom_site_label
_atom_site_fract_x
_atom_site_fract_y
_atom_site_fract_z
Si Si1 0.070509 0.158773 0.281050
Si Si2 0.278261 0.345089 0.752084
Si Si3 0.778312 0.990792 0.020764
Si Si4 0.386418 0.805503 0.197799
Si Si5 0.422306 0.654921 0.844660
Si Si6 0.482477 0.126569 0.144098
Si Si7 0.806352 0.375333 0.438373
O O1 0.097637 0.410819 0.266595
O O2 0.034762 0.185924 0.454546
O O3 0.103618 0.912206 0.299524
O O4 0.026108 0.091003 0.138823
O O5 0.216838 0.424233 0.814691
O O6 0.269132 0.123116 0.635299
O O7 0.303105 0.232898 0.920644
O O8 0.302148 0.540500 0.629913
O O9 0.827838 0.112188 0.119414
O O10 0.742799 0.183118 0.921385
O O11 0.414583 0.652769 0.047802
O O12 0.367191 0.692390 0.372521
O O13 0.426585 0.024510 0.225722
O O14 0.483859 0.692664 0.761137
#
# Coordination Sequence:
#
# PCOD9340846 Si02
#       7
#     4   4   4   4   4   4   4
#     4   9  20  39  67  92 132 166 216 291 336 402
#     4  10  22  39  66  97 145 182 220 298 343 412
#     4  11  21  42  65  99 141 173 232 288 345 422
#     4  11  22  41  73  93 135 191 225 289 367 429
#     4   9  22  39  65  97 132 169 233 280 345 412
#     4   9  22  41  67  95 130 174 229 284 347 412
#     4  11  21  41  65 101 135 179 231 286 347 425
#
# _framework density 25.630509
#
# number of rings (size 3 to 8) (size 9 to 14) (size 15 to 20)
#    0.857    1.143    2.857    0.000    4.000    2.286 
#    0.000    2.857    6.286    0.000    0.000    0.000 
#    0.000    0.000    0.000    0.000    0.000    0.000 
#
# Total GULP energy -156059.929053 kJ/mol
# GULP energy per Si atom -5573.568895 kJ/mol
# Density = 2.557217 g / cm^3
# Si number density = 25.630509 Si / 1000 Ang^3
#
#
#
# Elastic Constant Matrix: (Units=GPa)
#
#
# Indices 1 2 3 4 5 6 
#
# 1 57.4125 10.4540 17.4803 0.0000 0.0000 0.0000
# 2 10.4540 114.5480 12.9171 0.0000 0.0000 0.0000
# 3 17.4803 12.9171 69.5882 0.0000 0.0000 0.0000
# 4 0.0000 0.0000 0.0000 33.9692 0.0000 0.0000
# 5 0.0000 0.0000 0.0000 0.0000 52.3151 0.0000
# 6 0.0000 0.0000 0.0000 0.0000 0.0000 21.9502
#
#
#
# Elastic Compliance Matrix: (Units=1/GPa)
#
#
# Indices 1 2 3 4 5 6 
#
# 1 0.019027 -0.001223 -0.004552 0.000000 0.000000 0.000000
# 2 -0.001223 0.008995 -0.001362 0.000000 0.000000 0.000000
# 3 -0.004552 -0.001362 0.015767 0.000000 0.000000 0.000000
# 4 0.000000 0.000000 0.000000 0.029438 0.000000 0.000000
# 5 0.000000 0.000000 0.000000 0.000000 0.019115 0.000000
# 6 0.000000 0.000000 0.000000 0.000000 0.000000 0.045558
#
#
# Mechanical properties :
#
#
# Convention : Reuss Voigt Hill
#
# Bulk Modulus (GPa) = 33.88378 35.91682 34.90030
# Shear Modulus (GPa) = 30.86175 35.02673 32.94424
#
# Velocity S-wave (km/s) = 3.47378 3.70077 3.58907
# Velocity P-wave (km/s) = 5.41649 5.68372 5.55171
#
# Compressibility (1/GPa) = 0.02951265
#
# Stress axis : x y z
#
# Youngs Moduli (GPa) = 52.55815 111.17003 63.42487
#
# Poissons Ratio (x) = 0.13597 0.28873
# Poissons Ratio (y) = 0.06428 0.08642
# Poissons Ratio (z) = 0.23926 0.15147
#
# Static dielectric constant tensor:
#      x y z
#    x 2.005710 0.000000 0.000000 
#    y 0.000000 2.073260 0.000000 
#    z 0.000000 0.000000 2.018720 
# 
# From -- ./inp_files/2534.got.cif
#   From: 2010.05.17/outbox.cif.g08.bks.cpg/sg29_2_cif.got.tgz:2534.got - 2010.06.04 01:19:37.
