data_PCOD9340777
_publ_section_title
;
Structure prediction by ZEFSAII (Michael W. Deem and Ramdas Pophale) SiO2 
 PCOD9340777
Probable space group: P C A 21
;
_chemical_formula_sum "Si O2"
_cell_formula_units_Z 24
_cell_length_a 9.057977
_cell_length_b 7.281450
_cell_length_c 13.297009
_cell_angle_alpha 90.000000
_cell_angle_beta 90.000000
_cell_angle_gamma 90.000000
_cell_volume 877.006976
_symmetry_space_group_name_H-M "P C A 21"
_symmetry_group_IT_number 29
_symmetry_cell_setting 'orthorhombic'
loop_
_space_group_symop_operation_xyz
x,y,z
-x,-y,1/2+z
1/2-x,y,1/2+z
1/2+x,-y,z
loop_
_atom_site_type_symbol
_atom_site_label
_atom_site_fract_x
_atom_site_fract_y
_atom_site_fract_z
Si Si1 0.433202 0.117519 0.981730
Si Si2 0.734752 0.593762 0.603582
Si Si3 0.148096 0.762464 0.151020
Si Si4 0.644260 0.175932 0.817197
Si Si5 0.605601 0.311564 0.449906
Si Si6 0.109934 0.230941 0.799718
O O1 0.485489 0.194318 0.872095
O O2 0.408458 0.900831 0.980914
O O3 0.298605 0.225575 0.035695
O O4 0.579779 0.149184 0.051321
O O5 0.868718 0.455641 0.630212
O O6 0.640349 0.448517 0.538256
O O7 0.695007 0.660927 0.714999
O O8 0.309682 0.798753 0.200142
O O9 0.037239 0.830508 0.237880
O O10 0.755996 0.310771 0.874378
O O11 0.679633 0.959309 0.835727
O O12 0.454844 0.350383 0.390238
#
# Coordination Sequence:
#
# PCOD9340777 Si02
#       6
#     4   4   4   4   4   4
#     4  10  23  44  66 100 137 184 233 283 349 413
#     4  11  23  41  67 101 137 178 230 285 350 414
#     4  10  22  41  66 100 140 173 229 288 340 417
#     4  10  21  46  73  95 138 182 230 290 346 415
#     4  10  22  46  70  97 138 183 233 290 344 420
#     4   9  23  44  64 103 136 180 231 284 357 409
#
# _framework density 27.365804000000001
#
# number of rings (size 3 to 8) (size 9 to 14) (size 15 to 20)
#    0.000    2.000    1.667    0.000    7.000    0.000 
#   24.000    0.000    0.000    0.000    0.000    0.000 
#    0.000    0.000    0.000    0.000    0.000    0.000 
#
# Total GULP energy -133956.730481 kJ/mol
# GULP energy per Si atom -5581.530437 kJ/mol
# Density = 2.730352 g / cm^3
# Si number density = 27.365804 Si / 1000 Ang^3
#
#
#
# Elastic Constant Matrix: (Units=GPa)
#
#
# Indices 1 2 3 4 5 6 
#
# 1 52.6481 15.5487 30.2038 0.0000 0.0000 0.0000
# 2 15.5487 137.9465 31.6032 0.0000 0.0000 0.0000
# 3 30.2038 31.6032 104.9491 0.0000 0.0000 0.0000
# 4 0.0000 0.0000 0.0000 60.6054 0.0000 0.0000
# 5 0.0000 0.0000 0.0000 0.0000 35.4756 0.0000
# 6 0.0000 0.0000 0.0000 0.0000 0.0000 45.2057
#
#
#
# Elastic Compliance Matrix: (Units=1/GPa)
#
#
# Indices 1 2 3 4 5 6 
#
# 1 0.022919 -0.001152 -0.006249 0.000000 0.000000 0.000000
# 2 -0.001152 0.007844 -0.002031 0.000000 0.000000 0.000000
# 3 -0.006249 -0.002031 0.011938 0.000000 0.000000 0.000000
# 4 0.000000 0.000000 0.000000 0.016500 0.000000 0.000000
# 5 0.000000 0.000000 0.000000 0.000000 0.028188 0.000000
# 6 0.000000 0.000000 0.000000 0.000000 0.000000 0.022121
#
#
# Mechanical properties :
#
#
# Convention : Reuss Voigt Hill
#
# Bulk Modulus (GPa) = 41.94852 50.02835 45.98843
# Shear Modulus (GPa) = 36.67811 42.80321 39.74066
#
# Velocity S-wave (km/s) = 3.66497 3.95918 3.81491
# Velocity P-wave (km/s) = 5.76814 6.26268 6.02049
#
# Compressibility (1/GPa) = 0.02383874
#
# Stress axis : x y z
#
# Youngs Moduli (GPa) = 43.63134 127.48245 83.76307
#
# Poissons Ratio (x) = 0.14682 0.52346
# Poissons Ratio (y) = 0.05025 0.17010
# Poissons Ratio (z) = 0.27266 0.25888
#
# Static dielectric constant tensor:
#      x y z
#    x 2.244140 0.000000 0.000000 
#    y 0.000000 2.098110 0.000000 
#    z 0.000000 0.000000 2.175190 
# 
# From -- ./inp_files/4464.got.cif
#   From: 2010.05.17/outbox.cif.g08.bks.cpg/sg29_3_cif.got.tgz:4464.got - 2010.06.04 01:19:37.
