data_PCOD9340678
_publ_section_title
;
Structure prediction by ZEFSAII (Michael W. Deem and Ramdas Pophale) SiO2 
 PCOD9340678
Probable space group: P C A 21
;
_chemical_formula_sum "Si O2"
_cell_formula_units_Z 28
_cell_length_a 12.023186
_cell_length_b 17.283451
_cell_length_c 5.147592
_cell_angle_alpha 90.000000
_cell_angle_beta 90.000000
_cell_angle_gamma 90.000000
_cell_volume 1069.680665
_symmetry_space_group_name_H-M "P C A 21"
_symmetry_group_IT_number 29
_symmetry_cell_setting 'orthorhombic'
loop_
_space_group_symop_operation_xyz
x,y,z
-x,-y,1/2+z
1/2-x,y,1/2+z
1/2+x,-y,z
loop_
_atom_site_type_symbol
_atom_site_label
_atom_site_fract_x
_atom_site_fract_y
_atom_site_fract_z
Si Si1 0.185137 0.627527 0.375000
Si Si2 0.328263 0.785499 0.020840
Si Si3 0.000901 0.882751 0.233502
Si Si4 0.167573 0.981992 0.903851
Si Si5 0.793044 0.810402 0.043933
Si Si6 0.298040 0.363151 0.537171
Si Si7 0.058892 0.479712 0.294678
O O1 0.287406 0.637522 0.573824
O O2 0.114645 0.701252 0.470401
O O3 0.146088 0.540499 0.416005
O O4 0.232741 0.791243 0.796548
O O5 0.419585 0.848585 0.953581
O O6 0.920578 0.814825 0.122946
O O7 0.916803 0.946344 0.349447
O O8 0.078487 0.918251 0.009008
O O9 0.240898 0.978638 0.638548
O O10 0.721805 0.850194 0.268572
O O11 0.731157 0.727285 0.008832
O O12 0.295687 0.393065 0.242872
O O13 0.402193 0.396048 0.693095
O O14 0.973218 0.476648 0.528213
#
# Coordination Sequence:
#
# PCOD9340678 Si02
#       7
#     4   4   4   4   4   4   4
#     4  10  21  41  62  87 128 175 220 278 349 414
#     4  10  24  44  70 102 137 180 236 300 358 430
#     4  12  26  48  77 105 143 195 245 297 377 451
#     4  12  28  48  72 108 148 187 239 304 370 449
#     4  10  24  43  68 103 141 183 236 299 357 427
#     4  10  21  41  64  91 135 181 224 290 357 412
#     4  12  24  37  61  96 130 175 234 288 352 429
#
# _framework density 26.176037999999998
#
# number of rings (size 3 to 8) (size 9 to 14) (size 15 to 20)
#    0.000    1.143    0.000    5.143    0.000   10.286 
#    0.000    0.000    0.000    0.000    0.000    0.000 
#    0.000    0.000    0.000    0.000    0.000    0.000 
#
# Total GULP energy -156252.625556 kJ/mol
# GULP energy per Si atom -5580.450913 kJ/mol
# Density = 2.611646 g / cm^3
# Si number density = 26.176038 Si / 1000 Ang^3
#
#
#
# Elastic Constant Matrix: (Units=GPa)
#
#
# Indices 1 2 3 4 5 6 
#
# 1 104.7541 67.3511 40.4173 0.0000 0.0000 0.0000
# 2 67.3511 117.9351 15.6843 0.0000 0.0000 0.0000
# 3 40.4173 15.6843 176.9739 0.0000 0.0000 0.0000
# 4 0.0000 0.0000 0.0000 32.6746 0.0000 0.0000
# 5 0.0000 0.0000 0.0000 0.0000 30.3491 0.0000
# 6 0.0000 0.0000 0.0000 0.0000 0.0000 58.8949
#
#
#
# Elastic Compliance Matrix: (Units=1/GPa)
#
#
# Indices 1 2 3 4 5 6 
#
# 1 0.016493 -0.009024 -0.002967 0.000000 0.000000 0.000000
# 2 -0.009024 0.013518 0.000863 0.000000 0.000000 0.000000
# 3 -0.002967 0.000863 0.006252 0.000000 0.000000 0.000000
# 4 0.000000 0.000000 0.000000 0.030605 0.000000 0.000000
# 5 0.000000 0.000000 0.000000 0.000000 0.032950 0.000000
# 6 0.000000 0.000000 0.000000 0.000000 0.000000 0.016979
#
#
# Mechanical properties :
#
#
# Convention : Reuss Voigt Hill
#
# Bulk Modulus (GPa) = 71.39692 71.84093 71.61892
# Shear Modulus (GPa) = 34.78930 42.79777 38.79353
#
# Velocity S-wave (km/s) = 3.64957 4.04790 3.85388
# Velocity P-wave (km/s) = 6.71521 7.02511 6.87191
#
# Compressibility (1/GPa) = 0.01400621
#
# Stress axis : x y z
#
# Youngs Moduli (GPa) = 60.63160 73.97455 159.95770
#
# Poissons Ratio (x) = 0.66757 0.47458
# Poissons Ratio (y) = 0.54716 -0.13803
# Poissons Ratio (z) = 0.17989 -0.06384
#
# Static dielectric constant tensor:
#      x y z
#    x 2.097260 0.000000 0.000000 
#    y 0.000000 2.309180 0.000000 
#    z 0.000000 0.000000 2.094630 
# 
# From -- ./inp_files/107.got.cif
#   From: 2010.05.17/outbox.cif.g08.bks.cpg/sg29_1_cif.got.tgz:107.got - 2010.06.04 01:19:37.
