data_PCOD9340264
_publ_section_title
;
Structure prediction by ZEFSAII (Michael W. Deem and Ramdas Pophale) SiO2 
 PCOD9340264
Probable space group: P C A 21
;
_chemical_formula_sum "Si O2"
_cell_formula_units_Z 28
_cell_length_a 17.602645
_cell_length_b 6.462731
_cell_length_c 11.646018
_cell_angle_alpha 90.000000
_cell_angle_beta 90.000000
_cell_angle_gamma 90.000000
_cell_volume 1324.864512
_symmetry_space_group_name_H-M "P C A 21"
_symmetry_group_IT_number 29
_symmetry_cell_setting 'orthorhombic'
loop_
_space_group_symop_operation_xyz
x,y,z
-x,-y,1/2+z
1/2-x,y,1/2+z
1/2+x,-y,z
loop_
_atom_site_type_symbol
_atom_site_label
_atom_site_fract_x
_atom_site_fract_y
_atom_site_fract_z
Si Si1 0.886576 0.735342 0.415070
Si Si2 0.281660 0.190056 0.985402
Si Si3 0.374738 0.452885 0.171562
Si Si4 0.397301 0.428850 0.843141
Si Si5 0.550494 0.432500 0.101122
Si Si6 0.986024 0.100634 0.445576
Si Si7 0.121237 0.811191 0.517421
O O1 0.807576 0.789073 0.475189
O O2 0.868750 0.598037 0.304269
O O3 0.935609 0.609435 0.507495
O O4 0.934914 0.936518 0.377981
O O5 0.323207 0.296996 0.876249
O O6 0.318982 0.310614 0.094341
O O7 0.307235 0.952919 0.988326
O O8 0.462149 0.412619 0.135249
O O9 0.364086 0.691188 0.135716
O O10 0.403951 0.508709 0.714403
O O11 0.468415 0.275771 0.873308
O O12 0.394237 0.629915 0.925030
O O13 0.567151 0.217962 0.036970
O O14 0.050628 0.968455 0.511458
#
# Coordination Sequence:
#
# PCOD9340264 Si02
#       7
#     4   4   4   4   4   4   4
#     4  12  28  43  69 111 143 183 249 292 365 434
#     4  10  25  46  67  98 143 192 231 301 367 427
#     4  11  23  45  72 100 142 185 233 302 354 421
#     4  10  23  43  71  95 142 181 236 299 355 416
#     4  12  23  43  72 108 134 183 238 306 341 425
#     4  11  21  43  69 107 133 178 242 292 354 426
#     4  10  19  47  70  95 133 188 235 284 366 417
#
# _framework density 21.134236000000001
#
# number of rings (size 3 to 8) (size 9 to 14) (size 15 to 20)
#    0.000    1.143    5.714    1.714    2.000    8.000 
#    2.571    0.000    0.000    0.000    0.000    0.000 
#    0.000    0.000    0.000    0.000    0.000    0.000 
#
# Total GULP energy -156441.256289 kJ/mol
# GULP energy per Si atom -5587.187725 kJ/mol
# Density = 2.108613 g / cm^3
# Si number density = 21.134236 Si / 1000 Ang^3
#
#
#
# Elastic Constant Matrix: (Units=GPa)
#
#
# Indices 1 2 3 4 5 6 
#
# 1 75.7674 13.7738 -0.5059 0.0000 0.0000 0.0000
# 2 13.7738 117.3814 31.1639 0.0000 0.0000 0.0000
# 3 -0.5059 31.1639 84.0176 0.0000 0.0000 0.0000
# 4 0.0000 0.0000 0.0000 28.2881 0.0000 0.0000
# 5 0.0000 0.0000 0.0000 0.0000 18.8336 0.0000
# 6 0.0000 0.0000 0.0000 0.0000 0.0000 19.0945
#
#
#
# Elastic Compliance Matrix: (Units=1/GPa)
#
#
# Indices 1 2 3 4 5 6 
#
# 1 0.013528 -0.001785 0.000743 0.000000 0.000000 0.000000
# 2 -0.001785 0.009685 -0.003603 0.000000 0.000000 0.000000
# 3 0.000743 -0.003603 0.013243 0.000000 0.000000 0.000000
# 4 0.000000 0.000000 0.000000 0.035351 0.000000 0.000000
# 5 0.000000 0.000000 0.000000 0.000000 0.053097 0.000000
# 6 0.000000 0.000000 0.000000 0.000000 0.000000 0.052371
#
#
# Mechanical properties :
#
#
# Convention : Reuss Voigt Hill
#
# Bulk Modulus (GPa) = 36.80906 40.66998 38.73952
# Shear Modulus (GPa) = 25.55984 28.75887 27.15936
#
# Velocity S-wave (km/s) = 3.48142 3.69287 3.58870
# Velocity P-wave (km/s) = 5.79784 6.12115 5.96169
#
# Compressibility (1/GPa) = 0.02716723
#
# Stress axis : x y z
#
# Youngs Moduli (GPa) = 73.92233 103.24927 75.51012
#
# Poissons Ratio (x) = 0.18428 -0.05614
# Poissons Ratio (y) = 0.13193 0.27208
# Poissons Ratio (z) = -0.05496 0.37203
#
# Static dielectric constant tensor:
#      x y z
#    x 1.749460 0.000000 0.000000 
#    y 0.000000 1.771320 0.000000 
#    z 0.000000 0.000000 1.771950 
# 
# From -- ./inp_files/3795.got.cif
#   From: 2010.05.17/outbox.cif.g08.bks.cpg/sg29_2_cif.got.tgz:3795.got - 2010.06.04 01:19:37.
