data_PCOD9340119
_publ_section_title
;
Structure prediction by ZEFSAII (Michael W. Deem and Ramdas Pophale) SiO2 
 PCOD9340119
Probable space group: P C A 21
;
_chemical_formula_sum "Si O2"
_cell_formula_units_Z 32
_cell_length_a 8.569425
_cell_length_b 21.673865
_cell_length_c 7.475436
_cell_angle_alpha 90.000000
_cell_angle_beta 90.000000
_cell_angle_gamma 90.000000
_cell_volume 1388.431870
_symmetry_space_group_name_H-M "P C A 21"
_symmetry_group_IT_number 29
_symmetry_cell_setting 'orthorhombic'
loop_
_space_group_symop_operation_xyz
x,y,z
-x,-y,1/2+z
1/2-x,y,1/2+z
1/2+x,-y,z
loop_
_atom_site_type_symbol
_atom_site_label
_atom_site_fract_x
_atom_site_fract_y
_atom_site_fract_z
Si Si1 0.517908 0.201251 0.752470
Si Si2 0.969289 0.572776 0.137184
Si Si3 0.897030 0.309374 0.749496
Si Si4 0.877821 0.551169 0.544049
Si Si5 0.126480 0.817463 0.344264
Si Si6 0.036382 0.668822 0.668474
Si Si7 0.164488 0.948842 0.419450
Si Si8 0.501118 0.931624 0.303186
O O1 0.687737 0.196192 0.846442
O O2 0.558052 0.191943 0.541878
O O3 0.453366 0.271148 0.757977
O O4 0.433513 0.138373 0.813267
O O5 0.943093 0.562940 0.347828
O O6 0.805384 0.561729 0.044856
O O7 0.022514 0.642922 0.116487
O O8 0.090163 0.520082 0.085333
O O9 0.932387 0.237254 0.716266
O O10 0.714096 0.326623 0.737345
O O11 0.950454 0.319520 0.954143
O O12 0.958751 0.601211 0.677265
O O13 0.107063 0.889414 0.304300
O O14 0.350710 0.941129 0.430593
O O15 0.077427 0.942016 0.608558
O O16 0.124268 0.015193 0.340453
#
# Coordination Sequence:
#
# PCOD9340119 Si02
#       8
#     4   4   4   4   4   4   4   4
#     4   8  15  29  49  72  98 129 166 207 250 299
#     4  11  23  38  56  78 106 138 172 210 252 300
#     4   9  18  33  54  78 102 130 166 208 253 301
#     4  11  23  38  56  78 106 138 172 210 252 300
#     4   8  15  29  49  72  98 129 166 207 250 299
#     4   9  18  33  54  78 102 130 166 208 253 301
#     4  10  19  32  51  74 102 135 172 213 256 304
#     4  10  19  32  51  74 102 135 172 213 256 304
#
# _framework density 23.047585000000002
#
# number of rings (size 3 to 8) (size 9 to 14) (size 15 to 20)
#    0.000    2.500    0.000    2.250    0.000    5.000 
#    0.000    1.250    0.000    3.000    0.000    0.000 
#    0.000    0.000    0.000    0.000    0.000    0.000 
#
# Total GULP energy -178577.792048 kJ/mol
# GULP energy per Si atom -5580.556002 kJ/mol
# Density = 2.299513 g / cm^3
# Si number density = 23.047585 Si / 1000 Ang^3
#
#
#
# Elastic Constant Matrix: (Units=GPa)
#
#
# Indices 1 2 3 4 5 6 
#
# 1 17.1289 2.1995 -3.4464 0.0000 0.0000 0.0000
# 2 2.1995 114.0659 20.9634 0.0000 0.0000 0.0000
# 3 -3.4464 20.9634 49.0096 0.0000 0.0000 0.0000
# 4 0.0000 0.0000 0.0000 22.4719 0.0000 0.0000
# 5 0.0000 0.0000 0.0000 0.0000 22.1469 0.0000
# 6 0.0000 0.0000 0.0000 0.0000 0.0000 -28.9215
#
#
#
# Elastic Compliance Matrix: (Units=1/GPa)
#
#
# Indices 1 2 3 4 5 6 
#
# 1 0.059672 -0.002086 0.005088 0.000000 0.000000 0.000000
# 2 -0.002086 0.009588 -0.004248 0.000000 0.000000 0.000000
# 3 0.005088 -0.004248 0.022579 0.000000 0.000000 0.000000
# 4 0.000000 0.000000 0.000000 0.044500 0.000000 0.000000
# 5 0.000000 0.000000 0.000000 0.000000 0.045153 0.000000
# 6 0.000000 0.000000 0.000000 0.000000 0.000000 -0.034576
#
#
# Mechanical properties :
#
#
# Convention : Reuss Voigt Hill
#
# Bulk Modulus (GPa) = 11.19210 24.40418 17.79814
# Shear Modulus (GPa) = 27.90347 13.83864 20.87106
#
# Velocity S-wave (km/s) = 3.48327 2.45304 3.01252
# Velocity P-wave (km/s) = 4.58740 4.31681 4.45416
#
# Compressibility (1/GPa) = 0.08934875
#
# Stress axis : x y z
#
# Youngs Moduli (GPa) = 16.75815 104.29978 44.28909
#
# Poissons Ratio (x) = 0.21755 -0.22536
# Poissons Ratio (y) = 0.03495 0.18813
# Poissons Ratio (z) = -0.08527 0.44304
#
# Static dielectric constant tensor:
#      x y z
#    x 1.817830 0.000000 0.000000 
#    y 0.000000 1.953970 0.000000 
#    z 0.000000 0.000000 1.899380 
# 
# From -- ./inp_files/1252.got.cif
#   From: 2010.05.17/outbox.cif.g08.bks.cpg/sg29_1_cif.got.tgz:1252.got - 2010.06.04 01:19:37.
