data_PCOD9340321
_publ_section_title
;
Structure prediction by ZEFSAII (Michael W. Deem and Ramdas Pophale) SiO2 
 PCOD9340321
Probable space group: P C A 21
;
_chemical_formula_sum "Si O2"
_cell_formula_units_Z 28
_cell_length_a 7.876466
_cell_length_b 16.032752
_cell_length_c 8.532428
_cell_angle_alpha 90.000000
_cell_angle_beta 90.000000
_cell_angle_gamma 90.000000
_cell_volume 1077.487175
_symmetry_space_group_name_H-M "P C A 21"
_symmetry_group_IT_number 29
_symmetry_cell_setting 'orthorhombic'
loop_
_space_group_symop_operation_xyz
x,y,z
-x,-y,1/2+z
1/2-x,y,1/2+z
1/2+x,-y,z
loop_
_atom_site_type_symbol
_atom_site_label
_atom_site_fract_x
_atom_site_fract_y
_atom_site_fract_z
Si Si1 0.378420 0.077561 0.083030
Si Si2 0.933369 0.170882 0.355960
Si Si3 0.136788 0.429742 0.576060
Si Si4 0.803619 0.272372 0.085053
Si Si5 0.180067 0.973026 0.292050
Si Si6 0.045351 0.438785 0.292031
Si Si7 0.851846 0.396078 0.818618
O O1 0.539887 0.077142 0.196998
O O2 0.221372 0.057570 0.194774
O O3 0.403595 0.154458 0.965381
O O4 0.375322 0.998382 0.965364
O O5 0.934658 0.228521 0.202753
O O6 0.789458 0.208999 0.470189
O O7 0.849986 0.082266 0.304828
O O8 0.092914 0.369264 0.434234
O O9 0.314030 0.422144 0.659744
O O10 0.120670 0.503170 0.438215
O O11 0.154528 0.575654 0.786698
O O12 0.659609 0.318042 0.189028
O O13 0.887354 0.341876 0.973573
O O14 0.005298 0.550442 0.208318
#
# Coordination Sequence:
#
# PCOD9340321 Si02
#       7
#     4   4   4   4   4   4   4
#     4  12  22  38  60  96 124 152 201 253 321 361
#     4  11  21  36  63  89 114 158 202 246 294 355
#     4  10  21  34  59  89 121 146 193 243 314 342
#     4  10  20  39  57  86 117 161 207 235 273 368
#     4  12  22  38  62  95 123 155 195 263 318 358
#     4  10  20  36  58  93 114 149 188 251 304 349
#     4   9  22  35  59  86 117 153 200 239 288 345
#
# _framework density 25.986391000000001
#
# number of rings (size 3 to 8) (size 9 to 14) (size 15 to 20)
#    0.857    0.571    4.286    1.714    2.000    0.000 
#    0.000    0.000    0.000    5.143    0.000    0.000 
#    0.000    0.000    0.000    0.000    0.000    0.000 
#
# Total GULP energy -156045.128164 kJ/mol
# GULP energy per Si atom -5573.040292 kJ/mol
# Density = 2.592724 g / cm^3
# Si number density = 25.986391 Si / 1000 Ang^3
#
#
#
# Elastic Constant Matrix: (Units=GPa)
#
#
# Indices 1 2 3 4 5 6 
#
# 1 120.8542 8.3285 69.8249 0.0000 0.0000 0.0000
# 2 8.3285 63.3485 20.9651 0.0000 0.0000 0.0000
# 3 69.8249 20.9651 193.1020 0.0000 0.0000 0.0000
# 4 0.0000 0.0000 0.0000 47.6801 0.0000 0.0000
# 5 0.0000 0.0000 0.0000 0.0000 59.1481 0.0000
# 6 0.0000 0.0000 0.0000 0.0000 0.0000 30.6103
#
#
#
# Elastic Compliance Matrix: (Units=1/GPa)
#
#
# Indices 1 2 3 4 5 6 
#
# 1 0.010461 -0.000128 -0.003769 0.000000 0.000000 0.000000
# 2 -0.000128 0.016376 -0.001732 0.000000 0.000000 0.000000
# 3 -0.003769 -0.001732 0.006729 0.000000 0.000000 0.000000
# 4 0.000000 0.000000 0.000000 0.020973 0.000000 0.000000
# 5 0.000000 0.000000 0.000000 0.000000 0.016907 0.000000
# 6 0.000000 0.000000 0.000000 0.000000 0.000000 0.032669
#
#
# Mechanical properties :
#
#
# Convention : Reuss Voigt Hill
#
# Bulk Modulus (GPa) = 44.82490 63.94907 54.38698
# Shear Modulus (GPa) = 40.71429 46.03344 43.37387
#
# Velocity S-wave (km/s) = 3.96252 4.21342 4.08989
# Velocity P-wave (km/s) = 6.18241 6.95217 6.57856
#
# Compressibility (1/GPa) = 0.02230903
#
# Stress axis : x y z
#
# Youngs Moduli (GPa) = 95.59671 61.06642 148.60332
#
# Poissons Ratio (x) = 0.00782 0.56003
# Poissons Ratio (y) = 0.01224 0.25732
# Poissons Ratio (z) = 0.36027 0.10574
#
# Static dielectric constant tensor:
#      x y z
#    x 1.940840 0.000000 0.000000 
#    y 0.000000 2.203180 0.000000 
#    z 0.000000 0.000000 2.024990 
# 
# From -- ./inp_files/1240.got.cif
#   From: 2010.05.17/outbox.cif.g08.bks.cpg/sg29_1_cif.got.tgz:1240.got - 2010.06.04 01:19:37.
