data_PCOD9340530
_publ_section_title
;
Structure prediction by ZEFSAII (Michael W. Deem and Ramdas Pophale) SiO2 
 PCOD9340530
Probable space group: P C A 21
;
_chemical_formula_sum "Si O2"
_cell_formula_units_Z 32
_cell_length_a 12.107056
_cell_length_b 7.949680
_cell_length_c 14.345505
_cell_angle_alpha 90.000000
_cell_angle_beta 90.000000
_cell_angle_gamma 90.000000
_cell_volume 1380.714989
_symmetry_space_group_name_H-M "P C A 21"
_symmetry_group_IT_number 29
_symmetry_cell_setting 'orthorhombic'
loop_
_space_group_symop_operation_xyz
x,y,z
-x,-y,1/2+z
1/2-x,y,1/2+z
1/2+x,-y,z
loop_
_atom_site_type_symbol
_atom_site_label
_atom_site_fract_x
_atom_site_fract_y
_atom_site_fract_z
Si Si1 0.283144 0.716373 0.483240
Si Si2 0.120317 0.441375 0.477300
Si Si3 0.283142 0.783631 0.194501
Si Si4 0.995918 0.861479 0.041129
Si Si5 0.620314 0.941374 0.200442
Si Si6 0.495921 0.361479 0.636613
Si Si7 0.911427 0.089161 0.889197
Si Si8 0.411429 0.589161 0.788545
O O1 0.241890 0.525883 0.470406
O O2 0.250000 0.750005 0.588870
O O3 0.410914 0.759107 0.483147
O O4 0.209746 0.842821 0.420770
O O5 0.107446 0.265141 0.530605
O O6 0.045472 0.573534 0.538698
O O7 0.087823 0.447974 0.368511
O O8 0.410911 0.740895 0.194595
O O9 0.209743 0.657180 0.256968
O O10 0.241887 0.974120 0.207337
O O11 0.968497 0.026690 0.982152
O O12 0.045469 0.926466 0.139045
O O13 0.607443 0.765140 0.147138
O O14 0.587820 0.947974 0.309232
O O15 0.468502 0.526690 0.695592
O O16 0.964831 0.250000 0.838872
#
# Coordination Sequence:
#
# PCOD9340530 Si02
#       8
#     4   4   4   4   4   4   4   4
#     4   9  20  39  59  83 119 161 203 255 309 366
#     4  10  21  36  60  90 119 159 209 254 303 373
#     4   9  20  39  59  83 119 161 203 255 309 366
#     4  11  21  41  64  87 126 169 201 257 323 366
#     4  10  21  36  60  90 119 159 209 254 303 373
#     4  11  21  41  64  87 126 169 201 257 323 366
#     4  10  21  38  59  90 123 155 209 260 303 375
#     4  10  21  38  59  90 123 155 209 260 303 375
#
# _framework density 23.176397999999999
#
# number of rings (size 3 to 8) (size 9 to 14) (size 15 to 20)
#    0.000    2.000    0.000    5.250    0.000    6.000 
#    0.000   18.750    0.000    0.000    0.000    0.000 
#    0.000    0.000    0.000    0.000    0.000    0.000 
#
# Total GULP energy -178302.045529 kJ/mol
# GULP energy per Si atom -5571.938923 kJ/mol
# Density = 2.312365 g / cm^3
# Si number density = 23.176398 Si / 1000 Ang^3
#
#
#
# Elastic Constant Matrix: (Units=GPa)
#
#
# Indices 1 2 3 4 5 6 
#
# 1 58.4906 10.1580 6.8337 0.0000 0.0000 0.0000
# 2 10.1580 88.7650 7.8637 0.0000 0.0000 0.0000
# 3 6.8337 7.8637 113.2735 0.0000 0.0000 0.0000
# 4 0.0000 0.0000 0.0000 46.0834 0.0000 0.0000
# 5 0.0000 0.0000 0.0000 0.0000 33.4791 0.0000
# 6 0.0000 0.0000 0.0000 0.0000 0.0000 22.0938
#
#
#
# Elastic Compliance Matrix: (Units=1/GPa)
#
#
# Indices 1 2 3 4 5 6 
#
# 1 0.017539 -0.001925 -0.000924 0.000000 0.000000 0.000000
# 2 -0.001925 0.011547 -0.000685 0.000000 0.000000 0.000000
# 3 -0.000924 -0.000685 0.008932 0.000000 0.000000 0.000000
# 4 0.000000 0.000000 0.000000 0.021700 0.000000 0.000000
# 5 0.000000 0.000000 0.000000 0.000000 0.029869 0.000000
# 6 0.000000 0.000000 0.000000 0.000000 0.000000 0.045262
#
#
# Mechanical properties :
#
#
# Convention : Reuss Voigt Hill
#
# Bulk Modulus (GPa) = 32.31321 34.47112 33.39216
# Shear Modulus (GPa) = 32.84415 36.04284 34.44350
#
# Velocity S-wave (km/s) = 3.76857 3.94782 3.85924
# Velocity P-wave (km/s) = 5.73661 5.97378 5.85640
#
# Compressibility (1/GPa) = 0.03094710
#
# Stress axis : x y z
#
# Youngs Moduli (GPa) = 57.01542 86.60446 111.96262
#
# Poissons Ratio (x) = 0.16673 0.10351
# Poissons Ratio (y) = 0.10977 0.07675
# Poissons Ratio (z) = 0.05271 0.05936
#
# Static dielectric constant tensor:
#      x y z
#    x 1.942200 0.000000 0.000000 
#    y 0.000000 1.966170 0.000000 
#    z 0.000000 0.000000 1.886210 
# 
# From -- ./inp_files/4564.got.cif
#   From: 2010.05.17/outbox.cif.g08.bks.cpg/sg29_3_cif.got.tgz:4564.got - 2010.06.04 01:19:37.
