data_PCOD9340856
_publ_section_title
;
Structure prediction by ZEFSAII (Michael W. Deem and Ramdas Pophale) SiO2 
 PCOD9340856
Probable space group: P C A 21
;
_chemical_formula_sum "Si O2"
_cell_formula_units_Z 24
_cell_length_a 15.401239
_cell_length_b 14.468086
_cell_length_c 4.968325
_cell_angle_alpha 90.000000
_cell_angle_beta 90.000000
_cell_angle_gamma 90.000000
_cell_volume 1107.074224
_symmetry_space_group_name_H-M "P C A 21"
_symmetry_group_IT_number 29
_symmetry_cell_setting 'orthorhombic'
loop_
_space_group_symop_operation_xyz
x,y,z
-x,-y,1/2+z
1/2-x,y,1/2+z
1/2+x,-y,z
loop_
_atom_site_type_symbol
_atom_site_label
_atom_site_fract_x
_atom_site_fract_y
_atom_site_fract_z
Si Si1 0.804602 0.744990 0.634500
Si Si2 0.101007 0.566586 0.763399
Si Si3 0.805097 0.239282 0.217498
Si Si4 0.103621 0.442888 0.257755
Si Si5 0.556689 0.894266 0.003802
Si Si6 0.937415 0.099311 0.495931
O O1 0.722600 0.762674 0.441735
O O2 0.837466 0.639679 0.649948
O O3 0.878780 0.809009 0.509462
O O4 0.158211 0.656839 0.724579
O O5 0.120664 0.483183 0.554865
O O6 0.997755 0.587319 0.736183
O O7 0.115207 0.529341 0.061661
O O8 0.721190 0.224023 0.408505
O O9 0.874833 0.173233 0.359369
O O10 0.520992 0.900081 0.305067
O O11 0.599585 0.995217 0.962000
O O12 0.476831 0.883249 0.792937
#
# Coordination Sequence:
#
# PCOD9340856 Si02
#       6
#     4   4   4   4   4   4
#     4  12  25  38  60  93 126 158 194 250 314 364
#     4  10  22  40  61  84 115 160 209 251 294 356
#     4  12  25  38  60  93 126 158 194 250 314 364
#     4  10  22  40  61  84 115 160 209 251 294 356
#     4  10  22  42  66  89 119 163 210 252 297 361
#     4  10  22  42  66  89 119 163 210 252 297 361
#
# _framework density 21.678764999999999
#
# number of rings (size 3 to 8) (size 9 to 14) (size 15 to 20)
#    0.000    1.333    0.000    5.000    0.000    9.333 
#    0.000    0.000    0.000    0.000    0.000    0.000 
#    0.000    0.000    0.000    0.000    0.000    0.000 
#
# Total GULP energy -134022.742887 kJ/mol
# GULP energy per Si atom -5584.280954 kJ/mol
# Density = 2.162942 g / cm^3
# Si number density = 21.678765 Si / 1000 Ang^3
#
#
#
# Elastic Constant Matrix: (Units=GPa)
#
#
# Indices 1 2 3 4 5 6 
#
# 1 30.5727 36.1723 3.4866 0.0000 0.0000 0.0000
# 2 36.1723 72.6952 -1.9401 0.0000 0.0000 0.0000
# 3 3.4866 -1.9401 89.7327 0.0000 0.0000 0.0000
# 4 0.0000 0.0000 0.0000 53.4295 0.0000 0.0000
# 5 0.0000 0.0000 0.0000 0.0000 30.2470 0.0000
# 6 0.0000 0.0000 0.0000 0.0000 0.0000 44.0015
#
#
#
# Elastic Compliance Matrix: (Units=1/GPa)
#
#
# Indices 1 2 3 4 5 6 
#
# 1 0.080953 -0.040389 -0.004019 0.000000 0.000000 0.000000
# 2 -0.040389 0.033914 0.002303 0.000000 0.000000 0.000000
# 3 -0.004019 0.002303 0.011350 0.000000 0.000000 0.000000
# 4 0.000000 0.000000 0.000000 0.018716 0.000000 0.000000
# 5 0.000000 0.000000 0.000000 0.000000 0.033061 0.000000
# 6 0.000000 0.000000 0.000000 0.000000 0.000000 0.022727
#
#
# Mechanical properties :
#
#
# Convention : Reuss Voigt Hill
#
# Bulk Modulus (GPa) = 23.80483 29.82648 26.81565
# Shear Modulus (GPa) = 16.72609 35.88772 26.30690
#
# Velocity S-wave (km/s) = 2.78068 4.07311 3.48729
# Velocity P-wave (km/s) = 4.61672 5.99238 5.34896
#
# Compressibility (1/GPa) = 0.04200829
#
# Stress axis : x y z
#
# Youngs Moduli (GPa) = 12.35279 29.48595 88.10461
#
# Poissons Ratio (x) = 1.19090 0.35407
# Poissons Ratio (y) = 0.49891 -0.20287
# Poissons Ratio (z) = 0.04964 -0.06789
#
# Static dielectric constant tensor:
#      x y z
#    x 1.806100 0.000000 0.000000 
#    y 0.000000 1.788310 0.000000 
#    z 0.000000 0.000000 1.737830 
# 
# From -- ./inp_files/177.got.cif
#   From: 2010.05.17/outbox.cif.g08.bks.cpg/sg29_1_cif.got.tgz:177.got - 2010.06.04 01:19:37.
