data_PCOD9340237
_publ_section_title
;
Structure prediction by ZEFSAII (Michael W. Deem and Ramdas Pophale) SiO2 
 PCOD9340237
Probable space group: P C A 21
;
_chemical_formula_sum "Si O2"
_cell_formula_units_Z 28
_cell_length_a 5.181609
_cell_length_b 13.037024
_cell_length_c 18.164818
_cell_angle_alpha 90.000000
_cell_angle_beta 90.000000
_cell_angle_gamma 90.000000
_cell_volume 1227.083607
_symmetry_space_group_name_H-M "P C A 21"
_symmetry_group_IT_number 29
_symmetry_cell_setting 'orthorhombic'
loop_
_space_group_symop_operation_xyz
x,y,z
-x,-y,1/2+z
1/2-x,y,1/2+z
1/2+x,-y,z
loop_
_atom_site_type_symbol
_atom_site_label
_atom_site_fract_x
_atom_site_fract_y
_atom_site_fract_z
Si Si1 0.655724 0.770419 0.371810
Si Si2 0.513116 0.397176 0.546770
Si Si3 0.830759 0.229134 0.778375
Si Si4 0.008872 0.376238 0.485966
Si Si5 0.870157 0.442123 0.215783
Si Si6 0.477670 0.063323 0.991066
Si Si7 0.964287 0.935609 0.165093
O O1 0.437298 0.807529 0.314735
O O2 0.585989 0.658447 0.405025
O O3 0.618860 0.843476 0.441786
O O4 0.938709 0.768784 0.337662
O O5 0.732280 0.330920 0.507705
O O6 0.471866 0.502079 0.499979
O O7 0.612692 0.426819 0.627199
O O8 0.234809 0.345670 0.542803
O O9 0.751132 0.340465 0.748970
O O10 0.940621 0.159746 0.712831
O O11 0.664453 0.530744 0.235574
O O12 0.470005 0.086341 0.078001
O O13 0.768726 0.026604 0.975204
O O14 0.176272 0.024452 0.181207
#
# Coordination Sequence:
#
# PCOD9340237 Si02
#       7
#     4   4   4   4   4   4   4
#     4  12  26  45  64 103 141 182 229 279 352 426
#     4  10  19  39  65  93 117 165 231 272 336 373
#     4  12  28  45  66 104 144 188 229 275 364 432
#     4  10  20  38  62  92 124 162 224 276 318 398
#     4  12  23  45  67  95 136 180 236 283 339 409
#     4  10  23  44  71 103 133 173 229 290 343 404
#     4  10  23  46  73 104 135 176 232 291 346 410
#
# _framework density 22.818332000000002
#
# number of rings (size 3 to 8) (size 9 to 14) (size 15 to 20)
#    0.000    1.143    2.857    3.429    2.000    3.429 
#   20.571    0.000    0.000    0.000    0.000    0.000 
#    0.000    0.000    0.000    0.000    0.000    0.000 
#
# Total GULP energy -156445.207925 kJ/mol
# GULP energy per Si atom -5587.328854 kJ/mol
# Density = 2.276640 g / cm^3
# Si number density = 22.818332 Si / 1000 Ang^3
#
#
#
# Elastic Constant Matrix: (Units=GPa)
#
#
# Indices 1 2 3 4 5 6 
#
# 1 115.3804 -5.0977 15.6498 0.0000 0.0000 0.0000
# 2 -5.0977 53.1950 42.2208 0.0000 0.0000 0.0000
# 3 15.6498 42.2208 63.9409 0.0000 0.0000 0.0000
# 4 0.0000 0.0000 0.0000 479.8107 0.0000 0.0000
# 5 0.0000 0.0000 0.0000 0.0000 36.1889 0.0000
# 6 0.0000 0.0000 0.0000 0.0000 0.0000 28.2430
#
#
#
# Elastic Compliance Matrix: (Units=1/GPa)
#
#
# Indices 1 2 3 4 5 6 
#
# 1 0.009790 0.005968 -0.006337 0.000000 0.000000 0.000000
# 2 0.005968 0.043138 -0.029945 0.000000 0.000000 0.000000
# 3 -0.006337 -0.029945 0.036963 0.000000 0.000000 0.000000
# 4 0.000000 0.000000 0.000000 0.002084 0.000000 0.000000
# 5 0.000000 0.000000 0.000000 0.000000 0.027633 0.000000
# 6 0.000000 0.000000 0.000000 0.000000 0.000000 0.035407
#
#
# Mechanical properties :
#
#
# Convention : Reuss Voigt Hill
#
# Bulk Modulus (GPa) = 34.17252 37.56248 35.86750
# Shear Modulus (GPa) = 22.18296 120.83139 71.50718
#
# Velocity S-wave (km/s) = 3.12132 7.28482 5.60407
# Velocity P-wave (km/s) = 5.29137 9.34106 7.59125
#
# Compressibility (1/GPa) = 0.02926328
#
# Stress axis : x y z
#
# Youngs Moduli (GPa) = 102.14383 23.18140 27.05379
#
# Poissons Ratio (x) = -0.13834 0.17143
# Poissons Ratio (y) = -0.60955 0.81013
# Poissons Ratio (z) = 0.64725 0.69417
#
# Static dielectric constant tensor:
#      x y z
#    x 1.904620 0.000000 0.000000 
#    y 0.000000 -2.308410 0.000000 
#    z 0.000000 0.000000 1.835910 
# 
# From -- ./inp_files/4890.got.cif
#   From: 2010.05.17/outbox.cif.g08.bks.cpg/sg29_3_cif.got.tgz:4890.got - 2010.06.04 01:19:37.
