data_PCOD9340870
_publ_section_title
;
Structure prediction by ZEFSAII (Michael W. Deem and Ramdas Pophale) SiO2 
 PCOD9340870
Probable space group: P C A 21
;
_chemical_formula_sum "Si O2"
_cell_formula_units_Z 20
_cell_length_a 18.174637
_cell_length_b 7.326345
_cell_length_c 5.496887
_cell_angle_alpha 90.000000
_cell_angle_beta 90.000000
_cell_angle_gamma 90.000000
_cell_volume 731.930628
_symmetry_space_group_name_H-M "P C A 21"
_symmetry_group_IT_number 29
_symmetry_cell_setting 'orthorhombic'
loop_
_space_group_symop_operation_xyz
x,y,z
-x,-y,1/2+z
1/2-x,y,1/2+z
1/2+x,-y,z
loop_
_atom_site_type_symbol
_atom_site_label
_atom_site_fract_x
_atom_site_fract_y
_atom_site_fract_z
Si Si1 0.582688 0.176541 0.530760
Si Si2 0.038349 0.459757 0.538368
Si Si3 0.716197 0.236473 0.797922
Si Si4 0.773955 0.655863 0.725665
Si Si5 0.920597 0.842163 0.739760
O O1 0.597886 0.388088 0.460763
O O2 0.632685 0.166206 0.769030
O O3 0.495927 0.155439 0.586239
O O4 0.602881 0.042438 0.315574
O O5 0.058649 0.252210 0.499925
O O6 0.018860 0.505014 0.815587
O O7 0.752443 0.167939 0.549679
O O8 0.736543 0.455629 0.782290
O O9 0.729545 0.737354 0.498182
O O10 0.857862 0.704861 0.644396
#
# Coordination Sequence:
#
# PCOD9340870 Si02
#       5
#     4   4   4   4   4
#     4  11  25  44  73 109 147 189 245 307 367 433
#     4  10  22  40  64  96 138 182 228 292 362 426
#     4  10  23  44  69 101 143 191 241 291 357 436
#     4  10  23  44  69 101 143 191 241 291 357 436
#     4  11  25  44  73 109 147 189 245 307 367 433
#
# _framework density 27.324995000000001
#
# number of rings (size 3 to 8) (size 9 to 14) (size 15 to 20)
#    0.000    1.600    0.000    3.600    0.000   24.000 
#    0.000    0.000    0.000    0.000    0.000    0.000 
#    0.000    0.000    0.000    0.000    0.000    0.000 
#
# Total GULP energy -111534.429632 kJ/mol
# GULP energy per Si atom -5576.721482 kJ/mol
# Density = 2.726280 g / cm^3
# Si number density = 27.324995 Si / 1000 Ang^3
#
#
#
# Elastic Constant Matrix: (Units=GPa)
#
#
# Indices 1 2 3 4 5 6 
#
# 1 149.9534 25.7734 36.5208 0.0000 0.0000 0.0000
# 2 25.7734 87.6496 26.5104 0.0000 0.0000 0.0000
# 3 36.5208 26.5104 138.8762 0.0000 0.0000 0.0000
# 4 0.0000 0.0000 0.0000 18.3003 0.0000 0.0000
# 5 0.0000 0.0000 0.0000 0.0000 39.0293 0.0000
# 6 0.0000 0.0000 0.0000 0.0000 0.0000 24.3367
#
#
#
# Elastic Compliance Matrix: (Units=1/GPa)
#
#
# Indices 1 2 3 4 5 6 
#
# 1 0.007349 -0.001673 -0.001613 0.000000 0.000000 0.000000
# 2 -0.001673 0.012489 -0.001944 0.000000 0.000000 0.000000
# 3 -0.001613 -0.001944 0.007996 0.000000 0.000000 0.000000
# 4 0.000000 0.000000 0.000000 0.054644 0.000000 0.000000
# 5 0.000000 0.000000 0.000000 0.000000 0.025622 0.000000
# 6 0.000000 0.000000 0.000000 0.000000 0.000000 0.041090
#
#
# Mechanical properties :
#
#
# Convention : Reuss Voigt Hill
#
# Bulk Modulus (GPa) = 57.55930 61.56536 59.56233
# Shear Modulus (GPa) = 30.22203 35.51156 32.86680
#
# Velocity S-wave (km/s) = 3.32930 3.60891 3.47192
# Velocity P-wave (km/s) = 5.99078 6.32023 6.15771
#
# Compressibility (1/GPa) = 0.01737339
#
# Stress axis : x y z
#
# Youngs Moduli (GPa) = 136.06903 80.07016 125.06223
#
# Poissons Ratio (x) = 0.13396 0.20176
# Poissons Ratio (y) = 0.22766 0.24313
# Poissons Ratio (z) = 0.21952 0.15566
#
# Static dielectric constant tensor:
#      x y z
#    x 2.248190 0.000000 0.000000 
#    y 0.000000 2.197570 0.000000 
#    z 0.000000 0.000000 2.171830 
# 
# From -- ./inp_files/339.got.cif
#   From: 2010.05.17/outbox.cif.g08.bks.cpg/sg29_1_cif.got.tgz:339.got - 2010.06.04 01:19:37.
