data_PCOD9340633
_publ_section_title
;
Structure prediction by ZEFSAII (Michael W. Deem and Ramdas Pophale) SiO2 
 PCOD9340633
Probable space group: P C A 21
;
_chemical_formula_sum "Si O2"
_cell_formula_units_Z 28
_cell_length_a 9.678507
_cell_length_b 5.283416
_cell_length_c 20.276102
_cell_angle_alpha 90.000000
_cell_angle_beta 90.000000
_cell_angle_gamma 90.000000
_cell_volume 1036.830210
_symmetry_space_group_name_H-M "P C A 21"
_symmetry_group_IT_number 29
_symmetry_cell_setting 'orthorhombic'
loop_
_space_group_symop_operation_xyz
x,y,z
-x,-y,1/2+z
1/2-x,y,1/2+z
1/2+x,-y,z
loop_
_atom_site_type_symbol
_atom_site_label
_atom_site_fract_x
_atom_site_fract_y
_atom_site_fract_z
Si Si1 0.074344 0.782509 0.539350
Si Si2 0.796434 0.635245 0.419076
Si Si3 0.496141 0.630999 0.805990
Si Si4 0.482697 0.282916 0.955029
Si Si5 0.719574 0.284405 0.765282
Si Si6 0.794610 0.875033 0.565810
Si Si7 0.670972 0.774626 0.694497
O O1 0.039388 0.015301 0.489122
O O2 0.230193 0.842789 0.561789
O O3 0.054512 0.516461 0.504212
O O4 0.950139 0.827190 0.591568
O O5 0.899650 0.739287 0.362662
O O6 0.636634 0.677232 0.400423
O O7 0.798486 0.764637 0.491681
O O8 0.863663 0.357885 0.432451
O O9 0.567524 0.353470 0.793746
O O10 0.340745 0.719705 0.818919
O O11 0.527245 0.747496 0.733125
O O12 0.754802 0.542925 0.726094
O O13 0.722218 0.045164 0.718771
O O14 0.687139 0.751044 0.616706
#
# Coordination Sequence:
#
# PCOD9340633 Si02
#       7
#     4   4   4   4   4   4   4
#     4  10  22  39  62  93 131 164 213 261 330 378
#     4  10  21  44  65 100 128 173 215 276 326 392
#     4  10  24  47  68 101 133 180 225 275 337 401
#     4  10  21  40  60  96 128 167 207 268 323 386
#     4  10  25  44  72  93 136 177 226 277 328 407
#     4  10  23  42  67  97 129 174 215 277 324 394
#     4  10  26  44  68  98 135 175 227 268 342 392
#
# _framework density 27.005385
#
# number of rings (size 3 to 8) (size 9 to 14) (size 15 to 20)
#    0.857    1.143    0.000    1.714    4.000    4.571 
#   25.714    0.000    0.000    0.000    0.000    0.000 
#    0.000    0.000    0.000    0.000    0.000    0.000 
#
# Total GULP energy -156030.482778 kJ/mol
# GULP energy per Si atom -5572.517242 kJ/mol
# Density = 2.694392 g / cm^3
# Si number density = 27.005385 Si / 1000 Ang^3
#
#
#
# Elastic Constant Matrix: (Units=GPa)
#
#
# Indices 1 2 3 4 5 6 
#
# 1 138.1934 33.9223 -1.0055 0.0000 0.0000 0.0000
# 2 33.9223 121.6222 35.1842 0.0000 0.0000 0.0000
# 3 -1.0055 35.1842 80.6227 0.0000 0.0000 0.0000
# 4 0.0000 0.0000 0.0000 34.8857 0.0000 0.0000
# 5 0.0000 0.0000 0.0000 0.0000 24.5916 0.0000
# 6 0.0000 0.0000 0.0000 0.0000 0.0000 32.7863
#
#
#
# Elastic Compliance Matrix: (Units=1/GPa)
#
#
# Indices 1 2 3 4 5 6 
#
# 1 0.007870 -0.002545 0.001209 0.000000 0.000000 0.000000
# 2 -0.002545 0.010233 -0.004497 0.000000 0.000000 0.000000
# 3 0.001209 -0.004497 0.014381 0.000000 0.000000 0.000000
# 4 0.000000 0.000000 0.000000 0.028665 0.000000 0.000000
# 5 0.000000 0.000000 0.000000 0.000000 0.040664 0.000000
# 6 0.000000 0.000000 0.000000 0.000000 0.000000 0.030501
#
#
# Mechanical properties :
#
#
# Convention : Reuss Voigt Hill
#
# Bulk Modulus (GPa) = 48.03769 52.96004 50.49886
# Shear Modulus (GPa) = 33.13021 36.60855 34.86938
#
# Velocity S-wave (km/s) = 3.50637 3.68584 3.59723
# Velocity P-wave (km/s) = 5.84976 6.14552 5.99946
#
# Compressibility (1/GPa) = 0.02081699
#
# Stress axis : x y z
#
# Youngs Moduli (GPa) = 127.07039 97.72312 69.53502
#
# Poissons Ratio (x) = 0.24867 -0.08404
# Poissons Ratio (y) = 0.32335 0.31273
# Poissons Ratio (z) = -0.15358 0.43951
#
# Static dielectric constant tensor:
#      x y z
#    x 2.382140 0.000000 0.000000 
#    y 0.000000 2.164650 0.000000 
#    z 0.000000 0.000000 2.176440 
# 
# From -- ./inp_files/5478.got.cif
#   From: 2010.05.17/outbox.cif.g08.bks.cpg/sg29_3_cif.got.tgz:5478.got - 2010.06.04 01:19:37.
