data_PCOD9340093
_publ_section_title
;
Structure prediction by ZEFSAII (Michael W. Deem and Ramdas Pophale) SiO2 
 PCOD9340093
Probable space group: P C A 21
;
_chemical_formula_sum "Si O2"
_cell_formula_units_Z 28
_cell_length_a 10.449725
_cell_length_b 10.034888
_cell_length_c 11.084504
_cell_angle_alpha 90.000000
_cell_angle_beta 90.000000
_cell_angle_gamma 90.000000
_cell_volume 1162.341263
_symmetry_space_group_name_H-M "P C A 21"
_symmetry_group_IT_number 29
_symmetry_cell_setting 'orthorhombic'
loop_
_space_group_symop_operation_xyz
x,y,z
-x,-y,1/2+z
1/2-x,y,1/2+z
1/2+x,-y,z
loop_
_atom_site_type_symbol
_atom_site_label
_atom_site_fract_x
_atom_site_fract_y
_atom_site_fract_z
Si Si1 0.490236 0.596806 0.538480
Si Si2 0.279490 0.374532 0.479848
Si Si3 0.201569 0.987396 0.681436
Si Si4 0.557208 0.172179 0.873457
Si Si5 0.555483 0.752944 0.769616
Si Si6 0.606953 0.805622 0.166982
Si Si7 0.919407 0.095922 0.961670
O O1 0.391179 0.479066 0.512973
O O2 0.633371 0.573519 0.482745
O O3 0.421543 0.725117 0.479199
O O4 0.514730 0.638334 0.677150
O O5 0.330477 0.298356 0.359651
O O6 0.287004 0.273648 0.593513
O O7 0.102520 0.110558 0.704016
O O8 0.335611 0.054378 0.708940
O O9 0.165932 0.879242 0.782151
O O10 0.204033 0.943942 0.540792
O O11 0.460280 0.251689 0.783719
O O12 0.489367 0.041081 0.926091
O O13 0.437758 0.800179 0.854079
O O14 0.500001 0.836138 0.069099
#
# Coordination Sequence:
#
# PCOD9340093 Si02
#       7
#     4   4   4   4   4   4   4
#     4  12  25  45  70 100 141 188 246 289 352 417
#     4  11  26  43  70  98 138 195 240 291 340 419
#     4  10  18  38  68  99 130 173 221 286 363 432
#     4  10  21  37  66  98 134 172 229 293 354 426
#     4  10  21  40  69  94 139 180 236 288 351 424
#     4  10  20  39  67  93 132 183 231 276 362 428
#     4   9  19  36  62  98 128 169 217 289 356 426
#
# _framework density 24.089310000000001
#
# number of rings (size 3 to 8) (size 9 to 14) (size 15 to 20)
#    0.000    1.714    2.857    0.857    2.000    2.286 
#    0.000   10.000    3.143    0.000    0.000    0.000 
#    0.000    0.000    0.000    0.000    0.000    0.000 
#
# Total GULP energy -156322.087049 kJ/mol
# GULP energy per Si atom -5582.931680 kJ/mol
# Density = 2.403448 g / cm^3
# Si number density = 24.089310 Si / 1000 Ang^3
#
#
#
# Elastic Constant Matrix: (Units=GPa)
#
#
# Indices 1 2 3 4 5 6 
#
# 1 92.3925 51.7203 24.5352 0.0000 0.0000 0.0000
# 2 51.7203 68.1969 37.6775 0.0000 0.0000 0.0000
# 3 24.5352 37.6775 115.8012 0.0000 0.0000 0.0000
# 4 0.0000 0.0000 0.0000 31.5398 0.0000 0.0000
# 5 0.0000 0.0000 0.0000 0.0000 15.8993 0.0000
# 6 0.0000 0.0000 0.0000 0.0000 0.0000 35.9623
#
#
#
# Elastic Compliance Matrix: (Units=1/GPa)
#
#
# Indices 1 2 3 4 5 6 
#
# 1 0.018869 -0.014754 0.000802 0.000000 0.000000 0.000000
# 2 -0.014754 0.029413 -0.006444 0.000000 0.000000 0.000000
# 3 0.000802 -0.006444 0.010562 0.000000 0.000000 0.000000
# 4 0.000000 0.000000 0.000000 0.031706 0.000000 0.000000
# 5 0.000000 0.000000 0.000000 0.000000 0.062896 0.000000
# 6 0.000000 0.000000 0.000000 0.000000 0.000000 0.027807
#
#
# Mechanical properties :
#
#
# Convention : Reuss Voigt Hill
#
# Bulk Modulus (GPa) = 55.39034 56.02850 55.70942
# Shear Modulus (GPa) = 21.92396 27.51080 24.71738
#
# Velocity S-wave (km/s) = 3.02008 3.38306 3.20671
# Velocity P-wave (km/s) = 5.93337 6.21042 6.07347
#
# Compressibility (1/GPa) = 0.01805369
#
# Stress axis : x y z
#
# Youngs Moduli (GPa) = 52.99626 33.99888 94.67821
#
# Poissons Ratio (x) = 0.50161 -0.07597
# Poissons Ratio (y) = 0.78189 0.61010
# Poissons Ratio (z) = -0.04253 0.21909
#
# Static dielectric constant tensor:
#      x y z
#    x 2.040130 0.000000 0.000000 
#    y 0.000000 1.918930 0.000000 
#    z 0.000000 0.000000 1.964420 
# 
# From -- ./inp_files/3186.got.cif
#   From: 2010.05.17/outbox.cif.g08.bks.cpg/sg29_2_cif.got.tgz:3186.got - 2010.06.04 01:19:37.
