data_PCOD9340407
_publ_section_title
;
Structure prediction by ZEFSAII (Michael W. Deem and Ramdas Pophale) SiO2 
 PCOD9340407
Probable space group: P C A 21
;
_chemical_formula_sum "Si O2"
_cell_formula_units_Z 32
_cell_length_a 14.642206
_cell_length_b 11.151319
_cell_length_c 7.961827
_cell_angle_alpha 90.000000
_cell_angle_beta 90.000000
_cell_angle_gamma 90.000000
_cell_volume 1300.006396
_symmetry_space_group_name_H-M "P C A 21"
_symmetry_group_IT_number 29
_symmetry_cell_setting 'orthorhombic'
loop_
_space_group_symop_operation_xyz
x,y,z
-x,-y,1/2+z
1/2-x,y,1/2+z
1/2+x,-y,z
loop_
_atom_site_type_symbol
_atom_site_label
_atom_site_fract_x
_atom_site_fract_y
_atom_site_fract_z
Si Si1 0.212512 0.943527 0.532060
Si Si2 0.893228 0.983486 0.338930
Si Si3 0.557717 0.491668 0.954907
Si Si4 0.172499 0.283850 0.334588
Si Si5 0.022725 0.772709 0.941444
Si Si6 0.162800 0.796078 0.239532
Si Si7 0.366726 0.541079 0.833413
Si Si8 0.868126 0.743052 0.441914
O O1 0.152748 0.021386 0.656324
O O2 0.310273 0.992523 0.470819
O O3 0.156429 0.904064 0.370502
O O4 0.245532 0.826857 0.636528
O O5 0.954136 0.103834 0.345205
O O6 0.932115 0.854305 0.390731
O O7 0.559648 0.357787 0.873808
O O8 0.451869 0.528925 0.957202
O O9 0.602345 0.611578 0.877567
O O10 0.595807 0.476121 0.142851
O O11 0.192646 0.424514 0.367485
O O12 0.268401 0.224288 0.370636
O O13 0.086104 0.244926 0.445671
O O14 0.141042 0.264697 0.143135
O O15 0.076641 0.786779 0.116567
O O16 0.176015 0.671052 0.335103
#
# Coordination Sequence:
#
# PCOD9340407 Si02
#       8
#     4   4   4   4   4   4   4   4
#     4   9  19  34  57  90 122 161 210 263 315 379
#     4  10  20  39  62  87 124 164 208 260 314 375
#     4   9  20  38  59  84 117 157 209 258 316 376
#     4  10  23  40  60  90 130 168 210 263 323 381
#     4   9  20  42  63  87 125 166 209 267 317 375
#     4   9  18  33  59  89 122 161 211 263 319 376
#     4   9  19  36  58  86 120 161 207 265 320 377
#     4  11  23  40  62  91 126 170 212 261 320 381
#
# _framework density 24.615265000000001
#
# number of rings (size 3 to 8) (size 9 to 14) (size 15 to 20)
#    0.000    2.500    0.000    0.750    0.000   11.000 
#    0.000    8.750    0.000    0.000    0.000    0.000 
#    0.000    0.000    0.000    0.000    0.000    0.000 
#
# Total GULP energy -178748.124216 kJ/mol
# GULP energy per Si atom -5585.878882 kJ/mol
# Density = 2.455924 g / cm^3
# Si number density = 24.615265 Si / 1000 Ang^3
#
#
#
# Elastic Constant Matrix: (Units=GPa)
#
#
# Indices 1 2 3 4 5 6 
#
# 1 46.5209 47.4652 9.1833 0.0000 0.0000 0.0000
# 2 47.4652 162.7097 26.2918 0.0000 0.0000 0.0000
# 3 9.1833 26.2918 50.0573 0.0000 0.0000 0.0000
# 4 0.0000 0.0000 0.0000 31.9504 0.0000 0.0000
# 5 0.0000 0.0000 0.0000 0.0000 22.1016 0.0000
# 6 0.0000 0.0000 0.0000 0.0000 0.0000 6.9619
#
#
#
# Elastic Compliance Matrix: (Units=1/GPa)
#
#
# Indices 1 2 3 4 5 6 
#
# 1 0.030652 -0.008778 -0.001013 0.000000 0.000000 0.000000
# 2 -0.008778 0.009230 -0.003237 0.000000 0.000000 0.000000
# 3 -0.001013 -0.003237 0.021863 0.000000 0.000000 0.000000
# 4 0.000000 0.000000 0.000000 0.031298 0.000000 0.000000
# 5 0.000000 0.000000 0.000000 0.000000 0.045246 0.000000
# 6 0.000000 0.000000 0.000000 0.000000 0.000000 0.143638
#
#
# Mechanical properties :
#
#
# Convention : Reuss Voigt Hill
#
# Bulk Modulus (GPa) = 28.02020 47.24094 37.63057
# Shear Modulus (GPa) = 15.63087 23.95929 19.79508
#
# Velocity S-wave (km/s) = 2.52267 3.12324 2.83888
# Velocity P-wave (km/s) = 4.46017 5.67799 5.10552
#
# Compressibility (1/GPa) = 0.03568854
#
# Stress axis : x y z
#
# Youngs Moduli (GPa) = 32.62455 108.34556 45.73875
#
# Poissons Ratio (x) = 0.95106 0.04632
# Poissons Ratio (y) = 0.28638 0.14807
# Poissons Ratio (z) = 0.03304 0.35076
#
# Static dielectric constant tensor:
#      x y z
#    x 1.904090 0.000000 0.000000 
#    y 0.000000 2.030590 0.000000 
#    z 0.000000 0.000000 1.947780 
# 
# From -- ./inp_files/1851.got.cif
#   From: 2010.05.17/outbox.cif.g08.bks.cpg/sg29_1_cif.got.tgz:1851.got - 2010.06.04 01:19:37.
