data_PCOD9340865
_publ_section_title
;
Structure prediction by ZEFSAII (Michael W. Deem and Ramdas Pophale) SiO2 
 PCOD9340865
Probable space group: P C A 21
;
_chemical_formula_sum "Si O2"
_cell_formula_units_Z 20
_cell_length_a 17.608714
_cell_length_b 8.283625
_cell_length_c 4.928970
_cell_angle_alpha 90.000000
_cell_angle_beta 90.000000
_cell_angle_gamma 90.000000
_cell_volume 718.959199
_symmetry_space_group_name_H-M "P C A 21"
_symmetry_group_IT_number 29
_symmetry_cell_setting 'orthorhombic'
loop_
_space_group_symop_operation_xyz
x,y,z
-x,-y,1/2+z
1/2-x,y,1/2+z
1/2+x,-y,z
loop_
_atom_site_type_symbol
_atom_site_label
_atom_site_fract_x
_atom_site_fract_y
_atom_site_fract_z
Si Si1 0.305605 0.726909 0.035530
Si Si2 0.923401 0.164602 0.641865
Si Si3 0.795542 0.650172 0.127544
Si Si4 0.450986 0.496051 0.500069
Si Si5 0.582799 0.828956 0.318508
O O1 0.254888 0.770423 0.296822
O O2 0.387893 0.801472 0.948989
O O3 0.318423 0.533228 0.052787
O O4 0.896997 0.980135 0.628634
O O5 0.901066 0.341047 0.517189
O O6 0.006568 0.142489 0.499040
O O7 0.778807 0.665656 0.441977
O O8 0.851089 0.785715 0.024287
O O9 0.478796 0.460546 0.199532
O O10 0.571881 0.671067 0.134310
#
# Coordination Sequence:
#
# PCOD9340865 Si02
#       5
#     4   4   4   4   4
#     4  10  23  45  70 100 137 182 232 283 345 415
#     4  11  24  43  69 105 139 182 232 287 343 416
#     4  10  23  45  70 100 137 182 232 283 345 415
#     4  10  22  40  62  92 134 176 216 278 340 392
#     4  11  24  43  69 105 139 182 232 287 343 416
#
# _framework density 27.817990000000002
#
# number of rings (size 3 to 8) (size 9 to 14) (size 15 to 20)
#    0.000    1.600    2.000    1.200    0.000   11.200 
#    3.600    0.000    0.000    0.000    0.000    0.000 
#    0.000    0.000    0.000    0.000    0.000    0.000 
#
# Total GULP energy -111677.496897 kJ/mol
# GULP energy per Si atom -5583.874845 kJ/mol
# Density = 2.775468 g / cm^3
# Si number density = 27.817990 Si / 1000 Ang^3
#
#
#
# Elastic Constant Matrix: (Units=GPa)
#
#
# Indices 1 2 3 4 5 6 
#
# 1 97.2435 18.8109 47.2911 0.0000 0.0000 0.0000
# 2 18.8109 187.1677 18.8527 0.0000 0.0000 0.0000
# 3 47.2911 18.8527 122.0297 0.0000 0.0000 0.0000
# 4 0.0000 0.0000 0.0000 17.7362 0.0000 0.0000
# 5 0.0000 0.0000 0.0000 0.0000 53.0011 0.0000
# 6 0.0000 0.0000 0.0000 0.0000 0.0000 33.4825
#
#
#
# Elastic Compliance Matrix: (Units=1/GPa)
#
#
# Indices 1 2 3 4 5 6 
#
# 1 0.012788 -0.000798 -0.004832 0.000000 0.000000 0.000000
# 2 -0.000798 0.005477 -0.000537 0.000000 0.000000 0.000000
# 3 -0.004832 -0.000537 0.010150 0.000000 0.000000 0.000000
# 4 0.000000 0.000000 0.000000 0.056382 0.000000 0.000000
# 5 0.000000 0.000000 0.000000 0.000000 0.018868 0.000000
# 6 0.000000 0.000000 0.000000 0.000000 0.000000 0.029866
#
#
# Mechanical properties :
#
#
# Convention : Reuss Voigt Hill
#
# Bulk Modulus (GPa) = 62.18838 64.03893 63.11365
# Shear Modulus (GPa) = 33.06289 42.27636 37.66962
#
# Velocity S-wave (km/s) = 3.45127 3.90262 3.68386
# Velocity P-wave (km/s) = 6.18754 6.58620 6.38998
#
# Compressibility (1/GPa) = 0.01608017
#
# Stress axis : x y z
#
# Youngs Moduli (GPa) = 78.19803 182.57790 98.51806
#
# Poissons Ratio (x) = 0.14578 0.47609
# Poissons Ratio (y) = 0.06244 0.05288
# Poissons Ratio (z) = 0.37789 0.09800
#
# Static dielectric constant tensor:
#      x y z
#    x 2.316470 0.000000 0.000000 
#    y 0.000000 2.140240 0.000000 
#    z 0.000000 0.000000 2.202720 
# 
# From -- ./inp_files/504.got.cif
#   From: 2010.05.17/outbox.cif.g08.bks.cpg/sg29_1_cif.got.tgz:504.got - 2010.06.04 01:19:37.
