data_PCOD9340557
_publ_section_title
;
Structure prediction by ZEFSAII (Michael W. Deem and Ramdas Pophale) SiO2 
 PCOD9340557
Probable space group: P C A 21
;
_chemical_formula_sum "Si O2"
_cell_formula_units_Z 28
_cell_length_a 14.474425
_cell_length_b 5.778789
_cell_length_c 15.114720
_cell_angle_alpha 90.000000
_cell_angle_beta 90.000000
_cell_angle_gamma 90.000000
_cell_volume 1264.265434
_symmetry_space_group_name_H-M "P C A 21"
_symmetry_group_IT_number 29
_symmetry_cell_setting 'orthorhombic'
loop_
_space_group_symop_operation_xyz
x,y,z
-x,-y,1/2+z
1/2-x,y,1/2+z
1/2+x,-y,z
loop_
_atom_site_type_symbol
_atom_site_label
_atom_site_fract_x
_atom_site_fract_y
_atom_site_fract_z
Si Si1 0.623530 0.750000 0.994250
Si Si2 0.607278 0.842254 0.702489
Si Si3 0.203059 0.995086 0.158484
Si Si4 0.392722 0.342254 0.786011
Si Si5 0.945893 0.383209 0.618598
Si Si6 0.296941 0.504914 0.330016
Si Si7 0.445893 0.883209 0.369902
O O1 0.684461 0.667484 0.911903
O O2 0.563622 0.961741 0.956617
O O3 0.563622 0.538259 0.031883
O O4 0.684461 0.832517 0.076597
O O5 0.535827 0.775108 0.626689
O O6 0.658887 0.617345 0.743429
O O7 0.687761 0.017706 0.673242
O O8 0.550552 0.949755 0.784116
O O9 0.146856 0.766968 0.132863
O O10 0.158888 0.117346 0.245071
O O11 0.449448 0.449755 0.704384
O O12 0.312239 0.517705 0.815258
O O13 0.464172 0.275108 0.861812
O O14 0.353144 0.733032 0.355637
#
# Coordination Sequence:
#
# PCOD9340557 Si02
#       7
#     4   4   4   4   4   4   4
#     4  10  24  40  60  90 140 170 212 268 332 382
#     4  10  21  37  69  93 121 167 224 260 330 380
#     4  10  21  41  61  91 130 168 213 272 315 397
#     4  10  21  37  69  93 121 167 224 260 330 380
#     4  11  20  41  66  98 127 172 213 278 318 393
#     4  10  21  41  61  91 130 168 213 272 315 397
#     4  11  20  41  66  98 127 172 213 278 318 393
#
# _framework density 22.147245999999999
#
# number of rings (size 3 to 8) (size 9 to 14) (size 15 to 20)
#    0.000    1.714    2.857    1.714    0.000    0.000 
#    5.143    0.000    0.000    0.000    0.000    0.000 
#    0.000    0.000    0.000    0.000    0.000    0.000 
#
# Total GULP energy -156529.001137 kJ/mol
# GULP energy per Si atom -5590.321469 kJ/mol
# Density = 2.209684 g / cm^3
# Si number density = 22.147246 Si / 1000 Ang^3
#
#
#
# Elastic Constant Matrix: (Units=GPa)
#
#
# Indices 1 2 3 4 5 6 
#
# 1 131.0833 27.4452 35.4056 0.0000 0.0000 0.0000
# 2 27.4452 68.6152 13.1799 0.0000 0.0000 0.0000
# 3 35.4056 13.1799 82.9119 0.0000 0.0000 0.0000
# 4 0.0000 0.0000 0.0000 49.8910 0.0000 0.0000
# 5 0.0000 0.0000 0.0000 0.0000 21.9279 0.0000
# 6 0.0000 0.0000 0.0000 0.0000 0.0000 22.4656
#
#
#
# Elastic Compliance Matrix: (Units=1/GPa)
#
#
# Indices 1 2 3 4 5 6 
#
# 1 0.009190 -0.003014 -0.003445 0.000000 0.000000 0.000000
# 2 -0.003014 0.016022 -0.001260 0.000000 0.000000 0.000000
# 3 -0.003445 -0.001260 0.013733 0.000000 0.000000 0.000000
# 4 0.000000 0.000000 0.000000 0.020044 0.000000 0.000000
# 5 0.000000 0.000000 0.000000 0.000000 0.045604 0.000000
# 6 0.000000 0.000000 0.000000 0.000000 0.000000 0.044512
#
#
# Mechanical properties :
#
#
# Convention : Reuss Voigt Hill
#
# Bulk Modulus (GPa) = 42.54246 48.29687 45.41967
# Shear Modulus (GPa) = 29.00587 32.62886 30.81737
#
# Velocity S-wave (km/s) = 3.62288 3.84248 3.73430
# Velocity P-wave (km/s) = 6.06226 6.44521 6.25667
#
# Compressibility (1/GPa) = 0.02350593
#
# Stress axis : x y z
#
# Youngs Moduli (GPa) = 108.80869 62.41552 72.81988
#
# Poissons Ratio (x) = 0.18814 0.25089
# Poissons Ratio (y) = 0.32798 0.09173
# Poissons Ratio (z) = 0.37489 0.07862
#
# Static dielectric constant tensor:
#      x y z
#    x 1.802450 0.000000 0.000000 
#    y 0.000000 1.879540 0.000000 
#    z 0.000000 0.000000 1.811620 
# 
# From -- ./inp_files/4652.got.cif
#   From: 2010.05.17/outbox.cif.g08.bks.cpg/sg29_3_cif.got.tgz:4652.got - 2010.06.04 01:19:37.
