data_PCOD9340860
_publ_section_title
;
Structure prediction by ZEFSAII (Michael W. Deem and Ramdas Pophale) SiO2 
 PCOD9340860
Probable space group: P C A 21
;
_chemical_formula_sum "Si O2"
_cell_formula_units_Z 28
_cell_length_a 21.142312
_cell_length_b 4.932609
_cell_length_c 11.397700
_cell_angle_alpha 90.000000
_cell_angle_beta 90.000000
_cell_angle_gamma 90.000000
_cell_volume 1188.629187
_symmetry_space_group_name_H-M "P C A 21"
_symmetry_group_IT_number 29
_symmetry_cell_setting 'orthorhombic'
loop_
_space_group_symop_operation_xyz
x,y,z
-x,-y,1/2+z
1/2-x,y,1/2+z
1/2+x,-y,z
loop_
_atom_site_type_symbol
_atom_site_label
_atom_site_fract_x
_atom_site_fract_y
_atom_site_fract_z
Si Si1 0.468084 0.550119 0.606020
Si Si2 0.804318 0.895514 0.734369
Si Si3 0.351336 0.293099 0.482937
Si Si4 0.600940 0.564536 0.665430
Si Si5 0.223430 0.588128 0.779511
Si Si6 0.942066 0.950814 0.763790
Si Si7 0.926527 0.063270 0.316770
O O1 0.414142 0.462194 0.516943
O O2 0.542778 0.515834 0.574681
O O3 0.455804 0.850549 0.653921
O O4 0.451365 0.351766 0.715000
O O5 0.818716 0.839024 0.597014
O O6 0.784763 0.599721 0.775589
O O7 0.748344 0.107357 0.761739
O O8 0.869433 0.988451 0.796068
O O9 0.308572 0.484704 0.400665
O O10 0.377187 0.039313 0.409983
O O11 0.675599 0.493939 0.671031
O O12 0.591594 0.873566 0.705171
O O13 0.580038 0.366377 0.771899
O O14 0.000804 0.996343 0.850765
#
# Coordination Sequence:
#
# PCOD9340860 Si02
#       7
#     4   4   4   4   4   4   4
#     4   9  18  33  59  84 108 143 197 254 298 360
#     4  11  23  38  60  88 126 167 204 251 309 388
#     4  10  22  40  62  88 118 166 214 256 322 378
#     4   9  18  35  56  83 113 148 193 248 305 352
#     4  11  23  38  60  88 126 167 204 251 309 388
#     4   9  18  35  56  83 113 148 193 248 305 352
#     4   9  18  33  59  84 108 143 197 254 298 360
#
# _framework density 23.556547999999999
#
# number of rings (size 3 to 8) (size 9 to 14) (size 15 to 20)
#    0.000    2.286    0.000    3.429    0.000   10.286 
#    0.000    2.857    0.000    0.000    0.000    0.000 
#    0.000    0.000    0.000    0.000    0.000    0.000 
#
# Total GULP energy -156028.860467 kJ/mol
# GULP energy per Si atom -5572.459302 kJ/mol
# Density = 2.350293 g / cm^3
# Si number density = 23.556548 Si / 1000 Ang^3
#
#
#
# Elastic Constant Matrix: (Units=GPa)
#
#
# Indices 1 2 3 4 5 6 
#
# 1 115.6224 22.6106 6.8812 0.0000 0.0000 0.0000
# 2 22.6106 56.0671 23.5928 0.0000 0.0000 0.0000
# 3 6.8812 23.5928 38.6807 0.0000 0.0000 0.0000
# 4 0.0000 0.0000 0.0000 13.4304 0.0000 0.0000
# 5 0.0000 0.0000 0.0000 0.0000 43.1828 0.0000
# 6 0.0000 0.0000 0.0000 0.0000 0.0000 38.0914
#
#
#
# Elastic Compliance Matrix: (Units=1/GPa)
#
#
# Indices 1 2 3 4 5 6 
#
# 1 0.009411 -0.004158 0.000862 0.000000 0.000000 0.000000
# 2 -0.004158 0.025831 -0.015016 0.000000 0.000000 0.000000
# 3 0.000862 -0.015016 0.034858 0.000000 0.000000 0.000000
# 4 0.000000 0.000000 0.000000 0.074458 0.000000 0.000000
# 5 0.000000 0.000000 0.000000 0.000000 0.023157 0.000000
# 6 0.000000 0.000000 0.000000 0.000000 0.000000 0.026253
#
#
# Mechanical properties :
#
#
# Convention : Reuss Voigt Hill
#
# Bulk Modulus (GPa) = 29.87170 35.17106 32.52138
# Shear Modulus (GPa) = 20.68253 29.42660 25.05457
#
# Velocity S-wave (km/s) = 2.96631 3.53822 3.26481
# Velocity P-wave (km/s) = 4.94372 5.62627 5.29600
#
# Compressibility (1/GPa) = 0.03347650
#
# Stress axis : x y z
#
# Youngs Moduli (GPa) = 106.26289 38.71314 28.68778
#
# Poissons Ratio (x) = 0.16096 -0.02472
# Poissons Ratio (y) = 0.44181 0.43077
# Poissons Ratio (z) = -0.09158 0.58130
#
# Static dielectric constant tensor:
#      x y z
#    x 2.010770 0.000000 0.000000 
#    y 0.000000 1.863200 0.000000 
#    z 0.000000 0.000000 1.975950 
# 
# From -- ./inp_files/3762.got.cif
#   From: 2010.05.17/outbox.cif.g08.bks.cpg/sg29_2_cif.got.tgz:3762.got - 2010.06.04 01:19:37.
