data_PCOD9340071
_publ_section_title
;
Structure prediction by ZEFSAII (Michael W. Deem and Ramdas Pophale) SiO2 
 PCOD9340071
Probable space group: P C A 21
;
_chemical_formula_sum "Si O2"
_cell_formula_units_Z 28
_cell_length_a 17.425232
_cell_length_b 6.484550
_cell_length_c 9.077565
_cell_angle_alpha 90.000000
_cell_angle_beta 90.000000
_cell_angle_gamma 90.000000
_cell_volume 1025.717534
_symmetry_space_group_name_H-M "P C A 21"
_symmetry_group_IT_number 29
_symmetry_cell_setting 'orthorhombic'
loop_
_space_group_symop_operation_xyz
x,y,z
-x,-y,1/2+z
1/2-x,y,1/2+z
1/2+x,-y,z
loop_
_atom_site_type_symbol
_atom_site_label
_atom_site_fract_x
_atom_site_fract_y
_atom_site_fract_z
Si Si1 0.417515 0.176774 0.730550
Si Si2 0.425132 0.649819 0.647131
Si Si3 0.519234 0.922609 0.950467
Si Si4 0.410165 0.287827 0.178167
Si Si5 0.127338 0.698597 0.484021
Si Si6 0.248677 0.269577 0.216223
Si Si7 0.286569 0.569937 0.465581
O O1 0.439728 0.408736 0.687169
O O2 0.417543 0.053216 0.577272
O O3 0.328971 0.177872 0.788001
O O4 0.482601 0.081944 0.834426
O O5 0.506674 0.747364 0.606144
O O6 0.386839 0.708387 0.805126
O O7 0.367466 0.657891 0.510917
O O8 0.557116 0.738340 0.846856
O O9 0.441504 0.844322 0.033427
O O10 0.330332 0.159587 0.190359
O O11 0.386198 0.484954 0.074991
O O12 0.218104 0.728127 0.500167
O O13 0.273783 0.475375 0.305991
O O14 0.220725 0.362462 0.062852
#
# Coordination Sequence:
#
# PCOD9340071 Si02
#       7
#     4   4   4   4   4   4   4
#     4  11  23  44  63 101 146 187 234 287 359 451
#     4  10  20  37  66  97 137 172 239 299 338 430
#     4  11  25  41  72 101 142 187 236 290 366 434
#     4  10  21  39  71 100 129 180 240 296 351 409
#     4  10  20  38  64 101 134 176 227 302 350 408
#     4  10  21  36  68  93 136 178 231 285 353 423
#     4  10  18  35  62  97 128 176 229 289 349 401
#
# _framework density 27.297965000000001
#
# number of rings (size 3 to 8) (size 9 to 14) (size 15 to 20)
#    0.000    1.714    4.286    1.714    4.000    0.000 
#    0.000    0.000   28.286    0.000    0.000    0.000 
#    0.000    0.000    0.000    0.000    0.000    0.000 
#
# Total GULP energy -155986.068238 kJ/mol
# GULP energy per Si atom -5570.931008 kJ/mol
# Density = 2.723583 g / cm^3
# Si number density = 27.297965 Si / 1000 Ang^3
#
#
#
# Elastic Constant Matrix: (Units=GPa)
#
#
# Indices 1 2 3 4 5 6 
#
# 1 186.5234 32.3018 61.7709 0.0000 0.0000 0.0000
# 2 32.3018 63.6077 14.2049 0.0000 0.0000 0.0000
# 3 61.7709 14.2049 135.5852 0.0000 0.0000 0.0000
# 4 0.0000 0.0000 0.0000 23.8082 0.0000 0.0000
# 5 0.0000 0.0000 0.0000 0.0000 45.3781 0.0000
# 6 0.0000 0.0000 0.0000 0.0000 0.0000 40.1084
#
#
#
# Elastic Compliance Matrix: (Units=1/GPa)
#
#
# Indices 1 2 3 4 5 6 
#
# 1 0.006773 -0.002816 -0.002791 0.000000 0.000000 0.000000
# 2 -0.002816 0.017269 -0.000526 0.000000 0.000000 0.000000
# 3 -0.002791 -0.000526 0.008702 0.000000 0.000000 0.000000
# 4 0.000000 0.000000 0.000000 0.042002 0.000000 0.000000
# 5 0.000000 0.000000 0.000000 0.000000 0.022037 0.000000
# 6 0.000000 0.000000 0.000000 0.000000 0.000000 0.024932
#
#
# Mechanical properties :
#
#
# Convention : Reuss Voigt Hill
#
# Bulk Modulus (GPa) = 48.83340 66.91907 57.87624
# Shear Modulus (GPa) = 35.50924 40.35487 37.93205
#
# Velocity S-wave (km/s) = 3.61058 3.84905 3.73172
# Velocity P-wave (km/s) = 5.94218 6.65741 6.30994
#
# Compressibility (1/GPa) = 0.02047779
#
# Stress axis : x y z
#
# Youngs Moduli (GPa) = 147.64082 57.90692 114.91651
#
# Poissons Ratio (x) = 0.16309 0.32070
# Poissons Ratio (y) = 0.41581 0.06046
# Poissons Ratio (z) = 0.41202 0.03047
#
# Static dielectric constant tensor:
#      x y z
#    x 2.149110 0.000000 0.000000 
#    y 0.000000 2.426570 0.000000 
#    z 0.000000 0.000000 2.166000 
# 
# From -- ./inp_files/2107.got.cif
#   From: 2010.05.17/outbox.cif.g08.bks.cpg/sg29_2_cif.got.tgz:2107.got - 2010.06.04 01:19:37.
