data_PCOD9340936
_publ_section_title
;
Structure prediction by ZEFSAII (Michael W. Deem and Ramdas Pophale) SiO2 
 PCOD9340936
Probable space group: P C A 21
;
_chemical_formula_sum "Si O2"
_cell_formula_units_Z 32
_cell_length_a 11.526689
_cell_length_b 5.075664
_cell_length_c 21.493332
_cell_angle_alpha 90.000000
_cell_angle_beta 90.000000
_cell_angle_gamma 90.000000
_cell_volume 1257.480293
_symmetry_space_group_name_H-M "P C A 21"
_symmetry_group_IT_number 29
_symmetry_cell_setting 'orthorhombic'
loop_
_space_group_symop_operation_xyz
x,y,z
-x,-y,1/2+z
1/2-x,y,1/2+z
1/2+x,-y,z
loop_
_atom_site_type_symbol
_atom_site_label
_atom_site_fract_x
_atom_site_fract_y
_atom_site_fract_z
Si Si1 0.787701 0.350989 0.400720
Si Si2 0.553702 0.078051 0.403324
Si Si3 0.609619 0.518685 0.197762
Si Si4 0.062576 0.718168 0.594259
Si Si5 0.334021 0.301008 0.996724
Si Si6 0.096045 0.050451 0.996778
Si Si7 0.437525 0.759398 0.294296
Si Si8 0.232751 0.977136 0.690990
O O1 0.715632 0.572895 0.434069
O O2 0.856564 0.418142 0.338607
O O3 0.679402 0.164309 0.382031
O O4 0.856951 0.195538 0.455060
O O5 0.574484 0.896001 0.465177
O O6 0.494467 0.950131 0.344775
O O7 0.458839 0.249071 0.442289
O O8 0.518279 0.557793 0.141875
O O9 0.535788 0.597920 0.258506
O O10 0.661032 0.226968 0.199811
O O11 0.715170 0.729157 0.189913
O O12 0.116601 0.516123 0.543973
O O13 0.161185 0.877282 0.630978
O O14 0.979162 0.924409 0.559505
O O15 0.220408 0.159766 0.022282
O O16 0.358225 0.922514 0.246649
#
# Coordination Sequence:
#
# PCOD9340936 Si02
#       8
#     4   4   4   4   4   4   4   4
#     4  10  22  42  65 103 141 181 229 287 354 442
#     4  10  22  43  68 104 144 185 228 295 362 434
#     4  11  27  51  73 104 141 195 244 313 363 426
#     4  11  25  44  73 104 139 193 238 304 363 442
#     4  11  24  41  65 106 139 185 232 287 357 445
#     4  10  23  40  64  99 143 178 228 283 358 423
#     4  10  24  44  72 101 137 192 241 302 365 433
#     4  11  27  51  74 105 142 189 254 309 356 433
#
# _framework density 25.447711999999999
#
# number of rings (size 3 to 8) (size 9 to 14) (size 15 to 20)
#    0.000    1.500    1.250    1.500    7.000    6.000 
#    9.000    0.000    0.000    0.000    0.000    0.000 
#    0.000    0.000    0.000    0.000    0.000    0.000 
#
# Total GULP energy -178964.828428 kJ/mol
# GULP energy per Si atom -5592.650888 kJ/mol
# Density = 2.538979 g / cm^3
# Si number density = 25.447712 Si / 1000 Ang^3
#
#
#
# Elastic Constant Matrix: (Units=GPa)
#
#
# Indices 1 2 3 4 5 6 
#
# 1 40.3212 -17.2489 34.7881 0.0000 0.0000 0.0000
# 2 -17.2489 47.0430 16.5139 0.0000 0.0000 0.0000
# 3 34.7881 16.5139 130.9048 0.0000 0.0000 0.0000
# 4 0.0000 0.0000 0.0000 14.3072 0.0000 0.0000
# 5 0.0000 0.0000 0.0000 0.0000 56.3301 0.0000
# 6 0.0000 0.0000 0.0000 0.0000 0.0000 10.2429
#
#
#
# Elastic Compliance Matrix: (Units=1/GPa)
#
#
# Indices 1 2 3 4 5 6 
#
# 1 0.048396 0.023291 -0.015800 0.000000 0.000000 0.000000
# 2 0.023291 0.033451 -0.010410 0.000000 0.000000 0.000000
# 3 -0.015800 -0.010410 0.013151 0.000000 0.000000 0.000000
# 4 0.000000 0.000000 0.000000 0.069895 0.000000 0.000000
# 5 0.000000 0.000000 0.000000 0.000000 0.017753 0.000000
# 6 0.000000 0.000000 0.000000 0.000000 0.000000 0.097629
#
#
# Mechanical properties :
#
#
# Convention : Reuss Voigt Hill
#
# Bulk Modulus (GPa) = 11.21547 31.81947 21.51747
# Shear Modulus (GPa) = 15.83126 28.45710 22.14418
#
# Velocity S-wave (km/s) = 2.49692 3.34766 2.95309
# Velocity P-wave (km/s) = 3.56786 5.24151 4.48348
#
# Compressibility (1/GPa) = 0.08916252
#
# Stress axis : x y z
#
# Youngs Moduli (GPa) = 20.66287 29.89420 76.03944
#
# Poissons Ratio (x) = -0.69627 1.20139
# Poissons Ratio (y) = -0.48126 0.79154
# Poissons Ratio (z) = 0.32646 0.31119
#
# Static dielectric constant tensor:
#      x y z
#    x 2.683750 0.000000 0.000000 
#    y 0.000000 2.133860 0.000000 
#    z 0.000000 0.000000 1.970930 
# 
# From -- ./inp_files/5536.got.cif
#   From: 2010.05.17/outbox.cif.g08.bks.cpg/sg29_3_cif.got.tgz:5536.got - 2010.06.04 01:19:37.
