data_PCOD9340347
_publ_section_title
;
Structure prediction by ZEFSAII (Michael W. Deem and Ramdas Pophale) SiO2 
 PCOD9340347
Probable space group: P C A 21
;
_chemical_formula_sum "Si O2"
_cell_formula_units_Z 28
_cell_length_a 19.922138
_cell_length_b 12.819955
_cell_length_c 5.352896
_cell_angle_alpha 90.000000
_cell_angle_beta 90.000000
_cell_angle_gamma 90.000000
_cell_volume 1367.134524
_symmetry_space_group_name_H-M "P C A 21"
_symmetry_group_IT_number 29
_symmetry_cell_setting 'orthorhombic'
loop_
_space_group_symop_operation_xyz
x,y,z
-x,-y,1/2+z
1/2-x,y,1/2+z
1/2+x,-y,z
loop_
_atom_site_type_symbol
_atom_site_label
_atom_site_fract_x
_atom_site_fract_y
_atom_site_fract_z
Si Si1 0.957380 0.019210 0.444860
Si Si2 0.090857 0.191516 0.902148
Si Si3 0.709983 0.717509 0.652337
Si Si4 0.539969 0.244632 0.112257
Si Si5 0.209223 0.531932 0.704852
Si Si6 0.084118 0.583176 0.434190
Si Si7 0.049430 0.371502 0.218018
O O1 0.935536 0.139294 0.479473
O O2 0.901992 0.928524 0.475977
O O3 0.009867 0.993510 0.669795
O O4 0.097191 0.282415 0.106469
O O5 0.140086 0.222858 0.681485
O O6 0.013590 0.204510 0.817901
O O7 0.745822 0.744784 0.395105
O O8 0.699113 0.593201 0.682723
O O9 0.592291 0.319107 0.250707
O O10 0.495600 0.317179 0.930241
O O11 0.256752 0.558120 0.467971
O O12 0.137239 0.584789 0.657268
O O13 0.091368 0.471431 0.301816
O O14 0.006597 0.587335 0.523036
#
# Coordination Sequence:
#
# PCOD9340347 Si02
#       7
#     4   4   4   4   4   4   4
#     4  10  20  37  58  85 116 150 191 233 290 359
#     4  10  22  36  59  83 119 156 192 247 303 357
#     4  10  23  37  57  85 116 156 202 247 293 351
#     4  10  21  36  56  87 119 154 191 242 303 361
#     4  10  24  40  58  81 115 165 203 239 279 350
#     4  11  23  34  57  86 123 154 192 239 303 357
#     4  11  21  34  55  89 120 153 183 245 307 355
#
# _framework density 20.480795000000001
#
# number of rings (size 3 to 8) (size 9 to 14) (size 15 to 20)
#    0.000    1.714    2.857    0.857   12.000    0.000 
#    0.000    0.000    0.000    1.714    0.000    0.000 
#    0.000    0.000    0.000    0.000    0.000    0.000 
#
# Total GULP energy -156353.001264 kJ/mol
# GULP energy per Si atom -5584.035759 kJ/mol
# Density = 2.043418 g / cm^3
# Si number density = 20.480795 Si / 1000 Ang^3
#
#
#
# Elastic Constant Matrix: (Units=GPa)
#
#
# Indices 1 2 3 4 5 6 
#
# 1 52.9189 16.6555 13.6438 0.0000 0.0000 0.0000
# 2 16.6555 104.2521 30.8891 0.0000 0.0000 0.0000
# 3 13.6438 30.8891 67.0139 0.0000 0.0000 0.0000
# 4 0.0000 0.0000 0.0000 25.1024 0.0000 0.0000
# 5 0.0000 0.0000 0.0000 0.0000 21.3741 0.0000
# 6 0.0000 0.0000 0.0000 0.0000 0.0000 5.6792
#
#
#
# Elastic Compliance Matrix: (Units=1/GPa)
#
#
# Indices 1 2 3 4 5 6 
#
# 1 0.020430 -0.002353 -0.003075 0.000000 0.000000 0.000000
# 2 -0.002353 0.011380 -0.004767 0.000000 0.000000 0.000000
# 3 -0.003075 -0.004767 0.017745 0.000000 0.000000 0.000000
# 4 0.000000 0.000000 0.000000 0.039837 0.000000 0.000000
# 5 0.000000 0.000000 0.000000 0.000000 0.046786 0.000000
# 6 0.000000 0.000000 0.000000 0.000000 0.000000 0.176082
#
#
# Mechanical properties :
#
#
# Convention : Reuss Voigt Hill
#
# Bulk Modulus (GPa) = 34.28523 38.50685 36.39604
# Shear Modulus (GPa) = 14.60400 21.29757 17.95078
#
# Velocity S-wave (km/s) = 2.67321 3.22822 2.96373
# Velocity P-wave (km/s) = 5.12880 5.72166 5.43332
#
# Compressibility (1/GPa) = 0.02916708
#
# Stress axis : x y z
#
# Youngs Moduli (GPa) = 48.94723 87.87089 56.35256
#
# Poissons Ratio (x) = 0.20675 0.17328
# Poissons Ratio (y) = 0.11517 0.26861
# Poissons Ratio (z) = 0.15051 0.41884
#
# Static dielectric constant tensor:
#      x y z
#    x 1.716820 0.000000 0.000000 
#    y 0.000000 1.771600 0.000000 
#    z 0.000000 0.000000 1.816860 
# 
# From -- ./inp_files/404.got.cif
#   From: 2010.05.17/outbox.cif.g08.bks.cpg/sg29_1_cif.got.tgz:404.got - 2010.06.04 01:19:37.
