data_PCOD9340824
_publ_section_title
;
Structure prediction by ZEFSAII (Michael W. Deem and Ramdas Pophale) SiO2 
 PCOD9340824
Probable space group: P C A 21
;
_chemical_formula_sum "Si O2"
_cell_formula_units_Z 20
_cell_length_a 14.451239
_cell_length_b 5.680634
_cell_length_c 9.197263
_cell_angle_alpha 90.000000
_cell_angle_beta 90.000000
_cell_angle_gamma 90.000000
_cell_volume 755.023550
_symmetry_space_group_name_H-M "P C A 21"
_symmetry_group_IT_number 29
_symmetry_cell_setting 'orthorhombic'
loop_
_space_group_symop_operation_xyz
x,y,z
-x,-y,1/2+z
1/2-x,y,1/2+z
1/2+x,-y,z
loop_
_atom_site_type_symbol
_atom_site_label
_atom_site_fract_x
_atom_site_fract_y
_atom_site_fract_z
Si Si1 0.648460 0.111802 0.521660
Si Si2 0.328484 0.692966 0.477843
Si Si3 0.170199 0.387053 0.526110
Si Si4 0.554183 0.141911 0.226529
Si Si5 0.508699 0.645142 0.284769
O O1 0.744351 0.140934 0.427986
O O2 0.648431 0.362236 0.602701
O O3 0.570759 0.114709 0.398418
O O4 0.656569 0.863858 0.600157
O O5 0.277808 0.439092 0.487476
O O6 0.355343 0.802088 0.633401
O O7 0.423313 0.683094 0.392397
O O8 0.104200 0.375706 0.382396
O O9 0.501622 0.390416 0.208830
O O10 0.516883 0.881925 0.187341
#
# Coordination Sequence:
#
# PCOD9340824 Si02
#       5
#     4   4   4   4   4
#     4   8  18  36  55  83 114 154 199 245 283 363
#     4  10  22  38  67  82 128 163 193 255 311 344
#     4   8  18  36  57  80 118 153 192 249 292 340
#     4  10  22  39  59  89 121 161 200 248 306 355
#     4  10  22  39  58  92 127 147 210 253 282 382
#
# _framework density 26.489239999999999
#
# number of rings (size 3 to 8) (size 9 to 14) (size 15 to 20)
#    1.200    1.600    0.000    0.000    5.600    0.000 
#    3.600    4.000    0.000    0.000    0.000    0.000 
#    0.000    0.000    0.000    0.000    0.000    0.000 
#
# Total GULP energy -111512.258833 kJ/mol
# GULP energy per Si atom -5575.612942 kJ/mol
# Density = 2.642895 g / cm^3
# Si number density = 26.489240 Si / 1000 Ang^3
#
#
#
# Elastic Constant Matrix: (Units=GPa)
#
#
# Indices 1 2 3 4 5 6 
#
# 1 109.2580 60.6279 39.1012 0.0000 0.0000 0.0000
# 2 60.6279 292.6469 18.7061 0.0000 0.0000 0.0000
# 3 39.1012 18.7061 86.4601 0.0000 0.0000 0.0000
# 4 0.0000 0.0000 0.0000 31.3861 0.0000 0.0000
# 5 0.0000 0.0000 0.0000 0.0000 40.6861 0.0000
# 6 0.0000 0.0000 0.0000 0.0000 0.0000 49.0791
#
#
#
# Elastic Compliance Matrix: (Units=1/GPa)
#
#
# Indices 1 2 3 4 5 6 
#
# 1 0.012174 -0.002201 -0.005029 0.000000 0.000000 0.000000
# 2 -0.002201 0.003863 0.000159 0.000000 0.000000 0.000000
# 3 -0.005029 0.000159 0.013806 0.000000 0.000000 0.000000
# 4 0.000000 0.000000 0.000000 0.031861 0.000000 0.000000
# 5 0.000000 0.000000 0.000000 0.000000 0.024578 0.000000
# 6 0.000000 0.000000 0.000000 0.000000 0.000000 0.020375
#
#
# Mechanical properties :
#
#
# Convention : Reuss Voigt Hill
#
# Bulk Modulus (GPa) = 63.68803 80.58171 72.13487
# Shear Modulus (GPa) = 39.67240 48.89224 44.28232
#
# Velocity S-wave (km/s) = 3.87419 4.30087 4.09309
# Velocity P-wave (km/s) = 6.64135 7.42630 7.04477
#
# Compressibility (1/GPa) = 0.01570154
#
# Stress axis : x y z
#
# Youngs Moduli (GPa) = 82.14462 258.88057 72.43205
#
# Poissons Ratio (x) = 0.56968 0.36429
# Poissons Ratio (y) = 0.18076 -0.01155
# Poissons Ratio (z) = 0.41314 -0.04128
#
# Static dielectric constant tensor:
#      x y z
#    x 2.185840 0.000000 0.000000 
#    y 0.000000 2.118700 0.000000 
#    z 0.000000 0.000000 2.009740 
# 
# From -- ./inp_files/3288.got.cif
#   From: 2010.05.17/outbox.cif.g08.bks.cpg/sg29_2_cif.got.tgz:3288.got - 2010.06.04 01:19:37.
