data_PCOD9340310
_publ_section_title
;
Structure prediction by ZEFSAII (Michael W. Deem and Ramdas Pophale) SiO2 
 PCOD9340310
Probable space group: P C A 21
;
_chemical_formula_sum "Si O2"
_cell_formula_units_Z 32
_cell_length_a 29.150809
_cell_length_b 9.902148
_cell_length_c 5.320557
_cell_angle_alpha 90.000000
_cell_angle_beta 90.000000
_cell_angle_gamma 90.000000
_cell_volume 1535.808706
_symmetry_space_group_name_H-M "P C A 21"
_symmetry_group_IT_number 29
_symmetry_cell_setting 'orthorhombic'
loop_
_space_group_symop_operation_xyz
x,y,z
-x,-y,1/2+z
1/2-x,y,1/2+z
1/2+x,-y,z
loop_
_atom_site_type_symbol
_atom_site_label
_atom_site_fract_x
_atom_site_fract_y
_atom_site_fract_z
Si Si1 0.428625 0.102276 0.053200
Si Si2 0.126958 0.762364 0.241784
Si Si3 0.271999 0.778565 0.828807
Si Si4 0.460577 0.815524 0.100460
Si Si5 0.228187 0.101433 0.246160
Si Si6 0.871883 0.947314 0.549018
Si Si7 0.935583 0.411814 0.488560
Si Si8 0.475845 0.345157 0.256702
O O1 0.391194 0.099575 0.280283
O O2 0.455725 0.241840 0.056650
O O3 0.405968 0.082504 0.781338
O O4 0.461848 0.976475 0.125338
O O5 0.174634 0.756042 0.386455
O O6 0.083245 0.793497 0.416627
O O7 0.132822 0.888866 0.051319
O O8 0.112598 0.623036 0.111927
O O9 0.258434 0.723853 0.555669
O O10 0.264616 0.940117 0.794571
O O11 0.505645 0.752232 0.976407
O O12 0.448530 0.725211 0.340058
O O13 0.238140 0.155301 0.526687
O O14 0.177142 0.112243 0.132395
O O15 0.937905 0.545270 0.325231
O O16 0.978532 0.426926 0.677785
#
# Coordination Sequence:
#
# PCOD9340310 Si02
#       8
#     4   4   4   4   4   4   4   4
#     4  11  24  37  58  84 116 155 190 246 292 346
#     4   9  20  34  56  82 114 157 186 233 298 346
#     4   9  18  29  50  82 116 144 182 232 285 344
#     4  10  22  37  57  79 116 152 193 237 296 343
#     4   9  16  28  50  79 113 148 179 228 290 349
#     4  10  20  36  54  85 119 148 192 238 294 351
#     4  11  21  40  55  82 114 155 195 244 286 346
#     4  11  25  37  60  83 114 155 207 244 291 345
#
# _framework density 20.835929
#
# number of rings (size 3 to 8) (size 9 to 14) (size 15 to 20)
#    0.000    2.000    2.500    0.750    5.250    3.000 
#    0.000    0.000    0.000    0.000    0.000    5.250 
#    0.000    0.000    0.000    0.000    0.000    0.000 
#
# Total GULP energy -178500.484264 kJ/mol
# GULP energy per Si atom -5578.140133 kJ/mol
# Density = 2.078851 g / cm^3
# Si number density = 20.835929 Si / 1000 Ang^3
#
#
#
# Elastic Constant Matrix: (Units=GPa)
#
#
# Indices 1 2 3 4 5 6 
#
# 1 41.3321 7.4628 8.8778 0.0000 0.0000 0.0000
# 2 7.4628 61.0436 0.3147 0.0000 0.0000 0.0000
# 3 8.8778 0.3147 70.2653 0.0000 0.0000 0.0000
# 4 0.0000 0.0000 0.0000 19.4152 0.0000 0.0000
# 5 0.0000 0.0000 0.0000 0.0000 28.7534 0.0000
# 6 0.0000 0.0000 0.0000 0.0000 0.0000 11.4184
#
#
#
# Elastic Compliance Matrix: (Units=1/GPa)
#
#
# Indices 1 2 3 4 5 6 
#
# 1 0.025440 -0.003094 -0.003200 0.000000 0.000000 0.000000
# 2 -0.003094 0.016758 0.000316 0.000000 0.000000 0.000000
# 3 -0.003200 0.000316 0.014635 0.000000 0.000000 0.000000
# 4 0.000000 0.000000 0.000000 0.051506 0.000000 0.000000
# 5 0.000000 0.000000 0.000000 0.000000 0.034778 0.000000
# 6 0.000000 0.000000 0.000000 0.000000 0.000000 0.087578
#
#
# Mechanical properties :
#
#
# Convention : Reuss Voigt Hill
#
# Bulk Modulus (GPa) = 22.28325 22.88351 22.58338
# Shear Modulus (GPa) = 19.40912 22.31648 20.86280
#
# Velocity S-wave (km/s) = 3.05540 3.27625 3.16775
# Velocity P-wave (km/s) = 4.81301 5.03173 4.92359
#
# Compressibility (1/GPa) = 0.04487676
#
# Stress axis : x y z
#
# Youngs Moduli (GPa) = 39.30775 59.67189 68.33065
#
# Poissons Ratio (x) = 0.18460 0.21869
# Poissons Ratio (y) = 0.12160 -0.02158
# Poissons Ratio (z) = 0.12580 -0.01885
#
# Static dielectric constant tensor:
#      x y z
#    x 1.766720 0.000000 0.000000 
#    y 0.000000 1.747190 0.000000 
#    z 0.000000 0.000000 1.840250 
# 
# From -- ./inp_files/892.got.cif
#   From: 2010.05.17/outbox.cif.g08.bks.cpg/sg29_1_cif.got.tgz:892.got - 2010.06.04 01:19:37.
