data_PCOD9340905
_publ_section_title
;
Structure prediction by ZEFSAII (Michael W. Deem and Ramdas Pophale) SiO2 
 PCOD9340905
Probable space group: P C A 21
;
_chemical_formula_sum "Si O2"
_cell_formula_units_Z 32
_cell_length_a 11.930362
_cell_length_b 9.115549
_cell_length_c 13.068096
_cell_angle_alpha 90.000000
_cell_angle_beta 90.000000
_cell_angle_gamma 90.000000
_cell_volume 1421.178955
_symmetry_space_group_name_H-M "P C A 21"
_symmetry_group_IT_number 29
_symmetry_cell_setting 'orthorhombic'
loop_
_space_group_symop_operation_xyz
x,y,z
-x,-y,1/2+z
1/2-x,y,1/2+z
1/2+x,-y,z
loop_
_atom_site_type_symbol
_atom_site_label
_atom_site_fract_x
_atom_site_fract_y
_atom_site_fract_z
Si Si1 0.577993 0.033157 0.398420
Si Si2 0.381662 0.540914 0.746943
Si Si3 0.094872 0.104355 0.074872
Si Si4 0.786071 0.462098 0.078285
Si Si5 0.020603 0.846028 0.181651
Si Si6 0.730575 0.268685 0.895198
Si Si7 0.162927 0.221229 0.521272
Si Si8 0.454071 0.705135 0.232544
O O1 0.494960 0.094410 0.484427
O O2 0.521755 0.074761 0.291078
O O3 0.693555 0.124675 0.405247
O O4 0.609106 0.865132 0.425070
O O5 0.301936 0.474037 0.660103
O O6 0.445041 0.679562 0.698812
O O7 0.303812 0.612290 0.832153
O O8 0.471353 0.423398 0.781192
O O9 0.208449 0.174660 0.035334
O O10 0.035373 0.188568 0.168872
O O11 0.109944 0.937605 0.114574
O O12 0.841681 0.602321 0.022908
O O13 0.874574 0.369137 0.145269
O O14 0.719723 0.352809 0.002488
O O15 0.905433 0.842563 0.118875
O O16 0.624368 0.234576 0.823480
#
# Coordination Sequence:
#
# PCOD9340905 Si02
#       8
#     4   4   4   4   4   4   4   4
#     4  10  24  45  65  98 135 181 224 278 348 417
#     4  10  22  41  65  98 133 176 222 280 346 405
#     4  11  24  42  69  99 136 176 227 285 344 414
#     4  11  22  42  67  98 135 177 227 285 343 419
#     4  10  24  44  66  95 141 177 222 287 347 413
#     4  10  24  40  68  93 133 182 222 274 354 418
#     4  11  24  42  71 100 132 180 233 285 341 413
#     4  11  22  42  65  99 135 175 225 286 351 403
#
# _framework density 22.516518999999999
#
# number of rings (size 3 to 8) (size 9 to 14) (size 15 to 20)
#    0.000    1.500    3.750    0.000    1.750    9.000 
#    2.250    0.000    0.000    0.000    0.000    0.000 
#    0.000    0.000    0.000    0.000    0.000    0.000 
#
# Total GULP energy -178877.577503 kJ/mol
# GULP energy per Si atom -5589.924297 kJ/mol
# Density = 2.246527 g / cm^3
# Si number density = 22.516519 Si / 1000 Ang^3
#
#
#
# Elastic Constant Matrix: (Units=GPa)
#
#
# Indices 1 2 3 4 5 6 
#
# 1 78.6667 17.0096 21.0174 0.0000 0.0000 0.0000
# 2 17.0096 92.1264 30.3117 0.0000 0.0000 0.0000
# 3 21.0174 30.3117 66.0914 0.0000 0.0000 0.0000
# 4 0.0000 0.0000 0.0000 34.3227 0.0000 0.0000
# 5 0.0000 0.0000 0.0000 0.0000 35.0976 0.0000
# 6 0.0000 0.0000 0.0000 0.0000 0.0000 31.0166
#
#
#
# Elastic Compliance Matrix: (Units=1/GPa)
#
#
# Indices 1 2 3 4 5 6 
#
# 1 0.014027 -0.001322 -0.003855 0.000000 0.000000 0.000000
# 2 -0.001322 0.012908 -0.005500 0.000000 0.000000 0.000000
# 3 -0.003855 -0.005500 0.018879 0.000000 0.000000 0.000000
# 4 0.000000 0.000000 0.000000 0.029135 0.000000 0.000000
# 5 0.000000 0.000000 0.000000 0.000000 0.028492 0.000000
# 6 0.000000 0.000000 0.000000 0.000000 0.000000 0.032241
#
#
# Mechanical properties :
#
#
# Convention : Reuss Voigt Hill
#
# Bulk Modulus (GPa) = 40.87944 41.50686 41.19315
# Shear Modulus (GPa) = 30.26839 31.32378 30.79608
#
# Velocity S-wave (km/s) = 3.67041 3.73385 3.70227
# Velocity P-wave (km/s) = 6.01309 6.08793 6.05063
#
# Compressibility (1/GPa) = 0.02446217
#
# Stress axis : x y z
#
# Youngs Moduli (GPa) = 71.28868 77.46984 52.96957
#
# Poissons Ratio (x) = 0.10239 0.20418
# Poissons Ratio (y) = 0.09422 0.29132
# Poissons Ratio (z) = 0.27479 0.42607
#
# Static dielectric constant tensor:
#      x y z
#    x 1.801540 0.000000 0.000000 
#    y 0.000000 1.842320 0.000000 
#    z 0.000000 0.000000 1.849330 
# 
# From -- ./inp_files/4549.got.cif
#   From: 2010.05.17/outbox.cif.g08.bks.cpg/sg29_3_cif.got.tgz:4549.got - 2010.06.04 01:19:37.
