data_PCOD9340477
_publ_section_title
;
Structure prediction by ZEFSAII (Michael W. Deem and Ramdas Pophale) SiO2 
 PCOD9340477
Probable space group: P C A 21
;
_chemical_formula_sum "Si O2"
_cell_formula_units_Z 28
_cell_length_a 26.284787
_cell_length_b 5.274075
_cell_length_c 8.496133
_cell_angle_alpha 90.000000
_cell_angle_beta 90.000000
_cell_angle_gamma 90.000000
_cell_volume 1177.801399
_symmetry_space_group_name_H-M "P C A 21"
_symmetry_group_IT_number 29
_symmetry_cell_setting 'orthorhombic'
loop_
_space_group_symop_operation_xyz
x,y,z
-x,-y,1/2+z
1/2-x,y,1/2+z
1/2+x,-y,z
loop_
_atom_site_type_symbol
_atom_site_label
_atom_site_fract_x
_atom_site_fract_y
_atom_site_fract_z
Si Si1 0.803336 0.966234 0.463070
Si Si2 0.522104 0.265647 0.577728
Si Si3 0.351195 0.136970 0.976045
Si Si4 0.877277 0.179613 0.252346
Si Si5 0.710758 0.189627 0.281754
Si Si6 0.786493 0.564408 0.191903
Si Si7 0.955882 0.754224 0.874631
O O1 0.797592 0.725692 0.349485
O O2 0.858554 0.092382 0.424181
O O3 0.758478 0.142634 0.394716
O O4 0.793950 0.975276 0.647511
O O5 0.569254 0.295374 0.702687
O O6 0.521008 0.514655 0.468800
O O7 0.474877 0.235511 0.695535
O O8 0.530139 0.017305 0.466669
O O9 0.300463 0.282915 0.031505
O O10 0.375425 0.070468 0.144215
O O11 0.394624 0.277954 0.881086
O O12 0.337754 0.875575 0.886609
O O13 0.830507 0.351551 0.193980
O O14 0.730104 0.443433 0.197750
#
# Coordination Sequence:
#
# PCOD9340477 Si02
#       7
#     4   4   4   4   4   4   4
#     4  10  22  37  60  94 123 175 223 278 336 403
#     4  11  23  45  73 106 142 185 240 292 371 435
#     4  10  22  41  65  95 132 180 232 281 356 416
#     4   9  20  39  64  89 128 176 221 273 347 414
#     4  11  23  39  60  91 128 170 232 275 334 417
#     4  10  20  42  64  85 130 182 212 283 344 405
#     4  11  24  45  74 106 143 190 232 306 364 446
#
# _framework density 23.773109000000002
#
# number of rings (size 3 to 8) (size 9 to 14) (size 15 to 20)
#    0.000    1.714    1.429    3.429    0.000    8.000 
#    2.571    1.429    0.000    0.000    0.000    0.000 
#    0.000    0.000    0.000    0.000    0.000    0.000 
#
# Total GULP energy -156109.455221 kJ/mol
# GULP energy per Si atom -5575.337686 kJ/mol
# Density = 2.371900 g / cm^3
# Si number density = 23.773109 Si / 1000 Ang^3
#
#
#
# Elastic Constant Matrix: (Units=GPa)
#
#
# Indices 1 2 3 4 5 6 
#
# 1 32.8471 6.1170 15.8415 0.0000 0.0000 0.0000
# 2 6.1170 111.9531 30.8264 0.0000 0.0000 0.0000
# 3 15.8415 30.8264 83.8549 0.0000 0.0000 0.0000
# 4 0.0000 0.0000 0.0000 19.3099 0.0000 0.0000
# 5 0.0000 0.0000 0.0000 0.0000 27.5507 0.0000
# 6 0.0000 0.0000 0.0000 0.0000 0.0000 24.6326
#
#
#
# Elastic Compliance Matrix: (Units=1/GPa)
#
#
# Indices 1 2 3 4 5 6 
#
# 1 0.033497 -0.000098 -0.006292 0.000000 0.000000 0.000000
# 2 -0.000098 0.009939 -0.003635 0.000000 0.000000 0.000000
# 3 -0.006292 -0.003635 0.014450 0.000000 0.000000 0.000000
# 4 0.000000 0.000000 0.000000 0.051787 0.000000 0.000000
# 5 0.000000 0.000000 0.000000 0.000000 0.036297 0.000000
# 6 0.000000 0.000000 0.000000 0.000000 0.000000 0.040597
#
#
# Mechanical properties :
#
#
# Convention : Reuss Voigt Hill
#
# Bulk Modulus (GPa) = 26.42995 37.13611 31.78303
# Shear Modulus (GPa) = 22.80731 26.02332 24.41532
#
# Velocity S-wave (km/s) = 3.10074 3.31214 3.20818
# Velocity P-wave (km/s) = 4.89501 5.50291 5.20784
#
# Compressibility (1/GPa) = 0.03783586
#
# Stress axis : x y z
#
# Youngs Moduli (GPa) = 29.85356 100.61798 69.20235
#
# Poissons Ratio (x) = 0.00983 0.43543
# Poissons Ratio (y) = 0.00292 0.25156
# Poissons Ratio (z) = 0.18784 0.36576
#
# Static dielectric constant tensor:
#      x y z
#    x 1.958840 0.000000 0.000000 
#    y 0.000000 2.014150 0.000000 
#    z 0.000000 0.000000 1.881890 
# 
# From -- ./inp_files/2516.got.cif
#   From: 2010.05.17/outbox.cif.g08.bks.cpg/sg29_2_cif.got.tgz:2516.got - 2010.06.04 01:19:37.
