data_PCOD9340415
_publ_section_title
;
Structure prediction by ZEFSAII (Michael W. Deem and Ramdas Pophale) SiO2 
 PCOD9340415
Probable space group: P C A 21
;
_chemical_formula_sum "Si O2"
_cell_formula_units_Z 32
_cell_length_a 17.517402
_cell_length_b 7.903371
_cell_length_c 10.470675
_cell_angle_alpha 90.000000
_cell_angle_beta 90.000000
_cell_angle_gamma 90.000000
_cell_volume 1449.628589
_symmetry_space_group_name_H-M "P C A 21"
_symmetry_group_IT_number 29
_symmetry_cell_setting 'orthorhombic'
loop_
_space_group_symop_operation_xyz
x,y,z
-x,-y,1/2+z
1/2-x,y,1/2+z
1/2+x,-y,z
loop_
_atom_site_type_symbol
_atom_site_label
_atom_site_fract_x
_atom_site_fract_y
_atom_site_fract_z
Si Si1 0.949563 0.302649 0.587650
Si Si2 0.873642 0.037001 0.265155
Si Si3 0.720785 0.245566 0.053952
Si Si4 0.515413 0.130112 0.353836
Si Si5 0.398486 0.138047 0.001732
Si Si6 0.764431 0.884309 0.480540
Si Si7 0.889373 0.633211 0.474024
Si Si8 0.298432 0.614911 0.291066
O O1 0.870612 0.218725 0.540248
O O2 0.958621 0.234124 0.730702
O O3 0.926298 0.496026 0.567189
O O4 0.027177 0.257252 0.511909
O O5 0.854930 0.233336 0.248204
O O6 0.881144 0.910981 0.146899
O O7 0.809418 0.957550 0.357848
O O8 0.959522 0.023710 0.317016
O O9 0.742302 0.374131 0.168397
O O10 0.746186 0.323023 0.918464
O O11 0.748913 0.052725 0.066306
O O12 0.459178 0.249552 0.432806
O O13 0.581497 0.038031 0.431230
O O14 0.317101 0.198850 0.948339
O O15 0.822946 0.747248 0.535721
O O16 0.848836 0.539823 0.349960
#
# Coordination Sequence:
#
# PCOD9340415 Si02
#       8
#     4   4   4   4   4   4   4   4
#     4  10  23  42  59  94 136 172 217 278 346 406
#     4   9  20  39  62  95 127 174 224 282 321 406
#     4  10  21  40  65  90 127 172 225 272 327 406
#     4  10  22  39  65  91 134 170 223 271 338 407
#     4  11  21  40  68  97 126 176 233 279 332 410
#     4  10  21  40  66  97 124 175 232 285 327 407
#     4  10  22  45  60  94 143 178 212 286 351 403
#     4  10  20  39  65  90 127 171 218 271 340 389
#
# _framework density 22.074618999999998
#
# number of rings (size 3 to 8) (size 9 to 14) (size 15 to 20)
#    0.000    2.000    1.250    3.000    3.500    1.000 
#   15.750    1.250    0.000    0.000    0.000    0.000 
#    0.000    0.000    0.000    0.000    0.000    0.000 
#
# Total GULP energy -178214.327668 kJ/mol
# GULP energy per Si atom -5569.197740 kJ/mol
# Density = 2.202438 g / cm^3
# Si number density = 22.074619 Si / 1000 Ang^3
#
#
#
# Elastic Constant Matrix: (Units=GPa)
#
#
# Indices 1 2 3 4 5 6 
#
# 1 67.0179 -9.9343 7.9869 0.0000 0.0000 0.0000
# 2 -9.9343 42.2209 -8.5542 0.0000 0.0000 0.0000
# 3 7.9869 -8.5542 67.9472 0.0000 0.0000 0.0000
# 4 0.0000 0.0000 0.0000 14.9903 0.0000 0.0000
# 5 0.0000 0.0000 0.0000 0.0000 28.8561 0.0000
# 6 0.0000 0.0000 0.0000 0.0000 0.0000 28.3088
#
#
#
# Elastic Compliance Matrix: (Units=1/GPa)
#
#
# Indices 1 2 3 4 5 6 
#
# 1 0.015591 0.003383 -0.001407 0.000000 0.000000 0.000000
# 2 0.003383 0.025039 0.002755 0.000000 0.000000 0.000000
# 3 -0.001407 0.002755 0.015229 0.000000 0.000000 0.000000
# 4 0.000000 0.000000 0.000000 0.066710 0.000000 0.000000
# 5 0.000000 0.000000 0.000000 0.000000 0.034655 0.000000
# 6 0.000000 0.000000 0.000000 0.000000 0.000000 0.035325
#
#
# Mechanical properties :
#
#
# Convention : Reuss Voigt Hill
#
# Bulk Modulus (GPa) = 15.30886 17.35365 16.33125
# Shear Modulus (GPa) = 24.40695 26.94355 25.67525
#
# Velocity S-wave (km/s) = 3.32875 3.49745 3.41414
# Velocity P-wave (km/s) = 4.66092 4.91813 4.79125
#
# Compressibility (1/GPa) = 0.06532166
#
# Stress axis : x y z
#
# Youngs Moduli (GPa) = 64.14140 39.93754 65.66226
#
# Poissons Ratio (x) = -0.13512 0.09236
# Poissons Ratio (y) = -0.21701 -0.18087
# Poissons Ratio (z) = 0.09022 -0.11001
#
# Static dielectric constant tensor:
#      x y z
#    x 1.933950 0.000000 0.000000 
#    y 0.000000 1.865960 0.000000 
#    z 0.000000 0.000000 1.894550 
# 
# From -- ./inp_files/3706.got.cif
#   From: 2010.05.17/outbox.cif.g08.bks.cpg/sg29_2_cif.got.tgz:3706.got - 2010.06.04 01:19:37.
