data_PCOD9340911
_publ_section_title
;
Structure prediction by ZEFSAII (Michael W. Deem and Ramdas Pophale) SiO2 
 PCOD9340911
Probable space group: P C A 21
;
_chemical_formula_sum "Si O2"
_cell_formula_units_Z 32
_cell_length_a 5.026522
_cell_length_b 19.406321
_cell_length_c 13.310244
_cell_angle_alpha 90.000000
_cell_angle_beta 90.000000
_cell_angle_gamma 90.000000
_cell_volume 1298.365047
_symmetry_space_group_name_H-M "P C A 21"
_symmetry_group_IT_number 29
_symmetry_cell_setting 'orthorhombic'
loop_
_space_group_symop_operation_xyz
x,y,z
-x,-y,1/2+z
1/2-x,y,1/2+z
1/2+x,-y,z
loop_
_atom_site_type_symbol
_atom_site_label
_atom_site_fract_x
_atom_site_fract_y
_atom_site_fract_z
Si Si1 0.985078 0.118217 0.103750
Si Si2 0.929689 0.543510 0.065353
Si Si3 0.701644 0.619518 0.765755
Si Si4 0.631091 0.767429 0.665352
Si Si5 0.667147 0.955494 0.912400
Si Si6 0.204848 0.632614 0.896226
Si Si7 0.723696 0.135425 0.285026
Si Si8 0.376974 0.785320 0.462583
O O1 0.812098 0.085874 0.193363
O O2 0.168615 0.169085 0.167528
O O3 0.816083 0.167903 0.030638
O O4 0.137657 0.068407 0.028411
O O5 0.625852 0.521107 0.047152
O O6 0.911213 0.569711 0.179627
O O7 0.068640 0.599966 0.994705
O O8 0.703791 0.695691 0.715689
O O9 0.497185 0.612884 0.858298
O O10 0.998776 0.610998 0.807912
O O11 0.379100 0.796644 0.725677
O O12 0.591933 0.761642 0.544774
O O13 0.522832 0.898893 0.843645
O O14 0.468287 0.020629 0.896682
O O15 0.224541 0.714200 0.916820
O O16 0.928548 0.164620 0.368776
#
# Coordination Sequence:
#
# PCOD9340911 Si02
#       8
#     4   4   4   4   4   4   4   4
#     4  10  25  41  72  98 144 183 238 294 368 427
#     4  12  28  50  73 102 148 198 246 297 357 429
#     4  12  27  45  74 110 143 186 241 303 360 433
#     4  11  23  41  72 103 141 183 230 303 372 426
#     4  11  28  47  68  99 141 190 241 289 351 432
#     4  12  26  45  74 106 141 188 242 293 362 434
#     4  10  23  44  68 103 134 183 229 301 355 426
#     4  10  22  41  67 103 140 177 227 294 363 433
#
# _framework density 24.646381999999999
#
# number of rings (size 3 to 8) (size 9 to 14) (size 15 to 20)
#    0.000    1.000    2.500    2.250   10.500    6.000 
#    0.000    0.000    0.000    0.000    0.000    0.000 
#    0.000    0.000    0.000    0.000    0.000    0.000 
#
# Total GULP energy -178741.274392 kJ/mol
# GULP energy per Si atom -5585.664825 kJ/mol
# Density = 2.459029 g / cm^3
# Si number density = 24.646382 Si / 1000 Ang^3
#
#
#
# Elastic Constant Matrix: (Units=GPa)
#
#
# Indices 1 2 3 4 5 6 
#
# 1 60.3480 -8.8049 16.7791 0.0000 0.0000 0.0000
# 2 -8.8049 53.8272 29.4435 0.0000 0.0000 0.0000
# 3 16.7791 29.4435 138.7029 0.0000 0.0000 0.0000
# 4 0.0000 0.0000 0.0000 24.1267 0.0000 0.0000
# 5 0.0000 0.0000 0.0000 0.0000 16.6641 0.0000
# 6 0.0000 0.0000 0.0000 0.0000 0.0000 14.1383
#
#
#
# Elastic Compliance Matrix: (Units=1/GPa)
#
#
# Indices 1 2 3 4 5 6 
#
# 1 0.018148 0.004717 -0.003197 0.000000 0.000000 0.000000
# 2 0.004717 0.022245 -0.005293 0.000000 0.000000 0.000000
# 3 -0.003197 -0.005293 0.008720 0.000000 0.000000 0.000000
# 4 0.000000 0.000000 0.000000 0.041448 0.000000 0.000000
# 5 0.000000 0.000000 0.000000 0.000000 0.060009 0.000000
# 6 0.000000 0.000000 0.000000 0.000000 0.000000 0.070730
#
#
# Mechanical properties :
#
#
# Convention : Reuss Voigt Hill
#
# Bulk Modulus (GPa) = 24.05714 36.41259 30.23487
# Shear Modulus (GPa) = 20.60164 25.34987 22.97575
#
# Velocity S-wave (km/s) = 2.89431 3.21057 3.05653
# Velocity P-wave (km/s) = 4.57728 5.34320 4.97500
#
# Compressibility (1/GPa) = 0.04156771
#
# Stress axis : x y z
#
# Youngs Moduli (GPa) = 55.10368 44.95456 114.68044
#
# Poissons Ratio (x) = -0.21206 0.36660
# Poissons Ratio (y) = -0.25993 0.60697
# Poissons Ratio (z) = 0.17615 0.23793
#
# Static dielectric constant tensor:
#      x y z
#    x 2.090340 0.000000 0.000000 
#    y 0.000000 1.968110 0.000000 
#    z 0.000000 0.000000 1.960890 
# 
# From -- ./inp_files/2707.got.cif
#   From: 2010.05.17/outbox.cif.g08.bks.cpg/sg29_2_cif.got.tgz:2707.got - 2010.06.04 01:19:37.
