data_PCOD9340760
_publ_section_title
;
Structure prediction by ZEFSAII (Michael W. Deem and Ramdas Pophale) SiO2 
 PCOD9340760
Probable space group: P C A 21
;
_chemical_formula_sum "Si O2"
_cell_formula_units_Z 24
_cell_length_a 15.947824
_cell_length_b 5.095435
_cell_length_c 9.966569
_cell_angle_alpha 90.000000
_cell_angle_beta 90.000000
_cell_angle_gamma 90.000000
_cell_volume 809.894366
_symmetry_space_group_name_H-M "P C A 21"
_symmetry_group_IT_number 29
_symmetry_cell_setting 'orthorhombic'
loop_
_space_group_symop_operation_xyz
x,y,z
-x,-y,1/2+z
1/2-x,y,1/2+z
1/2+x,-y,z
loop_
_atom_site_type_symbol
_atom_site_label
_atom_site_fract_x
_atom_site_fract_y
_atom_site_fract_z
Si Si1 0.627599 0.936269 0.348310
Si Si2 0.911048 0.878440 0.406750
Si Si3 0.963011 0.245784 0.637198
Si Si4 0.298535 0.495710 0.548255
Si Si5 0.207523 0.801717 0.764619
Si Si6 0.931128 0.423232 0.983906
O O1 0.553474 0.021216 0.246486
O O2 0.713468 0.999402 0.271307
O O3 0.617765 0.151762 0.466405
O O4 0.619720 0.648465 0.406668
O O5 0.828365 0.786831 0.492575
O O6 0.978220 0.640172 0.410449
O O7 0.958377 0.091787 0.497072
O O8 0.874117 0.011672 0.273470
O O9 0.878829 0.418587 0.637197
O O10 0.039293 0.447943 0.622837
O O11 0.223871 0.588026 0.647154
O O12 0.294444 0.652442 0.407815
#
# Coordination Sequence:
#
# PCOD9340760 Si02
#       6
#     4   4   4   4   4   4
#     4  11  25  40  72  98 136 179 237 290 348 418
#     4  10  21  44  70  97 145 187 238 283 371 428
#     4   9  21  43  66  92 132 185 222 277 361 423
#     4   9  21  39  69  94 137 183 233 287 357 427
#     4  10  23  43  65 105 136 187 239 300 354 428
#     4  11  23  43  64 102 132 181 231 283 345 424
#
# _framework density 29.633495
#
# number of rings (size 3 to 8) (size 9 to 14) (size 15 to 20)
#    0.000    2.000    1.667    0.000    9.333    2.667 
#    3.000    5.000    0.000    0.000    0.000    0.000 
#    0.000    0.000    0.000    0.000    0.000    0.000 
#
# Total GULP energy -134331.263915 kJ/mol
# GULP energy per Si atom -5597.135996 kJ/mol
# Density = 2.956605 g / cm^3
# Si number density = 29.633495 Si / 1000 Ang^3
#
#
#
# Elastic Constant Matrix: (Units=GPa)
#
#
# Indices 1 2 3 4 5 6 
#
# 1 112.4355 16.0751 -11.1555 0.0000 0.0000 0.0000
# 2 16.0751 156.3147 32.5923 0.0000 0.0000 0.0000
# 3 -11.1555 32.5923 118.9839 0.0000 0.0000 0.0000
# 4 0.0000 0.0000 0.0000 65.6370 0.0000 0.0000
# 5 0.0000 0.0000 0.0000 0.0000 35.8634 0.0000
# 6 0.0000 0.0000 0.0000 0.0000 0.0000 63.8014
#
#
#
# Elastic Compliance Matrix: (Units=1/GPa)
#
#
# Indices 1 2 3 4 5 6 
#
# 1 0.009182 -0.001192 0.001187 0.000000 0.000000 0.000000
# 2 -0.001192 0.006940 -0.002013 0.000000 0.000000 0.000000
# 3 0.001187 -0.002013 0.009067 0.000000 0.000000 0.000000
# 4 0.000000 0.000000 0.000000 0.015235 0.000000 0.000000
# 5 0.000000 0.000000 0.000000 0.000000 0.027884 0.000000
# 6 0.000000 0.000000 0.000000 0.000000 0.000000 0.015674
#
#
# Mechanical properties :
#
#
# Convention : Reuss Voigt Hill
#
# Bulk Modulus (GPa) = 47.27098 51.41754 49.34426
# Shear Modulus (GPa) = 52.59439 56.40852 54.50145
#
# Velocity S-wave (km/s) = 4.21744 4.36769 4.29322
# Velocity P-wave (km/s) = 6.30097 6.54404 6.42366
#
# Compressibility (1/GPa) = 0.02115463
#
# Stress axis : x y z
#
# Youngs Moduli (GPa) = 108.90648 144.10136 110.28849
#
# Poissons Ratio (x) = 0.17175 -0.13095
# Poissons Ratio (y) = 0.12980 0.22197
# Poissons Ratio (z) = -0.12931 0.29002
#
# Static dielectric constant tensor:
#      x y z
#    x 2.453540 0.000000 0.000000 
#    y 0.000000 2.254070 0.000000 
#    z 0.000000 0.000000 2.466350 
# 
# From -- ./inp_files/3560.got.cif
#   From: 2010.05.17/outbox.cif.g08.bks.cpg/sg29_2_cif.got.tgz:3560.got - 2010.06.04 01:19:37.
