data_PCOD9340403
_publ_section_title
;
Structure prediction by ZEFSAII (Michael W. Deem and Ramdas Pophale) SiO2 
 PCOD9340403
Probable space group: P C A 21
;
_chemical_formula_sum "Si O2"
_cell_formula_units_Z 28
_cell_length_a 9.070781
_cell_length_b 9.302656
_cell_length_c 17.375073
_cell_angle_alpha 90.000000
_cell_angle_beta 90.000000
_cell_angle_gamma 90.000000
_cell_volume 1466.149583
_symmetry_space_group_name_H-M "P C A 21"
_symmetry_group_IT_number 29
_symmetry_cell_setting 'orthorhombic'
loop_
_space_group_symop_operation_xyz
x,y,z
-x,-y,1/2+z
1/2-x,y,1/2+z
1/2+x,-y,z
loop_
_atom_site_type_symbol
_atom_site_label
_atom_site_fract_x
_atom_site_fract_y
_atom_site_fract_z
Si Si1 0.130628 0.301522 0.572100
Si Si2 0.439337 0.285054 0.380018
Si Si3 0.128923 0.515150 0.004027
Si Si4 0.498801 0.092489 0.798225
Si Si5 0.238573 0.766202 0.898421
Si Si6 0.710555 0.930243 0.447414
Si Si7 0.695915 0.821374 0.738301
O O1 0.265322 0.409192 0.551488
O O2 0.137991 0.164675 0.514060
O O3 0.145168 0.238991 0.657054
O O4 0.986330 0.396524 0.555248
O O5 0.445288 0.416284 0.438595
O O6 0.604767 0.249423 0.357126
O O7 0.359149 0.155699 0.425630
O O8 0.338393 0.296994 0.304486
O O9 0.213409 0.631441 0.952644
O O10 0.615176 0.206257 0.833511
O O11 0.396741 0.065668 0.873508
O O12 0.370678 0.141753 0.739197
O O13 0.597582 0.960961 0.764748
O O14 0.246547 0.904177 0.955550
#
# Coordination Sequence:
#
# PCOD9340403 Si02
#       7
#     4   4   4   4   4   4   4
#     4  11  25  45  63  96 145 172 216 286 342 400
#     4  10  21  40  66  93 130 172 223 273 321 410
#     4  11  24  43  65  95 128 183 228 264 334 414
#     4  11  20  38  68 101 123 169 224 273 324 398
#     4  12  19  39  73  95 123 165 236 273 315 390
#     4  10  20  38  69  98 122 169 226 275 319 394
#     4  11  23  43  64 100 145 164 217 286 347 388
#
# _framework density 19.097643000000001
#
# number of rings (size 3 to 8) (size 9 to 14) (size 15 to 20)
#    0.000    1.143    7.143    0.000    0.000    1.143 
#    7.714    1.429    0.000    0.000    0.000    0.000 
#    0.000    0.000    0.000    0.000    0.000    0.000 
#
# Total GULP energy -156047.075988 kJ/mol
# GULP energy per Si atom -5573.109857 kJ/mol
# Density = 1.905418 g / cm^3
# Si number density = 19.097643 Si / 1000 Ang^3
#
#
#
# Elastic Constant Matrix: (Units=GPa)
#
#
# Indices 1 2 3 4 5 6 
#
# 1 109.1620 28.0003 15.1898 0.0000 0.0000 0.0000
# 2 28.0003 82.7323 32.7068 0.0000 0.0000 0.0000
# 3 15.1898 32.7068 72.5752 0.0000 0.0000 0.0000
# 4 0.0000 0.0000 0.0000 31.9660 0.0000 0.0000
# 5 0.0000 0.0000 0.0000 0.0000 19.2528 0.0000
# 6 0.0000 0.0000 0.0000 0.0000 0.0000 29.1067
#
#
#
# Elastic Compliance Matrix: (Units=1/GPa)
#
#
# Indices 1 2 3 4 5 6 
#
# 1 0.010060 -0.003130 -0.000695 0.000000 0.000000 0.000000
# 2 -0.003130 0.015681 -0.006412 0.000000 0.000000 0.000000
# 3 -0.000695 -0.006412 0.016814 0.000000 0.000000 0.000000
# 4 0.000000 0.000000 0.000000 0.031283 0.000000 0.000000
# 5 0.000000 0.000000 0.000000 0.000000 0.051940 0.000000
# 6 0.000000 0.000000 0.000000 0.000000 0.000000 0.034356
#
#
# Mechanical properties :
#
#
# Convention : Reuss Voigt Hill
#
# Bulk Modulus (GPa) = 45.28653 46.25147 45.76900
# Shear Modulus (GPa) = 26.60001 28.63662 27.61832
#
# Velocity S-wave (km/s) = 3.73613 3.87652 3.80697
# Velocity P-wave (km/s) = 6.50970 6.65639 6.58345
#
# Compressibility (1/GPa) = 0.02208162
#
# Stress axis : x y z
#
# Youngs Moduli (GPa) = 99.40079 63.77000 59.47484
#
# Poissons Ratio (x) = 0.19961 0.04133
# Poissons Ratio (y) = 0.31113 0.38134
# Poissons Ratio (z) = 0.06908 0.40888
#
# Static dielectric constant tensor:
#      x y z
#    x 1.729460 0.000000 0.000000 
#    y 0.000000 1.703110 0.000000 
#    z 0.000000 0.000000 1.643040 
# 
# From -- ./inp_files/4975.got.cif
#   From: 2010.05.17/outbox.cif.g08.bks.cpg/sg29_3_cif.got.tgz:4975.got - 2010.06.04 01:19:37.
