data_PCOD9340647
_publ_section_title
;
Structure prediction by ZEFSAII (Michael W. Deem and Ramdas Pophale) SiO2 
 PCOD9340647
Probable space group: P C A 21
;
_chemical_formula_sum "Si O2"
_cell_formula_units_Z 20
_cell_length_a 9.485738
_cell_length_b 9.042668
_cell_length_c 8.397051
_cell_angle_alpha 90.000000
_cell_angle_beta 90.000000
_cell_angle_gamma 90.000000
_cell_volume 720.268633
_symmetry_space_group_name_H-M "P C A 21"
_symmetry_group_IT_number 29
_symmetry_cell_setting 'orthorhombic'
loop_
_space_group_symop_operation_xyz
x,y,z
-x,-y,1/2+z
1/2-x,y,1/2+z
1/2+x,-y,z
loop_
_atom_site_type_symbol
_atom_site_label
_atom_site_fract_x
_atom_site_fract_y
_atom_site_fract_z
Si Si1 0.832588 0.039726 0.596070
Si Si2 0.448604 0.112461 0.314550
Si Si3 0.252818 0.762406 0.849303
Si Si4 0.877793 0.654484 0.051074
Si Si5 0.374815 0.469716 0.714495
O O1 0.850731 0.193727 0.491920
O O2 0.720460 0.112397 0.715123
O O3 0.952598 0.995196 0.720258
O O4 0.839702 0.924602 0.453496
O O5 0.582150 0.200953 0.393477
O O6 0.385330 0.200726 0.164818
O O7 0.271925 0.599494 0.784710
O O8 0.717247 0.602953 0.077238
O O9 0.987185 0.543084 0.138773
O O10 0.904715 0.639369 0.862416
#
# Coordination Sequence:
#
# PCOD9340647 Si02
#       5
#     4   4   4   4   4
#     4  10  21  40  63  90 134 171 231 274 336 420
#     4   9  24  41  63  98 131 174 232 278 347 393
#     4   9  22  39  66  91 131 184 220 277 351 408
#     4  11  24  44  69 106 138 187 223 296 343 422
#     4  11  23  44  71 101 146 174 240 279 359 409
#
# _framework density 27.767417999999999
#
# number of rings (size 3 to 8) (size 9 to 14) (size 15 to 20)
#    1.200    0.800    0.000    2.400    5.600    1.600 
#    0.000    0.000    0.000    0.000    0.000    0.000 
#    0.000    0.000    0.000    0.000    0.000    0.000 
#
# Total GULP energy -111347.671075 kJ/mol
# GULP energy per Si atom -5567.383554 kJ/mol
# Density = 2.770422 g / cm^3
# Si number density = 27.767418 Si / 1000 Ang^3
#
#
#
# Elastic Constant Matrix: (Units=GPa)
#
#
# Indices 1 2 3 4 5 6 
#
# 1 59.9703 -4.0730 35.0514 0.0000 0.0000 0.0000
# 2 -4.0730 36.5638 46.5051 0.0000 0.0000 0.0000
# 3 35.0514 46.5051 108.1285 0.0000 0.0000 0.0000
# 4 0.0000 0.0000 0.0000 61.3508 0.0000 0.0000
# 5 0.0000 0.0000 0.0000 0.0000 46.7441 0.0000
# 6 0.0000 0.0000 0.0000 0.0000 0.0000 6.8486
#
#
#
# Elastic Compliance Matrix: (Units=1/GPa)
#
#
# Indices 1 2 3 4 5 6 
#
# 1 0.037779 0.043677 -0.031032 0.000000 0.000000 0.000000
# 2 0.043677 0.110874 -0.061845 0.000000 0.000000 0.000000
# 3 -0.031032 -0.061845 0.045906 0.000000 0.000000 0.000000
# 4 0.000000 0.000000 0.000000 0.016300 0.000000 0.000000
# 5 0.000000 0.000000 0.000000 0.000000 0.021393 0.000000
# 6 0.000000 0.000000 0.000000 0.000000 0.000000 0.146015
#
#
# Mechanical properties :
#
#
# Convention : Reuss Voigt Hill
#
# Bulk Modulus (GPa) = 10.39920 39.95885 25.17903
# Shear Modulus (GPa) = 9.82860 31.46731 20.64796
#
# Velocity S-wave (km/s) = 1.88343 3.37002 2.72987
# Velocity P-wave (km/s) = 2.91255 5.43733 4.36162
#
# Compressibility (1/GPa) = 0.09616124
#
# Stress axis : x y z
#
# Youngs Moduli (GPa) = 26.46992 9.01922 21.78342
#
# Poissons Ratio (x) = -0.39393 0.67598
# Poissons Ratio (y) = -1.15613 1.34719
# Poissons Ratio (z) = 0.82141 0.55779
#
# Static dielectric constant tensor:
#      x y z
#    x 2.320200 0.000000 0.000000 
#    y 0.000000 2.326140 0.000000 
#    z 0.000000 0.000000 2.099070 
# 
# From -- ./inp_files/1382.got.cif
#   From: 2010.05.17/outbox.cif.g08.bks.cpg/sg29_1_cif.got.tgz:1382.got - 2010.06.04 01:19:37.
