data_PCOD9340188
_publ_section_title
;
Structure prediction by ZEFSAII (Michael W. Deem and Ramdas Pophale) SiO2 
 PCOD9340188
Probable space group: P C A 21
;
_chemical_formula_sum "Si O2"
_cell_formula_units_Z 32
_cell_length_a 13.879817
_cell_length_b 11.008797
_cell_length_c 10.604910
_cell_angle_alpha 90.000000
_cell_angle_beta 90.000000
_cell_angle_gamma 90.000000
_cell_volume 1620.431179
_symmetry_space_group_name_H-M "P C A 21"
_symmetry_group_IT_number 29
_symmetry_cell_setting 'orthorhombic'
loop_
_space_group_symop_operation_xyz
x,y,z
-x,-y,1/2+z
1/2-x,y,1/2+z
1/2+x,-y,z
loop_
_atom_site_type_symbol
_atom_site_label
_atom_site_fract_x
_atom_site_fract_y
_atom_site_fract_z
Si Si1 0.744366 0.689530 0.974780
Si Si2 0.269261 0.153392 0.226174
Si Si3 0.239507 0.736139 0.525504
Si Si4 0.489510 0.205759 0.209431
Si Si5 0.449685 0.626775 0.506722
Si Si6 0.379158 0.510111 0.077349
Si Si7 0.084856 0.441644 0.833942
Si Si8 0.801305 0.117999 0.769830
O O1 0.757169 0.767033 0.848112
O O2 0.648180 0.611488 0.947932
O O3 0.740195 0.777209 0.097002
O O4 0.829129 0.592070 0.992374
O O5 0.386217 0.143884 0.222948
O O6 0.225393 0.021506 0.248654
O O7 0.336497 0.654001 0.518567
O O8 0.151368 0.642163 0.534560
O O9 0.229943 0.823476 0.403921
O O10 0.250574 0.809221 0.655508
O O11 0.482029 0.330568 0.290565
O O12 0.583694 0.135204 0.252558
O O13 0.503884 0.251805 0.065127
O O14 0.507362 0.519694 0.580110
O O15 0.462882 0.569925 0.368825
O O16 0.344933 0.475552 0.218045
#
# Coordination Sequence:
#
# PCOD9340188 Si02
#       8
#     4   4   4   4   4   4   4   4
#     4  11  20  40  65  91 123 169 209 269 316 379
#     4  11  23  44  66  89 128 170 228 262 312 384
#     4  11  23  39  65  92 129 165 210 258 330 390
#     4   9  21  41  62  89 129 166 213 268 316 382
#     4  10  19  36  60  91 126 162 198 253 328 380
#     4  11  21  39  62  95 131 164 204 272 322 392
#     4  10  19  37  62  97 131 161 209 264 328 393
#     4  11  24  44  64  90 125 179 209 272 324 374
#
# _framework density 19.74783
#
# number of rings (size 3 to 8) (size 9 to 14) (size 15 to 20)
#    0.000    1.500    5.000    2.250    0.000    0.000 
#    6.750    7.500    0.000    0.000    0.000    0.000 
#    0.000    0.000    0.000    0.000    0.000    0.000 
#
# Total GULP energy -178171.377508 kJ/mol
# GULP energy per Si atom -5567.855547 kJ/mol
# Density = 1.970288 g / cm^3
# Si number density = 19.747830 Si / 1000 Ang^3
#
#
#
# Elastic Constant Matrix: (Units=GPa)
#
#
# Indices 1 2 3 4 5 6 
#
# 1 77.3888 26.3851 36.5244 0.0000 0.0000 0.0000
# 2 26.3851 84.8268 43.8503 0.0000 0.0000 0.0000
# 3 36.5244 43.8503 113.9760 0.0000 0.0000 0.0000
# 4 0.0000 0.0000 0.0000 25.4445 0.0000 0.0000
# 5 0.0000 0.0000 0.0000 0.0000 23.7573 0.0000
# 6 0.0000 0.0000 0.0000 0.0000 0.0000 23.7514
#
#
#
# Elastic Compliance Matrix: (Units=1/GPa)
#
#
# Indices 1 2 3 4 5 6 
#
# 1 0.015761 -0.002860 -0.003950 0.000000 0.000000 0.000000
# 2 -0.002860 0.015234 -0.004945 0.000000 0.000000 0.000000
# 3 -0.003950 -0.004945 0.011942 0.000000 0.000000 0.000000
# 4 0.000000 0.000000 0.000000 0.039301 0.000000 0.000000
# 5 0.000000 0.000000 0.000000 0.000000 0.042092 0.000000
# 6 0.000000 0.000000 0.000000 0.000000 0.000000 0.042103
#
#
# Mechanical properties :
#
#
# Convention : Reuss Voigt Hill
#
# Bulk Modulus (GPa) = 51.47414 54.41235 52.94324
# Shear Modulus (GPa) = 25.45555 25.88609 25.67082
#
# Velocity S-wave (km/s) = 3.59420 3.62447 3.60937
# Velocity P-wave (km/s) = 6.58382 6.71782 6.65116
#
# Compressibility (1/GPa) = 0.01942723
#
# Stress axis : x y z
#
# Youngs Moduli (GPa) = 63.44612 65.64052 83.73790
#
# Poissons Ratio (x) = 0.18776 0.33079
# Poissons Ratio (y) = 0.18148 0.41405
# Poissons Ratio (z) = 0.25063 0.32456
#
# Static dielectric constant tensor:
#      x y z
#    x 1.742990 0.000000 0.000000 
#    y 0.000000 1.696970 0.000000 
#    z 0.000000 0.000000 1.809790 
# 
# From -- ./inp_files/1847.got.cif
#   From: 2010.05.17/outbox.cif.g08.bks.cpg/sg29_1_cif.got.tgz:1847.got - 2010.06.04 01:19:37.
