data_PCOD9340033
_publ_section_title
;
Structure prediction by ZEFSAII (Michael W. Deem and Ramdas Pophale) SiO2 
 PCOD9340033
Probable space group: P C A 21
;
_chemical_formula_sum "Si O2"
_cell_formula_units_Z 32
_cell_length_a 14.405229
_cell_length_b 15.587940
_cell_length_c 5.478991
_cell_angle_alpha 90.000000
_cell_angle_beta 90.000000
_cell_angle_gamma 90.000000
_cell_volume 1230.295624
_symmetry_space_group_name_H-M "P C A 21"
_symmetry_group_IT_number 29
_symmetry_cell_setting 'orthorhombic'
loop_
_space_group_symop_operation_xyz
x,y,z
-x,-y,1/2+z
1/2-x,y,1/2+z
1/2+x,-y,z
loop_
_atom_site_type_symbol
_atom_site_label
_atom_site_fract_x
_atom_site_fract_y
_atom_site_fract_z
Si Si1 0.394445 0.978876 0.504670
Si Si2 0.975599 0.312161 0.987342
Si Si3 0.391109 0.053462 0.008160
Si Si4 0.597746 0.512855 0.993362
Si Si5 0.282374 0.638477 0.203012
Si Si6 0.715557 0.160066 0.806236
Si Si7 0.604621 0.568502 0.497968
Si Si8 0.548890 0.753552 0.489792
O O1 0.353041 0.028227 0.272569
O O2 0.504755 0.986803 0.519004
O O3 0.373580 0.879167 0.443523
O O4 0.354020 0.016399 0.753816
O O5 0.046097 0.391884 0.978932
O O6 0.876567 0.353660 0.044512
O O7 0.998933 0.256642 0.227387
O O8 0.985887 0.261282 0.733294
O O9 0.400741 0.155848 0.998023
O O10 0.642185 0.524587 0.255800
O O11 0.508458 0.448776 0.994233
O O12 0.644604 0.518581 0.729460
O O13 0.289546 0.606572 0.489322
O O14 0.267264 0.739498 0.271169
O O15 0.713150 0.131038 0.522354
O O16 0.617192 0.670284 0.499014
#
# Coordination Sequence:
#
# PCOD9340033 Si02
#       8
#     4   4   4   4   4   4   4   4
#     4  10  20  33  46  64  90 116 148 183 222 271
#     4  10  18  28  44  62  87 119 148 176 211 264
#     4  10  20  31  46  66  91 121 144 178 225 273
#     4   8  14  24  38  58  82 112 139 163 200 239
#     4  10  20  31  43  62  86 112 147 189 222 250
#     4  10  20  33  49  65  84 114 150 188 223 258
#     4   8  14  24  38  58  85 109 136 170 196 240
#     4  10  18  28  44  65  87 117 148 173 215 267
#
# _framework density 26.010007999999999
#
# number of rings (size 3 to 8) (size 9 to 14) (size 15 to 20)
#    0.000    2.500    0.000    3.000    0.000    4.000 
#    0.000    0.000    0.000    0.000    0.000    0.000 
#    0.000    6.000    0.000    0.000    0.000    0.000 
#
# Total GULP energy -178588.099401 kJ/mol
# GULP energy per Si atom -5580.878106 kJ/mol
# Density = 2.595081 g / cm^3
# Si number density = 26.010008 Si / 1000 Ang^3
#
#
#
# Elastic Constant Matrix: (Units=GPa)
#
#
# Indices 1 2 3 4 5 6 
#
# 1 33.8154 -35.9404 10.2725 0.0000 0.0000 0.0000
# 2 -35.9404 105.6229 79.1507 0.0000 0.0000 0.0000
# 3 10.2725 79.1507 292.0157 0.0000 0.0000 0.0000
# 4 0.0000 0.0000 0.0000 47.9051 0.0000 0.0000
# 5 0.0000 0.0000 0.0000 0.0000 25.2942 0.0000
# 6 0.0000 0.0000 0.0000 0.0000 0.0000 39.8182
#
#
#
# Elastic Compliance Matrix: (Units=1/GPa)
#
#
# Indices 1 2 3 4 5 6 
#
# 1 0.063949 0.029422 -0.010224 0.000000 0.000000 0.000000
# 2 0.029422 0.025417 -0.007924 0.000000 0.000000 0.000000
# 3 -0.010224 -0.007924 0.005932 0.000000 0.000000 0.000000
# 4 0.000000 0.000000 0.000000 0.020875 0.000000 0.000000
# 5 0.000000 0.000000 0.000000 0.000000 0.039535 0.000000
# 6 0.000000 0.000000 0.000000 0.000000 0.000000 0.025114
#
#
# Mechanical properties :
#
#
# Convention : Reuss Voigt Hill
#
# Bulk Modulus (GPa) = 8.48574 59.82441 34.15508
# Shear Modulus (GPa) = 25.30911 47.80157 36.55534
#
# Velocity S-wave (km/s) = 3.12276 4.29162 3.75298
# Velocity P-wave (km/s) = 4.03383 6.89984 5.65153
#
# Compressibility (1/GPa) = 0.11784472
#
# Stress axis : x y z
#
# Youngs Moduli (GPa) = 15.63744 39.34322 168.57610
#
# Poissons Ratio (x) = -1.15755 1.72359
# Poissons Ratio (y) = -0.46008 1.33586
# Poissons Ratio (z) = 0.15988 0.31177
#
# Static dielectric constant tensor:
#      x y z
#    x 2.176960 0.000000 0.000000 
#    y 0.000000 2.108430 0.000000 
#    z 0.000000 0.000000 2.227310 
# 
# From -- ./inp_files/468.got.cif
#   From: 2010.05.17/outbox.cif.g08.bks.cpg/sg29_1_cif.got.tgz:468.got - 2010.06.04 01:19:37.
