data_PCOD9340106
_publ_section_title
;
Structure prediction by ZEFSAII (Michael W. Deem and Ramdas Pophale) SiO2 
 PCOD9340106
Probable space group: P C A 21
;
_chemical_formula_sum "Si O2"
_cell_formula_units_Z 28
_cell_length_a 23.116644
_cell_length_b 12.950230
_cell_length_c 5.129894
_cell_angle_alpha 90.000000
_cell_angle_beta 90.000000
_cell_angle_gamma 90.000000
_cell_volume 1535.715112
_symmetry_space_group_name_H-M "P C A 21"
_symmetry_group_IT_number 29
_symmetry_cell_setting 'orthorhombic'
loop_
_space_group_symop_operation_xyz
x,y,z
-x,-y,1/2+z
1/2-x,y,1/2+z
1/2+x,-y,z
loop_
_atom_site_type_symbol
_atom_site_label
_atom_site_fract_x
_atom_site_fract_y
_atom_site_fract_z
Si Si1 0.209764 0.544409 0.810290
Si Si2 0.283181 0.783307 0.369854
Si Si3 0.579248 0.474819 0.777389
Si Si4 0.072738 0.033745 0.310039
Si Si5 0.027772 0.628628 0.277685
Si Si6 0.987091 0.153579 0.033256
Si Si7 0.381872 0.939468 0.295043
O O1 0.249103 0.523002 0.557453
O O2 0.195195 0.667433 0.814387
O O3 0.146181 0.494207 0.812958
O O4 0.272047 0.790983 0.678340
O O5 0.324107 0.874594 0.278733
O O6 0.533799 0.569433 0.789961
O O7 0.568783 0.421358 0.498783
O O8 0.557547 0.395994 0.002183
O O9 0.979477 0.049600 0.858409
O O10 0.044004 0.138309 0.207712
O O11 0.108590 0.027513 0.576181
O O12 0.110154 0.986246 0.078439
O O13 0.017625 0.746802 0.355722
O O14 0.932501 0.142513 0.225552
#
# Coordination Sequence:
#
# PCOD9340106 Si02
#       7
#     4   4   4   4   4   4   4
#     4  10  20  32  53  72 102 136 174 224 255 308
#     4  10  20  31  45  71  95 128 172 198 249 313
#     4  10  21  38  47  83 104 141 178 209 265 333
#     4  10  20  30  48  74 104 125 174 196 249 309
#     4  10  22  32  57  72 114 140 170 215 268 322
#     4  10  20  32  51  77 102 138 164 212 251 308
#     4  10  19  31  47  69 101 134 154 212 245 297
#
# _framework density 18.232548999999999
#
# number of rings (size 3 to 8) (size 9 to 14) (size 15 to 20)
#    0.857    1.143    1.429    2.571    4.000    1.143 
#    0.000    0.000    0.000    0.000    0.000    6.000 
#    0.000    0.000    0.000    0.000    0.000    0.000 
#
# Total GULP energy -156003.697299 kJ/mol
# GULP energy per Si atom -5571.560618 kJ/mol
# Density = 1.819105 g / cm^3
# Si number density = 18.232549 Si / 1000 Ang^3
#
#
#
# Elastic Constant Matrix: (Units=GPa)
#
#
# Indices 1 2 3 4 5 6 
#
# 1 74.7726 -1.6229 9.2598 0.0000 0.0000 0.0000
# 2 -1.6229 15.8665 -11.7374 0.0000 0.0000 0.0000
# 3 9.2598 -11.7374 83.4954 0.0000 0.0000 0.0000
# 4 0.0000 0.0000 0.0000 18.0680 0.0000 0.0000
# 5 0.0000 0.0000 0.0000 0.0000 15.3288 0.0000
# 6 0.0000 0.0000 0.0000 0.0000 0.0000 14.6877
#
#
#
# Elastic Compliance Matrix: (Units=1/GPa)
#
#
# Indices 1 2 3 4 5 6 
#
# 1 0.013561 0.000306 -0.001461 0.000000 0.000000 0.000000
# 2 0.000306 0.070348 0.009855 0.000000 0.000000 0.000000
# 3 -0.001461 0.009855 0.013524 0.000000 0.000000 0.000000
# 4 0.000000 0.000000 0.000000 0.055346 0.000000 0.000000
# 5 0.000000 0.000000 0.000000 0.000000 0.065237 0.000000
# 6 0.000000 0.000000 0.000000 0.000000 0.000000 0.068084
#
#
# Mechanical properties :
#
#
# Convention : Reuss Voigt Hill
#
# Bulk Modulus (GPa) = 8.70820 18.43707 13.57263
# Shear Modulus (GPa) = 16.28785 21.49924 18.89355
#
# Velocity S-wave (km/s) = 2.99212 3.43763 3.22258
# Velocity P-wave (km/s) = 4.08945 5.08827 4.61596
#
# Compressibility (1/GPa) = 0.11483428
#
# Stress axis : x y z
#
# Youngs Moduli (GPa) = 73.73845 14.21514 73.94196
#
# Poissons Ratio (x) = -0.00436 0.10802
# Poissons Ratio (y) = -0.02259 -0.72871
# Poissons Ratio (z) = 0.10773 -0.14009
#
# Static dielectric constant tensor:
#      x y z
#    x 1.650250 0.000000 0.000000 
#    y 0.000000 1.628510 0.000000 
#    z 0.000000 0.000000 1.658990 
# 
# From -- ./inp_files/413.got.cif
#   From: 2010.05.17/outbox.cif.g08.bks.cpg/sg29_1_cif.got.tgz:413.got - 2010.06.04 01:19:37.
