data_PCOD9340175
_publ_section_title
;
Structure prediction by ZEFSAII (Michael W. Deem and Ramdas Pophale) SiO2 
 PCOD9340175
Probable space group: P C A 21
;
_chemical_formula_sum "Si O2"
_cell_formula_units_Z 32
_cell_length_a 29.651790
_cell_length_b 8.526735
_cell_length_c 5.425462
_cell_angle_alpha 90.000000
_cell_angle_beta 90.000000
_cell_angle_gamma 90.000000
_cell_volume 1371.735593
_symmetry_space_group_name_H-M "P C A 21"
_symmetry_group_IT_number 29
_symmetry_cell_setting 'orthorhombic'
loop_
_space_group_symop_operation_xyz
x,y,z
-x,-y,1/2+z
1/2-x,y,1/2+z
1/2+x,-y,z
loop_
_atom_site_type_symbol
_atom_site_label
_atom_site_fract_x
_atom_site_fract_y
_atom_site_fract_z
Si Si1 0.111510 0.053883 0.803680
Si Si2 0.038001 0.225174 0.110867
Si Si3 0.735526 0.596501 0.756326
Si Si4 0.047127 0.936712 0.438037
Si Si5 0.868012 0.194161 0.641603
Si Si6 0.637878 0.651842 0.537719
Si Si7 0.770482 0.238037 0.825453
Si Si8 0.901277 0.533744 0.528014
O O1 0.132504 0.161634 0.589919
O O2 0.070229 0.951426 0.702000
O O3 0.085506 0.167378 0.992464
O O4 0.144741 0.936487 0.939028
O O5 0.049123 0.409131 0.121685
O O6 0.033647 0.112255 0.348550
O O7 0.995610 0.176176 0.946832
O O8 0.763734 0.671014 0.529928
O O9 0.685638 0.597789 0.645670
O O10 0.754279 0.421119 0.810319
O O11 0.088235 0.873888 0.277090
O O12 0.824371 0.226654 0.807712
O O13 0.885759 0.354708 0.528998
O O14 0.629632 0.602881 0.256573
O O15 0.603645 0.576909 0.737345
O O16 0.748721 0.168885 0.577265
#
# Coordination Sequence:
#
# PCOD9340175 Si02
#       8
#     4   4   4   4   4   4   4   4
#     4  10  23  41  66  94 134 178 224 286 340 416
#     4  10  21  41  68  94 126 182 235 271 335 412
#     4  10  19  35  61  93 122 166 219 280 329 403
#     4  11  21  42  66  94 136 179 228 280 342 421
#     4  11  26  41  65 104 137 181 226 294 365 415
#     4  11  22  42  69  96 130 175 236 276 338 415
#     4  10  21  39  64  90 128 176 221 271 347 425
#     4  11  23  41  67 101 133 177 227 288 338 413
#
# _framework density 23.328112999999998
#
# number of rings (size 3 to 8) (size 9 to 14) (size 15 to 20)
#    0.000    1.500    2.500    3.750    3.500    0.000 
#    2.250    1.250    0.000    0.000    0.000    0.000 
#    0.000    0.000    0.000    0.000    0.000    0.000 
#
# Total GULP energy -178329.739749 kJ/mol
# GULP energy per Si atom -5572.804367 kJ/mol
# Density = 2.327502 g / cm^3
# Si number density = 23.328113 Si / 1000 Ang^3
#
#
#
# Elastic Constant Matrix: (Units=GPa)
#
#
# Indices 1 2 3 4 5 6 
#
# 1 63.6214 7.4458 1.6268 0.0000 0.0000 0.0000
# 2 7.4458 43.9188 2.2665 0.0000 0.0000 0.0000
# 3 1.6268 2.2665 95.5656 0.0000 0.0000 0.0000
# 4 0.0000 0.0000 0.0000 12.7050 0.0000 0.0000
# 5 0.0000 0.0000 0.0000 0.0000 33.7372 0.0000
# 6 0.0000 0.0000 0.0000 0.0000 0.0000 32.9756
#
#
#
# Elastic Compliance Matrix: (Units=1/GPa)
#
#
# Indices 1 2 3 4 5 6 
#
# 1 0.016040 -0.002709 -0.000209 0.000000 0.000000 0.000000
# 2 -0.002709 0.023255 -0.000505 0.000000 0.000000 0.000000
# 3 -0.000209 -0.000505 0.010480 0.000000 0.000000 0.000000
# 4 0.000000 0.000000 0.000000 0.078709 0.000000 0.000000
# 5 0.000000 0.000000 0.000000 0.000000 0.029641 0.000000
# 6 0.000000 0.000000 0.000000 0.000000 0.000000 0.030325
#
#
# Mechanical properties :
#
#
# Convention : Reuss Voigt Hill
#
# Bulk Modulus (GPa) = 23.29443 25.08713 24.19078
# Shear Modulus (GPa) = 23.85435 28.66801 26.26118
#
# Velocity S-wave (km/s) = 3.20122 3.50938 3.35883
# Velocity P-wave (km/s) = 4.86528 5.21520 5.04328
#
# Compressibility (1/GPa) = 0.04292872
#
# Stress axis : x y z
#
# Youngs Moduli (GPa) = 62.34288 43.00229 95.42389
#
# Poissons Ratio (x) = 0.11648 0.01993
# Poissons Ratio (y) = 0.16886 0.04823
# Poissons Ratio (z) = 0.01302 0.02173
#
# Static dielectric constant tensor:
#      x y z
#    x 1.951940 0.000000 0.000000 
#    y 0.000000 2.039190 0.000000 
#    z 0.000000 0.000000 2.009530 
# 
# From -- ./inp_files/910.got.cif
#   From: 2010.05.17/outbox.cif.g08.bks.cpg/sg29_1_cif.got.tgz:910.got - 2010.06.04 01:19:37.
