data_PCOD9340250
_publ_section_title
;
Structure prediction by ZEFSAII (Michael W. Deem and Ramdas Pophale) SiO2 
 PCOD9340250
Probable space group: P C A 21
;
_chemical_formula_sum "Si O2"
_cell_formula_units_Z 32
_cell_length_a 20.057015
_cell_length_b 6.834737
_cell_length_c 11.051847
_cell_angle_alpha 90.000000
_cell_angle_beta 90.000000
_cell_angle_gamma 90.000000
_cell_volume 1515.036064
_symmetry_space_group_name_H-M "P C A 21"
_symmetry_group_IT_number 29
_symmetry_cell_setting 'orthorhombic'
loop_
_space_group_symop_operation_xyz
x,y,z
-x,-y,1/2+z
1/2-x,y,1/2+z
1/2+x,-y,z
loop_
_atom_site_type_symbol
_atom_site_label
_atom_site_fract_x
_atom_site_fract_y
_atom_site_fract_z
Si Si1 0.239886 0.995184 0.447220
Si Si2 0.970033 0.487870 0.783405
Si Si3 0.895685 0.098360 0.835492
Si Si4 0.019959 0.194396 0.478939
Si Si5 0.117222 0.962512 0.926322
Si Si6 0.405405 0.262455 0.227085
Si Si7 0.258198 0.240402 0.198347
Si Si8 0.616502 0.750198 0.140024
O O1 0.308938 0.876145 0.440174
O O2 0.248981 0.146176 0.332947
O O3 0.235725 0.092675 0.581176
O O4 0.172177 0.886133 0.412134
O O5 0.923131 0.300263 0.787352
O O6 0.946729 0.616174 0.668674
O O7 0.046258 0.418890 0.789945
O O8 0.955934 0.628047 0.896061
O O9 0.885904 0.941313 0.727771
O O10 0.952022 0.004104 0.920379
O O11 0.052909 0.218482 0.607280
O O12 0.940704 0.176475 0.472987
O O13 0.102408 0.054021 0.795280
O O14 0.117015 0.159447 0.007808
O O15 0.330722 0.339752 0.203054
O O16 0.188145 0.347982 0.170315
#
# Coordination Sequence:
#
# PCOD9340250 Si02
#       8
#     4   4   4   4   4   4   4   4
#     4   9  18  36  65  91 116 165 215 251 320 383
#     4  11  24  38  61  96 121 166 210 258 317 383
#     4  10  19  41  65  85 124 163 203 257 314 380
#     4  11  23  39  61  88 127 164 206 253 322 374
#     4  10  21  39  64  92 121 165 206 263 315 371
#     4  11  22  38  64  91 123 162 211 258 312 378
#     4   9  18  37  64  90 120 166 207 258 320 378
#     4   9  21  40  66  87 124 163 206 256 320 379
#
# _framework density 21.121608999999999
#
# number of rings (size 3 to 8) (size 9 to 14) (size 15 to 20)
#    0.000    2.000    2.500    0.750    3.500    0.000 
#    2.250    0.000    8.250    0.000    0.000    0.000 
#    0.000    0.000    0.000    0.000    0.000    0.000 
#
# Total GULP energy -178431.882258 kJ/mol
# GULP energy per Si atom -5575.996321 kJ/mol
# Density = 2.107354 g / cm^3
# Si number density = 21.121609 Si / 1000 Ang^3
#
#
#
# Elastic Constant Matrix: (Units=GPa)
#
#
# Indices 1 2 3 4 5 6 
#
# 1 132.1641 18.7610 -8.0068 0.0000 0.0000 0.0000
# 2 18.7610 44.8516 -0.0181 0.0000 0.0000 0.0000
# 3 -8.0068 -0.0181 75.2820 0.0000 0.0000 0.0000
# 4 0.0000 0.0000 0.0000 6.4131 0.0000 0.0000
# 5 0.0000 0.0000 0.0000 0.0000 29.8734 0.0000
# 6 0.0000 0.0000 0.0000 0.0000 0.0000 14.7950
#
#
#
# Elastic Compliance Matrix: (Units=1/GPa)
#
#
# Indices 1 2 3 4 5 6 
#
# 1 0.008099 -0.003388 0.000861 0.000000 0.000000 0.000000
# 2 -0.003388 0.023713 -0.000355 0.000000 0.000000 0.000000
# 3 0.000861 -0.000355 0.013375 0.000000 0.000000 0.000000
# 4 0.000000 0.000000 0.000000 0.155931 0.000000 0.000000
# 5 0.000000 0.000000 0.000000 0.000000 0.033475 0.000000
# 6 0.000000 0.000000 0.000000 0.000000 0.000000 0.067590
#
#
# Mechanical properties :
#
#
# Convention : Reuss Voigt Hill
#
# Bulk Modulus (GPa) = 25.36543 30.41889 27.89216
# Shear Modulus (GPa) = 15.57209 26.32040 20.94625
#
# Velocity S-wave (km/s) = 2.71820 3.53390 3.15254
# Velocity P-wave (km/s) = 4.67833 5.57533 5.14641
#
# Compressibility (1/GPa) = 0.03942374
#
# Stress axis : x y z
#
# Youngs Moduli (GPa) = 123.46651 42.17166 74.76729
#
# Poissons Ratio (x) = 0.14286 -0.06435
# Poissons Ratio (y) = 0.41825 0.02651
# Poissons Ratio (z) = -0.10626 0.01495
#
# Static dielectric constant tensor:
#      x y z
#    x 1.811870 0.000000 0.000000 
#    y 0.000000 1.718620 0.000000 
#    z 0.000000 0.000000 1.809770 
# 
# From -- ./inp_files/3906.got.cif
#   From: 2010.05.17/outbox.cif.g08.bks.cpg/sg29_2_cif.got.tgz:3906.got - 2010.06.04 01:19:37.
