data_PCOD9340794
_publ_section_title
;
Structure prediction by ZEFSAII (Michael W. Deem and Ramdas Pophale) SiO2 
 PCOD9340794
Probable space group: P C A 21
;
_chemical_formula_sum "Si O2"
_cell_formula_units_Z 28
_cell_length_a 26.671455
_cell_length_b 6.192413
_cell_length_c 7.685487
_cell_angle_alpha 90.000000
_cell_angle_beta 90.000000
_cell_angle_gamma 90.000000
_cell_volume 1269.340141
_symmetry_space_group_name_H-M "P C A 21"
_symmetry_group_IT_number 29
_symmetry_cell_setting 'orthorhombic'
loop_
_space_group_symop_operation_xyz
x,y,z
-x,-y,1/2+z
1/2-x,y,1/2+z
1/2+x,-y,z
loop_
_atom_site_type_symbol
_atom_site_label
_atom_site_fract_x
_atom_site_fract_y
_atom_site_fract_z
Si Si1 0.527142 0.267315 0.589860
Si Si2 0.273830 0.041594 0.524139
Si Si3 0.279861 0.707597 0.267582
Si Si4 0.699511 0.579673 0.467133
Si Si5 0.863260 0.690251 0.666317
Si Si6 0.555064 0.050523 0.232611
Si Si7 0.061635 0.575314 0.949872
O O1 0.553494 0.163600 0.421235
O O2 0.487060 0.435165 0.507476
O O3 0.559065 0.376982 0.744440
O O4 0.495533 0.084219 0.693467
O O5 0.222821 0.177924 0.482418
O O6 0.311227 0.215927 0.598828
O O7 0.303711 0.899664 0.380611
O O8 0.257856 0.856822 0.656873
O O9 0.245071 0.553256 0.381796
O O10 0.310672 0.546593 0.146094
O O11 0.652204 0.564474 0.340476
O O12 0.890084 0.555200 0.516550
O O13 0.899804 0.881911 0.721907
O O14 0.560365 0.215600 0.073100
#
# Coordination Sequence:
#
# PCOD9340794 Si02
#       7
#     4   4   4   4   4   4   4
#     4  11  22  46  77 100 136 184 226 276 377 417
#     4  11  21  43  67  97 138 183 236 287 352 413
#     4  10  22  36  75  89 120 204 221 282 347 414
#     4  11  21  43  67  97 138 183 236 287 352 413
#     4  11  26  42  68 105 146 176 241 298 336 415
#     4  11  24  43  76 104 138 181 230 295 345 438
#     4  11  24  43  76 104 138 181 230 295 345 438
#
# _framework density 22.058706000000001
#
# number of rings (size 3 to 8) (size 9 to 14) (size 15 to 20)
#    0.000    1.143    5.714    0.000    2.000    0.000 
#    0.000    8.571    0.000    0.000    0.000    0.000 
#    0.000    0.000    0.000    0.000    0.000    0.000 
#
# Total GULP energy -156341.101474 kJ/mol
# GULP energy per Si atom -5583.610767 kJ/mol
# Density = 2.200850 g / cm^3
# Si number density = 22.058706 Si / 1000 Ang^3
#
#
#
# Elastic Constant Matrix: (Units=GPa)
#
#
# Indices 1 2 3 4 5 6 
#
# 1 28.6156 -4.8028 4.3310 0.0000 0.0000 0.0000
# 2 -4.8028 71.4308 18.9528 0.0000 0.0000 0.0000
# 3 4.3310 18.9528 91.7359 0.0000 0.0000 0.0000
# 4 0.0000 0.0000 0.0000 40.4876 0.0000 0.0000
# 5 0.0000 0.0000 0.0000 0.0000 14.9870 0.0000
# 6 0.0000 0.0000 0.0000 0.0000 0.0000 7.2551
#
#
#
# Elastic Compliance Matrix: (Units=1/GPa)
#
#
# Indices 1 2 3 4 5 6 
#
# 1 0.035803 0.003021 -0.002315 0.000000 0.000000 0.000000
# 2 0.003021 0.015066 -0.003255 0.000000 0.000000 0.000000
# 3 -0.002315 -0.003255 0.011683 0.000000 0.000000 0.000000
# 4 0.000000 0.000000 0.000000 0.024699 0.000000 0.000000
# 5 0.000000 0.000000 0.000000 0.000000 0.066725 0.000000
# 6 0.000000 0.000000 0.000000 0.000000 0.000000 0.137834
#
#
# Mechanical properties :
#
#
# Convention : Reuss Voigt Hill
#
# Bulk Modulus (GPa) = 17.40480 25.41605 21.41042
# Shear Modulus (GPa) = 15.81983 24.09936 19.95959
#
# Velocity S-wave (km/s) = 2.68091 3.30890 3.01132
# Velocity P-wave (km/s) = 4.18215 5.11326 4.67096
#
# Compressibility (1/GPa) = 0.05745543
#
# Stress axis : x y z
#
# Youngs Moduli (GPa) = 27.93033 66.37257 85.59659
#
# Poissons Ratio (x) = -0.20054 0.19812
# Poissons Ratio (y) = -0.08439 0.27865
# Poissons Ratio (z) = 0.06465 0.21607
#
# Static dielectric constant tensor:
#      x y z
#    x 1.801790 0.000000 0.000000 
#    y 0.000000 1.813730 0.000000 
#    z 0.000000 0.000000 1.897340 
# 
# From -- ./inp_files/2524.got.cif
#   From: 2010.05.17/outbox.cif.g08.bks.cpg/sg29_2_cif.got.tgz:2524.got - 2010.06.04 01:19:37.
