data_PCOD9340801
_publ_section_title
;
Structure prediction by ZEFSAII (Michael W. Deem and Ramdas Pophale) SiO2 
 PCOD9340801
Probable space group: P C A 21
;
_chemical_formula_sum "Si O2"
_cell_formula_units_Z 24
_cell_length_a 16.224436
_cell_length_b 11.799811
_cell_length_c 5.067404
_cell_angle_alpha 90.000000
_cell_angle_beta 90.000000
_cell_angle_gamma 90.000000
_cell_volume 970.130569
_symmetry_space_group_name_H-M "P C A 21"
_symmetry_group_IT_number 29
_symmetry_cell_setting 'orthorhombic'
loop_
_space_group_symop_operation_xyz
x,y,z
-x,-y,1/2+z
1/2-x,y,1/2+z
1/2+x,-y,z
loop_
_atom_site_type_symbol
_atom_site_label
_atom_site_fract_x
_atom_site_fract_y
_atom_site_fract_z
Si Si1 0.909721 0.927465 0.719240
Si Si2 0.020153 0.156013 0.728947
Si Si3 0.792768 0.072286 0.372997
Si Si4 0.692846 0.541368 0.071844
Si Si5 0.390391 0.696200 0.456356
Si Si6 0.989576 0.579299 0.601026
O O1 0.952731 0.837126 0.528404
O O2 0.836318 0.970168 0.530330
O O3 0.910319 0.871309 0.007684
O O4 0.964737 0.041612 0.730168
O O5 0.966888 0.262153 0.635864
O O6 0.789962 0.070324 0.054837
O O7 0.835383 0.191729 0.433749
O O8 0.742812 0.563712 0.337784
O O9 0.663811 0.409249 0.053293
O O10 0.606468 0.608812 0.045401
O O11 0.434349 0.659282 0.184842
O O12 0.017109 0.498368 0.364289
#
# Coordination Sequence:
#
# PCOD9340801 Si02
#       6
#     4   4   4   4   4   4
#     4   9  18  33  50  76 111 147 181 221 284 348
#     4   9  18  32  54  77 104 142 187 235 277 332
#     4  11  22  35  56  86 122 155 190 243 302 349
#     4  11  22  38  59  85 120 154 188 241 311 365
#     4  10  22  37  60  90 116 148 203 252 290 349
#     4  10  22  39  59  84 117 158 199 244 302 371
#
# _framework density 24.738938000000001
#
# number of rings (size 3 to 8) (size 9 to 14) (size 15 to 20)
#    0.000    2.000    0.000    4.000    0.000   10.667 
#    0.000    0.000    0.000    6.000    0.000    0.000 
#    0.000    0.000    0.000    0.000    0.000    0.000 
#
# Total GULP energy -133957.454215 kJ/mol
# GULP energy per Si atom -5581.560592 kJ/mol
# Density = 2.468263 g / cm^3
# Si number density = 24.738938 Si / 1000 Ang^3
#
#
#
# Elastic Constant Matrix: (Units=GPa)
#
#
# Indices 1 2 3 4 5 6 
#
# 1 68.0393 -2.8004 -10.2663 0.0000 0.0000 0.0000
# 2 -2.8004 41.7651 -1.2055 0.0000 0.0000 0.0000
# 3 -10.2663 -1.2055 106.2998 0.0000 0.0000 0.0000
# 4 0.0000 0.0000 0.0000 30.5693 0.0000 0.0000
# 5 0.0000 0.0000 0.0000 0.0000 39.5936 0.0000
# 6 0.0000 0.0000 0.0000 0.0000 0.0000 34.9410
#
#
#
# Elastic Compliance Matrix: (Units=1/GPa)
#
#
# Indices 1 2 3 4 5 6 
#
# 1 0.014960 0.001045 0.001457 0.000000 0.000000 0.000000
# 2 0.001045 0.024024 0.000373 0.000000 0.000000 0.000000
# 3 0.001457 0.000373 0.009552 0.000000 0.000000 0.000000
# 4 0.000000 0.000000 0.000000 0.032713 0.000000 0.000000
# 5 0.000000 0.000000 0.000000 0.000000 0.025257 0.000000
# 6 0.000000 0.000000 0.000000 0.000000 0.000000 0.028620
#
#
# Mechanical properties :
#
#
# Convention : Reuss Voigt Hill
#
# Bulk Modulus (GPa) = 18.42054 20.83997 19.63026
# Shear Modulus (GPa) = 33.90500 36.37921 35.14210
#
# Velocity S-wave (km/s) = 3.70606 3.83890 3.77306
# Velocity P-wave (km/s) = 5.07694 5.30017 5.18975
#
# Compressibility (1/GPa) = 0.05428724
#
# Stress axis : x y z
#
# Youngs Moduli (GPa) = 66.84397 41.62454 104.68713
#
# Poissons Ratio (x) = -0.04350 -0.15250
# Poissons Ratio (y) = -0.06986 -0.03909
# Poissons Ratio (z) = -0.09737 -0.01554
#
# Static dielectric constant tensor:
#      x y z
#    x 2.136270 0.000000 0.000000 
#    y 0.000000 2.010290 0.000000 
#    z 0.000000 0.000000 1.955180 
# 
# From -- ./inp_files/207.got.cif
#   From: 2010.05.17/outbox.cif.g08.bks.cpg/sg29_1_cif.got.tgz:207.got - 2010.06.04 01:19:37.
