data_PCOD9340005
_publ_section_title
;
Structure prediction by ZEFSAII (Michael W. Deem and Ramdas Pophale) SiO2 
 PCOD9340005
Probable space group: P C A 21
;
_chemical_formula_sum "Si O2"
_cell_formula_units_Z 28
_cell_length_a 5.281679
_cell_length_b 6.837938
_cell_length_c 32.384754
_cell_angle_alpha 90.000000
_cell_angle_beta 90.000000
_cell_angle_gamma 90.000000
_cell_volume 1169.601089
_symmetry_space_group_name_H-M "P C A 21"
_symmetry_group_IT_number 29
_symmetry_cell_setting 'orthorhombic'
loop_
_space_group_symop_operation_xyz
x,y,z
-x,-y,1/2+z
1/2-x,y,1/2+z
1/2+x,-y,z
loop_
_atom_site_type_symbol
_atom_site_label
_atom_site_fract_x
_atom_site_fract_y
_atom_site_fract_z
Si Si1 0.632370 0.729668 0.792420
Si Si2 0.798884 0.628658 0.704233
Si Si3 0.194323 0.373791 0.616302
Si Si4 0.804917 0.878818 0.535952
Si Si5 0.863741 0.776621 0.946518
Si Si6 0.363795 0.775614 0.914567
Si Si7 0.132622 0.718946 0.824440
O O1 0.742421 0.739503 0.746509
O O2 0.347288 0.806055 0.794470
O O3 0.594996 0.504004 0.808310
O O4 0.851793 0.806811 0.822470
O O5 0.583256 0.456958 0.704919
O O6 0.746796 0.731071 0.660343
O O7 0.408299 0.544546 0.615899
O O8 0.246044 0.247447 0.576084
O O9 0.746311 0.776037 0.492419
O O10 0.595362 0.051896 0.536449
O O11 0.645600 0.690289 0.917380
O O12 0.147925 0.697197 0.945411
O O13 0.902086 0.998703 0.928962
O O14 0.248583 0.743557 0.869594
#
# Coordination Sequence:
#
# PCOD9340005 Si02
#       7
#     4   4   4   4   4   4   4
#     4  10  17  30  47  78 107 145 178 225 277 356
#     4  10  16  32  54  79 111 145 189 221 299 364
#     4  10  23  38  62  96 127 155 197 264 311 360
#     4  12  21  40  68  91 117 164 216 243 304 381
#     4  10  19  35  55  74 100 144 195 236 284 356
#     4  10  18  32  51  77  96 136 186 243 276 328
#     4  10  18  27  49  75 106 131 183 232 273 331
#
# _framework density 23.939785000000001
#
# number of rings (size 3 to 8) (size 9 to 14) (size 15 to 20)
#    0.000    1.714    5.714    1.714    0.000    0.000 
#    0.000    0.000   18.857    0.000   22.286    0.000 
#    0.000    0.000    0.000    0.000    0.000    0.000 
#
# Total GULP energy -156304.836591 kJ/mol
# GULP energy per Si atom -5582.315593 kJ/mol
# Density = 2.388530 g / cm^3
# Si number density = 23.939785 Si / 1000 Ang^3
#
#
#
# Elastic Constant Matrix: (Units=GPa)
#
#
# Indices 1 2 3 4 5 6 
#
# 1 142.3190 -18.4114 -21.4192 0.0000 0.0000 0.0000
# 2 -18.4114 57.6389 -3.4449 0.0000 0.0000 0.0000
# 3 -21.4192 -3.4449 146.1268 0.0000 0.0000 0.0000
# 4 0.0000 0.0000 0.0000 27.5545 0.0000 0.0000
# 5 0.0000 0.0000 0.0000 0.0000 42.3760 0.0000
# 6 0.0000 0.0000 0.0000 0.0000 0.0000 -9.6274
#
#
#
# Elastic Compliance Matrix: (Units=1/GPa)
#
#
# Indices 1 2 3 4 5 6 
#
# 1 0.007521 0.002472 0.001161 0.000000 0.000000 0.000000
# 2 0.002472 0.018186 0.000791 0.000000 0.000000 0.000000
# 3 0.001161 0.000791 0.007032 0.000000 0.000000 0.000000
# 4 0.000000 0.000000 0.000000 0.036292 0.000000 0.000000
# 5 0.000000 0.000000 0.000000 0.000000 0.023598 0.000000
# 6 0.000000 0.000000 0.000000 0.000000 0.000000 -0.103870
#
#
# Mechanical properties :
#
#
# Convention : Reuss Voigt Hill
#
# Bulk Modulus (GPa) = 24.04639 28.83705 26.44172
# Shear Modulus (GPa) = -803.17722 38.01795 -382.57963
#
# Velocity S-wave (km/s) = -18.33650 3.98938 -12.65528
# Velocity P-wave (km/s) = 20.93410 5.76992 14.22928
#
# Compressibility (1/GPa) = 0.04158629
#
# Stress axis : x y z
#
# Youngs Moduli (GPa) = 132.96243 54.98668 142.20395
#
# Poissons Ratio (x) = -0.13591 -0.16505
# Poissons Ratio (y) = -0.32865 -0.11249
# Poissons Ratio (z) = -0.15433 -0.04350
#
# Static dielectric constant tensor:
#      x y z
#    x 2.000520 0.000000 0.000000 
#    y 0.000000 2.253280 0.000000 
#    z 0.000000 0.000000 1.918970 
# 
# From -- ./inp_files/5747.got.cif
#   From: 2010.05.17/outbox.cif.g08.bks.cpg/sg29_3_cif.got.tgz:5747.got - 2010.06.04 01:19:37.
