data_PCOD9340101
_publ_section_title
;
Structure prediction by ZEFSAII (Michael W. Deem and Ramdas Pophale) SiO2 
 PCOD9340101
Probable space group: P C A 21
;
_chemical_formula_sum "Si O2"
_cell_formula_units_Z 32
_cell_length_a 5.514444
_cell_length_b 9.663344
_cell_length_c 22.247449
_cell_angle_alpha 90.000000
_cell_angle_beta 90.000000
_cell_angle_gamma 90.000000
_cell_volume 1185.521380
_symmetry_space_group_name_H-M "P C A 21"
_symmetry_group_IT_number 29
_symmetry_cell_setting 'orthorhombic'
loop_
_space_group_symop_operation_xyz
x,y,z
-x,-y,1/2+z
1/2-x,y,1/2+z
1/2+x,-y,z
loop_
_atom_site_type_symbol
_atom_site_label
_atom_site_fract_x
_atom_site_fract_y
_atom_site_fract_z
Si Si1 0.420917 0.308408 0.206730
Si Si2 0.595137 0.740735 0.036257
Si Si3 0.904579 0.477340 0.317756
Si Si4 0.076200 0.805404 0.741012
Si Si5 0.425108 0.831581 0.905913
Si Si6 0.576546 0.863388 0.360677
Si Si7 0.406218 0.682042 0.579524
Si Si8 0.637737 0.005138 0.125117
O O1 0.406560 0.417707 0.260348
O O2 0.646590 0.205624 0.219612
O O3 0.504452 0.375582 0.143858
O O4 0.158298 0.234474 0.200023
O O5 0.859738 0.669599 0.036720
O O6 0.370543 0.649423 0.061968
O O7 0.628841 0.880507 0.076825
O O8 0.508911 0.786233 0.971027
O O9 0.652997 0.494100 0.351937
O O10 0.923939 0.330637 0.285332
O O11 0.997947 0.911193 0.793268
O O12 0.151791 0.784176 0.890547
O O13 0.655140 0.795614 0.862735
O O14 0.395078 0.997127 0.899507
O O15 0.381491 0.849421 0.590547
O O16 0.388626 0.987831 0.160902
#
# Coordination Sequence:
#
# PCOD9340101 Si02
#       8
#     4   4   4   4   4   4   4   4
#     4  10  19  33  54  76 110 137 166 215 268 323
#     4  10  19  31  50  70 102 137 175 220 247 298
#     4   8  16  30  52  78  98 128 162 210 265 313
#     4  10  19  35  54  74 110 133 176 224 262 316
#     4  10  21  33  53  73 100 144 183 222 267 299
#     4  10  21  32  53  75  98 141 187 225 258 308
#     4  10  19  29  48  74 102 134 172 213 248 310
#     4   8  16  25  42  58  92 120 167 199 231 277
#
# _framework density 26.992341
#
# number of rings (size 3 to 8) (size 9 to 14) (size 15 to 20)
#    0.000    2.500    0.000    2.250   10.500    0.000 
#    0.000    0.000   49.500    0.000    0.000    0.000 
#    0.000  180.000    0.000    0.000    0.000    0.000 
#
# Total GULP energy -178742.585293 kJ/mol
# GULP energy per Si atom -5585.705790 kJ/mol
# Density = 2.693090 g / cm^3
# Si number density = 26.992341 Si / 1000 Ang^3
#
#
#
# Elastic Constant Matrix: (Units=GPa)
#
#
# Indices 1 2 3 4 5 6 
#
# 1 215.1300 -6.3911 -8.0503 0.0000 0.0000 0.0000
# 2 -6.3911 61.7649 -8.4344 0.0000 0.0000 0.0000
# 3 -8.0503 -8.4344 78.9441 0.0000 0.0000 0.0000
# 4 0.0000 0.0000 0.0000 16.4284 0.0000 0.0000
# 5 0.0000 0.0000 0.0000 0.0000 38.4763 0.0000
# 6 0.0000 0.0000 0.0000 0.0000 0.0000 14.9218
#
#
#
# Elastic Compliance Matrix: (Units=1/GPa)
#
#
# Indices 1 2 3 4 5 6 
#
# 1 0.004685 0.000558 0.000537 0.000000 0.000000 0.000000
# 2 0.000558 0.016497 0.001819 0.000000 0.000000 0.000000
# 3 0.000537 0.001819 0.012916 0.000000 0.000000 0.000000
# 4 0.000000 0.000000 0.000000 0.060870 0.000000 0.000000
# 5 0.000000 0.000000 0.000000 0.000000 0.025990 0.000000
# 6 0.000000 0.000000 0.000000 0.000000 0.000000 0.067016
#
#
# Mechanical properties :
#
#
# Convention : Reuss Voigt Hill
#
# Bulk Modulus (GPa) = 25.04511 34.45418 29.74964
# Shear Modulus (GPa) = 25.58153 39.21296 32.39724
#
# Velocity S-wave (km/s) = 3.08187 3.81562 3.46820
# Velocity P-wave (km/s) = 4.68643 5.67487 5.20417
#
# Compressibility (1/GPa) = 0.03992796
#
# Stress axis : x y z
#
# Youngs Moduli (GPa) = 213.44518 60.61847 77.42114
#
# Poissons Ratio (x) = -0.03384 -0.04161
# Poissons Ratio (y) = -0.11914 -0.14086
# Poissons Ratio (z) = -0.11470 -0.11029
#
# Static dielectric constant tensor:
#      x y z
#    x 2.238120 0.000000 0.000000 
#    y 0.000000 2.297530 0.000000 
#    z 0.000000 0.000000 2.271730 
# 
# From -- ./inp_files/4905.got.cif
#   From: 2010.05.17/outbox.cif.g08.bks.cpg/sg29_3_cif.got.tgz:4905.got - 2010.06.04 01:19:37.
