data_PCOD9340461
_publ_section_title
;
Structure prediction by ZEFSAII (Michael W. Deem and Ramdas Pophale) SiO2 
 PCOD9340461
Probable space group: P C A 21
;
_chemical_formula_sum "Si O2"
_cell_formula_units_Z 32
_cell_length_a 13.474696
_cell_length_b 7.524144
_cell_length_c 14.642756
_cell_angle_alpha 90.000000
_cell_angle_beta 90.000000
_cell_angle_gamma 90.000000
_cell_volume 1484.563915
_symmetry_space_group_name_H-M "P C A 21"
_symmetry_group_IT_number 29
_symmetry_cell_setting 'orthorhombic'
loop_
_space_group_symop_operation_xyz
x,y,z
-x,-y,1/2+z
1/2-x,y,1/2+z
1/2+x,-y,z
loop_
_atom_site_type_symbol
_atom_site_label
_atom_site_fract_x
_atom_site_fract_y
_atom_site_fract_z
Si Si1 0.585314 0.416236 0.609230
Si Si2 0.751882 0.780108 0.278344
Si Si3 0.374632 0.555966 0.311537
Si Si4 0.207612 0.233246 0.565548
Si Si5 0.885279 0.994995 0.911613
Si Si6 0.111038 0.429671 0.996784
Si Si7 0.884006 0.046070 0.388780
Si Si8 0.246343 0.772001 0.507636
O O1 0.570777 0.445339 0.715923
O O2 0.636144 0.594919 0.571088
O O3 0.480204 0.390370 0.561842
O O4 0.668009 0.264612 0.588909
O O5 0.776677 0.570969 0.298097
O O6 0.757197 0.806337 0.169036
O O7 0.658276 0.867648 0.331249
O O8 0.838698 0.897069 0.323736
O O9 0.429488 0.461246 0.395415
O O10 0.366422 0.761993 0.340007
O O11 0.145258 0.090841 0.508961
O O12 0.304031 0.284764 0.507180
O O13 0.002005 0.997518 0.903560
O O14 0.829648 0.186081 0.922035
O O15 0.178056 0.605605 0.014780
O O16 0.826818 0.074948 0.485387
#
# Coordination Sequence:
#
# PCOD9340461 Si02
#       8
#     4   4   4   4   4   4   4   4
#     4  10  22  38  64  96 127 174 224 267 332 401
#     4  10  23  42  61  99 130 169 226 273 329 398
#     4  10  21  41  64  92 134 170 217 276 319 402
#     4  10  21  39  64  91 130 173 219 275 330 404
#     4  11  22  41  68  92 134 177 211 280 340 392
#     4  10  20  41  64  93 127 173 222 271 333 400
#     4  10  23  42  64  96 133 171 221 274 328 407
#     4   9  22  40  61  93 129 167 218 270 327 392
#
# _framework density 21.555150999999999
#
# number of rings (size 3 to 8) (size 9 to 14) (size 15 to 20)
#    0.000    2.000    1.250    1.500    5.250    0.000 
#    0.000    5.000    0.000    0.000    0.000    0.000 
#    0.000    0.000    0.000    0.000    0.000    0.000 
#
# Total GULP energy -178140.260515 kJ/mol
# GULP energy per Si atom -5566.883141 kJ/mol
# Density = 2.150609 g / cm^3
# Si number density = 21.555151 Si / 1000 Ang^3
#
#
#
# Elastic Constant Matrix: (Units=GPa)
#
#
# Indices 1 2 3 4 5 6 
#
# 1 127.8720 -3.1593 12.1861 0.0000 0.0000 0.0000
# 2 -3.1593 63.3701 -15.7386 0.0000 0.0000 0.0000
# 3 12.1861 -15.7386 76.4016 0.0000 0.0000 0.0000
# 4 0.0000 0.0000 0.0000 26.0494 0.0000 0.0000
# 5 0.0000 0.0000 0.0000 0.0000 19.2486 0.0000
# 6 0.0000 0.0000 0.0000 0.0000 0.0000 1.9283
#
#
#
# Elastic Compliance Matrix: (Units=1/GPa)
#
#
# Indices 1 2 3 4 5 6 
#
# 1 0.007941 0.000086 -0.001249 0.000000 0.000000 0.000000
# 2 0.000086 0.016632 0.003413 0.000000 0.000000 0.000000
# 3 -0.001249 0.003413 0.013991 0.000000 0.000000 0.000000
# 4 0.000000 0.000000 0.000000 0.038389 0.000000 0.000000
# 5 0.000000 0.000000 0.000000 0.000000 0.051952 0.000000
# 6 0.000000 0.000000 0.000000 0.000000 0.000000 0.518603
#
#
# Mechanical properties :
#
#
# Convention : Reuss Voigt Hill
#
# Bulk Modulus (GPa) = 23.22184 28.24669 25.73426
# Shear Modulus (GPa) = 7.60614 27.73562 17.67088
#
# Velocity S-wave (km/s) = 1.88052 3.59099 2.86632
# Velocity P-wave (km/s) = 3.93849 5.50695 4.78739
#
# Compressibility (1/GPa) = 0.04306291
#
# Stress axis : x y z
#
# Youngs Moduli (GPa) = 125.92125 60.12467 71.47495
#
# Poissons Ratio (x) = -0.00515 0.08927
# Poissons Ratio (y) = -0.01079 -0.24391
# Poissons Ratio (z) = 0.15728 -0.20518
#
# Static dielectric constant tensor:
#      x y z
#    x 1.770670 0.000000 0.000000 
#    y 0.000000 1.947040 0.000000 
#    z 0.000000 0.000000 1.809070 
# 
# From -- ./inp_files/4557.got.cif
#   From: 2010.05.17/outbox.cif.g08.bks.cpg/sg29_3_cif.got.tgz:4557.got - 2010.06.04 01:19:37.
