data_PCOD9340236
_publ_section_title
;
Structure prediction by ZEFSAII (Michael W. Deem and Ramdas Pophale) SiO2 
 PCOD9340236
Probable space group: P C A 21
;
_chemical_formula_sum "Si O2"
_cell_formula_units_Z 28
_cell_length_a 5.154925
_cell_length_b 14.893679
_cell_length_c 16.164504
_cell_angle_alpha 90.000000
_cell_angle_beta 90.000000
_cell_angle_gamma 90.000000
_cell_volume 1241.042697
_symmetry_space_group_name_H-M "P C A 21"
_symmetry_group_IT_number 29
_symmetry_cell_setting 'orthorhombic'
loop_
_space_group_symop_operation_xyz
x,y,z
-x,-y,1/2+z
1/2-x,y,1/2+z
1/2+x,-y,z
loop_
_atom_site_type_symbol
_atom_site_label
_atom_site_fract_x
_atom_site_fract_y
_atom_site_fract_z
Si Si1 0.685231 0.439054 0.231130
Si Si2 0.931540 0.087045 0.628919
Si Si3 0.277725 0.685935 0.388000
Si Si4 0.600999 0.046738 0.316039
Si Si5 0.784358 0.800443 0.397096
Si Si6 0.073993 0.109962 0.066019
Si Si7 0.287588 0.560321 0.543020
O O1 0.399120 0.481678 0.239824
O O2 0.755968 0.369213 0.302807
O O3 0.696876 0.402225 0.136950
O O4 0.208313 0.134087 0.632872
O O5 0.850836 0.050175 0.717781
O O6 0.708439 0.146633 0.588267
O O7 0.974101 0.997377 0.573358
O O8 0.497872 0.763329 0.379749
O O9 0.348836 0.626880 0.468047
O O10 0.987353 0.719669 0.406207
O O11 0.437370 0.136067 0.332904
O O12 0.392747 0.971809 0.347762
O O13 0.807923 0.857384 0.481125
O O14 0.500494 0.481232 0.535999
#
# Coordination Sequence:
#
# PCOD9340236 Si02
#       7
#     4   4   4   4   4   4   4
#     4  10  21  41  73 102 129 173 224 268 311 389
#     4  10  19  39  64  84 107 151 226 274 320 363
#     4  12  24  46  60 102 143 178 206 270 349 404
#     4  12  23  43  63  90 118 166 228 283 321 396
#     4  12  28  40  62  94 139 170 214 268 354 406
#     4  10  20  38  59  88 111 157 208 273 314 386
#     4  10  21  41  73 102 127 173 228 264 311 392
#
# _framework density 22.561672000000002
#
# number of rings (size 3 to 8) (size 9 to 14) (size 15 to 20)
#    0.000    1.143    2.857    4.286    4.000    0.000 
#    7.714    0.000    0.000    0.000    0.000    0.000 
#    0.000    0.000    0.000    0.000    0.000    0.000 
#
# Total GULP energy -156174.221488 kJ/mol
# GULP energy per Si atom -5577.650767 kJ/mol
# Density = 2.251032 g / cm^3
# Si number density = 22.561672 Si / 1000 Ang^3
#
#
#
# Elastic Constant Matrix: (Units=GPa)
#
#
# Indices 1 2 3 4 5 6 
#
# 1 105.7848 -14.5570 -1.6960 0.0000 0.0000 0.0000
# 2 -14.5570 36.5355 33.0740 0.0000 0.0000 0.0000
# 3 -1.6960 33.0740 73.4335 0.0000 0.0000 0.0000
# 4 0.0000 0.0000 0.0000 880.4089 0.0000 0.0000
# 5 0.0000 0.0000 0.0000 0.0000 22.0484 0.0000
# 6 0.0000 0.0000 0.0000 0.0000 0.0000 66.2310
#
#
#
# Elastic Compliance Matrix: (Units=1/GPa)
#
#
# Indices 1 2 3 4 5 6 
#
# 1 0.010314 0.006574 -0.002723 0.000000 0.000000 0.000000
# 2 0.006574 0.050403 -0.022549 0.000000 0.000000 0.000000
# 3 -0.002723 -0.022549 0.023711 0.000000 0.000000 0.000000
# 4 0.000000 0.000000 0.000000 0.001136 0.000000 0.000000
# 5 0.000000 0.000000 0.000000 0.000000 0.045355 0.000000
# 6 0.000000 0.000000 0.000000 0.000000 0.000000 0.015099
#
#
# Mechanical properties :
#
#
# Convention : Reuss Voigt Hill
#
# Bulk Modulus (GPa) = 21.26183 27.71063 24.48623
# Shear Modulus (GPa) = 25.11416 206.99984 116.05700
#
# Velocity S-wave (km/s) = 3.33999 9.58893 7.17994
# Velocity P-wave (km/s) = 4.93136 11.61489 8.92256
#
# Compressibility (1/GPa) = 0.04703263
#
# Stress axis : x y z
#
# Youngs Moduli (GPa) = 96.95363 19.84005 42.17456
#
# Poissons Ratio (x) = -0.13044 0.11484
# Poissons Ratio (y) = -0.63742 0.95101
# Poissons Ratio (z) = 0.26399 0.44738
#
# Static dielectric constant tensor:
#      x y z
#    x 1.913640 0.000000 0.000000 
#    y 0.000000 1.722450 0.000000 
#    z 0.000000 0.000000 1.886510 
# 
# From -- ./inp_files/4080.got.cif
#   From: 2010.05.17/outbox.cif.g08.bks.cpg/sg29_3_cif.got.tgz:4080.got - 2010.06.04 01:19:37.
