data_PCOD9340104
_publ_section_title
;
Structure prediction by ZEFSAII (Michael W. Deem and Ramdas Pophale) SiO2 
 PCOD9340104
Probable space group: P C A 21
;
_chemical_formula_sum "Si O2"
_cell_formula_units_Z 32
_cell_length_a 5.423202
_cell_length_b 16.185725
_cell_length_c 16.179877
_cell_angle_alpha 90.000000
_cell_angle_beta 90.000000
_cell_angle_gamma 90.000000
_cell_volume 1420.244624
_symmetry_space_group_name_H-M "P C A 21"
_symmetry_group_IT_number 29
_symmetry_cell_setting 'orthorhombic'
loop_
_space_group_symop_operation_xyz
x,y,z
-x,-y,1/2+z
1/2-x,y,1/2+z
1/2+x,-y,z
loop_
_atom_site_type_symbol
_atom_site_label
_atom_site_fract_x
_atom_site_fract_y
_atom_site_fract_z
Si Si1 0.818560 0.793436 0.426640
Si Si2 0.715590 0.550564 0.501106
Si Si3 0.805595 0.982025 0.374767
Si Si4 0.787435 0.044447 0.561165
Si Si5 0.137936 0.350687 0.334763
Si Si6 0.360463 0.705876 0.808412
Si Si7 0.791455 0.214327 0.156912
Si Si8 0.789153 0.719492 0.096733
O O1 0.824351 0.887305 0.401343
O O2 0.617003 0.740835 0.376463
O O3 0.758387 0.783013 0.521281
O O4 0.061262 0.741755 0.398257
O O5 0.451935 0.507340 0.513352
O O6 0.704241 0.585995 0.407344
O O7 0.750224 0.628780 0.560613
O O8 0.551834 0.994385 0.327818
O O9 0.792880 0.037706 0.459724
O O10 0.726947 0.131318 0.603653
O O11 0.559966 0.985307 0.585853
O O12 0.384246 0.339665 0.280694
O O13 0.861675 0.359356 0.302621
O O14 0.297743 0.784860 0.751878
O O15 0.574952 0.271849 0.119867
O O16 0.065035 0.252980 0.156096
#
# Coordination Sequence:
#
# PCOD9340104 Si02
#       8
#     4   4   4   4   4   4   4   4
#     4   9  22  36  62  85 118 153 216 261 304 358
#     4  11  22  39  66 100 133 156 199 265 320 370
#     4  10  19  30  50  79 113 149 193 261 310 349
#     4  10  20  35  53  82 118 162 209 264 313 367
#     4   9  21  38  64  87 119 159 210 250 307 379
#     4  10  22  39  62  87 123 159 210 263 309 370
#     4  12  23  40  63  91 127 172 217 262 316 387
#     4  11  23  37  66  95 117 166 214 256 311 382
#
# _framework density 22.531331000000002
#
# number of rings (size 3 to 8) (size 9 to 14) (size 15 to 20)
#    0.750    1.000    0.000    6.000    5.250    0.000 
#    0.000    1.250    0.000   15.000    0.000    0.000 
#    0.000    0.000    0.000    0.000    0.000    0.000 
#
# Total GULP energy -178353.156357 kJ/mol
# GULP energy per Si atom -5573.536136 kJ/mol
# Density = 2.248005 g / cm^3
# Si number density = 22.531331 Si / 1000 Ang^3
#
#
#
# Elastic Constant Matrix: (Units=GPa)
#
#
# Indices 1 2 3 4 5 6 
#
# 1 170.1726 25.4468 -2.3844 0.0000 0.0000 0.0000
# 2 25.4468 43.1684 -10.8248 0.0000 0.0000 0.0000
# 3 -2.3844 -10.8248 16.7012 0.0000 0.0000 0.0000
# 4 0.0000 0.0000 0.0000 4.4424 0.0000 0.0000
# 5 0.0000 0.0000 0.0000 0.0000 25.5851 0.0000
# 6 0.0000 0.0000 0.0000 0.0000 0.0000 26.9187
#
#
#
# Elastic Compliance Matrix: (Units=1/GPa)
#
#
# Indices 1 2 3 4 5 6 
#
# 1 0.006492 -0.004292 -0.001855 0.000000 0.000000 0.000000
# 2 -0.004292 0.030498 0.019155 0.000000 0.000000 0.000000
# 3 -0.001855 0.019155 0.072026 0.000000 0.000000 0.000000
# 4 0.000000 0.000000 0.000000 0.225104 0.000000 0.000000
# 5 0.000000 0.000000 0.000000 0.000000 0.039085 0.000000
# 6 0.000000 0.000000 0.000000 0.000000 0.000000 0.037149
#
#
# Mechanical properties :
#
#
# Convention : Reuss Voigt Hill
#
# Bulk Modulus (GPa) = 7.40569 28.27970 17.84270
# Shear Modulus (GPa) = 11.64549 25.90955 18.77752
#
# Velocity S-wave (km/s) = 2.27592 3.39475 2.88999
# Velocity P-wave (km/s) = 3.19380 5.28623 4.36719
#
# Compressibility (1/GPa) = 0.13503126
#
# Stress axis : x y z
#
# Youngs Moduli (GPa) = 154.03038 32.78865 13.88387
#
# Poissons Ratio (x) = 0.14073 0.02576
# Poissons Ratio (y) = 0.66113 -0.26594
# Poissons Ratio (z) = 0.28574 -0.62805
#
# Static dielectric constant tensor:
#      x y z
#    x 1.963520 0.000000 0.000000 
#    y 0.000000 1.795290 0.000000 
#    z 0.000000 0.000000 1.891230 
# 
# From -- ./inp_files/4903.got.cif
#   From: 2010.05.17/outbox.cif.g08.bks.cpg/sg29_3_cif.got.tgz:4903.got - 2010.06.04 01:19:37.
