data_PCOD9340391
_publ_section_title
;
Structure prediction by ZEFSAII (Michael W. Deem and Ramdas Pophale) SiO2 
 PCOD9340391
Probable space group: P C A 21
;
_chemical_formula_sum "Si O2"
_cell_formula_units_Z 28
_cell_length_a 34.196405
_cell_length_b 8.303362
_cell_length_c 5.140000
_cell_angle_alpha 90.000000
_cell_angle_beta 90.000000
_cell_angle_gamma 90.000000
_cell_volume 1459.477967
_symmetry_space_group_name_H-M "P C A 21"
_symmetry_group_IT_number 29
_symmetry_cell_setting 'orthorhombic'
loop_
_space_group_symop_operation_xyz
x,y,z
-x,-y,1/2+z
1/2-x,y,1/2+z
1/2+x,-y,z
loop_
_atom_site_type_symbol
_atom_site_label
_atom_site_fract_x
_atom_site_fract_y
_atom_site_fract_z
Si Si1 0.360870 0.295034 0.824560
Si Si2 0.772923 0.323904 0.696981
Si Si3 0.396241 0.154701 0.322126
Si Si4 0.026452 0.994162 0.700680
Si Si5 0.227510 0.283243 0.209546
Si Si6 0.862521 0.335736 0.642179
Si Si7 0.898224 0.193448 0.150570
O O1 0.387011 0.197353 0.617893
O O2 0.316208 0.237522 0.789840
O O3 0.362518 0.480477 0.738496
O O4 0.376058 0.273389 0.116932
O O5 0.743103 0.269275 0.474448
O O6 0.772087 0.520365 0.702469
O O7 0.817450 0.279200 0.636751
O O8 0.442565 0.135612 0.270126
O O9 0.380540 0.977552 0.244776
O O10 0.055388 0.840764 0.668583
O O11 0.003487 0.025895 0.436119
O O12 0.258482 0.229499 0.426653
O O13 0.882397 0.319095 0.361289
O O14 0.885670 0.235282 0.860099
#
# Coordination Sequence:
#
# PCOD9340391 Si02
#       7
#     4   4   4   4   4   4   4
#     4  11  20  35  58  85 115 144 186 236 278 317
#     4   9  17  29  48  75 106 145 189 227 262 311
#     4  10  22  36  59  85 108 148 180 232 267 339
#     4  10  20  38  64  84 102 142 192 220 254 336
#     4   9  17  29  48  75 106 145 189 227 262 311
#     4  11  20  35  58  85 115 144 186 236 278 317
#     4  10  22  36  59  85 108 148 180 232 267 339
#
# _framework density 19.184940999999998
#
# number of rings (size 3 to 8) (size 9 to 14) (size 15 to 20)
#    0.857    1.143    0.000    5.143    0.000    4.571 
#    0.000    0.000    0.000   34.286    0.000    0.000 
#    0.000    0.000    0.000    0.000    0.000    0.000 
#
# Total GULP energy -156148.329519 kJ/mol
# GULP energy per Si atom -5576.726054 kJ/mol
# Density = 1.914128 g / cm^3
# Si number density = 19.184941 Si / 1000 Ang^3
#
#
#
# Elastic Constant Matrix: (Units=GPa)
#
#
# Indices 1 2 3 4 5 6 
#
# 1 48.0070 -0.4852 -13.1964 0.0000 0.0000 0.0000
# 2 -0.4852 21.1482 -15.0564 0.0000 0.0000 0.0000
# 3 -13.1964 -15.0564 57.6679 0.0000 0.0000 0.0000
# 4 0.0000 0.0000 0.0000 28.8973 0.0000 0.0000
# 5 0.0000 0.0000 0.0000 0.0000 46.0673 0.0000
# 6 0.0000 0.0000 0.0000 0.0000 0.0000 7.2565
#
#
#
# Elastic Compliance Matrix: (Units=1/GPa)
#
#
# Indices 1 2 3 4 5 6 
#
# 1 0.022681 0.005178 0.006542 0.000000 0.000000 0.000000
# 2 0.005178 0.059264 0.016658 0.000000 0.000000 0.000000
# 3 0.006542 0.016658 0.023187 0.000000 0.000000 0.000000
# 4 0.000000 0.000000 0.000000 0.034605 0.000000 0.000000
# 5 0.000000 0.000000 0.000000 0.000000 0.021707 0.000000
# 6 0.000000 0.000000 0.000000 0.000000 0.000000 0.137808
#
#
# Mechanical properties :
#
#
# Convention : Reuss Voigt Hill
#
# Bulk Modulus (GPa) = 6.17712 7.70523 6.94118
# Shear Modulus (GPa) = 16.86573 26.81495 21.84034
#
# Velocity S-wave (km/s) = 2.96820 3.74265 3.37769
# Velocity P-wave (km/s) = 3.86959 4.76462 4.34024
#
# Compressibility (1/GPa) = 0.16188776
#
# Stress axis : x y z
#
# Youngs Moduli (GPa) = 44.08985 16.87370 43.12777
#
# Poissons Ratio (x) = -0.08737 -0.28215
# Poissons Ratio (y) = -0.22830 -0.71842
# Poissons Ratio (z) = -0.28844 -0.28108
#
# Static dielectric constant tensor:
#      x y z
#    x 1.653830 0.000000 0.000000 
#    y 0.000000 1.704210 0.000000 
#    z 0.000000 0.000000 1.644710 
# 
# From -- ./inp_files/884.got.cif
#   From: 2010.05.17/outbox.cif.g08.bks.cpg/sg29_1_cif.got.tgz:884.got - 2010.06.04 01:19:37.
