data_PCOD9340290
_publ_section_title
;
Structure prediction by ZEFSAII (Michael W. Deem and Ramdas Pophale) SiO2 
 PCOD9340290
Probable space group: P C A 21
;
_chemical_formula_sum "Si O2"
_cell_formula_units_Z 32
_cell_length_a 11.135503
_cell_length_b 12.401450
_cell_length_c 8.587070
_cell_angle_alpha 90.000000
_cell_angle_beta 90.000000
_cell_angle_gamma 90.000000
_cell_volume 1185.843313
_symmetry_space_group_name_H-M "P C A 21"
_symmetry_group_IT_number 29
_symmetry_cell_setting 'orthorhombic'
loop_
_space_group_symop_operation_xyz
x,y,z
-x,-y,1/2+z
1/2-x,y,1/2+z
1/2+x,-y,z
loop_
_atom_site_type_symbol
_atom_site_label
_atom_site_fract_x
_atom_site_fract_y
_atom_site_fract_z
Si Si1 0.899718 0.095458 0.719330
Si Si2 0.229061 0.987256 0.936637
Si Si3 0.348521 0.182920 0.258609
Si Si4 0.556926 0.204306 0.834500
Si Si5 0.705909 0.318510 0.288998
Si Si6 0.921733 0.509590 0.727586
Si Si7 0.097936 0.354454 0.546448
Si Si8 0.002997 0.291388 0.027398
O O1 0.819282 0.017019 0.612073
O O2 0.857239 0.065857 0.894631
O O3 0.844121 0.215365 0.693992
O O4 0.041941 0.104213 0.697448
O O5 0.127937 0.905096 0.867887
O O6 0.233767 0.103964 0.859207
O O7 0.306311 0.277677 0.140624
O O8 0.417573 0.249244 0.389477
O O9 0.657860 0.296862 0.823371
O O10 0.502441 0.202880 0.663264
O O11 0.469841 0.254335 0.961316
O O12 0.690489 0.430996 0.202523
O O13 0.625189 0.317417 0.445853
O O14 0.028515 0.423896 0.681001
O O15 0.942508 0.603680 0.606677
O O16 0.897778 0.563562 0.898018
#
# Coordination Sequence:
#
# PCOD9340290 Si02
#       8
#     4   4   4   4   4   4   4   4
#     4  10  23  40  61  99 123 165 219 277 326 392
#     4  11  24  40  65  92 130 171 212 279 332 386
#     4  11  23  41  66  94 132 171 222 264 338 395
#     4  10  23  34  60  96 126 154 211 268 326 370
#     4  10  20  34  62  92 130 152 206 267 323 366
#     4  11  19  37  62  90 126 165 207 251 324 374
#     4  11  20  39  60  97 126 166 212 264 309 405
#     4  10  22  35  58  90 123 168 203 256 304 408
#
# _framework density 26.985015000000001
#
# number of rings (size 3 to 8) (size 9 to 14) (size 15 to 20)
#    0.000    1.500    5.000    0.000   14.000    0.000 
#    0.000    0.000    0.000   10.500    0.000    0.000 
#    0.000    0.000    0.000    0.000    0.000    0.000 
#
# Total GULP energy -178656.746912 kJ/mol
# GULP energy per Si atom -5583.023341 kJ/mol
# Density = 2.692360 g / cm^3
# Si number density = 26.985015 Si / 1000 Ang^3
#
#
#
# Elastic Constant Matrix: (Units=GPa)
#
#
# Indices 1 2 3 4 5 6 
#
# 1 34.8423 17.4405 8.3641 0.0000 0.0000 0.0000
# 2 17.4405 115.4166 37.0337 0.0000 0.0000 0.0000
# 3 8.3641 37.0337 87.5356 0.0000 0.0000 0.0000
# 4 0.0000 0.0000 0.0000 47.7456 0.0000 0.0000
# 5 0.0000 0.0000 0.0000 0.0000 20.6852 0.0000
# 6 0.0000 0.0000 0.0000 0.0000 0.0000 27.4038
#
#
#
# Elastic Compliance Matrix: (Units=1/GPa)
#
#
# Indices 1 2 3 4 5 6 
#
# 1 0.031147 -0.004341 -0.001140 0.000000 0.000000 0.000000
# 2 -0.004341 0.010630 -0.004083 0.000000 0.000000 0.000000
# 3 -0.001140 -0.004083 0.013260 0.000000 0.000000 0.000000
# 4 0.000000 0.000000 0.000000 0.020944 0.000000 0.000000
# 5 0.000000 0.000000 0.000000 0.000000 0.048344 0.000000
# 6 0.000000 0.000000 0.000000 0.000000 0.000000 0.036491
#
#
# Mechanical properties :
#
#
# Convention : Reuss Voigt Hill
#
# Bulk Modulus (GPa) = 27.84649 40.38569 34.11609
# Shear Modulus (GPa) = 26.05342 30.83066 28.44204
#
# Velocity S-wave (km/s) = 3.11058 3.38377 3.25005
# Velocity P-wave (km/s) = 4.82106 5.50136 5.17241
#
# Compressibility (1/GPa) = 0.03591117
#
# Stress axis : x y z
#
# Youngs Moduli (GPa) = 32.10562 94.07182 75.41472
#
# Poissons Ratio (x) = 0.40836 0.08594
# Poissons Ratio (y) = 0.13937 0.30788
# Poissons Ratio (z) = 0.03659 0.38405
#
# Static dielectric constant tensor:
#      x y z
#    x 2.100660 0.000000 0.000000 
#    y 0.000000 2.107720 0.000000 
#    z 0.000000 0.000000 2.243770 
# 
# From -- ./inp_files/1902.got.cif
#   From: 2010.05.17/outbox.cif.g08.bks.cpg/sg29_1_cif.got.tgz:1902.got - 2010.06.04 01:19:37.
