data_PCOD9340220
_publ_section_title
;
Structure prediction by ZEFSAII (Michael W. Deem and Ramdas Pophale) SiO2 
 PCOD9340220
Probable space group: P C A 21
;
_chemical_formula_sum "Si O2"
_cell_formula_units_Z 32
_cell_length_a 16.832573
_cell_length_b 15.978242
_cell_length_c 5.196846
_cell_angle_alpha 90.000000
_cell_angle_beta 90.000000
_cell_angle_gamma 90.000000
_cell_volume 1397.717326
_symmetry_space_group_name_H-M "P C A 21"
_symmetry_group_IT_number 29
_symmetry_cell_setting 'orthorhombic'
loop_
_space_group_symop_operation_xyz
x,y,z
-x,-y,1/2+z
1/2-x,y,1/2+z
1/2+x,-y,z
loop_
_atom_site_type_symbol
_atom_site_label
_atom_site_fract_x
_atom_site_fract_y
_atom_site_fract_z
Si Si1 0.225172 0.043278 0.247840
Si Si2 0.958863 0.965594 0.770731
Si Si3 0.201069 0.307634 0.486871
Si Si4 0.467722 0.798536 0.099392
Si Si5 0.977705 0.717451 0.087938
Si Si6 0.201292 0.510065 0.501403
Si Si7 0.973408 0.455049 0.844994
Si Si8 0.292256 0.857827 0.228391
O O1 0.252846 0.092360 0.494877
O O2 0.279442 0.958684 0.241215
O O3 0.134318 0.016278 0.260520
O O4 0.972275 0.870103 0.693004
O O5 0.005028 0.017236 0.550938
O O6 0.265208 0.288001 0.706343
O O7 0.189188 0.409301 0.493867
O O8 0.115889 0.268452 0.549747
O O9 0.481609 0.725258 0.307986
O O10 0.379771 0.834415 0.142121
O O11 0.484576 0.778326 0.803031
O O12 0.991456 0.627798 0.217662
O O13 0.234219 0.531650 0.782650
O O14 0.118021 0.552021 0.430006
O O15 0.980135 0.520081 0.605852
O O16 0.268389 0.826414 0.509794
#
# Coordination Sequence:
#
# PCOD9340220 Si02
#       8
#     4   4   4   4   4   4   4   4
#     4  10  20  36  61  94 122 157 213 272 320 385
#     4  12  23  42  70  98 128 169 228 286 332 393
#     4  10  21  40  67  94 126 174 227 279 336 408
#     4  12  26  43  66 100 141 180 220 285 346 418
#     4  12  26  45  65 102 143 182 226 274 354 416
#     4  10  21  38  64  99 130 166 228 292 333 386
#     4  12  24  42  70  99 133 181 232 287 333 399
#     4  10  19  38  63  90 123 171 224 259 318 405
#
# _framework density 22.894472
#
# number of rings (size 3 to 8) (size 9 to 14) (size 15 to 20)
#    0.000    1.000    1.250    7.500    3.500    0.000 
#    0.000    7.500    0.000    0.000    0.000    0.000 
#    0.000    0.000    0.000    0.000    0.000    0.000 
#
# Total GULP energy -179088.982118 kJ/mol
# GULP energy per Si atom -5596.530691 kJ/mol
# Density = 2.284236 g / cm^3
# Si number density = 22.894472 Si / 1000 Ang^3
#
#
#
# Elastic Constant Matrix: (Units=GPa)
#
#
# Indices 1 2 3 4 5 6 
#
# 1 121.3451 16.9637 25.2620 0.0000 0.0000 0.0000
# 2 16.9637 31.6349 3.7838 0.0000 0.0000 0.0000
# 3 25.2620 3.7838 132.1945 0.0000 0.0000 0.0000
# 4 0.0000 0.0000 0.0000 23.9122 0.0000 0.0000
# 5 0.0000 0.0000 0.0000 0.0000 47.0007 0.0000
# 6 0.0000 0.0000 0.0000 0.0000 0.0000 26.6703
#
#
#
# Elastic Compliance Matrix: (Units=1/GPa)
#
#
# Indices 1 2 3 4 5 6 
#
# 1 0.009246 -0.004763 -0.001631 0.000000 0.000000 0.000000
# 2 -0.004763 0.034173 -0.000068 0.000000 0.000000 0.000000
# 3 -0.001631 -0.000068 0.007878 0.000000 0.000000 0.000000
# 4 0.000000 0.000000 0.000000 0.041820 0.000000 0.000000
# 5 0.000000 0.000000 0.000000 0.000000 0.021276 0.000000
# 6 0.000000 0.000000 0.000000 0.000000 0.000000 0.037495
#
#
# Mechanical properties :
#
#
# Convention : Reuss Voigt Hill
#
# Bulk Modulus (GPa) = 26.05926 41.91040 33.98483
# Shear Modulus (GPa) = 28.15268 35.46096 31.80682
#
# Velocity S-wave (km/s) = 3.51047 3.93986 3.73135
# Velocity P-wave (km/s) = 5.27620 6.24838 5.78276
#
# Compressibility (1/GPa) = 0.03837408
#
# Stress axis : x y z
#
# Youngs Moduli (GPa) = 108.15135 29.26291 126.93317
#
# Poissons Ratio (x) = 0.13938 0.20698
# Poissons Ratio (y) = 0.51514 0.00862
# Poissons Ratio (z) = 0.17635 0.00199
#
# Static dielectric constant tensor:
#      x y z
#    x 1.792660 0.000000 0.000000 
#    y 0.000000 1.904770 0.000000 
#    z 0.000000 0.000000 1.923940 
# 
# From -- ./inp_files/289.got.cif
#   From: 2010.05.17/outbox.cif.g08.bks.cpg/sg29_1_cif.got.tgz:289.got - 2010.06.04 01:19:37.
