data_PCOD9340329
_publ_section_title
;
Structure prediction by ZEFSAII (Michael W. Deem and Ramdas Pophale) SiO2 
 PCOD9340329
Probable space group: P C A 21
;
_chemical_formula_sum "Si O2"
_cell_formula_units_Z 32
_cell_length_a 23.100958
_cell_length_b 8.956227
_cell_length_c 7.912161
_cell_angle_alpha 90.000000
_cell_angle_beta 90.000000
_cell_angle_gamma 90.000000
_cell_volume 1637.005727
_symmetry_space_group_name_H-M "P C A 21"
_symmetry_group_IT_number 29
_symmetry_cell_setting 'orthorhombic'
loop_
_space_group_symop_operation_xyz
x,y,z
-x,-y,1/2+z
1/2-x,y,1/2+z
1/2+x,-y,z
loop_
_atom_site_type_symbol
_atom_site_label
_atom_site_fract_x
_atom_site_fract_y
_atom_site_fract_z
Si Si1 0.314295 0.542127 0.945330
Si Si2 0.431408 0.978109 0.114006
Si Si3 0.602972 0.730082 0.443926
Si Si4 0.910679 0.701407 0.561974
Si Si5 0.386229 0.687091 0.245682
Si Si6 0.319632 0.540712 0.546489
Si Si7 0.488976 0.468545 0.137559
Si Si8 0.498397 0.824669 0.828397
O O1 0.342587 0.378159 0.966981
O O2 0.323885 0.579550 0.746415
O O3 0.346427 0.646413 0.082719
O O4 0.246843 0.538785 0.990163
O O5 0.489704 0.052054 0.187639
O O6 0.403614 0.859899 0.239934
O O7 0.394938 0.120345 0.053451
O O8 0.450145 0.878198 0.955549
O O9 0.594977 0.769449 0.247960
O O10 0.548270 0.627827 0.502517
O O11 0.850685 0.620261 0.519206
O O12 0.939576 0.807782 0.424447
O O13 0.958245 0.568903 0.577594
O O14 0.353903 0.647824 0.418667
O O15 0.442544 0.580372 0.223269
O O16 0.514217 0.338349 0.255780
#
# Coordination Sequence:
#
# PCOD9340329 Si02
#       8
#     4   4   4   4   4   4   4   4
#     4  10  22  42  67  91 121 159 225 281 309 375
#     4  11  24  38  58  90 134 176 197 258 326 400
#     4   9  22  38  58  87 124 165 204 254 322 376
#     4  11  20  35  62  97 117 160 212 259 313 381
#     4  11  22  40  64  91 128 167 214 270 320 373
#     4  11  22  38  71  94 116 164 222 277 324 358
#     4  10  20  36  60  91 123 161 211 259 304 379
#     4  11  22  37  56  87 133 166 203 246 320 394
#
# _framework density 19.547884
#
# number of rings (size 3 to 8) (size 9 to 14) (size 15 to 20)
#    0.000    1.500    3.750    1.500    3.500    1.000 
#    2.250    0.000    8.250    0.000    0.000    0.000 
#    0.000    0.000    0.000    0.000    0.000    0.000 
#
# Total GULP energy -178707.228926 kJ/mol
# GULP energy per Si atom -5584.600904 kJ/mol
# Density = 1.950339 g / cm^3
# Si number density = 19.547884 Si / 1000 Ang^3
#
#
#
# Elastic Constant Matrix: (Units=GPa)
#
#
# Indices 1 2 3 4 5 6 
#
# 1 74.1333 30.6936 11.4378 0.0000 0.0000 0.0000
# 2 30.6936 95.5115 36.6220 0.0000 0.0000 0.0000
# 3 11.4378 36.6220 78.9479 0.0000 0.0000 0.0000
# 4 0.0000 0.0000 0.0000 25.1299 0.0000 0.0000
# 5 0.0000 0.0000 0.0000 0.0000 27.3939 0.0000
# 6 0.0000 0.0000 0.0000 0.0000 0.0000 14.6214
#
#
#
# Elastic Compliance Matrix: (Units=1/GPa)
#
#
# Indices 1 2 3 4 5 6 
#
# 1 0.015560 -0.005031 0.000079 0.000000 0.000000 0.000000
# 2 -0.005031 0.014362 -0.005933 0.000000 0.000000 0.000000
# 3 0.000079 -0.005933 0.015407 0.000000 0.000000 0.000000
# 4 0.000000 0.000000 0.000000 0.039793 0.000000 0.000000
# 5 0.000000 0.000000 0.000000 0.000000 0.036504 0.000000
# 6 0.000000 0.000000 0.000000 0.000000 0.000000 0.068393
#
#
# Mechanical properties :
#
#
# Convention : Reuss Voigt Hill
#
# Bulk Modulus (GPa) = 42.44535 45.12216 43.78376
# Shear Modulus (GPa) = 22.76437 24.75168 23.75802
#
# Velocity S-wave (km/s) = 3.41624 3.56224 3.49001
# Velocity P-wave (km/s) = 6.10914 6.32870 6.21989
#
# Compressibility (1/GPa) = 0.02355970
#
# Stress axis : x y z
#
# Youngs Moduli (GPa) = 64.26795 69.63033 64.90423
#
# Poissons Ratio (x) = 0.35029 -0.00515
# Poissons Ratio (y) = 0.32332 0.38508
# Poissons Ratio (z) = -0.00510 0.41313
#
# Static dielectric constant tensor:
#      x y z
#    x 1.670190 0.000000 0.000000 
#    y 0.000000 1.662210 0.000000 
#    z 0.000000 0.000000 1.770990 
# 
# From -- ./inp_files/2264.got.cif
#   From: 2010.05.17/outbox.cif.g08.bks.cpg/sg29_2_cif.got.tgz:2264.got - 2010.06.04 01:19:37.
