data_PCOD9340074
_publ_section_title
;
Structure prediction by ZEFSAII (Michael W. Deem and Ramdas Pophale) SiO2 
 PCOD9340074
Probable space group: P C A 21
;
_chemical_formula_sum "Si O2"
_cell_formula_units_Z 24
_cell_length_a 9.156807
_cell_length_b 8.636949
_cell_length_c 17.186742
_cell_angle_alpha 90.000000
_cell_angle_beta 90.000000
_cell_angle_gamma 90.000000
_cell_volume 1359.245717
_symmetry_space_group_name_H-M "P C A 21"
_symmetry_group_IT_number 29
_symmetry_cell_setting 'orthorhombic'
loop_
_space_group_symop_operation_xyz
x,y,z
-x,-y,1/2+z
1/2-x,y,1/2+z
1/2+x,-y,z
loop_
_atom_site_type_symbol
_atom_site_label
_atom_site_fract_x
_atom_site_fract_y
_atom_site_fract_z
Si Si1 0.249966 0.999892 0.405980
Si Si2 0.500061 0.791686 0.334841
Si Si3 0.500095 0.815610 0.993322
Si Si4 0.250250 0.500273 0.583347
Si Si5 0.000054 0.702808 0.655876
Si Si6 0.999766 0.556640 0.974632
O O1 0.356626 0.891265 0.355835
O O2 0.141793 0.896174 0.457680
O O3 0.143320 0.108385 0.355752
O O4 0.358108 0.103819 0.457593
O O5 0.500013 0.752460 0.244302
O O6 0.500285 0.643285 0.392797
O O7 0.500002 0.631786 0.971890
O O8 0.500197 0.829117 0.086860
O O9 0.356977 0.398670 0.635849
O O10 0.357174 0.596203 0.525895
O O11 0.143453 0.601878 0.635805
O O12 0.143388 0.404230 0.525899
#
# Coordination Sequence:
#
# PCOD9340074 Si02
#       6
#     4   4   4   4   4   4
#     4  10  22  38  54  78 112 148 180 216 270 330
#     4  11  22  36  56  81 110 140 180 231 272 312
#     4   9  20  38  58  79 108 148 184 213 264 328
#     4   8  18  34  54  82 108 136 180 222 266 320
#     4  10  20  34  54  82 110 138 178 228 272 310
#     4  10  18  36  60  80 104 144 186 220 260 326
#
# _framework density 17.656849999999999
#
# number of rings (size 3 to 8) (size 9 to 14) (size 15 to 20)
#    0.000    2.667    0.000    4.000    0.000    5.333 
#    0.000    5.000    0.000    0.000    0.000    0.000 
#    0.000    0.000    0.000    0.000    0.000    0.000 
#
# Total GULP energy -133787.392124 kJ/mol
# GULP energy per Si atom -5574.474672 kJ/mol
# Density = 1.761666 g / cm^3
# Si number density = 17.656850 Si / 1000 Ang^3
#
#
#
# Elastic Constant Matrix: (Units=GPa)
#
#
# Indices 1 2 3 4 5 6 
#
# 1 162.8167 53.1610 87.7857 0.0000 0.0000 0.0000
# 2 53.1610 87.1260 77.1927 0.0000 0.0000 0.0000
# 3 87.7857 77.1927 211.1175 0.0000 0.0000 0.0000
# 4 0.0000 0.0000 0.0000 29.4698 0.0000 0.0000
# 5 0.0000 0.0000 0.0000 0.0000 -7.3855 0.0000
# 6 0.0000 0.0000 0.0000 0.0000 0.0000 21.3578
#
#
#
# Elastic Compliance Matrix: (Units=1/GPa)
#
#
# Indices 1 2 3 4 5 6 
#
# 1 0.008419 -0.003011 -0.002400 0.000000 0.000000 0.000000
# 2 -0.003011 0.018054 -0.005349 0.000000 0.000000 0.000000
# 3 -0.002400 -0.005349 0.007691 0.000000 0.000000 0.000000
# 4 0.000000 0.000000 0.000000 0.033933 0.000000 0.000000
# 5 0.000000 0.000000 0.000000 0.000000 -0.135400 0.000000
# 6 0.000000 0.000000 0.000000 0.000000 0.000000 0.046821
#
#
# Mechanical properties :
#
#
# Convention : Reuss Voigt Hill
#
# Bulk Modulus (GPa) = 79.09079 99.70432 89.39756
# Shear Modulus (GPa) = 952.03051 24.88314 488.45683
#
# Velocity S-wave (km/s) = 23.24554 3.75809 16.65050
# Velocity P-wave (km/s) = 27.66522 8.68455 20.50348
#
# Compressibility (1/GPa) = 0.01264370
#
# Stress axis : x y z
#
# Youngs Moduli (GPa) = 118.78198 55.38913 130.02953
#
# Poissons Ratio (x) = 0.16675 0.31206
# Poissons Ratio (y) = 0.35760 0.69558
# Poissons Ratio (z) = 0.28506 0.29630
#
# Static dielectric constant tensor:
#      x y z
#    x 1.620130 0.000000 0.000000 
#    y 0.000000 1.618820 0.000000 
#    z 0.000000 0.000000 1.572840 
# 
# From -- ./inp_files/4945.got.cif
#   From: 2010.05.17/outbox.cif.g08.bks.cpg/sg29_3_cif.got.tgz:4945.got - 2010.06.04 01:19:37.
