data_PCOD9340039
_publ_section_title
;
Structure prediction by ZEFSAII (Michael W. Deem and Ramdas Pophale) SiO2 
 PCOD9340039
Probable space group: P C A 21
;
_chemical_formula_sum "Si O2"
_cell_formula_units_Z 28
_cell_length_a 25.855093
_cell_length_b 7.664568
_cell_length_c 5.609450
_cell_angle_alpha 90.000000
_cell_angle_beta 90.000000
_cell_angle_gamma 90.000000
_cell_volume 1111.614152
_symmetry_space_group_name_H-M "P C A 21"
_symmetry_group_IT_number 29
_symmetry_cell_setting 'orthorhombic'
loop_
_space_group_symop_operation_xyz
x,y,z
-x,-y,1/2+z
1/2-x,y,1/2+z
1/2+x,-y,z
loop_
_atom_site_type_symbol
_atom_site_label
_atom_site_fract_x
_atom_site_fract_y
_atom_site_fract_z
Si Si1 0.316532 0.272450 0.745870
Si Si2 0.354562 0.666111 0.745870
Si Si3 0.466024 0.495295 0.245870
Si Si4 0.060040 0.103152 0.745870
Si Si5 0.354484 0.656763 0.245870
Si Si6 0.562998 0.069753 0.245870
Si Si7 0.806471 0.728325 0.245870
O O1 0.347763 0.456409 0.745870
O O2 0.254836 0.306764 0.745870
O O3 0.323436 0.183205 0.491259
O O4 0.323436 0.183205 0.000481
O O5 0.334167 0.733721 0.493684
O O6 0.412856 0.737817 0.745870
O O7 0.334167 0.733721 0.998055
O O8 0.500000 0.500000 0.495870
O O9 0.436208 0.311089 0.245870
O O10 0.417836 0.634627 0.245870
O O11 0.078023 0.023036 0.494216
O O12 0.078023 0.023036 0.997524
O O13 0.998384 0.073313 0.745870
O O14 0.331359 0.462497 0.245870
#
# Coordination Sequence:
#
# PCOD9340039 Si02
#       7
#     4   4   4   4   4   4   4
#     4   8  14  24  41  65  94 116 141 182 231 287
#     4  10  18  30  49  72  96 122 155 194 241 286
#     4  12  23  35  50  69  96 129 166 208 246 286
#     4  10  21  33  47  65  89 126 164 194 232 275
#     4  10  19  30  47  70  98 125 153 193 244 292
#     4  10  19  33  48  64  90 123 161 198 228 274
#     4   8  14  25  40  63  95 119 140 179 232 292
#
# _framework density 25.188597999999999
#
# number of rings (size 3 to 8) (size 9 to 14) (size 15 to 20)
#    0.000    2.286    0.000    4.286    0.000    2.286 
#    0.000    0.000    0.000    0.000    0.000    0.000 
#    0.000  109.714    0.000    0.000    0.000    0.000 
#
# Total GULP energy -156008.554211 kJ/mol
# GULP energy per Si atom -5571.734079 kJ/mol
# Density = 2.513127 g / cm^3
# Si number density = 25.188598 Si / 1000 Ang^3
#
#
#
# Elastic Constant Matrix: (Units=GPa)
#
#
# Indices 1 2 3 4 5 6 
#
# 1 137.0842 36.1783 10.2569 0.0000 0.0000 0.0000
# 2 36.1783 64.8662 31.9091 0.0000 0.0000 0.0000
# 3 10.2569 31.9091 315.2881 0.0000 0.0000 0.0000
# 4 0.0000 0.0000 0.0000 102.1444 0.0000 0.0000
# 5 0.0000 0.0000 0.0000 0.0000 -9.3160 0.0000
# 6 0.0000 0.0000 0.0000 0.0000 0.0000 10.0890
#
#
#
# Elastic Compliance Matrix: (Units=1/GPa)
#
#
# Indices 1 2 3 4 5 6 
#
# 1 0.008568 -0.004885 0.000216 0.000000 0.000000 0.000000
# 2 -0.004885 0.019009 -0.001765 0.000000 0.000000 0.000000
# 3 0.000216 -0.001765 0.003343 0.000000 0.000000 0.000000
# 4 0.000000 0.000000 0.000000 0.009790 0.000000 0.000000
# 5 0.000000 0.000000 0.000000 0.000000 -0.107342 0.000000
# 6 0.000000 0.000000 0.000000 0.000000 0.000000 0.099118
#
#
# Mechanical properties :
#
#
# Convention : Reuss Voigt Hill
#
# Bulk Modulus (GPa) = 55.39509 74.88078 65.13793
# Shear Modulus (GPa) = 97.33047 49.84309 73.58678
#
# Velocity S-wave (km/s) = 6.22291 4.45319 5.41089
# Velocity P-wave (km/s) = 8.58328 7.49892 8.05936
#
# Compressibility (1/GPa) = 0.01805214
#
# Stress axis : x y z
#
# Youngs Moduli (GPa) = 116.71651 52.60695 299.10505
#
# Poissons Ratio (x) = 0.25697 -0.06450
# Poissons Ratio (y) = 0.57012 0.52789
# Poissons Ratio (z) = -0.02517 0.09285
#
# Static dielectric constant tensor:
#      x y z
#    x 1.991740 0.000000 0.000000 
#    y 0.000000 1.940930 0.000000 
#    z 0.000000 0.000000 2.138830 
# 
# From -- ./inp_files/793.got.cif
#   From: 2010.05.17/outbox.cif.g08.bks.cpg/sg29_1_cif.got.tgz:793.got - 2010.06.04 01:19:37.
