data_PCOD9340535
_publ_section_title
;
Structure prediction by ZEFSAII (Michael W. Deem and Ramdas Pophale) SiO2 
 PCOD9340535
Probable space group: P C A 21
;
_chemical_formula_sum "Si O2"
_cell_formula_units_Z 32
_cell_length_a 17.315399
_cell_length_b 5.765160
_cell_length_c 13.079733
_cell_angle_alpha 90.000000
_cell_angle_beta 90.000000
_cell_angle_gamma 90.000000
_cell_volume 1305.698024
_symmetry_space_group_name_H-M "P C A 21"
_symmetry_group_IT_number 29
_symmetry_cell_setting 'orthorhombic'
loop_
_space_group_symop_operation_xyz
x,y,z
-x,-y,1/2+z
1/2-x,y,1/2+z
1/2+x,-y,z
loop_
_atom_site_type_symbol
_atom_site_label
_atom_site_fract_x
_atom_site_fract_y
_atom_site_fract_z
Si Si1 0.590047 0.275217 0.017920
Si Si2 0.460587 0.557159 0.111854
Si Si3 0.798618 0.560157 0.999421
Si Si4 0.988360 0.106615 0.935955
Si Si5 0.259672 0.396260 0.721166
Si Si6 0.187816 0.941305 0.471433
Si Si7 0.902685 0.555955 0.323008
Si Si8 0.783427 0.095439 0.665861
O O1 0.531775 0.381294 0.101181
O O2 0.653956 0.130014 0.076388
O O3 0.619389 0.459819 0.934898
O O4 0.538287 0.120721 0.943354
O O5 0.435295 0.596846 0.228099
O O6 0.387202 0.460172 0.044479
O O7 0.490755 0.776160 0.048694
O O8 0.783275 0.316516 0.945401
O O9 0.784003 0.801608 0.942995
O O10 0.747372 0.579383 0.098923
O O11 0.028039 0.268967 0.851977
O O12 0.898500 0.058562 0.927906
O O13 0.176565 0.355270 0.772995
O O14 0.283977 0.669609 0.734504
O O15 0.300466 0.143375 0.725825
O O16 0.203355 0.931693 0.597328
#
# Coordination Sequence:
#
# PCOD9340535 Si02
#       8
#     4   4   4   4   4   4   4   4
#     4  11  23  38  65 101 135 175 235 297 341 413
#     4   9  19  38  59  90 131 173 216 281 349 399
#     4   8  14  29  55  82 108 158 214 252 304 395
#     4  10  21  36  66  95 130 169 230 289 333 406
#     4   9  20  38  62  89 121 176 224 267 338 419
#     4   9  16  33  55  85 118 164 208 261 329 392
#     4  10  23  40  67  98 132 177 238 285 344 420
#     4  10  22  38  65  90 129 178 229 274 350 416
#
# _framework density 24.507966
#
# number of rings (size 3 to 8) (size 9 to 14) (size 15 to 20)
#    0.000    2.500    1.250    0.750    5.250    1.000 
#    0.000    1.250    0.000    0.000    0.000    0.000 
#    0.000    0.000    0.000    0.000    0.000    0.000 
#
# Total GULP energy -178142.487955 kJ/mol
# GULP energy per Si atom -5566.952749 kJ/mol
# Density = 2.445219 g / cm^3
# Si number density = 24.507966 Si / 1000 Ang^3
#
#
#
# Elastic Constant Matrix: (Units=GPa)
#
#
# Indices 1 2 3 4 5 6 
#
# 1 54.8578 10.9718 20.5908 0.0000 0.0000 0.0000
# 2 10.9718 163.1472 16.4686 0.0000 0.0000 0.0000
# 3 20.5908 16.4686 130.3605 0.0000 0.0000 0.0000
# 4 0.0000 0.0000 0.0000 -16.9162 0.0000 0.0000
# 5 0.0000 0.0000 0.0000 0.0000 27.8641 0.0000
# 6 0.0000 0.0000 0.0000 0.0000 0.0000 33.9432
#
#
#
# Elastic Compliance Matrix: (Units=1/GPa)
#
#
# Indices 1 2 3 4 5 6 
#
# 1 0.019543 -0.001016 -0.002958 0.000000 0.000000 0.000000
# 2 -0.001016 0.006261 -0.000631 0.000000 0.000000 0.000000
# 3 -0.002958 -0.000631 0.008218 0.000000 0.000000 0.000000
# 4 0.000000 0.000000 0.000000 -0.059115 0.000000 0.000000
# 5 0.000000 0.000000 0.000000 0.000000 0.035889 0.000000
# 6 0.000000 0.000000 0.000000 0.000000 0.000000 0.029461
#
#
# Mechanical properties :
#
#
# Convention : Reuss Voigt Hill
#
# Bulk Modulus (GPa) = 40.30222 49.38089 44.84155
# Shear Modulus (GPa) = 86.59976 29.00048 57.80012
#
# Velocity S-wave (km/s) = 5.95080 3.44366 4.86163
# Velocity P-wave (km/s) = 7.98100 6.00036 7.06048
#
# Compressibility (1/GPa) = 0.02481253
#
# Stress axis : x y z
#
# Youngs Moduli (GPa) = 51.17042 159.70898 121.68410
#
# Poissons Ratio (x) = 0.16220 0.36000
# Poissons Ratio (y) = 0.05197 0.07673
# Poissons Ratio (z) = 0.15139 0.10071
#
# Static dielectric constant tensor:
#      x y z
#    x 1.965480 0.000000 0.000000 
#    y 0.000000 2.072220 0.000000 
#    z 0.000000 0.000000 1.904930 
# 
# From -- ./inp_files/3853.got.cif
#   From: 2010.05.17/outbox.cif.g08.bks.cpg/sg29_2_cif.got.tgz:3853.got - 2010.06.04 01:19:37.
