data_PCOD9340488
_publ_section_title
;
Structure prediction by ZEFSAII (Michael W. Deem and Ramdas Pophale) SiO2 
 PCOD9340488
Probable space group: P C A 21
;
_chemical_formula_sum "Si O2"
_cell_formula_units_Z 32
_cell_length_a 9.322059
_cell_length_b 14.014926
_cell_length_c 11.999617
_cell_angle_alpha 90.000000
_cell_angle_beta 90.000000
_cell_angle_gamma 90.000000
_cell_volume 1567.725566
_symmetry_space_group_name_H-M "P C A 21"
_symmetry_group_IT_number 29
_symmetry_cell_setting 'orthorhombic'
loop_
_space_group_symop_operation_xyz
x,y,z
-x,-y,1/2+z
1/2-x,y,1/2+z
1/2+x,-y,z
loop_
_atom_site_type_symbol
_atom_site_label
_atom_site_fract_x
_atom_site_fract_y
_atom_site_fract_z
Si Si1 0.676930 0.401837 0.523340
Si Si2 0.786771 0.547757 0.356790
Si Si3 0.120387 0.736986 0.142162
Si Si4 0.128556 0.903541 0.973118
Si Si5 0.528295 0.101360 0.511141
Si Si6 0.009772 0.407740 0.240092
Si Si7 0.019402 0.279946 0.868991
Si Si8 0.420383 0.804004 0.244365
O O1 0.710071 0.498331 0.460458
O O2 0.817269 0.355899 0.580276
O O3 0.554789 0.412866 0.616360
O O4 0.618044 0.326412 0.432042
O O5 0.910675 0.476270 0.315377
O O6 0.671588 0.559655 0.258385
O O7 0.851118 0.648639 0.391670
O O8 0.004807 0.717801 0.236717
O O9 0.258074 0.777264 0.209579
O O10 0.079643 0.817212 0.053434
O O11 0.086302 0.874506 0.848017
O O12 0.301446 0.910505 0.986233
O O13 0.053022 0.001636 0.005989
O O14 0.466686 0.175300 0.419969
O O15 0.513835 0.149505 0.633044
O O16 0.993829 0.296728 0.273850
#
# Coordination Sequence:
#
# PCOD9340488 Si02
#       8
#     4   4   4   4   4   4   4   4
#     4  11  22  45  70  93 133 188 228 276 341 415
#     4  12  27  41  69 103 135 182 228 286 342 412
#     4  10  20  42  72  95 127 184 226 275 343 409
#     4  11  23  42  70  97 130 180 228 276 352 413
#     4  11  25  42  68 100 132 182 221 289 344 410
#     4  11  25  42  66 101 135 177 232 280 343 410
#     4  12  23  45  66 101 143 175 231 287 343 407
#     4  10  21  43  69  92 135 174 232 273 342 412
#
# _framework density 20.411736999999999
#
# number of rings (size 3 to 8) (size 9 to 14) (size 15 to 20)
#    0.000    1.000    6.250    2.250    3.500    1.000 
#    4.500    0.000    0.000    0.000    0.000    0.000 
#    0.000    0.000    0.000    0.000    0.000    0.000 
#
# Total GULP energy -178979.692414 kJ/mol
# GULP energy per Si atom -5593.115388 kJ/mol
# Density = 2.036528 g / cm^3
# Si number density = 20.411737 Si / 1000 Ang^3
#
#
#
# Elastic Constant Matrix: (Units=GPa)
#
#
# Indices 1 2 3 4 5 6 
#
# 1 41.6454 46.1942 25.1536 0.0000 0.0000 0.0000
# 2 46.1942 93.7129 37.1357 0.0000 0.0000 0.0000
# 3 25.1536 37.1357 84.7873 0.0000 0.0000 0.0000
# 4 0.0000 0.0000 0.0000 37.8698 0.0000 0.0000
# 5 0.0000 0.0000 0.0000 0.0000 11.8398 0.0000
# 6 0.0000 0.0000 0.0000 0.0000 0.0000 38.5865
#
#
#
# Elastic Compliance Matrix: (Units=1/GPa)
#
#
# Indices 1 2 3 4 5 6 
#
# 1 0.054928 -0.024949 -0.005368 0.000000 0.000000 0.000000
# 2 -0.024949 0.024244 -0.003217 0.000000 0.000000 0.000000
# 3 -0.005368 -0.003217 0.014796 0.000000 0.000000 0.000000
# 4 0.000000 0.000000 0.000000 0.026406 0.000000 0.000000
# 5 0.000000 0.000000 0.000000 0.000000 0.084461 0.000000
# 6 0.000000 0.000000 0.000000 0.000000 0.000000 0.025916
#
#
# Mechanical properties :
#
#
# Convention : Reuss Voigt Hill
#
# Bulk Modulus (GPa) = 37.17463 48.56807 42.87135
# Shear Modulus (GPa) = 16.29803 25.10335 20.70069
#
# Velocity S-wave (km/s) = 2.82878 3.51072 3.18804
# Velocity P-wave (km/s) = 5.37784 6.34661 5.88220
#
# Compressibility (1/GPa) = 0.02690007
#
# Stress axis : x y z
#
# Youngs Moduli (GPa) = 18.20549 41.24774 67.58688
#
# Poissons Ratio (x) = 1.02908 0.36282
# Poissons Ratio (y) = 0.45420 0.21742
# Poissons Ratio (z) = 0.09773 0.13269
#
# Static dielectric constant tensor:
#      x y z
#    x 1.725730 0.000000 0.000000 
#    y 0.000000 1.704990 0.000000 
#    z 0.000000 0.000000 1.738120 
# 
# From -- ./inp_files/2954.got.cif
#   From: 2010.05.17/outbox.cif.g08.bks.cpg/sg29_2_cif.got.tgz:2954.got - 2010.06.04 01:19:37.
