data_PCOD9340960
_publ_section_title
;
Structure prediction by ZEFSAII (Michael W. Deem and Ramdas Pophale) SiO2 
 PCOD9340960
Probable space group: P C A 21
;
_chemical_formula_sum "Si O2"
_cell_formula_units_Z 28
_cell_length_a 19.380310
_cell_length_b 5.784427
_cell_length_c 10.789094
_cell_angle_alpha 90.000000
_cell_angle_beta 90.000000
_cell_angle_gamma 90.000000
_cell_volume 1209.500469
_symmetry_space_group_name_H-M "P C A 21"
_symmetry_group_IT_number 29
_symmetry_cell_setting 'orthorhombic'
loop_
_space_group_symop_operation_xyz
x,y,z
-x,-y,1/2+z
1/2-x,y,1/2+z
1/2+x,-y,z
loop_
_atom_site_type_symbol
_atom_site_label
_atom_site_fract_x
_atom_site_fract_y
_atom_site_fract_z
Si Si1 0.763860 0.033669 0.700720
Si Si2 0.910848 0.156194 0.988370
Si Si3 0.703610 0.423119 0.343577
Si Si4 0.940864 0.709155 0.395429
Si Si5 0.209166 0.208400 0.952909
Si Si6 0.947005 0.210219 0.258211
Si Si7 0.601842 0.819549 0.281576
O O1 0.753570 0.299055 0.735595
O O2 0.754883 0.932295 0.564340
O O3 0.725449 0.905964 0.816658
O O4 0.847573 0.005880 0.719481
O O5 0.844380 0.265221 0.926945
O O6 0.981789 0.288634 0.951138
O O7 0.914165 0.904315 0.922935
O O8 0.904054 0.174186 0.134072
O O9 0.754524 0.548138 0.436710
O O10 0.649856 0.598538 0.283083
O O11 0.871429 0.742636 0.475532
O O12 0.932750 0.458593 0.325193
O O13 0.939764 0.960939 0.325956
O O14 0.028135 0.217971 0.222216
#
# Coordination Sequence:
#
# PCOD9340960 Si02
#       7
#     4   4   4   4   4   4   4
#     4  10  24  44  67  97 140 191 243 300 371 445
#     4  10  22  42  70 100 139 187 240 306 367 442
#     4  10  22  44  69  95 140 193 245 295 374 444
#     4  11  26  44  67 108 144 182 246 304 369 441
#     4  11  26  44  66 103 144 191 244 307 367 444
#     4  11  24  41  72 103 142 184 241 306 368 435
#     4   9  20  43  63  98 133 182 239 292 374 437
#
# _framework density 23.150053
#
# number of rings (size 3 to 8) (size 9 to 14) (size 15 to 20)
#    0.000    1.714    1.429    0.857    6.000    4.571 
#    2.571    0.000    0.000    0.000    0.000    0.000 
#    0.000    0.000    0.000    0.000    0.000    0.000 
#
# Total GULP energy -156052.975734 kJ/mol
# GULP energy per Si atom -5573.320562 kJ/mol
# Density = 2.309736 g / cm^3
# Si number density = 23.150053 Si / 1000 Ang^3
#
#
#
# Elastic Constant Matrix: (Units=GPa)
#
#
# Indices 1 2 3 4 5 6 
#
# 1 95.3729 12.4926 24.0506 0.0000 0.0000 0.0000
# 2 12.4926 115.4545 46.7625 0.0000 0.0000 0.0000
# 3 24.0506 46.7625 101.0162 0.0000 0.0000 0.0000
# 4 0.0000 0.0000 0.0000 32.4426 0.0000 0.0000
# 5 0.0000 0.0000 0.0000 0.0000 27.6046 0.0000
# 6 0.0000 0.0000 0.0000 0.0000 0.0000 22.0137
#
#
#
# Elastic Compliance Matrix: (Units=1/GPa)
#
#
# Indices 1 2 3 4 5 6 
#
# 1 0.011157 -0.000162 -0.002582 0.000000 0.000000 0.000000
# 2 -0.000162 0.010663 -0.004897 0.000000 0.000000 0.000000
# 3 -0.002582 -0.004897 0.012781 0.000000 0.000000 0.000000
# 4 0.000000 0.000000 0.000000 0.030824 0.000000 0.000000
# 5 0.000000 0.000000 0.000000 0.000000 0.036226 0.000000
# 6 0.000000 0.000000 0.000000 0.000000 0.000000 0.045426
#
#
# Mechanical properties :
#
#
# Convention : Reuss Voigt Hill
#
# Bulk Modulus (GPa) = 51.76056 53.16166 52.46111
# Shear Modulus (GPa) = 29.62122 31.64804 30.63463
#
# Velocity S-wave (km/s) = 3.58093 3.70142 3.64168
# Velocity P-wave (km/s) = 6.28528 6.42504 6.35554
#
# Compressibility (1/GPa) = 0.01931973
#
# Stress axis : x y z
#
# Youngs Moduli (GPa) = 89.62706 93.78651 78.24016
#
# Poissons Ratio (x) = 0.01516 0.20198
# Poissons Ratio (y) = 0.01449 0.38317
# Poissons Ratio (z) = 0.23138 0.45931
#
# Static dielectric constant tensor:
#      x y z
#    x 1.917430 0.000000 0.000000 
#    y 0.000000 2.034150 0.000000 
#    z 0.000000 0.000000 1.954840 
# 
# From -- ./inp_files/3729.got.cif
#   From: 2010.05.17/outbox.cif.g08.bks.cpg/sg29_2_cif.got.tgz:3729.got - 2010.06.04 01:19:37.
