data_PCOD9340084
_publ_section_title
;
Structure prediction by ZEFSAII (Michael W. Deem and Ramdas Pophale) SiO2 
 PCOD9340084
Probable space group: P C A 21
;
_chemical_formula_sum "Si O2"
_cell_formula_units_Z 32
_cell_length_a 14.102771
_cell_length_b 9.255754
_cell_length_c 13.868394
_cell_angle_alpha 90.000000
_cell_angle_beta 90.000000
_cell_angle_gamma 90.000000
_cell_volume 1810.266142
_symmetry_space_group_name_H-M "P C A 21"
_symmetry_group_IT_number 29
_symmetry_cell_setting 'orthorhombic'
loop_
_space_group_symop_operation_xyz
x,y,z
-x,-y,1/2+z
1/2-x,y,1/2+z
1/2+x,-y,z
loop_
_atom_site_type_symbol
_atom_site_label
_atom_site_fract_x
_atom_site_fract_y
_atom_site_fract_z
Si Si1 0.252086 0.424948 0.861390
Si Si2 0.292025 0.383008 0.583578
Si Si3 0.010695 0.544216 0.586050
Si Si4 0.675421 0.146326 0.253090
Si Si5 0.922908 0.367659 0.873105
Si Si6 0.980408 0.748363 0.193071
Si Si7 0.772826 0.843808 0.222306
Si Si8 0.324660 0.612736 0.210878
O O1 0.353926 0.500619 0.844588
O O2 0.243405 0.276766 0.804097
O O3 0.178656 0.540896 0.816319
O O4 0.234826 0.399347 0.972852
O O5 0.400357 0.426291 0.598236
O O6 0.272650 0.224799 0.626021
O O7 0.227204 0.493717 0.643809
O O8 0.041843 0.598460 0.480070
O O9 0.027596 0.373544 0.610006
O O10 0.073078 0.630380 0.664503
O O11 0.640900 0.222128 0.354027
O O12 0.579221 0.163108 0.189303
O O13 0.757933 0.248856 0.212160
O O14 0.720208 0.988824 0.253728
O O15 0.004199 0.341711 0.793333
O O16 0.886365 0.844583 0.203006
#
# Coordination Sequence:
#
# PCOD9340084 Si02
#       8
#     4   4   4   4   4   4   4   4
#     4  10  18  37  61  87 117 153 203 252 306 353
#     4  11  21  35  62  94 113 159 207 251 301 361
#     4  12  19  35  65  90 117 149 210 256 301 356
#     4   9  22  40  56  87 126 158 193 252 304 367
#     4   9  20  37  62  89 119 149 202 257 301 357
#     4  10  19  36  62  90 115 159 200 250 303 356
#     4  11  21  39  59  82 126 161 194 242 304 376
#     4  10  20  37  59  89 113 156 199 256 304 350
#
# _framework density 17.676960000000001
#
# number of rings (size 3 to 8) (size 9 to 14) (size 15 to 20)
#    0.750    1.000    5.000    1.500    0.000    1.000 
#    2.250    0.000    2.750    0.000    0.000    0.000 
#    0.000    0.000    0.000    0.000    0.000    0.000 
#
# Total GULP energy -178164.696817 kJ/mol
# GULP energy per Si atom -5567.646776 kJ/mol
# Density = 1.763673 g / cm^3
# Si number density = 17.676960 Si / 1000 Ang^3
#
#
#
# Elastic Constant Matrix: (Units=GPa)
#
#
# Indices 1 2 3 4 5 6 
#
# 1 90.8975 38.7604 -0.2626 0.0000 0.0000 0.0000
# 2 38.7604 94.8960 20.4980 0.0000 0.0000 0.0000
# 3 -0.2626 20.4980 84.9703 0.0000 0.0000 0.0000
# 4 0.0000 0.0000 0.0000 11.0766 0.0000 0.0000
# 5 0.0000 0.0000 0.0000 0.0000 21.2416 0.0000
# 6 0.0000 0.0000 0.0000 0.0000 0.0000 27.8283
#
#
#
# Elastic Compliance Matrix: (Units=1/GPa)
#
#
# Indices 1 2 3 4 5 6 
#
# 1 0.013488 -0.005822 0.001446 0.000000 0.000000 0.000000
# 2 -0.005822 0.013630 -0.003306 0.000000 0.000000 0.000000
# 3 0.001446 -0.003306 0.012571 0.000000 0.000000 0.000000
# 4 0.000000 0.000000 0.000000 0.090281 0.000000 0.000000
# 5 0.000000 0.000000 0.000000 0.000000 0.047078 0.000000
# 6 0.000000 0.000000 0.000000 0.000000 0.000000 0.035935
#
#
# Mechanical properties :
#
#
# Convention : Reuss Voigt Hill
#
# Bulk Modulus (GPa) = 41.10891 43.19503 42.15197
# Shear Modulus (GPa) = 21.14587 26.14717 23.64652
#
# Velocity S-wave (km/s) = 3.46242 3.85017 3.66143
# Velocity P-wave (km/s) = 6.26822 6.65236 6.46314
#
# Compressibility (1/GPa) = 0.02432562
#
# Stress axis : x y z
#
# Youngs Moduli (GPa) = 74.14001 73.36880 79.54937
#
# Poissons Ratio (x) = 0.42712 -0.11503
# Poissons Ratio (y) = 0.43161 0.26299
# Poissons Ratio (z) = -0.10721 0.24256
#
# Static dielectric constant tensor:
#      x y z
#    x 1.638690 0.000000 0.000000 
#    y 0.000000 1.589750 0.000000 
#    z 0.000000 0.000000 1.621200 
# 
# From -- ./inp_files/4728.got.cif
#   From: 2010.05.17/outbox.cif.g08.bks.cpg/sg29_3_cif.got.tgz:4728.got - 2010.06.04 01:19:37.
