data_PCOD9340302
_publ_section_title
;
Structure prediction by ZEFSAII (Michael W. Deem and Ramdas Pophale) SiO2 
 PCOD9340302
Probable space group: P C A 21
;
_chemical_formula_sum "Si O2"
_cell_formula_units_Z 24
_cell_length_a 17.794496
_cell_length_b 9.393301
_cell_length_c 5.315211
_cell_angle_alpha 90.000000
_cell_angle_beta 90.000000
_cell_angle_gamma 90.000000
_cell_volume 888.432507
_symmetry_space_group_name_H-M "P C A 21"
_symmetry_group_IT_number 29
_symmetry_cell_setting 'orthorhombic'
loop_
_space_group_symop_operation_xyz
x,y,z
-x,-y,1/2+z
1/2-x,y,1/2+z
1/2+x,-y,z
loop_
_atom_site_type_symbol
_atom_site_label
_atom_site_fract_x
_atom_site_fract_y
_atom_site_fract_z
Si Si1 0.531289 0.199168 0.044030
Si Si2 0.422373 0.060805 0.776507
Si Si3 0.534892 0.559255 0.732301
Si Si4 0.269004 0.114105 0.692542
Si Si5 0.163806 0.850011 0.668856
Si Si6 0.796960 0.472336 0.065933
O O1 0.522389 0.033707 0.114277
O O2 0.504775 0.288187 0.281410
O O3 0.610180 0.201480 0.900583
O O4 0.460195 0.206358 0.860133
O O5 0.353358 0.103665 0.598678
O O6 0.382506 0.948184 0.970012
O O7 0.481907 0.522238 0.490239
O O8 0.620922 0.536367 0.644602
O O9 0.225845 0.186058 0.465009
O O10 0.230241 0.959944 0.744280
O O11 0.192005 0.700802 0.558088
O O12 0.738359 0.506519 0.292252
#
# Coordination Sequence:
#
# PCOD9340302 Si02
#       6
#     4   4   4   4   4   4
#     4  12  24  42  69 103 143 191 232 302 368 439
#     4  11  23  40  63 105 142 177 232 291 365 434
#     4  12  27  49  75 109 146 198 252 309 377 443
#     4  10  20  35  59  90 130 166 219 275 341 401
#     4  11  22  40  67 101 134 183 235 301 352 423
#     4  12  26  46  73 106 143 193 254 316 365 436
#
# _framework density 27.013871999999999
#
# number of rings (size 3 to 8) (size 9 to 14) (size 15 to 20)
#    0.000    0.667    5.000    4.000    2.333    0.000 
#    0.000    3.333    0.000    0.000    0.000    0.000 
#    0.000    0.000    0.000    0.000    0.000    0.000 
#
# Total GULP energy -133933.883305 kJ/mol
# GULP energy per Si atom -5580.578471 kJ/mol
# Density = 2.695239 g / cm^3
# Si number density = 27.013872 Si / 1000 Ang^3
#
#
#
# Elastic Constant Matrix: (Units=GPa)
#
#
# Indices 1 2 3 4 5 6 
#
# 1 110.4524 -4.3887 8.3308 0.0000 0.0000 0.0000
# 2 -4.3887 36.9502 -6.4425 0.0000 0.0000 0.0000
# 3 8.3308 -6.4425 112.6341 0.0000 0.0000 0.0000
# 4 0.0000 0.0000 0.0000 21.8393 0.0000 0.0000
# 5 0.0000 0.0000 0.0000 0.0000 29.2042 0.0000
# 6 0.0000 0.0000 0.0000 0.0000 0.0000 35.8704
#
#
#
# Elastic Compliance Matrix: (Units=1/GPa)
#
#
# Indices 1 2 3 4 5 6 
#
# 1 0.009139 0.000977 -0.000620 0.000000 0.000000 0.000000
# 2 0.000977 0.027441 0.001497 0.000000 0.000000 0.000000
# 3 -0.000620 0.001497 0.009010 0.000000 0.000000 0.000000
# 4 0.000000 0.000000 0.000000 0.045789 0.000000 0.000000
# 5 0.000000 0.000000 0.000000 0.000000 0.034242 0.000000
# 6 0.000000 0.000000 0.000000 0.000000 0.000000 0.027878
#
#
# Mechanical properties :
#
#
# Convention : Reuss Voigt Hill
#
# Bulk Modulus (GPa) = 20.28443 28.33731 24.31087
# Shear Modulus (GPa) = 30.08023 34.88527 32.48275
#
# Velocity S-wave (km/s) = 3.34055 3.59748 3.47139
# Velocity P-wave (km/s) = 4.73331 5.26958 5.00863
#
# Compressibility (1/GPa) = 0.04929889
#
# Stress axis : x y z
#
# Youngs Moduli (GPa) = 109.41785 36.44236 110.99011
#
# Poissons Ratio (x) = -0.03562 0.06882
# Poissons Ratio (y) = -0.10694 -0.16618
# Poissons Ratio (z) = 0.06785 -0.05456
#
# Static dielectric constant tensor:
#      x y z
#    x 2.060160 0.000000 0.000000 
#    y 0.000000 2.186630 0.000000 
#    z 0.000000 0.000000 2.335120 
# 
# From -- ./inp_files/192.got.cif
#   From: 2010.05.17/outbox.cif.g08.bks.cpg/sg29_1_cif.got.tgz:192.got - 2010.06.04 01:19:37.
