data_PCOD9340028
_publ_section_title
;
Structure prediction by ZEFSAII (Michael W. Deem and Ramdas Pophale) SiO2 
 PCOD9340028
Probable space group: P C A 21
;
_chemical_formula_sum "Si O2"
_cell_formula_units_Z 32
_cell_length_a 15.548746
_cell_length_b 7.593835
_cell_length_c 13.783950
_cell_angle_alpha 90.000000
_cell_angle_beta 90.000000
_cell_angle_gamma 90.000000
_cell_volume 1627.534542
_symmetry_space_group_name_H-M "P C A 21"
_symmetry_group_IT_number 29
_symmetry_cell_setting 'orthorhombic'
loop_
_space_group_symop_operation_xyz
x,y,z
-x,-y,1/2+z
1/2-x,y,1/2+z
1/2+x,-y,z
loop_
_atom_site_type_symbol
_atom_site_label
_atom_site_fract_x
_atom_site_fract_y
_atom_site_fract_z
Si Si1 0.191869 0.918934 0.680660
Si Si2 0.536466 0.086535 0.277696
Si Si3 0.986304 0.369621 0.611565
Si Si4 0.990536 0.257696 0.168553
Si Si5 0.283335 0.944317 0.874639
Si Si6 0.825491 0.205572 0.531382
Si Si7 0.875728 0.828622 0.019919
Si Si8 0.038199 0.080236 0.975538
O O1 0.109881 0.790705 0.676293
O O2 0.216226 0.971475 0.788716
O O3 0.272618 0.825354 0.629398
O O4 0.167199 0.087507 0.615522
O O5 0.518687 0.200675 0.182523
O O6 0.629103 0.120544 0.324185
O O7 0.468528 0.128444 0.362912
O O8 0.532912 0.883091 0.241767
O O9 0.899301 0.352061 0.546836
O O10 0.989862 0.538435 0.680618
O O11 0.074396 0.350593 0.548257
O O12 0.022954 0.223435 0.058394
O O13 0.246324 0.794895 0.947227
O O14 0.308296 0.121867 0.934938
O O15 0.877986 0.029578 0.502740
O O16 0.957260 0.949258 0.990474
#
# Coordination Sequence:
#
# PCOD9340028 Si02
#       8
#     4   4   4   4   4   4   4   4
#     4  10  17  35  60  90 119 163 213 259 317 362
#     4  11  20  41  63  90 121 165 221 252 311 390
#     4  11  21  41  63  90 129 168 213 261 319 393
#     4  11  22  39  66  92 126 170 212 262 319 392
#     4  10  19  33  67  88 117 164 207 265 317 368
#     4  10  19  36  64  88 120 169 204 266 323 365
#     4   8  18  34  58  85 115 161 207 244 309 381
#     4   9  18  37  61  87 117 162 211 249 309 381
#
# _framework density 19.661640999999999
#
# number of rings (size 3 to 8) (size 9 to 14) (size 15 to 20)
#    0.000    2.000    5.000    1.500    0.000    0.000 
#    9.000    3.750    2.750    1.500    0.000    0.000 
#    0.000    0.000    0.000    0.000    0.000    0.000 
#
# Total GULP energy -178164.289292 kJ/mol
# GULP energy per Si atom -5567.634040 kJ/mol
# Density = 1.961689 g / cm^3
# Si number density = 19.661641 Si / 1000 Ang^3
#
#
#
# Elastic Constant Matrix: (Units=GPa)
#
#
# Indices 1 2 3 4 5 6 
#
# 1 94.8735 23.7068 38.0375 0.0000 0.0000 0.0000
# 2 23.7068 43.3426 10.3759 0.0000 0.0000 0.0000
# 3 38.0375 10.3759 113.7822 0.0000 0.0000 0.0000
# 4 0.0000 0.0000 0.0000 10.5349 0.0000 0.0000
# 5 0.0000 0.0000 0.0000 0.0000 46.7561 0.0000
# 6 0.0000 0.0000 0.0000 0.0000 0.0000 7.3005
#
#
#
# Elastic Compliance Matrix: (Units=1/GPa)
#
#
# Indices 1 2 3 4 5 6 
#
# 1 0.013794 -0.006584 -0.004011 0.000000 0.000000 0.000000
# 2 -0.006584 0.026730 -0.000236 0.000000 0.000000 0.000000
# 3 -0.004011 -0.000236 0.010151 0.000000 0.000000 0.000000
# 4 0.000000 0.000000 0.000000 0.094923 0.000000 0.000000
# 5 0.000000 0.000000 0.000000 0.000000 0.021388 0.000000
# 6 0.000000 0.000000 0.000000 0.000000 0.000000 0.136976
#
#
# Mechanical properties :
#
#
# Convention : Reuss Voigt Hill
#
# Bulk Modulus (GPa) = 34.46897 44.02650 39.24773
# Shear Modulus (GPa) = 14.91223 24.91018 19.91121
#
# Velocity S-wave (km/s) = 2.75697 3.56328 3.18574
# Velocity P-wave (km/s) = 5.26343 6.27455 5.79110
#
# Compressibility (1/GPa) = 0.02901160
#
# Stress axis : x y z
#
# Youngs Moduli (GPa) = 72.49677 37.41108 98.51162
#
# Poissons Ratio (x) = 0.24633 0.39511
# Poissons Ratio (y) = 0.47735 0.02328
# Poissons Ratio (z) = 0.29077 0.00884
#
# Static dielectric constant tensor:
#      x y z
#    x 1.758250 0.000000 0.000000 
#    y 0.000000 1.690550 0.000000 
#    z 0.000000 0.000000 1.748790 
# 
# From -- ./inp_files/4831.got.cif
#   From: 2010.05.17/outbox.cif.g08.bks.cpg/sg29_3_cif.got.tgz:4831.got - 2010.06.04 01:19:37.
