data_PCOD9340599
_publ_section_title
;
Structure prediction by ZEFSAII (Michael W. Deem and Ramdas Pophale) SiO2 
 PCOD9340599
Probable space group: P C A 21
;
_chemical_formula_sum "Si O2"
_cell_formula_units_Z 32
_cell_length_a 11.557029
_cell_length_b 6.679265
_cell_length_c 17.515780
_cell_angle_alpha 90.000000
_cell_angle_beta 90.000000
_cell_angle_gamma 90.000000
_cell_volume 1352.086135
_symmetry_space_group_name_H-M "P C A 21"
_symmetry_group_IT_number 29
_symmetry_cell_setting 'orthorhombic'
loop_
_space_group_symop_operation_xyz
x,y,z
-x,-y,1/2+z
1/2-x,y,1/2+z
1/2+x,-y,z
loop_
_atom_site_type_symbol
_atom_site_label
_atom_site_fract_x
_atom_site_fract_y
_atom_site_fract_z
Si Si1 0.661091 0.094268 0.324810
Si Si2 0.992658 0.675196 0.210532
Si Si3 0.727487 0.754094 0.220128
Si Si4 0.546082 0.585923 0.548765
Si Si5 0.662799 0.406289 0.779219
Si Si6 0.363958 0.459885 0.441176
Si Si7 0.720935 0.847469 0.053571
Si Si8 0.327367 0.766776 0.992347
O O1 0.572404 0.211650 0.270213
O O2 0.786983 0.199358 0.309023
O O3 0.629068 0.125563 0.413914
O O4 0.673765 0.872280 0.290998
O O5 0.867155 0.790667 0.212202
O O6 0.027681 0.654545 0.122014
O O7 0.953588 0.445953 0.232375
O O8 0.733860 0.515656 0.232667
O O9 0.674972 0.815120 0.138976
O O10 0.471873 0.587161 0.471871
O O11 0.656698 0.729257 0.548370
O O12 0.588710 0.353947 0.549274
O O13 0.637519 0.550690 0.851295
O O14 0.355802 0.254214 0.487711
O O15 0.251414 0.587791 0.461141
O O16 0.750038 0.074690 0.036443
#
# Coordination Sequence:
#
# PCOD9340599 Si02
#       8
#     4   4   4   4   4   4   4   4
#     4  11  21  41  65  85 123 168 200 248 318 367
#     4   9  22  39  59  89 123 155 205 252 293 374
#     4   9  22  39  58  88 125 153 200 258 294 366
#     4  10  22  39  60  89 122 158 202 255 306 360
#     4   9  21  41  58  87 123 156 203 257 299 362
#     4  10  21  39  63  86 118 160 205 247 311 363
#     4  10  22  39  59  90 124 153 205 260 296 371
#     4  10  23  39  62  90 120 161 202 259 307 361
#
# _framework density 23.667131000000001
#
# number of rings (size 3 to 8) (size 9 to 14) (size 15 to 20)
#    0.750    1.500    0.000    1.500    5.250    1.000 
#    9.000    0.000    0.000    0.000    0.000    0.000 
#    0.000    0.000    0.000    0.000    0.000    0.000 
#
# Total GULP energy -178320.345165 kJ/mol
# GULP energy per Si atom -5572.510786 kJ/mol
# Density = 2.361326 g / cm^3
# Si number density = 23.667131 Si / 1000 Ang^3
#
#
#
# Elastic Constant Matrix: (Units=GPa)
#
#
# Indices 1 2 3 4 5 6 
#
# 1 35.9244 -9.3882 -4.4772 0.0000 0.0000 0.0000
# 2 -9.3882 19.2239 20.5778 0.0000 0.0000 0.0000
# 3 -4.4772 20.5778 86.1741 0.0000 0.0000 0.0000
# 4 0.0000 0.0000 0.0000 23.3503 0.0000 0.0000
# 5 0.0000 0.0000 0.0000 0.0000 29.5446 0.0000
# 6 0.0000 0.0000 0.0000 0.0000 0.0000 17.5041
#
#
#
# Elastic Compliance Matrix: (Units=1/GPa)
#
#
# Indices 1 2 3 4 5 6 
#
# 1 0.032409 0.018841 -0.002815 0.000000 0.000000 0.000000
# 2 0.018841 0.080834 -0.018324 0.000000 0.000000 0.000000
# 3 -0.002815 -0.018324 0.015834 0.000000 0.000000 0.000000
# 4 0.000000 0.000000 0.000000 0.042826 0.000000 0.000000
# 5 0.000000 0.000000 0.000000 0.000000 0.033847 0.000000
# 6 0.000000 0.000000 0.000000 0.000000 0.000000 0.057129
#
#
# Mechanical properties :
#
#
# Convention : Reuss Voigt Hill
#
# Bulk Modulus (GPa) = 8.03338 17.19413 12.61376
# Shear Modulus (GPa) = 16.18283 23.05380 19.61832
#
# Velocity S-wave (km/s) = 2.61773 3.12442 2.88223
# Velocity P-wave (km/s) = 3.54096 4.50519 4.05186
#
# Compressibility (1/GPa) = 0.12448053
#
# Stress axis : x y z
#
# Youngs Moduli (GPa) = 30.85553 12.37102 63.15618
#
# Poissons Ratio (x) = -0.23308 0.17780
# Poissons Ratio (y) = -0.58134 1.15726
# Poissons Ratio (z) = 0.08687 0.22668
#
# Static dielectric constant tensor:
#      x y z
#    x 1.971880 0.000000 0.000000 
#    y 0.000000 1.909250 0.000000 
#    z 0.000000 0.000000 1.887870 
# 
# From -- ./inp_files/5570.got.cif
#   From: 2010.05.17/outbox.cif.g08.bks.cpg/sg29_3_cif.got.tgz:5570.got - 2010.06.04 01:19:37.
