data_PCOD9340366
_publ_section_title
;
Structure prediction by ZEFSAII (Michael W. Deem and Ramdas Pophale) SiO2 
 PCOD9340366
Probable space group: P C A 21
;
_chemical_formula_sum "Si O2"
_cell_formula_units_Z 28
_cell_length_a 15.982037
_cell_length_b 7.827611
_cell_length_c 9.541014
_cell_angle_alpha 90.000000
_cell_angle_beta 90.000000
_cell_angle_gamma 90.000000
_cell_volume 1193.592001
_symmetry_space_group_name_H-M "P C A 21"
_symmetry_group_IT_number 29
_symmetry_cell_setting 'orthorhombic'
loop_
_space_group_symop_operation_xyz
x,y,z
-x,-y,1/2+z
1/2-x,y,1/2+z
1/2+x,-y,z
loop_
_atom_site_type_symbol
_atom_site_label
_atom_site_fract_x
_atom_site_fract_y
_atom_site_fract_z
Si Si1 0.482734 0.714474 0.953420
Si Si2 0.198723 0.769233 0.435901
Si Si3 0.300673 0.183355 0.731552
Si Si4 0.375669 0.228204 0.276091
Si Si5 0.753711 0.605363 0.465177
Si Si6 0.338618 0.849395 0.628151
Si Si7 0.983308 0.402995 0.646482
O O1 0.396247 0.811603 0.979521
O O2 0.556614 0.833013 0.890670
O O3 0.465630 0.594841 0.814687
O O4 0.509241 0.586601 0.075974
O O5 0.216792 0.578393 0.487616
O O6 0.271057 0.878122 0.507498
O O7 0.202862 0.769373 0.268002
O O8 0.203858 0.113173 0.741671
O O9 0.310943 0.272286 0.881377
O O10 0.290463 0.318787 0.607400
O O11 0.363527 0.035589 0.687673
O O12 0.330528 0.388940 0.354133
O O13 0.428533 0.301079 0.147532
O O14 0.411779 0.720487 0.585027
#
# Coordination Sequence:
#
# PCOD9340366 Si02
#       7
#     4   4   4   4   4   4   4
#     4   9  19  35  60  88 124 156 193 265 309 360
#     4  11  22  36  64  97 120 156 214 258 306 362
#     4  10  21  39  62  85 125 164 210 244 315 369
#     4   8  20  37  60  79 125 154 201 243 305 371
#     4  10  20  37  65  87 117 166 208 250 299 378
#     4  11  23  37  62  94 126 161 205 267 306 367
#     4   9  19  37  59  88 127 155 203 257 312 365
#
# _framework density 23.458601000000002
#
# number of rings (size 3 to 8) (size 9 to 14) (size 15 to 20)
#    1.714    0.571    0.000    3.429    2.000    1.143 
#    0.000    1.429    3.143    0.000    0.000    0.000 
#    0.000    0.000    0.000    0.000    0.000    0.000 
#
# Total GULP energy -155933.329311 kJ/mol
# GULP energy per Si atom -5569.047475 kJ/mol
# Density = 2.340521 g / cm^3
# Si number density = 23.458601 Si / 1000 Ang^3
#
#
#
# Elastic Constant Matrix: (Units=GPa)
#
#
# Indices 1 2 3 4 5 6 
#
# 1 85.1931 -6.3927 7.3259 0.0000 0.0000 0.0000
# 2 -6.3927 37.8807 0.9896 0.0000 0.0000 0.0000
# 3 7.3259 0.9896 75.5538 0.0000 0.0000 0.0000
# 4 0.0000 0.0000 0.0000 30.5671 0.0000 0.0000
# 5 0.0000 0.0000 0.0000 0.0000 33.9058 0.0000
# 6 0.0000 0.0000 0.0000 0.0000 0.0000 16.7235
#
#
#
# Elastic Compliance Matrix: (Units=1/GPa)
#
#
# Indices 1 2 3 4 5 6 
#
# 1 0.011995 0.002055 -0.001190 0.000000 0.000000 0.000000
# 2 0.002055 0.026760 -0.000550 0.000000 0.000000 0.000000
# 3 -0.001190 -0.000550 0.013358 0.000000 0.000000 0.000000
# 4 0.000000 0.000000 0.000000 0.032715 0.000000 0.000000
# 5 0.000000 0.000000 0.000000 0.000000 0.029493 0.000000
# 6 0.000000 0.000000 0.000000 0.000000 0.000000 0.059796
#
#
# Mechanical properties :
#
#
# Convention : Reuss Voigt Hill
#
# Bulk Modulus (GPa) = 18.95960 22.49702 20.72831
# Shear Modulus (GPa) = 26.16880 29.35294 27.76087
#
# Velocity S-wave (km/s) = 3.34358 3.54116 3.44379
# Velocity P-wave (km/s) = 4.79643 5.13134 4.96671
#
# Compressibility (1/GPa) = 0.05274372
#
# Stress axis : x y z
#
# Youngs Moduli (GPa) = 83.37090 37.36942 74.86045
#
# Poissons Ratio (x) = -0.07681 0.08908
# Poissons Ratio (y) = -0.17135 0.04116
# Poissons Ratio (z) = 0.09921 0.02055
#
# Static dielectric constant tensor:
#      x y z
#    x 2.008480 0.000000 0.000000 
#    y 0.000000 1.869570 0.000000 
#    z 0.000000 0.000000 1.906390 
# 
# From -- ./inp_files/2090.got.cif
#   From: 2010.05.17/outbox.cif.g08.bks.cpg/sg29_2_cif.got.tgz:2090.got - 2010.06.04 01:19:37.
