data_PCOD9340891
_publ_section_title
;
Structure prediction by ZEFSAII (Michael W. Deem and Ramdas Pophale) SiO2 
 PCOD9340891
Probable space group: P C A 21
;
_chemical_formula_sum "Si O2"
_cell_formula_units_Z 24
_cell_length_a 15.401995
_cell_length_b 12.852388
_cell_length_c 5.383565
_cell_angle_alpha 90.000000
_cell_angle_beta 90.000000
_cell_angle_gamma 90.000000
_cell_volume 1065.689697
_symmetry_space_group_name_H-M "P C A 21"
_symmetry_group_IT_number 29
_symmetry_cell_setting 'orthorhombic'
loop_
_space_group_symop_operation_xyz
x,y,z
-x,-y,1/2+z
1/2-x,y,1/2+z
1/2+x,-y,z
loop_
_atom_site_type_symbol
_atom_site_label
_atom_site_fract_x
_atom_site_fract_y
_atom_site_fract_z
Si Si1 0.544687 0.867746 0.818350
Si Si2 0.721536 0.898037 0.618554
Si Si3 0.801319 0.217007 0.270148
Si Si4 0.579764 0.408186 0.863770
Si Si5 0.469366 0.370384 0.365939
Si Si6 0.620315 0.049676 0.090414
O O1 0.617656 0.908008 0.619282
O O2 0.563322 0.747040 0.856759
O O3 0.443931 0.882882 0.757206
O O4 0.566608 0.944839 0.041366
O O5 0.754854 0.842544 0.375054
O O6 0.784356 0.001183 0.653348
O O7 0.727286 0.208253 0.484683
O O8 0.841857 0.329440 0.324546
O O9 0.866048 0.124965 0.353496
O O10 0.517870 0.383990 0.628746
O O11 0.596404 0.532041 0.852605
O O12 0.533064 0.383786 0.126873
#
# Coordination Sequence:
#
# PCOD9340891 Si02
#       6
#     4   4   4   4   4   4
#     4  11  23  40  68 100 132 190 225 279 350 417
#     4  10  22  41  57  89 133 170 218 274 322 405
#     4  12  25  42  67  96 141 183 227 290 351 407
#     4  10  22  44  66 100 128 172 230 291 339 409
#     4  10  22  42  71  95 133 168 232 286 340 406
#     4  11  24  39  65  98 141 179 234 278 348 414
#
# _framework density 22.520626
#
# number of rings (size 3 to 8) (size 9 to 14) (size 15 to 20)
#    0.000    1.333    1.667    4.000    2.333    2.667 
#    0.000    3.333    0.000    0.000    0.000    0.000 
#    0.000    0.000    0.000    0.000    0.000    0.000 
#
# Total GULP energy -133780.895079 kJ/mol
# GULP energy per Si atom -5574.203962 kJ/mol
# Density = 2.246937 g / cm^3
# Si number density = 22.520626 Si / 1000 Ang^3
#
#
#
# Elastic Constant Matrix: (Units=GPa)
#
#
# Indices 1 2 3 4 5 6 
#
# 1 84.9189 50.4389 26.1825 0.0000 0.0000 0.0000
# 2 50.4389 180.2424 0.8985 0.0000 0.0000 0.0000
# 3 26.1825 0.8985 101.6303 0.0000 0.0000 0.0000
# 4 0.0000 0.0000 0.0000 24.3551 0.0000 0.0000
# 5 0.0000 0.0000 0.0000 0.0000 40.1895 0.0000
# 6 0.0000 0.0000 0.0000 0.0000 0.0000 36.9336
#
#
#
# Elastic Compliance Matrix: (Units=1/GPa)
#
#
# Indices 1 2 3 4 5 6 
#
# 1 0.015579 -0.004340 -0.003975 0.000000 0.000000 0.000000
# 2 -0.004340 0.006757 0.001058 0.000000 0.000000 0.000000
# 3 -0.003975 0.001058 0.010854 0.000000 0.000000 0.000000
# 4 0.000000 0.000000 0.000000 0.041059 0.000000 0.000000
# 5 0.000000 0.000000 0.000000 0.000000 0.024882 0.000000
# 6 0.000000 0.000000 0.000000 0.000000 0.000000 0.027076
#
#
# Mechanical properties :
#
#
# Convention : Reuss Voigt Hill
#
# Bulk Modulus (GPa) = 53.54086 57.98127 55.76107
# Shear Modulus (GPa) = 34.02582 39.58043 36.80312
#
# Velocity S-wave (km/s) = 3.89121 4.19683 4.04691
# Velocity P-wave (km/s) = 6.63434 7.02041 6.83011
#
# Compressibility (1/GPa) = 0.01867732
#
# Stress axis : x y z
#
# Youngs Moduli (GPa) = 64.18754 147.98848 92.12900
#
# Poissons Ratio (x) = 0.64226 0.36624
# Poissons Ratio (y) = 0.27857 -0.09750
# Poissons Ratio (z) = 0.25516 -0.15662
#
# Static dielectric constant tensor:
#      x y z
#    x 1.905410 0.000000 0.000000 
#    y 0.000000 1.826110 0.000000 
#    z 0.000000 0.000000 1.917880 
# 
# From -- ./inp_files/189.got.cif
#   From: 2010.05.17/outbox.cif.g08.bks.cpg/sg29_1_cif.got.tgz:189.got - 2010.06.04 01:19:37.
