data_PCOD9340638
_publ_section_title
;
Structure prediction by ZEFSAII (Michael W. Deem and Ramdas Pophale) SiO2 
 PCOD9340638
Probable space group: P C A 21
;
_chemical_formula_sum "Si O2"
_cell_formula_units_Z 32
_cell_length_a 11.576438
_cell_length_b 11.290915
_cell_length_c 10.017058
_cell_angle_alpha 90.000000
_cell_angle_beta 90.000000
_cell_angle_gamma 90.000000
_cell_volume 1309.315402
_symmetry_space_group_name_H-M "P C A 21"
_symmetry_group_IT_number 29
_symmetry_cell_setting 'orthorhombic'
loop_
_space_group_symop_operation_xyz
x,y,z
-x,-y,1/2+z
1/2-x,y,1/2+z
1/2+x,-y,z
loop_
_atom_site_type_symbol
_atom_site_label
_atom_site_fract_x
_atom_site_fract_y
_atom_site_fract_z
Si Si1 0.047893 0.702630 0.838090
Si Si2 0.798066 0.402330 0.872495
Si Si3 0.506287 0.268160 0.245762
Si Si4 0.961160 0.530137 0.048133
Si Si5 0.690683 0.968702 0.524553
Si Si6 0.441845 0.915898 0.502344
Si Si7 0.271323 0.178258 0.282219
Si Si8 0.133253 0.393951 0.163959
O O1 0.173197 0.652623 0.866694
O O2 0.046287 0.840675 0.866317
O O3 0.963625 0.636133 0.941222
O O4 0.993888 0.658231 0.702202
O O5 0.847549 0.457674 0.009359
O O6 0.816210 0.503990 0.760439
O O7 0.884275 0.296158 0.834143
O O8 0.397796 0.219771 0.325762
O O9 0.467144 0.395883 0.184530
O O10 0.538919 0.177217 0.125922
O O11 0.084445 0.460634 0.032921
O O12 0.553953 0.003198 0.510893
O O13 0.707561 0.924853 0.675639
O O14 0.703653 0.865496 0.411767
O O15 0.808966 0.042403 0.503292
O O16 0.213892 0.282109 0.192479
#
# Coordination Sequence:
#
# PCOD9340638 Si02
#       8
#     4   4   4   4   4   4   4   4
#     4  10  21  40  61  92 132 167 220 278 331 392
#     4  10  22  35  62  96 130 176 221 263 335 404
#     4   9  22  42  60  96 133 173 218 281 332 402
#     4   9  21  36  57  95 130 179 214 262 327 407
#     4  11  26  47  73  99 126 178 229 286 348 397
#     4  10  23  48  67  93 135 168 226 290 342 395
#     4  11  25  43  70  96 132 175 224 275 335 402
#     4  10  22  37  60  91 136 174 216 265 326 405
#
# _framework density 24.440253999999999
#
# number of rings (size 3 to 8) (size 9 to 14) (size 15 to 20)
#    0.000    2.000    1.250    0.000   10.500    6.000 
#    2.250    0.000    0.000    0.000    0.000    0.000 
#    0.000    0.000    0.000    0.000    0.000    0.000 
#
# Total GULP energy -178439.010152 kJ/mol
# GULP energy per Si atom -5576.219067 kJ/mol
# Density = 2.438463 g / cm^3
# Si number density = 24.440254 Si / 1000 Ang^3
#
#
#
# Elastic Constant Matrix: (Units=GPa)
#
#
# Indices 1 2 3 4 5 6 
#
# 1 180.5965 46.4962 3.7097 0.0000 0.0000 0.0000
# 2 46.4962 35.0670 0.8303 0.0000 0.0000 0.0000
# 3 3.7097 0.8303 39.5920 0.0000 0.0000 0.0000
# 4 0.0000 0.0000 0.0000 14.8559 0.0000 0.0000
# 5 0.0000 0.0000 0.0000 0.0000 28.5425 0.0000
# 6 0.0000 0.0000 0.0000 0.0000 0.0000 44.1220
#
#
#
# Elastic Compliance Matrix: (Units=1/GPa)
#
#
# Indices 1 2 3 4 5 6 
#
# 1 0.008419 -0.011150 -0.000555 0.000000 0.000000 0.000000
# 2 -0.011150 0.043298 0.000137 0.000000 0.000000 0.000000
# 3 -0.000555 0.000137 0.025307 0.000000 0.000000 0.000000
# 4 0.000000 0.000000 0.000000 0.067313 0.000000 0.000000
# 5 0.000000 0.000000 0.000000 0.000000 0.035035 0.000000
# 6 0.000000 0.000000 0.000000 0.000000 0.000000 0.022664
#
#
# Mechanical properties :
#
#
# Convention : Reuss Voigt Hill
#
# Bulk Modulus (GPa) = 18.55734 39.70309 29.13022
# Shear Modulus (GPa) = 20.56456 31.11870 25.84163
#
# Velocity S-wave (km/s) = 2.90387 3.57214 3.25520
# Velocity P-wave (km/s) = 4.34197 5.77008 5.10620
#
# Compressibility (1/GPa) = 0.05388703
#
# Stress axis : x y z
#
# Youngs Moduli (GPa) = 118.77409 23.09572 39.51511
#
# Poissons Ratio (x) = 0.25752 0.02193
# Poissons Ratio (y) = 1.32436 -0.00540
# Poissons Ratio (z) = 0.06593 -0.00316
#
# Static dielectric constant tensor:
#      x y z
#    x 1.991550 0.000000 0.000000 
#    y 0.000000 2.052560 0.000000 
#    z 0.000000 0.000000 2.002630 
# 
# From -- ./inp_files/3243.got.cif
#   From: 2010.05.17/outbox.cif.g08.bks.cpg/sg29_2_cif.got.tgz:3243.got - 2010.06.04 01:19:37.
