data_PCOD9340782
_publ_section_title
;
Structure prediction by ZEFSAII (Michael W. Deem and Ramdas Pophale) SiO2 
 PCOD9340782
Probable space group: P C A 21
;
_chemical_formula_sum "Si O2"
_cell_formula_units_Z 24
_cell_length_a 16.094196
_cell_length_b 6.542640
_cell_length_c 9.971156
_cell_angle_alpha 90.000000
_cell_angle_beta 90.000000
_cell_angle_gamma 90.000000
_cell_volume 1049.948074
_symmetry_space_group_name_H-M "P C A 21"
_symmetry_group_IT_number 29
_symmetry_cell_setting 'orthorhombic'
loop_
_space_group_symop_operation_xyz
x,y,z
-x,-y,1/2+z
1/2-x,y,1/2+z
1/2+x,-y,z
loop_
_atom_site_type_symbol
_atom_site_label
_atom_site_fract_x
_atom_site_fract_y
_atom_site_fract_z
Si Si1 0.844342 0.254716 0.192640
Si Si2 0.728647 0.595927 0.894376
Si Si3 0.400364 0.033855 0.404640
Si Si4 0.822814 0.264566 0.611849
Si Si5 0.090722 0.448126 0.289561
Si Si6 0.510535 0.358607 0.517160
O O1 0.811954 0.439171 0.286311
O O2 0.760278 0.143423 0.148219
O O3 0.897193 0.342757 0.072693
O O4 0.901160 0.092423 0.268572
O O5 0.673066 0.798033 0.900038
O O6 0.823959 0.646861 0.850955
O O7 0.712797 0.464758 0.031296
O O8 0.481871 0.157566 0.440254
O O9 0.379236 0.869612 0.517578
O O10 0.872783 0.332050 0.742685
O O11 0.019162 0.467353 0.402420
O O12 0.049576 0.379416 0.147363
#
# Coordination Sequence:
#
# PCOD9340782 Si02
#       6
#     4   4   4   4   4   4
#     4  10  24  44  67  97 139 176 228 285 345 410
#     4  10  21  48  70  96 135 188 233 279 337 422
#     4  11  25  41  71 102 132 177 240 282 344 416
#     4  10  22  46  68  96 136 187 233 278 340 423
#     4  11  25  44  74 100 145 187 230 285 356 421
#     4  12  25  45  68 109 141 183 224 301 356 402
#
# _framework density 22.858273000000001
#
# number of rings (size 3 to 8) (size 9 to 14) (size 15 to 20)
#    0.000    1.333    3.333    1.000    7.000    0.000 
#    6.000    0.000    0.000    0.000    0.000    0.000 
#    0.000    0.000    0.000    0.000    0.000    0.000 
#
# Total GULP energy -133918.709569 kJ/mol
# GULP energy per Si atom -5579.946232 kJ/mol
# Density = 2.280625 g / cm^3
# Si number density = 22.858273 Si / 1000 Ang^3
#
#
#
# Elastic Constant Matrix: (Units=GPa)
#
#
# Indices 1 2 3 4 5 6 
#
# 1 92.4168 11.0854 23.4638 0.0000 0.0000 0.0000
# 2 11.0854 34.8442 12.8146 0.0000 0.0000 0.0000
# 3 23.4638 12.8146 96.6353 0.0000 0.0000 0.0000
# 4 0.0000 0.0000 0.0000 19.6537 0.0000 0.0000
# 5 0.0000 0.0000 0.0000 0.0000 46.0287 0.0000
# 6 0.0000 0.0000 0.0000 0.0000 0.0000 27.5580
#
#
#
# Elastic Compliance Matrix: (Units=1/GPa)
#
#
# Indices 1 2 3 4 5 6 
#
# 1 0.011792 -0.002837 -0.002487 0.000000 0.000000 0.000000
# 2 -0.002837 0.030853 -0.003403 0.000000 0.000000 0.000000
# 3 -0.002487 -0.003403 0.011403 0.000000 0.000000 0.000000
# 4 0.000000 0.000000 0.000000 0.050881 0.000000 0.000000
# 5 0.000000 0.000000 0.000000 0.000000 0.021726 0.000000
# 6 0.000000 0.000000 0.000000 0.000000 0.000000 0.036287
#
#
# Mechanical properties :
#
#
# Convention : Reuss Voigt Hill
#
# Bulk Modulus (GPa) = 27.32572 35.40265 31.36419
# Shear Modulus (GPa) = 25.96137 30.41691 28.18914
#
# Velocity S-wave (km/s) = 3.37375 3.65180 3.51552
# Velocity P-wave (km/s) = 5.21120 5.77082 5.49813
#
# Compressibility (1/GPa) = 0.03659556
#
# Stress axis : x y z
#
# Youngs Moduli (GPa) = 84.80126 32.41171 87.69420
#
# Poissons Ratio (x) = 0.09195 0.21810
# Poissons Ratio (y) = 0.24058 0.29838
# Poissons Ratio (z) = 0.21091 0.11028
#
# Static dielectric constant tensor:
#      x y z
#    x 1.878540 0.000000 0.000000 
#    y 0.000000 1.815840 0.000000 
#    z 0.000000 0.000000 1.906670 
# 
# From -- ./inp_files/3568.got.cif
#   From: 2010.05.17/outbox.cif.g08.bks.cpg/sg29_2_cif.got.tgz:3568.got - 2010.06.04 01:19:37.
