data_PCOD9340032
_publ_section_title
;
Structure prediction by ZEFSAII (Michael W. Deem and Ramdas Pophale) SiO2 
 PCOD9340032
Probable space group: P C A 21
;
_chemical_formula_sum "Si O2"
_cell_formula_units_Z 32
_cell_length_a 17.179628
_cell_length_b 7.577405
_cell_length_c 11.976143
_cell_angle_alpha 90.000000
_cell_angle_beta 90.000000
_cell_angle_gamma 90.000000
_cell_volume 1559.018357
_symmetry_space_group_name_H-M "P C A 21"
_symmetry_group_IT_number 29
_symmetry_cell_setting 'orthorhombic'
loop_
_space_group_symop_operation_xyz
x,y,z
-x,-y,1/2+z
1/2-x,y,1/2+z
1/2+x,-y,z
loop_
_atom_site_type_symbol
_atom_site_label
_atom_site_fract_x
_atom_site_fract_y
_atom_site_fract_z
Si Si1 0.012300 0.212439 0.324340
Si Si2 0.228653 0.031559 0.902111
Si Si3 0.826048 0.312443 0.913222
Si Si4 0.578296 0.043444 0.013056
Si Si5 0.048334 0.820009 0.250475
Si Si6 0.057352 0.814306 0.600637
Si Si7 0.378238 0.176400 0.207838
Si Si8 0.847222 0.680154 0.972397
O O1 0.071642 0.317744 0.403176
O O2 0.940939 0.152964 0.402111
O O3 0.979772 0.286684 0.207159
O O4 0.052939 0.025149 0.290960
O O5 0.188551 0.123293 0.794833
O O6 0.302118 0.144750 0.938054
O O7 0.259640 0.831657 0.890840
O O8 0.163887 0.032200 0.999158
O O9 0.888268 0.292491 0.814073
O O10 0.799024 0.511371 0.931522
O O11 0.878024 0.273880 0.024041
O O12 0.567157 0.167651 0.119578
O O13 0.514196 0.889071 0.026872
O O14 0.958760 0.762041 0.265967
O O15 0.096088 0.991271 0.650922
O O16 0.358289 0.305808 0.105677
#
# Coordination Sequence:
#
# PCOD9340032 Si02
#       8
#     4   4   4   4   4   4   4   4
#     4  10  17  40  67  92 115 162 220 261 314 375
#     4  12  23  41  63  92 133 175 206 264 332 400
#     4  12  25  41  62  98 135 172 211 267 329 396
#     4  10  18  36  72  89 116 168 217 260 323 378
#     4  10  19  39  71  92 114 168 224 265 320 378
#     4  10  19  40  70  92 115 168 221 264 321 374
#     4  10  20  41  72  87 125 174 215 274 322 378
#     4  12  25  42  63  96 135 169 216 269 329 391
#
# _framework density 20.525735999999998
#
# number of rings (size 3 to 8) (size 9 to 14) (size 15 to 20)
#    0.000    1.500    8.750    0.000    1.750    1.000 
#    4.500    2.500    0.000    0.000    0.000    0.000 
#    0.000    0.000    0.000    0.000    0.000    0.000 
#
# Total GULP energy -178501.619636 kJ/mol
# GULP energy per Si atom -5578.175614 kJ/mol
# Density = 2.047902 g / cm^3
# Si number density = 20.525736 Si / 1000 Ang^3
#
#
#
# Elastic Constant Matrix: (Units=GPa)
#
#
# Indices 1 2 3 4 5 6 
#
# 1 53.8833 -9.0031 23.6196 0.0000 0.0000 0.0000
# 2 -9.0031 38.5269 -1.0706 0.0000 0.0000 0.0000
# 3 23.6196 -1.0706 109.3263 0.0000 0.0000 0.0000
# 4 0.0000 0.0000 0.0000 16.6942 0.0000 0.0000
# 5 0.0000 0.0000 0.0000 0.0000 29.5136 0.0000
# 6 0.0000 0.0000 0.0000 0.0000 0.0000 1.8175
#
#
#
# Elastic Compliance Matrix: (Units=1/GPa)
#
#
# Indices 1 2 3 4 5 6 
#
# 1 0.021375 0.004868 -0.004570 0.000000 0.000000 0.000000
# 2 0.004868 0.027072 -0.000787 0.000000 0.000000 0.000000
# 3 -0.004570 -0.000787 0.010127 0.000000 0.000000 0.000000
# 4 0.000000 0.000000 0.000000 0.059901 0.000000 0.000000
# 5 0.000000 0.000000 0.000000 0.000000 0.033883 0.000000
# 6 0.000000 0.000000 0.000000 0.000000 0.000000 0.550217
#
#
# Mechanical properties :
#
#
# Convention : Reuss Voigt Hill
#
# Bulk Modulus (GPa) = 17.36240 25.42537 21.39388
# Shear Modulus (GPa) = 6.91801 22.15109 14.53455
#
# Velocity S-wave (km/s) = 1.83786 3.28866 2.66393
# Velocity P-wave (km/s) = 3.60289 5.18019 4.46179
#
# Compressibility (1/GPa) = 0.05759574
#
# Stress axis : x y z
#
# Youngs Moduli (GPa) = 46.78266 36.93905 98.74933
#
# Poissons Ratio (x) = -0.17982 0.45133
# Poissons Ratio (y) = -0.22774 0.07768
# Poissons Ratio (z) = 0.21382 0.02906
#
# Static dielectric constant tensor:
#      x y z
#    x 1.741520 0.000000 0.000000 
#    y 0.000000 1.758180 0.000000 
#    z 0.000000 0.000000 1.776230 
# 
# From -- ./inp_files/3693.got.cif
#   From: 2010.05.17/outbox.cif.g08.bks.cpg/sg29_2_cif.got.tgz:3693.got - 2010.06.04 01:19:37.
