data_PCOD9340318
_publ_section_title
;
Structure prediction by ZEFSAII (Michael W. Deem and Ramdas Pophale) SiO2 
 PCOD9340318
Probable space group: P C A 21
;
_chemical_formula_sum "Si O2"
_cell_formula_units_Z 32
_cell_length_a 9.353436
_cell_length_b 10.002983
_cell_length_c 17.613809
_cell_angle_alpha 90.000000
_cell_angle_beta 90.000000
_cell_angle_gamma 90.000000
_cell_volume 1647.987800
_symmetry_space_group_name_H-M "P C A 21"
_symmetry_group_IT_number 29
_symmetry_cell_setting 'orthorhombic'
loop_
_space_group_symop_operation_xyz
x,y,z
-x,-y,1/2+z
1/2-x,y,1/2+z
1/2+x,-y,z
loop_
_atom_site_type_symbol
_atom_site_label
_atom_site_fract_x
_atom_site_fract_y
_atom_site_fract_z
Si Si1 0.876495 0.461102 0.802550
Si Si2 0.849390 0.888910 0.484155
Si Si3 0.529633 0.880467 0.541035
Si Si4 0.338944 0.852481 0.401187
Si Si5 0.012217 0.656774 0.155801
Si Si6 0.086237 0.673686 0.765641
Si Si7 0.180445 0.580597 0.611962
Si Si8 0.570835 0.321965 0.451034
O O1 0.951318 0.355071 0.744761
O O2 0.708356 0.431719 0.794892
O O3 0.927780 0.434823 0.887282
O O4 0.933107 0.604361 0.775877
O O5 0.696715 0.880773 0.523519
O O6 0.919796 0.750073 0.461966
O O7 0.832051 0.988073 0.411834
O O8 0.961017 0.971605 0.537194
O O9 0.447087 0.810527 0.469622
O O10 0.500266 0.800979 0.618031
O O11 0.391953 0.799542 0.320293
O O12 0.185888 0.787776 0.420916
O O13 0.149470 0.586702 0.116787
O O14 0.877847 0.564431 0.135638
O O15 0.121674 0.683084 0.676641
O O16 0.124945 0.621751 0.530415
#
# Coordination Sequence:
#
# PCOD9340318 Si02
#       8
#     4   4   4   4   4   4   4   4
#     4   9  21  35  56  79 117 147 182 233 286 340
#     4  10  20  36  57  84 105 147 188 243 268 339
#     4  10  20  36  61  77 114 145 189 234 285 327
#     4   9  18  36  56  76 109 148 183 226 283 326
#     4  10  21  38  55  84 117 151 188 235 288 344
#     4   9  19  37  54  80 115 151 181 236 283 335
#     4  10  21  35  56  86 117 148 189 235 284 346
#     4  11  20  35  57  80 114 147 186 232 287 333
#
# _framework density 19.417619999999999
#
# number of rings (size 3 to 8) (size 9 to 14) (size 15 to 20)
#    0.750    1.500    2.500    0.000    3.500    1.000 
#    0.000    1.250    2.750    0.000    0.000    0.000 
#    0.000    0.000    0.000    0.000    0.000    0.000 
#
# Total GULP energy -178322.550833 kJ/mol
# GULP energy per Si atom -5572.579714 kJ/mol
# Density = 1.937343 g / cm^3
# Si number density = 19.417620 Si / 1000 Ang^3
#
#
#
# Elastic Constant Matrix: (Units=GPa)
#
#
# Indices 1 2 3 4 5 6 
#
# 1 72.0308 -7.0072 -3.5250 0.0000 0.0000 0.0000
# 2 -7.0072 5.6074 0.2837 0.0000 0.0000 0.0000
# 3 -3.5250 0.2837 93.8426 0.0000 0.0000 0.0000
# 4 0.0000 0.0000 0.0000 22.0714 0.0000 0.0000
# 5 0.0000 0.0000 0.0000 0.0000 12.5280 0.0000
# 6 0.0000 0.0000 0.0000 0.0000 0.0000 20.9850
#
#
#
# Elastic Compliance Matrix: (Units=1/GPa)
#
#
# Indices 1 2 3 4 5 6 
#
# 1 0.015831 0.019756 0.000535 0.000000 0.000000 0.000000
# 2 0.019756 0.203016 0.000128 0.000000 0.000000 0.000000
# 3 0.000535 0.000128 0.010676 0.000000 0.000000 0.000000
# 4 0.000000 0.000000 0.000000 0.045308 0.000000 0.000000
# 5 0.000000 0.000000 0.000000 0.000000 0.079821 0.000000
# 6 0.000000 0.000000 0.000000 0.000000 0.000000 0.047653
#
#
# Mechanical properties :
#
#
# Convention : Reuss Voigt Hill
#
# Bulk Modulus (GPa) = 3.69877 16.77599 10.23738
# Shear Modulus (GPa) = 11.07208 23.23217 17.15213
#
# Velocity S-wave (km/s) = 2.39049 3.46272 2.97531
# Velocity P-wave (km/s) = 3.08679 4.96443 4.13363
#
# Compressibility (1/GPa) = 0.27036043
#
# Stress axis : x y z
#
# Youngs Moduli (GPa) = 63.16726 4.92573 93.66940
#
# Poissons Ratio (x) = -0.09731 -0.05011
# Poissons Ratio (y) = -1.24792 -0.01201
# Poissons Ratio (z) = -0.03379 -0.00063
#
# Static dielectric constant tensor:
#      x y z
#    x 1.685290 0.000000 0.000000 
#    y 0.000000 1.682020 0.000000 
#    z 0.000000 0.000000 1.683370 
# 
# From -- ./inp_files/4289.got.cif
#   From: 2010.05.17/outbox.cif.g08.bks.cpg/sg29_3_cif.got.tgz:4289.got - 2010.06.04 01:19:37.
