data_PCOD9340185
_publ_section_title
;
Structure prediction by ZEFSAII (Michael W. Deem and Ramdas Pophale) SiO2 
 PCOD9340185
Probable space group: P C A 21
;
_chemical_formula_sum "Si O2"
_cell_formula_units_Z 32
_cell_length_a 15.027917
_cell_length_b 10.663400
_cell_length_c 8.849270
_cell_angle_alpha 90.000000
_cell_angle_beta 90.000000
_cell_angle_gamma 90.000000
_cell_volume 1418.083926
_symmetry_space_group_name_H-M "P C A 21"
_symmetry_group_IT_number 29
_symmetry_cell_setting 'orthorhombic'
loop_
_space_group_symop_operation_xyz
x,y,z
-x,-y,1/2+z
1/2-x,y,1/2+z
1/2+x,-y,z
loop_
_atom_site_type_symbol
_atom_site_label
_atom_site_fract_x
_atom_site_fract_y
_atom_site_fract_z
Si Si1 0.703160 0.758689 0.954040
Si Si2 0.117425 0.529629 0.658630
Si Si3 0.522055 0.586675 0.388122
Si Si4 0.155749 0.046460 0.477709
Si Si5 0.025672 0.133525 0.267210
Si Si6 0.193180 0.414077 0.228187
Si Si7 0.549384 0.871336 0.759261
Si Si8 0.079531 0.789343 0.486490
O O1 0.773647 0.670871 0.867455
O O2 0.629970 0.798488 0.835134
O O3 0.753991 0.882171 0.009517
O O4 0.668315 0.676958 0.091441
O O5 0.057191 0.436788 0.556364
O O6 0.220642 0.493645 0.678870
O O7 0.108521 0.660265 0.564720
O O8 0.070715 0.533742 0.823635
O O9 0.514780 0.733540 0.348631
O O10 0.601711 0.526767 0.285933
O O11 0.080176 0.106255 0.587493
O O12 0.122522 0.081145 0.309563
O O13 0.154137 0.897464 0.497100
O O14 0.000638 0.160195 0.094130
O O15 0.963675 0.015788 0.315128
O O16 0.461895 0.797009 0.817935
#
# Coordination Sequence:
#
# PCOD9340185 Si02
#       8
#     4   4   4   4   4   4   4   4
#     4  12  22  37  64  93 119 161 216 266 325 380
#     4  11  25  41  64  95 126 180 221 269 324 389
#     4  11  24  42  66  92 131 171 224 273 322 390
#     4  10  19  36  59  90 120 153 204 261 325 391
#     4   9  18  39  59  88 117 156 199 261 325 380
#     4  12  24  42  66  92 130 172 224 273 318 393
#     4  10  21  34  63  90 120 159 200 267 331 387
#     4   9  21  39  59  84 127 158 204 260 324 380
#
# _framework density 22.565660000000001
#
# number of rings (size 3 to 8) (size 9 to 14) (size 15 to 20)
#    0.000    1.500    3.750    1.500    3.500    0.000 
#    0.000    5.000    0.000    0.000    0.000    0.000 
#    0.000    0.000    0.000    0.000    0.000    0.000 
#
# Total GULP energy -178526.023569 kJ/mol
# GULP energy per Si atom -5578.938237 kJ/mol
# Density = 2.251430 g / cm^3
# Si number density = 22.565660 Si / 1000 Ang^3
#
#
#
# Elastic Constant Matrix: (Units=GPa)
#
#
# Indices 1 2 3 4 5 6 
#
# 1 71.8650 21.4667 0.9490 0.0000 0.0000 0.0000
# 2 21.4667 66.6716 4.7127 0.0000 0.0000 0.0000
# 3 0.9490 4.7127 46.3312 0.0000 0.0000 0.0000
# 4 0.0000 0.0000 0.0000 32.4016 0.0000 0.0000
# 5 0.0000 0.0000 0.0000 0.0000 28.8173 0.0000
# 6 0.0000 0.0000 0.0000 0.0000 0.0000 39.6524
#
#
#
# Elastic Compliance Matrix: (Units=1/GPa)
#
#
# Indices 1 2 3 4 5 6 
#
# 1 0.015397 -0.004971 0.000190 0.000000 0.000000 0.000000
# 2 -0.004971 0.016712 -0.001598 0.000000 0.000000 0.000000
# 3 0.000190 -0.001598 0.021742 0.000000 0.000000 0.000000
# 4 0.000000 0.000000 0.000000 0.030863 0.000000 0.000000
# 5 0.000000 0.000000 0.000000 0.000000 0.034701 0.000000
# 6 0.000000 0.000000 0.000000 0.000000 0.000000 0.025219
#
#
# Mechanical properties :
#
#
# Convention : Reuss Voigt Hill
#
# Bulk Modulus (GPa) = 24.33425 26.56941 25.45183
# Shear Modulus (GPa) = 29.22415 30.69021 29.95718
#
# Velocity S-wave (km/s) = 3.60261 3.69187 3.64752
# Velocity P-wave (km/s) = 5.30210 5.47477 5.38913
#
# Compressibility (1/GPa) = 0.04109434
#
# Stress axis : x y z
#
# Youngs Moduli (GPa) = 64.94613 59.83577 45.99312
#
# Poissons Ratio (x) = 0.29745 -0.00875
# Poissons Ratio (y) = 0.32285 0.07350
# Poissons Ratio (z) = -0.01236 0.09563
#
# Static dielectric constant tensor:
#      x y z
#    x 1.850510 0.000000 0.000000 
#    y 0.000000 1.852020 0.000000 
#    z 0.000000 0.000000 1.903900 
# 
# From -- ./inp_files/1873.got.cif
#   From: 2010.05.17/outbox.cif.g08.bks.cpg/sg29_1_cif.got.tgz:1873.got - 2010.06.04 01:19:37.
