data_PCOD9340169
_publ_section_title
;
Structure prediction by ZEFSAII (Michael W. Deem and Ramdas Pophale) SiO2 
 PCOD9340169
Probable space group: P C A 21
;
_chemical_formula_sum "Si O2"
_cell_formula_units_Z 32
_cell_length_a 5.498010
_cell_length_b 14.961195
_cell_length_c 14.683073
_cell_angle_alpha 90.000000
_cell_angle_beta 90.000000
_cell_angle_gamma 90.000000
_cell_volume 1207.782595
_symmetry_space_group_name_H-M "P C A 21"
_symmetry_group_IT_number 29
_symmetry_cell_setting 'orthorhombic'
loop_
_space_group_symop_operation_xyz
x,y,z
-x,-y,1/2+z
1/2-x,y,1/2+z
1/2+x,-y,z
loop_
_atom_site_type_symbol
_atom_site_label
_atom_site_fract_x
_atom_site_fract_y
_atom_site_fract_z
Si Si1 0.192210 0.272582 0.105510
Si Si2 0.203944 0.716535 0.356123
Si Si3 0.179971 0.476035 0.034971
Si Si4 0.816820 0.206970 0.682170
Si Si5 0.823799 0.949855 0.799544
Si Si6 0.200906 0.226110 0.419875
Si Si7 0.330175 0.987452 0.595301
Si Si8 0.172392 0.544328 0.238045
O O1 0.188775 0.374031 0.068506
O O2 0.431555 0.260493 0.166703
O O3 0.931156 0.252486 0.147773
O O4 0.236940 0.202961 0.023417
O O5 0.206430 0.802854 0.290308
O O6 0.437078 0.725804 0.420641
O O7 0.242244 0.635094 0.287565
O O8 0.934052 0.712774 0.395539
O O9 0.427804 0.502778 0.985016
O O10 0.176650 0.537841 0.127148
O O11 0.834456 0.112671 0.633620
O O12 0.809446 0.854835 0.849471
O O13 0.576356 0.001939 0.823444
O O14 0.826578 0.950127 0.687203
O O15 0.579061 0.002621 0.543154
O O16 0.395915 0.479320 0.263754
#
# Coordination Sequence:
#
# PCOD9340169 Si02
#       8
#     4   4   4   4   4   4   4   4
#     4  12  26  45  67 101 142 180 218 275 348 410
#     4  12  23  41  70  99 128 175 231 281 325 395
#     4  10  20  39  64  90 125 174 219 263 326 398
#     4  12  23  41  70  99 128 175 231 281 325 395
#     4  10  20  39  64  90 125 174 219 263 326 398
#     4  12  26  45  67 101 142 180 218 275 348 410
#     4  10  19  35  59  92 125 161 217 279 323 373
#     4  10  19  35  59  92 125 161 217 279 323 373
#
# _framework density 26.494834999999998
#
# number of rings (size 3 to 8) (size 9 to 14) (size 15 to 20)
#    0.000    1.000    0.000   10.500    0.000    0.000 
#    0.000    7.500    0.000    0.000    0.000    0.000 
#    0.000    0.000    0.000    0.000    0.000    0.000 
#
# Total GULP energy -179256.411057 kJ/mol
# GULP energy per Si atom -5601.762846 kJ/mol
# Density = 2.643453 g / cm^3
# Si number density = 26.494835 Si / 1000 Ang^3
#
#
#
# Elastic Constant Matrix: (Units=GPa)
#
#
# Indices 1 2 3 4 5 6 
#
# 1 238.7048 41.8053 8.6699 0.0000 0.0000 0.0000
# 2 41.8053 68.6201 5.0076 0.0000 0.0000 0.0000
# 3 8.6699 5.0076 55.9640 0.0000 0.0000 0.0000
# 4 0.0000 0.0000 0.0000 15.3889 0.0000 0.0000
# 5 0.0000 0.0000 0.0000 0.0000 23.7806 0.0000
# 6 0.0000 0.0000 0.0000 0.0000 0.0000 44.9056
#
#
#
# Elastic Compliance Matrix: (Units=1/GPa)
#
#
# Indices 1 2 3 4 5 6 
#
# 1 0.004702 -0.002830 -0.000475 0.000000 0.000000 0.000000
# 2 -0.002830 0.016372 -0.001027 0.000000 0.000000 0.000000
# 3 -0.000475 -0.001027 0.018034 0.000000 0.000000 0.000000
# 4 0.000000 0.000000 0.000000 0.064982 0.000000 0.000000
# 5 0.000000 0.000000 0.000000 0.000000 0.042051 0.000000
# 6 0.000000 0.000000 0.000000 0.000000 0.000000 0.022269
#
#
# Mechanical properties :
#
#
# Convention : Reuss Voigt Hill
#
# Bulk Modulus (GPa) = 32.84638 52.69494 42.77066
# Shear Modulus (GPa) = 26.70628 37.33544 32.02086
#
# Velocity S-wave (km/s) = 3.17832 3.75795 3.48022
# Velocity P-wave (km/s) = 5.08853 6.22587 5.68571
#
# Compressibility (1/GPa) = 0.03044476
#
# Stress axis : x y z
#
# Youngs Moduli (GPa) = 212.66789 61.07983 55.45053
#
# Poissons Ratio (x) = 0.17286 0.02635
# Poissons Ratio (y) = 0.60185 0.05692
# Poissons Ratio (z) = 0.10107 0.06270
#
# Static dielectric constant tensor:
#      x y z
#    x 2.123320 0.000000 0.000000 
#    y 0.000000 2.109220 0.000000 
#    z 0.000000 0.000000 2.068350 
# 
# From -- ./inp_files/4908.got.cif
#   From: 2010.05.17/outbox.cif.g08.bks.cpg/sg29_3_cif.got.tgz:4908.got - 2010.06.04 01:19:37.
