data_PCOD9341648
_publ_section_title
;
Structure prediction by ZEFSAII (Michael W. Deem and Ramdas Pophale) SiO2 
 PCOD9341648
Probable space group: P C A 21
;
_chemical_formula_sum "Si O2"
_cell_formula_units_Z 28
_cell_length_a 7.806444
_cell_length_b 17.069147
_cell_length_c 8.182323
_cell_angle_alpha 90.000000
_cell_angle_beta 90.000000
_cell_angle_gamma 90.000000
_cell_volume 1090.289141
_symmetry_space_group_name_H-M "P C A 21"
_symmetry_group_IT_number 29
_symmetry_cell_setting 'orthorhombic'
loop_
_space_group_symop_operation_xyz
x,y,z
-x,-y,1/2+z
1/2-x,y,1/2+z
1/2+x,-y,z
loop_
_atom_site_type_symbol
_atom_site_label
_atom_site_fract_x
_atom_site_fract_y
_atom_site_fract_z
Si Si1 0.475994 0.952163 0.538610
Si Si2 0.522893 0.424369 0.940523
Si Si3 0.050433 0.261445 0.393071
Si Si4 0.861399 0.241228 0.946651
Si Si5 0.619239 0.099755 0.672484
Si Si6 0.400694 0.590918 0.826719
Si Si7 0.851325 0.819093 0.211063
O O1 0.437824 0.922057 0.355846
O O2 0.311252 0.930869 0.645057
O O3 0.629689 0.902665 0.621864
O O4 0.512442 0.043701 0.551054
O O5 0.547903 0.407549 0.134964
O O6 0.412993 0.353332 0.863043
O O7 0.466103 0.512893 0.914274
O O8 0.697335 0.417011 0.839346
O O9 0.119156 0.244629 0.572727
O O10 0.170885 0.203202 0.289685
O O11 0.843138 0.248519 0.410389
O O12 0.935399 0.329089 0.927882
O O13 0.986870 0.192961 0.828972
O O14 0.875374 0.189381 0.109799
#
# Coordination Sequence:
#
# PCOD9341648 Si02
#       7
#     4   4   4   4   4   4   4
#     4  12  28  51  86 123 163 226 274 350 423 506
#     4  11  25  49  76 118 167 214 286 344 428 502
#     4  11  28  49  80 120 165 217 278 346 416 507
#     4  11  26  54  86 120 168 224 279 351 429 501
#     4  12  27  54  87 122 172 215 288 347 426 504
#     4  11  25  47  81 116 161 223 276 352 426 498
#     4  12  27  52  80 119 166 213 279 340 422 498
#
# _framework density 25.681260000000002
#
# number of rings (size 3 to 8) (size 9 to 14) (size 15 to 20)
#    0.000    0.571    2.857    3.429    2.000    6.857 
#    5.143    0.000    0.000    0.000    0.000    0.000 
#    0.000    0.000    0.000    0.000    0.000    0.000 
#
# Total GULP energy -156645.506104 kJ/mol
# GULP energy per Si atom -5594.482361 kJ/mol
# Density = 2.562281 g / cm^3
# Si number density = 25.681260 Si / 1000 Ang^3
#
#
#
# Elastic Constant Matrix: (Units=GPa)
#
#
# Indices 1 2 3 4 5 6 
#
# 1 116.9507 -41.8718 82.1682 0.0000 0.0000 0.0000
# 2 -41.8718 -959.8776 294.3257 0.0000 0.0000 0.0000
# 3 82.1682 294.3257 101.8670 0.0000 0.0000 0.0000
# 4 0.0000 0.0000 0.0000 24.5905 0.0000 0.0000
# 5 0.0000 0.0000 0.0000 0.0000 30.6289 0.0000
# 6 0.0000 0.0000 0.0000 0.0000 0.0000 42.5213
#
#
#
# Elastic Compliance Matrix: (Units=1/GPa)
#
#
# Indices 1 2 3 4 5 6 
#
# 1 0.010666 -0.001645 -0.003849 0.000000 0.000000 0.000000
# 2 -0.001645 -0.000299 0.002190 0.000000 0.000000 0.000000
# 3 -0.003849 0.002190 0.006594 0.000000 0.000000 0.000000
# 4 0.000000 0.000000 0.000000 0.040666 0.000000 0.000000
# 5 0.000000 0.000000 0.000000 0.000000 0.032649 0.000000
# 6 0.000000 0.000000 0.000000 0.000000 0.000000 0.023518
#
#
# Mechanical properties :
#
#
# Convention : Reuss Voigt Hill
#
# Bulk Modulus (GPa) = 96.59747 -7.97952 44.30897
# Shear Modulus (GPa) = 40.37017 -52.16398 -5.89691
#
# Velocity S-wave (km/s) = 3.96911 -4.51178 -1.51696
# Velocity P-wave (km/s) = 7.66164 5.50050 3.77129
#
# Compressibility (1/GPa) = 0.01035224
#
# Stress axis : x y z
#
# Youngs Moduli (GPa) = 93.75836 -3349.55042 151.64892
#
# Poissons Ratio (x) = -5.51155 0.58369
# Poissons Ratio (y) = 0.15428 -0.33209
# Poissons Ratio (z) = 0.36087 7.33505
#
# Static dielectric constant tensor:
#      x y z
#    x 2.029070 0.000000 0.000000 
#    y 0.000000 2.113790 0.000000 
#    z 0.000000 0.000000 2.042400 
# 
# From -- ./inp_files/1241.got.cif
#   From: 2010.05.17/outbox.cif.g08.bks.cpg/sg29_1_cif.got.tgz:1241.got - 2010.06.04 01:19:37.
