data_PCOD9341483
_publ_section_title
;
Structure prediction by ZEFSAII (Michael W. Deem and Ramdas Pophale) SiO2 
 PCOD9341483
Probable space group: P C A 21
;
_chemical_formula_sum "Si O2"
_cell_formula_units_Z 32
_cell_length_a 14.607775
_cell_length_b 11.115982
_cell_length_c 9.003533
_cell_angle_alpha 90.000000
_cell_angle_beta 90.000000
_cell_angle_gamma 90.000000
_cell_volume 1461.991563
_symmetry_space_group_name_H-M "P C A 21"
_symmetry_group_IT_number 29
_symmetry_cell_setting 'orthorhombic'
loop_
_space_group_symop_operation_xyz
x,y,z
-x,-y,1/2+z
1/2-x,y,1/2+z
1/2+x,-y,z
loop_
_atom_site_type_symbol
_atom_site_label
_atom_site_fract_x
_atom_site_fract_y
_atom_site_fract_z
Si Si1 0.832139 0.916192 0.125000
Si Si2 0.840993 0.250344 0.461807
Si Si3 0.043573 0.233796 0.406346
Si Si4 0.976828 0.119749 0.101478
Si Si5 0.719019 0.397456 0.675926
Si Si6 0.040920 0.611331 0.488806
Si Si7 0.844583 0.970608 0.453074
Si Si8 0.600718 0.532801 0.223582
O O1 0.837261 0.896277 0.300863
O O2 0.886235 0.824278 0.020427
O O3 0.728538 0.923500 0.071169
O O4 0.884669 0.043102 0.102354
O O5 0.777465 0.293817 0.594480
O O6 0.818390 0.338873 0.325978
O O7 0.948969 0.263092 0.490267
O O8 0.823074 0.110951 0.425357
O O9 0.011654 0.148605 0.268428
O O10 0.084728 0.349765 0.324575
O O11 0.963357 0.246141 0.018359
O O12 0.054955 0.043961 0.020073
O O13 0.632445 0.432194 0.575439
O O14 0.793036 0.501811 0.701581
O O15 0.053746 0.573288 0.319513
O O16 0.952628 0.555221 0.569887
#
# Coordination Sequence:
#
# PCOD9341483 Si02
#       8
#     4   4   4   4   4   4   4   4
#     4  12  24  45  65 104 141 187 229 286 358 420
#     4  12  22  44  71 103 139 181 233 292 343 419
#     4  11  24  47  67  98 149 182 236 292 346 418
#     4  11  22  46  70  99 140 185 227 296 347 419
#     4  12  24  43  72 101 137 183 235 286 350 409
#     4  11  24  46  68 102 137 180 239 288 347 420
#     4  12  25  41  72 102 139 187 229 288 356 425
#     4  11  25  44  71  99 138 187 232 298 341 418
#
# _framework density 21.887951999999999
#
# number of rings (size 3 to 8) (size 9 to 14) (size 15 to 20)
#    0.000    0.500    6.250    3.000    0.000    2.000 
#    9.000    0.000    0.000    0.000    0.000    0.000 
#    0.000    0.000    0.000    0.000    0.000    0.000 
#
# Total GULP energy -179143.131876 kJ/mol
# GULP energy per Si atom -5598.222871 kJ/mol
# Density = 2.183813 g / cm^3
# Si number density = 21.887952 Si / 1000 Ang^3
#
#
#
# Elastic Constant Matrix: (Units=GPa)
#
#
# Indices 1 2 3 4 5 6 
#
# 1 54.2905 14.5948 -10.8515 0.0000 0.0000 0.0000
# 2 14.5948 30.0941 13.6380 0.0000 0.0000 0.0000
# 3 -10.8515 13.6380 40.6680 0.0000 0.0000 0.0000
# 4 0.0000 0.0000 0.0000 32.2825 0.0000 0.0000
# 5 0.0000 0.0000 0.0000 0.0000 21.4954 0.0000
# 6 0.0000 0.0000 0.0000 0.0000 0.0000 35.3614
#
#
#
# Elastic Compliance Matrix: (Units=1/GPa)
#
#
# Indices 1 2 3 4 5 6 
#
# 1 0.026064 -0.018622 0.013200 0.000000 0.000000 0.000000
# 2 -0.018622 0.052489 -0.022571 0.000000 0.000000 0.000000
# 3 0.013200 -0.022571 0.035681 0.000000 0.000000 0.000000
# 4 0.000000 0.000000 0.000000 0.030977 0.000000 0.000000
# 5 0.000000 0.000000 0.000000 0.000000 0.046522 0.000000
# 6 0.000000 0.000000 0.000000 0.000000 0.000000 0.028279
#
#
# Mechanical properties :
#
#
# Convention : Reuss Voigt Hill
#
# Bulk Modulus (GPa) = 17.16847 17.75726 17.46287
# Shear Modulus (GPa) = 16.92541 25.00593 20.96567
#
# Velocity S-wave (km/s) = 2.78380 3.38368 3.09829
# Velocity P-wave (km/s) = 4.26539 4.83696 4.56014
#
# Compressibility (1/GPa) = 0.05824629
#
# Stress axis : x y z
#
# Youngs Moduli (GPa) = 38.36733 19.05161 28.02640
#
# Poissons Ratio (x) = 0.35478 -0.36994
# Poissons Ratio (y) = 0.71448 0.63259
# Poissons Ratio (z) = -0.50643 0.43002
#
# Static dielectric constant tensor:
#      x y z
#    x 1.767300 0.000000 0.000000 
#    y 0.000000 1.813170 0.000000 
#    z 0.000000 0.000000 1.795840 
# 
# From -- ./inp_files/1826.got.cif
#   From: 2010.05.17/outbox.cif.g08.bks.cpg/sg29_1_cif.got.tgz:1826.got - 2010.06.04 01:19:37.
