data_PCOD9341904
_publ_section_title
;
Structure prediction by ZEFSAII (Michael W. Deem and Ramdas Pophale) SiO2 
 PCOD9341904
Probable space group: P N C 2
;
_chemical_formula_sum "Si O2"
_cell_formula_units_Z 24
_cell_length_a 7.580108
_cell_length_b 10.023798
_cell_length_c 16.193732
_cell_angle_alpha 90.000000
_cell_angle_beta 90.000000
_cell_angle_gamma 90.000000
_cell_volume 1230.423585
_symmetry_space_group_name_H-M "P N C 2"
_symmetry_group_IT_number 30
_symmetry_cell_setting 'orthorhombic'
loop_
_space_group_symop_operation_xyz
x,y,z
-x,-y,z
-x,1/2+y,1/2+z
x,1/2-y,1/2+z
loop_
_atom_site_type_symbol
_atom_site_label
_atom_site_fract_x
_atom_site_fract_y
_atom_site_fract_z
Si Si1 0.212080 0.481109 0.277690
Si Si2 0.823237 0.415439 0.105321
Si Si3 0.032753 0.850868 0.042091
Si Si4 0.789001 0.473103 0.923653
Si Si5 0.326955 0.810061 0.907169
Si Si6 0.718270 0.770070 0.915354
O O1 0.267230 0.516980 0.184122
O O2 0.309740 0.591469 0.331382
O O3 0.241131 0.345427 0.329133
O O4 0.000000 0.500000 0.279130
O O5 0.000000 0.500000 0.096273
O O6 0.894743 0.261976 0.105516
O O7 0.730449 0.438374 0.017740
O O8 0.187115 0.860634 0.974225
O O9 0.135753 0.200175 0.986920
O O10 0.000000 0.000000 0.075407
O O11 0.733537 0.337745 0.878806
O O12 0.708015 0.612677 0.898651
O O13 0.000000 0.500000 0.919207
O O14 0.523540 0.813315 0.942207
#
# Coordination Sequence:
#
# PCOD9341904 Si02
#       6
#     4   4   4   4   4   4
#     4  11  20  37  58  87 120 159 200 245 305 354
#     4   9  19  36  62  83 122 159 196 242 306 364
#     4  11  20  38  60  88 118 155 204 249 295 356
#     4  10  18  38  61  86 116 155 200 248 295 355
#     4  11  21  34  58  91 117 155 205 244 301 353
#     4  12  20  35  60  90 116 157 201 254 290 354
#
# _framework density 19.505479000000001
#
# number of rings (size 3 to 8) (size 9 to 14) (size 15 to 20)
#    0.000    1.333    8.333    1.000    0.000    0.000 
#    0.000   10.833    0.000    0.000    0.000    0.000 
#    0.000    0.000    0.000    0.000    0.000    0.000 
#
# Total GULP energy -133653.165656 kJ/mol
# GULP energy per Si atom -5568.881902 kJ/mol
# Density = 1.946108 g / cm^3
# Si number density = 19.505479 Si / 1000 Ang^3
#
#
#
# Elastic Constant Matrix: (Units=GPa)
#
#
# Indices 1 2 3 4 5 6 
#
# 1 84.5391 -17.2092 -1.7127 0.0000 0.0000 0.0000
# 2 -17.2092 154.7843 31.1852 0.0000 0.0000 0.0000
# 3 -1.7127 31.1852 40.4928 0.0000 0.0000 0.0000
# 4 0.0000 0.0000 0.0000 49.6346 0.0000 0.0000
# 5 0.0000 0.0000 0.0000 0.0000 -7.4749 0.0000
# 6 0.0000 0.0000 0.0000 0.0000 0.0000 19.9986
#
#
#
# Elastic Compliance Matrix: (Units=1/GPa)
#
#
# Indices 1 2 3 4 5 6 
#
# 1 0.012116 0.001472 -0.000621 0.000000 0.000000 0.000000
# 2 0.001472 0.007826 -0.005965 0.000000 0.000000 0.000000
# 3 -0.000621 -0.005965 0.029263 0.000000 0.000000 0.000000
# 4 0.000000 0.000000 0.000000 0.020147 0.000000 0.000000
# 5 0.000000 0.000000 0.000000 0.000000 -0.133781 0.000000
# 6 0.000000 0.000000 0.000000 0.000000 0.000000 0.050003
#
#
# Mechanical properties :
#
#
# Convention : Reuss Voigt Hill
#
# Bulk Modulus (GPa) = 25.65599 33.81585 29.73592
# Shear Modulus (GPa) = 568.45532 30.26854 299.36193
#
# Velocity S-wave (km/s) = 17.08995 3.94356 12.40198
# Velocity P-wave (km/s) = 20.06498 6.17331 14.84442
#
# Compressibility (1/GPa) = 0.03897725
#
# Stress axis : x y z
#
# Youngs Moduli (GPa) = 82.53572 127.77804 34.17253
#
# Poissons Ratio (x) = -0.18812 0.02123
# Poissons Ratio (y) = -0.12152 0.20384
# Poissons Ratio (z) = 0.05129 0.76218
#
# Static dielectric constant tensor:
#      x y z
#    x 0.942600 0.000000 0.000000 
#    y 0.000000 1.742010 0.000000 
#    z 0.000000 0.000000 1.734580 
# 
# From -- ./inp_files/6285.got.cif
#   From: 2010.05.17/outbox.cif.g08.bks.cpg/sg30_4_cif.got.tgz:6285.got - 2010.06.03 17:03:02.
