data_PCOD9341988
_publ_section_title
;
Structure prediction by ZEFSAII (Michael W. Deem and Ramdas Pophale) SiO2 
 PCOD9341988
Probable space group: P N C 2
;
_chemical_formula_sum "Si O2"
_cell_formula_units_Z 32
_cell_length_a 5.932337
_cell_length_b 27.628409
_cell_length_c 8.583030
_cell_angle_alpha 90.000000
_cell_angle_beta 90.000000
_cell_angle_gamma 90.000000
_cell_volume 1406.767483
_symmetry_space_group_name_H-M "P N C 2"
_symmetry_group_IT_number 30
_symmetry_cell_setting 'orthorhombic'
loop_
_space_group_symop_operation_xyz
x,y,z
-x,-y,z
-x,1/2+y,1/2+z
x,1/2-y,1/2+z
loop_
_atom_site_type_symbol
_atom_site_label
_atom_site_fract_x
_atom_site_fract_y
_atom_site_fract_z
Si Si1 0.237738 0.371498 0.013330
Si Si2 0.109902 0.049085 0.023975
Si Si3 0.469099 0.798022 0.331351
Si Si4 0.611506 0.625329 0.355291
Si Si5 0.099275 0.705384 0.081750
Si Si6 0.600998 0.952301 0.318626
Si Si7 0.836407 0.724450 0.367772
Si Si8 0.724201 0.379743 0.631087
O O1 0.390438 0.368947 0.169185
O O2 0.996426 0.348779 0.054818
O O3 0.343788 0.337379 0.880758
O O4 0.243706 0.423994 0.939923
O O5 0.255644 0.076513 0.895427
O O6 0.953910 0.091441 0.099034
O O7 0.000000 0.000000 0.961452
O O8 0.261597 0.031334 0.167375
O O9 0.326436 0.787564 0.487549
O O10 0.620196 0.751413 0.288733
O O11 0.303314 0.826181 0.209880
O O12 0.750069 0.671957 0.415857
O O13 0.389809 0.623830 0.460427
O O14 0.059254 0.716820 0.261561
O O15 0.918694 0.741710 0.004916
O O16 0.415810 0.915383 0.246636
O O17 0.500000 0.000000 0.393640
#
# Coordination Sequence:
#
# PCOD9341988 Si02
#       8
#     4   4   4   4   4   4   4   4
#     4   9  21  40  56  88 123 156 196 252 308 369
#     4  11  22  39  62  87 116 153 207 255 305 374
#     4  10  21  38  63  88 118 165 210 248 304 382
#     4  10  23  39  58  85 127 158 190 255 315 364
#     4  10  21  37  60  85 126 158 203 252 303 367
#     4  10  19  38  62  83 112 151 198 253 299 352
#     4  10  22  38  56  89 124 160 203 253 306 373
#     4  10  21  38  63  87 115 156 206 247 303 366
#
# _framework density 22.747185999999999
#
# number of rings (size 3 to 8) (size 9 to 14) (size 15 to 20)
#    0.000    2.000    1.250    1.500    0.000   10.000 
#    2.250    0.625    0.000    0.000    0.000    0.000 
#    0.000    0.000    0.000    0.000    0.000    0.000 
#
# Total GULP energy -178601.836901 kJ/mol
# GULP energy per Si atom -5581.307403 kJ/mol
# Density = 2.269541 g / cm^3
# Si number density = 22.747186 Si / 1000 Ang^3
#
#
#
# Elastic Constant Matrix: (Units=GPa)
#
#
# Indices 1 2 3 4 5 6 
#
# 1 41.3619 7.5524 0.9851 0.0000 0.0000 0.0000
# 2 7.5524 114.3761 14.8591 0.0000 0.0000 0.0000
# 3 0.9851 14.8591 37.7384 0.0000 0.0000 0.0000
# 4 0.0000 0.0000 0.0000 23.1478 0.0000 0.0000
# 5 0.0000 0.0000 0.0000 0.0000 21.0554 0.0000
# 6 0.0000 0.0000 0.0000 0.0000 0.0000 28.0983
#
#
#
# Elastic Compliance Matrix: (Units=1/GPa)
#
#
# Indices 1 2 3 4 5 6 
#
# 1 0.024472 -0.001616 -0.000003 0.000000 0.000000 0.000000
# 2 -0.001616 0.009321 -0.003628 0.000000 0.000000 0.000000
# 3 -0.000003 -0.003628 0.027927 0.000000 0.000000 0.000000
# 4 0.000000 0.000000 0.000000 0.043201 0.000000 0.000000
# 5 0.000000 0.000000 0.000000 0.000000 0.047494 0.000000
# 6 0.000000 0.000000 0.000000 0.000000 0.000000 0.035589
#
#
# Mechanical properties :
#
#
# Convention : Reuss Voigt Hill
#
# Bulk Modulus (GPa) = 19.52078 26.69660 23.10869
# Shear Modulus (GPa) = 23.19413 25.79894 24.49654
#
# Velocity S-wave (km/s) = 3.19666 3.37138 3.28518
# Velocity P-wave (km/s) = 4.71435 5.18813 4.95690
#
# Compressibility (1/GPa) = 0.05122747
#
# Stress axis : x y z
#
# Youngs Moduli (GPa) = 40.86317 107.28373 35.80797
#
# Poissons Ratio (x) = 0.17332 0.00010
# Poissons Ratio (y) = 0.06602 0.12991
# Poissons Ratio (z) = 0.00011 0.38921
#
# Static dielectric constant tensor:
#      x y z
#    x 1.913310 0.000000 0.000000 
#    y 0.000000 1.874440 0.000000 
#    z 0.000000 0.000000 1.839040 
# 
# From -- ./inp_files/1476.got.cif
#   From: 2010.05.17/outbox.cif.g08.bks.cpg/sg30_1_cif.got.tgz:1476.got - 2010.06.03 17:03:02.
