data_PCOD9341444
_publ_section_title
;
Structure prediction by ZEFSAII (Michael W. Deem and Ramdas Pophale) SiO2 
 PCOD9341444
Probable space group: P C A 21
;
_chemical_formula_sum "Si O2"
_cell_formula_units_Z 32
_cell_length_a 23.576838
_cell_length_b 5.139616
_cell_length_c 10.396080
_cell_angle_alpha 90.000000
_cell_angle_beta 90.000000
_cell_angle_gamma 90.000000
_cell_volume 1259.754286
_symmetry_space_group_name_H-M "P C A 21"
_symmetry_group_IT_number 29
_symmetry_cell_setting 'orthorhombic'
loop_
_space_group_symop_operation_xyz
x,y,z
-x,-y,1/2+z
1/2-x,y,1/2+z
1/2+x,-y,z
loop_
_atom_site_type_symbol
_atom_site_label
_atom_site_fract_x
_atom_site_fract_y
_atom_site_fract_z
Si Si1 0.207571 0.296093 0.465050
Si Si2 0.394412 0.016343 0.261314
Si Si3 0.589793 0.932697 0.488075
Si Si4 0.138080 0.731719 0.022247
Si Si5 0.691945 0.579546 0.820429
Si Si6 0.485449 0.579950 0.591847
Si Si7 0.757127 0.199157 0.119319
Si Si8 0.994387 0.251873 0.854430
O O1 0.142127 0.237686 0.438615
O O2 0.251632 0.253214 0.348483
O O3 0.220862 0.587878 0.513415
O O4 0.224127 0.084034 0.572903
O O5 0.393351 0.903023 0.117109
O O6 0.359662 0.286397 0.244814
O O7 0.459480 0.055287 0.298736
O O8 0.368227 0.891022 0.388807
O O9 0.537391 0.753051 0.536463
O O10 0.565565 0.120861 0.379889
O O11 0.162573 0.466184 0.959417
O O12 0.075967 0.713224 0.080255
O O13 0.188729 0.810416 0.116278
O O14 0.716095 0.326719 0.746478
O O15 0.483982 0.343565 0.492883
O O16 0.493754 0.530021 0.743243
#
# Coordination Sequence:
#
# PCOD9341444 Si02
#       8
#     4   4   4   4   4   4   4   4
#     4  11  25  43  68 106 146 188 256 312 377 460
#     4  11  21  44  72 100 140 197 249 313 386 465
#     4  11  25  43  70 101 147 194 249 308 378 467
#     4  11  23  45  72 103 147 188 258 316 381 462
#     4  11  23  43  72 105 142 196 245 316 393 460
#     4  11  26  45  70 110 146 198 252 314 385 456
#     4  11  25  44  71 107 142 198 251 314 385 463
#     4  11  26  43  71 106 148 197 252 313 385 461
#
# _framework density 25.401779999999999
#
# number of rings (size 3 to 8) (size 9 to 14) (size 15 to 20)
#    0.000    1.000    5.000    0.750    3.500    1.000 
#    4.500    0.000    0.000    0.000    0.000    0.000 
#    0.000    0.000    0.000    0.000    0.000    0.000 
#
# Total GULP energy -178826.301478 kJ/mol
# GULP energy per Si atom -5588.321921 kJ/mol
# Density = 2.534396 g / cm^3
# Si number density = 25.401780 Si / 1000 Ang^3
#
#
#
# Elastic Constant Matrix: (Units=GPa)
#
#
# Indices 1 2 3 4 5 6 
#
# 1 153.5332 15.8898 27.6744 0.0000 0.0000 0.0000
# 2 15.8898 39.7366 16.5327 0.0000 0.0000 0.0000
# 3 27.6744 16.5327 84.9778 0.0000 0.0000 0.0000
# 4 0.0000 0.0000 0.0000 35.2658 0.0000 0.0000
# 5 0.0000 0.0000 0.0000 0.0000 47.6258 0.0000
# 6 0.0000 0.0000 0.0000 0.0000 0.0000 29.8063
#
#
#
# Elastic Compliance Matrix: (Units=1/GPa)
#
#
# Indices 1 2 3 4 5 6 
#
# 1 0.007067 -0.002033 -0.001906 0.000000 0.000000 0.000000
# 2 -0.002033 0.027967 -0.004779 0.000000 0.000000 0.000000
# 3 -0.001906 -0.004779 0.013318 0.000000 0.000000 0.000000
# 4 0.000000 0.000000 0.000000 0.028356 0.000000 0.000000
# 5 0.000000 0.000000 0.000000 0.000000 0.020997 0.000000
# 6 0.000000 0.000000 0.000000 0.000000 0.000000 0.033550
#
#
# Mechanical properties :
#
#
# Convention : Reuss Voigt Hill
#
# Bulk Modulus (GPa) = 32.34523 44.27126 38.30825
# Shear Modulus (GPa) = 31.44712 37.08297 34.26504
#
# Velocity S-wave (km/s) = 3.52232 3.82495 3.67675
# Velocity P-wave (km/s) = 5.41327 6.08056 5.75659
#
# Compressibility (1/GPa) = 0.03091646
#
# Stress axis : x y z
#
# Youngs Moduli (GPa) = 141.49839 35.75643 75.08482
#
# Poissons Ratio (x) = 0.07269 0.14311
# Poissons Ratio (y) = 0.28767 0.35883
# Poissons Ratio (z) = 0.26970 0.17088
#
# Static dielectric constant tensor:
#      x y z
#    x 2.002360 0.000000 0.000000 
#    y 0.000000 2.110650 0.000000 
#    z 0.000000 0.000000 2.055730 
# 
# From -- ./inp_files/3951.got.cif
#   From: 2010.05.17/outbox.cif.g08.bks.cpg/sg29_2_cif.got.tgz:3951.got - 2010.06.04 01:19:37.
