data_PCOD9341236
_publ_section_title
;
Structure prediction by ZEFSAII (Michael W. Deem and Ramdas Pophale) SiO2 
 PCOD9341236
Probable space group: P C A 21
;
_chemical_formula_sum "Si O2"
_cell_formula_units_Z 28
_cell_length_a 8.750658
_cell_length_b 5.095081
_cell_length_c 26.611600
_cell_angle_alpha 90.000000
_cell_angle_beta 90.000000
_cell_angle_gamma 90.000000
_cell_volume 1186.486471
_symmetry_space_group_name_H-M "P C A 21"
_symmetry_group_IT_number 29
_symmetry_cell_setting 'orthorhombic'
loop_
_space_group_symop_operation_xyz
x,y,z
-x,-y,1/2+z
1/2-x,y,1/2+z
1/2+x,-y,z
loop_
_atom_site_type_symbol
_atom_site_label
_atom_site_fract_x
_atom_site_fract_y
_atom_site_fract_z
Si Si1 0.498880 0.147227 0.306180
Si Si2 0.322701 0.631742 0.341800
Si Si3 0.181401 0.320476 0.046008
Si Si4 0.172602 0.675764 0.954683
Si Si5 0.726088 0.644229 0.656230
Si Si6 0.442499 0.967533 0.998237
Si Si7 0.901165 0.162809 0.691835
O O1 0.370368 0.374683 0.310616
O O2 0.651646 0.262220 0.332249
O O3 0.544163 0.106990 0.248286
O O4 0.434915 0.875325 0.328669
O O5 0.337344 0.552922 0.400314
O O6 0.234723 0.429105 0.098737
O O7 0.124627 0.522883 0.004517
O O8 0.320146 0.170561 0.019502
O O9 0.037508 0.126026 0.046871
O O10 0.561500 0.076109 0.957727
O O11 0.343910 0.755947 0.968241
O O12 0.775198 0.394870 0.689513
O O13 0.550430 0.727011 0.663053
O O14 0.828380 0.898425 0.669641
#
# Coordination Sequence:
#
# PCOD9341236 Si02
#       7
#     4   4   4   4   4   4   4
#     4  12  26  49  74 107 143 186 243 301 355 423
#     4  12  27  44  76 104 143 188 237 291 369 420
#     4  11  25  41  67  97 140 178 233 280 347 422
#     4  11  25  41  67  97 140 178 233 280 347 422
#     4  12  27  44  76 104 143 188 237 291 369 420
#     4  10  24  42  64  92 140 178 226 280 342 404
#     4  12  26  49  74 107 143 186 243 301 355 423
#
# _framework density 23.599088999999999
#
# number of rings (size 3 to 8) (size 9 to 14) (size 15 to 20)
#    0.000    0.571    0.000    6.857   16.000    0.000 
#    0.000    0.000    0.000    0.000    0.000    0.000 
#    0.000    0.000    0.000    0.000    0.000    0.000 
#
# Total GULP energy -156751.605587 kJ/mol
# GULP energy per Si atom -5598.271628 kJ/mol
# Density = 2.354538 g / cm^3
# Si number density = 23.599089 Si / 1000 Ang^3
#
#
#
# Elastic Constant Matrix: (Units=GPa)
#
#
# Indices 1 2 3 4 5 6 
#
# 1 79.9546 6.2861 -5.5230 0.0000 0.0000 0.0000
# 2 6.2861 73.6139 7.0042 0.0000 0.0000 0.0000
# 3 -5.5230 7.0042 77.8828 0.0000 0.0000 0.0000
# 4 0.0000 0.0000 0.0000 28.8953 0.0000 0.0000
# 5 0.0000 0.0000 0.0000 0.0000 18.2471 0.0000
# 6 0.0000 0.0000 0.0000 0.0000 0.0000 35.4585
#
#
#
# Elastic Compliance Matrix: (Units=1/GPa)
#
#
# Indices 1 2 3 4 5 6 
#
# 1 0.012669 -0.001177 0.001004 0.000000 0.000000 0.000000
# 2 -0.001177 0.013811 -0.001326 0.000000 0.000000 0.000000
# 3 0.001004 -0.001326 0.013030 0.000000 0.000000 0.000000
# 4 0.000000 0.000000 0.000000 0.034608 0.000000 0.000000
# 5 0.000000 0.000000 0.000000 0.000000 0.054803 0.000000
# 6 0.000000 0.000000 0.000000 0.000000 0.000000 0.028202
#
#
# Mechanical properties :
#
#
# Convention : Reuss Voigt Hill
#
# Bulk Modulus (GPa) = 27.38750 27.44288 27.41519
# Shear Modulus (GPa) = 29.02057 31.43244 30.22650
#
# Velocity S-wave (km/s) = 3.51056 3.65353 3.58276
# Velocity P-wave (km/s) = 5.29741 5.42694 5.36257
#
# Compressibility (1/GPa) = 0.03651301
#
# Stress axis : x y z
#
# Youngs Moduli (GPa) = 78.93257 72.40575 76.74459
#
# Poissons Ratio (x) = 0.08525 -0.07707
# Poissons Ratio (y) = 0.09294 0.10173
# Poissons Ratio (z) = -0.07927 0.09598
#
# Static dielectric constant tensor:
#      x y z
#    x 1.866850 0.000000 0.000000 
#    y 0.000000 3.649710 0.000000 
#    z 0.000000 0.000000 1.911860 
# 
# From -- ./inp_files/5778.got.cif
#   From: 2010.05.17/outbox.cif.g08.bks.cpg/sg29_3_cif.got.tgz:5778.got - 2010.06.04 01:19:37.
