data_PCOD9341660
_publ_section_title
;
Structure prediction by ZEFSAII (Michael W. Deem and Ramdas Pophale) SiO2 
 PCOD9341660
Probable space group: P C A 21
;
_chemical_formula_sum "Si O2"
_cell_formula_units_Z 20
_cell_length_a 10.916875
_cell_length_b 7.271180
_cell_length_c 9.344003
_cell_angle_alpha 90.000000
_cell_angle_beta 90.000000
_cell_angle_gamma 90.000000
_cell_volume 741.713532
_symmetry_space_group_name_H-M "P C A 21"
_symmetry_group_IT_number 29
_symmetry_cell_setting 'orthorhombic'
loop_
_space_group_symop_operation_xyz
x,y,z
-x,-y,1/2+z
1/2-x,y,1/2+z
1/2+x,-y,z
loop_
_atom_site_type_symbol
_atom_site_label
_atom_site_fract_x
_atom_site_fract_y
_atom_site_fract_z
Si Si1 0.899315 0.482259 0.980090
Si Si2 0.405574 0.289086 0.361100
Si Si3 0.262412 0.622189 0.242524
Si Si4 0.240055 0.970134 0.943427
Si Si5 0.479116 0.116353 0.081193
O O1 0.858796 0.462364 0.814496
O O2 0.944956 0.682371 0.020078
O O3 0.012244 0.341809 0.995707
O O4 0.783956 0.406192 0.073513
O O5 0.369545 0.486243 0.296771
O O6 0.282460 0.178724 0.391231
O O7 0.472403 0.151337 0.251021
O O8 0.266224 0.823346 0.313860
O O9 0.115999 0.936053 0.035377
O O10 0.368721 0.985673 0.026840
#
# Coordination Sequence:
#
# PCOD9341660 Si02
#       5
#     4   4   4   4   4
#     4  11  25  51  76 116 161 216 266 336 417 487
#     4  11  26  49  73 113 160 211 265 334 411 486
#     4  11  26  46  79 110 157 212 261 339 400 493
#     4  12  26  49  77 117 151 216 270 338 397 485
#     4  11  27  49  81 114 161 211 272 335 409 491
#
# _framework density 26.964589
#
# number of rings (size 3 to 8) (size 9 to 14) (size 15 to 20)
#    0.000    0.800    4.000    1.200    8.400    1.600 
#    0.000    0.000    0.000    0.000    0.000    0.000 
#    0.000    0.000    0.000    0.000    0.000    0.000 
#
# Total GULP energy -111908.613394 kJ/mol
# GULP energy per Si atom -5595.430670 kJ/mol
# Density = 2.690322 g / cm^3
# Si number density = 26.964589 Si / 1000 Ang^3
#
#
#
# Elastic Constant Matrix: (Units=GPa)
#
#
# Indices 1 2 3 4 5 6 
#
# 1 146.1941 60.9253 41.8187 0.0000 0.0000 0.0000
# 2 60.9253 146.2972 31.2535 0.0000 0.0000 0.0000
# 3 41.8187 31.2535 88.1979 0.0000 0.0000 0.0000
# 4 0.0000 0.0000 0.0000 36.6662 0.0000 0.0000
# 5 0.0000 0.0000 0.0000 0.0000 44.4887 0.0000
# 6 0.0000 0.0000 0.0000 0.0000 0.0000 59.7506
#
#
#
# Elastic Compliance Matrix: (Units=1/GPa)
#
#
# Indices 1 2 3 4 5 6 
#
# 1 0.009038 -0.003082 -0.003193 0.000000 0.000000 0.000000
# 2 -0.003082 0.008446 -0.001532 0.000000 0.000000 0.000000
# 3 -0.003193 -0.001532 0.013395 0.000000 0.000000 0.000000
# 4 0.000000 0.000000 0.000000 0.027273 0.000000 0.000000
# 5 0.000000 0.000000 0.000000 0.000000 0.022478 0.000000
# 6 0.000000 0.000000 0.000000 0.000000 0.000000 0.016736
#
#
# Mechanical properties :
#
#
# Convention : Reuss Voigt Hill
#
# Bulk Modulus (GPa) = 65.50699 72.07604 68.79151
# Shear Modulus (GPa) = 42.34857 44.62719 43.48788
#
# Velocity S-wave (km/s) = 3.96728 4.07262 4.02030
# Velocity P-wave (km/s) = 6.73292 6.99306 6.86422
#
# Compressibility (1/GPa) = 0.01526555
#
# Stress axis : x y z
#
# Youngs Moduli (GPa) = 110.64503 118.39959 74.65465
#
# Poissons Ratio (x) = 0.36487 0.23839
# Poissons Ratio (y) = 0.34097 0.11435
# Poissons Ratio (z) = 0.35332 0.18136
#
# Static dielectric constant tensor:
#      x y z
#    x 2.127790 0.000000 0.000000 
#    y 0.000000 2.131420 0.000000 
#    z 0.000000 0.000000 2.209030 
# 
# From -- ./inp_files/3061.got.cif
#   From: 2010.05.17/outbox.cif.g08.bks.cpg/sg29_2_cif.got.tgz:3061.got - 2010.06.04 01:19:37.
