data_PCOD9341567
_publ_section_title
;
Structure prediction by ZEFSAII (Michael W. Deem and Ramdas Pophale) SiO2 
 PCOD9341567
Probable space group: P C A 21
;
_chemical_formula_sum "Si O2"
_cell_formula_units_Z 32
_cell_length_a 19.686833
_cell_length_b 6.021369
_cell_length_c 10.628185
_cell_angle_alpha 90.000000
_cell_angle_beta 90.000000
_cell_angle_gamma 90.000000
_cell_volume 1259.882968
_symmetry_space_group_name_H-M "P C A 21"
_symmetry_group_IT_number 29
_symmetry_cell_setting 'orthorhombic'
loop_
_space_group_symop_operation_xyz
x,y,z
-x,-y,1/2+z
1/2-x,y,1/2+z
1/2+x,-y,z
loop_
_atom_site_type_symbol
_atom_site_label
_atom_site_fract_x
_atom_site_fract_y
_atom_site_fract_z
Si Si1 0.609938 0.474807 0.019690
Si Si2 0.972889 0.981980 0.844726
Si Si3 0.750093 0.456708 0.456634
Si Si4 0.876574 0.971301 0.628176
Si Si5 0.628394 0.220913 0.505262
Si Si6 0.543055 0.616264 0.549506
Si Si7 0.397652 0.094576 0.241242
Si Si8 0.752306 0.734006 0.721629
O O1 0.625394 0.738301 0.048782
O O2 0.619059 0.234290 0.093612
O O3 0.670545 0.424146 0.921270
O O4 0.528873 0.489293 0.016793
O O5 0.945139 0.927952 0.707818
O O6 0.949937 0.795104 0.940997
O O7 0.924847 0.178790 0.893467
O O8 0.054647 0.992428 0.849107
O O9 0.707290 0.230296 0.470522
O O10 0.748392 0.584444 0.592870
O O11 0.719792 0.591831 0.339300
O O12 0.805027 0.934898 0.700307
O O13 0.608698 0.466080 0.545319
O O14 0.612376 0.071646 0.624937
O O15 0.549411 0.720730 0.688176
O O16 0.322161 0.180427 0.261661
#
# Coordination Sequence:
#
# PCOD9341567 Si02
#       8
#     4   4   4   4   4   4   4   4
#     4  11  26  47  75 109 153 196 266 323 394 467
#     4  11  26  41  73 107 145 204 260 325 403 482
#     4  11  26  48  76 115 151 214 262 331 402 478
#     4  11  25  48  73 107 147 207 251 324 389 478
#     4  11  25  45  76 101 156 205 261 325 418 479
#     4  11  24  43  70 104 148 196 257 327 394 477
#     4  11  24  47  70 109 150 202 261 329 402 478
#     4  11  26  47  77 110 158 202 270 328 398 483
#
# _framework density 25.399183000000001
#
# number of rings (size 3 to 8) (size 9 to 14) (size 15 to 20)
#    0.000    1.000    2.500    2.250   10.500    3.000 
#    2.250    0.000    0.000    0.000    0.000    0.000 
#    0.000    0.000    0.000    0.000    0.000    0.000 
#
# Total GULP energy -178221.293745 kJ/mol
# GULP energy per Si atom -5569.415430 kJ/mol
# Density = 2.534137 g / cm^3
# Si number density = 25.399183 Si / 1000 Ang^3
#
#
#
# Elastic Constant Matrix: (Units=GPa)
#
#
# Indices 1 2 3 4 5 6 
#
# 1 150.5605 12.3026 -2.5999 0.0000 0.0000 0.0000
# 2 12.3026 64.7656 35.1325 0.0000 0.0000 0.0000
# 3 -2.5999 35.1325 59.3848 0.0000 0.0000 0.0000
# 4 0.0000 0.0000 0.0000 17.9256 0.0000 0.0000
# 5 0.0000 0.0000 0.0000 0.0000 23.8826 0.0000
# 6 0.0000 0.0000 0.0000 0.0000 0.0000 45.2172
#
#
#
# Elastic Compliance Matrix: (Units=1/GPa)
#
#
# Indices 1 2 3 4 5 6 
#
# 1 0.006845 -0.002154 0.001574 0.000000 0.000000 0.000000
# 2 -0.002154 0.023415 -0.013947 0.000000 0.000000 0.000000
# 3 0.001574 -0.013947 0.025159 0.000000 0.000000 0.000000
# 4 0.000000 0.000000 0.000000 0.055786 0.000000 0.000000
# 5 0.000000 0.000000 0.000000 0.000000 0.041872 0.000000
# 6 0.000000 0.000000 0.000000 0.000000 0.000000 0.022115
#
#
# Mechanical properties :
#
#
# Convention : Reuss Voigt Hill
#
# Bulk Modulus (GPa) = 37.92816 40.48681 39.20749
# Shear Modulus (GPa) = 23.47037 32.73013 28.10025
#
# Velocity S-wave (km/s) = 3.04313 3.59364 3.32978
# Velocity P-wave (km/s) = 5.22616 5.76141 5.50030
#
# Compressibility (1/GPa) = 0.02636563
#
# Stress axis : x y z
#
# Youngs Moduli (GPa) = 146.09099 42.70767 39.74678
#
# Poissons Ratio (x) = 0.09200 -0.06256
# Poissons Ratio (y) = 0.31470 0.55434
# Poissons Ratio (z) = -0.22996 0.59563
#
# Static dielectric constant tensor:
#      x y z
#    x 2.124910 0.000000 0.000000 
#    y 0.000000 2.084540 0.000000 
#    z 0.000000 0.000000 2.111230 
# 
# From -- ./inp_files/3897.got.cif
#   From: 2010.05.17/outbox.cif.g08.bks.cpg/sg29_2_cif.got.tgz:3897.got - 2010.06.04 01:19:37.
