data_PCOD9341285
_publ_section_title
;
Structure prediction by ZEFSAII (Michael W. Deem and Ramdas Pophale) SiO2 
 PCOD9341285
Probable space group: P C A 21
;
_chemical_formula_sum "Si O2"
_cell_formula_units_Z 28
_cell_length_a 10.886234
_cell_length_b 11.546526
_cell_length_c 9.343390
_cell_angle_alpha 90.000000
_cell_angle_beta 90.000000
_cell_angle_gamma 90.000000
_cell_volume 1174.447155
_symmetry_space_group_name_H-M "P C A 21"
_symmetry_group_IT_number 29
_symmetry_cell_setting 'orthorhombic'
loop_
_space_group_symop_operation_xyz
x,y,z
-x,-y,1/2+z
1/2-x,y,1/2+z
1/2+x,-y,z
loop_
_atom_site_type_symbol
_atom_site_label
_atom_site_fract_x
_atom_site_fract_y
_atom_site_fract_z
Si Si1 0.094610 0.671369 0.823530
Si Si2 0.228995 0.480127 0.634756
Si Si3 0.069327 0.057444 0.901017
Si Si4 0.349038 0.836776 0.571559
Si Si5 0.583140 0.122666 0.656493
Si Si6 0.907985 0.487594 0.860778
Si Si7 0.438635 0.279935 0.262376
O O1 0.168914 0.590279 0.715350
O O2 0.021275 0.765058 0.727221
O O3 0.003245 0.585791 0.904773
O O4 0.166380 0.745740 0.941871
O O5 0.206334 0.500346 0.467898
O O6 0.364741 0.482331 0.699613
O O7 0.157403 0.364461 0.684198
O O8 0.127768 0.179576 0.854487
O O9 0.048800 0.983940 0.757832
O O10 0.951796 0.095417 0.994186
O O11 0.134913 0.964571 0.003512
O O12 0.226933 0.846957 0.664250
O O13 0.466501 0.788185 0.658109
O O14 0.975717 0.364951 0.857247
#
# Coordination Sequence:
#
# PCOD9341285 Si02
#       7
#     4   4   4   4   4   4   4
#     4  10  24  44  71 104 142 186 243 300 347 447
#     4  11  25  43  70 109 140 190 238 297 368 428
#     4  11  25  46  69 107 144 182 242 305 349 427
#     4  11  24  47  72 102 142 192 242 294 365 424
#     4  11  25  44  76 102 139 191 242 297 366 421
#     4  11  25  44  73 107 150 188 239 295 377 427
#     4  11  24  46  71 103 151 181 248 302 348 436
#
# _framework density 23.841004000000002
#
# number of rings (size 3 to 8) (size 9 to 14) (size 15 to 20)
#    0.000    1.143    2.857    1.714   10.000    2.286 
#   10.286    0.000    0.000    0.000    0.000    0.000 
#    0.000    0.000    0.000    0.000    0.000    0.000 
#
# Total GULP energy -156522.918201 kJ/mol
# GULP energy per Si atom -5590.104221 kJ/mol
# Density = 2.378674 g / cm^3
# Si number density = 23.841004 Si / 1000 Ang^3
#
#
#
# Elastic Constant Matrix: (Units=GPa)
#
#
# Indices 1 2 3 4 5 6 
#
# 1 16.2973 26.8816 20.6308 0.0000 0.0000 0.0000
# 2 26.8816 196.2076 46.9230 0.0000 0.0000 0.0000
# 3 20.6308 46.9230 96.9267 0.0000 0.0000 0.0000
# 4 0.0000 0.0000 0.0000 26.7506 0.0000 0.0000
# 5 0.0000 0.0000 0.0000 0.0000 34.7817 0.0000
# 6 0.0000 0.0000 0.0000 0.0000 0.0000 16.4332
#
#
#
# Elastic Compliance Matrix: (Units=1/GPa)
#
#
# Indices 1 2 3 4 5 6 
#
# 1 0.097457 -0.009490 -0.016149 0.000000 0.000000 0.000000
# 2 -0.009490 0.006688 -0.001218 0.000000 0.000000 0.000000
# 3 -0.016149 -0.001218 0.014344 0.000000 0.000000 0.000000
# 4 0.000000 0.000000 0.000000 0.037382 0.000000 0.000000
# 5 0.000000 0.000000 0.000000 0.000000 0.028751 0.000000
# 6 0.000000 0.000000 0.000000 0.000000 0.000000 0.060852
#
#
# Mechanical properties :
#
#
# Convention : Reuss Voigt Hill
#
# Bulk Modulus (GPa) = 15.43822 55.36694 35.40258
# Shear Modulus (GPa) = 15.58700 29.92617 22.75658
#
# Velocity S-wave (km/s) = 2.55970 3.54678 3.09287
# Velocity P-wave (km/s) = 3.90201 6.32825 5.25701
#
# Compressibility (1/GPa) = 0.06477430
#
# Stress axis : x y z
#
# Youngs Moduli (GPa) = 10.26097 149.51991 69.71550
#
# Poissons Ratio (x) = 1.41895 1.12586
# Poissons Ratio (y) = 0.09738 0.08490
# Poissons Ratio (z) = 0.16571 0.18209
#
# Static dielectric constant tensor:
#      x y z
#    x 1.891300 0.000000 0.000000 
#    y 0.000000 1.897020 0.000000 
#    z 0.000000 0.000000 1.943500 
# 
# From -- ./inp_files/1449.got.cif
#   From: 2010.05.17/outbox.cif.g08.bks.cpg/sg29_1_cif.got.tgz:1449.got - 2010.06.04 01:19:37.
