data_PCOD9341270
_publ_section_title
;
Structure prediction by ZEFSAII (Michael W. Deem and Ramdas Pophale) SiO2 
 PCOD9341270
Probable space group: P C A 21
;
_chemical_formula_sum "Si O2"
_cell_formula_units_Z 28
_cell_length_a 8.938087
_cell_length_b 12.654196
_cell_length_c 12.023036
_cell_angle_alpha 90.000000
_cell_angle_beta 90.000000
_cell_angle_gamma 90.000000
_cell_volume 1359.857128
_symmetry_space_group_name_H-M "P C A 21"
_symmetry_group_IT_number 29
_symmetry_cell_setting 'orthorhombic'
loop_
_space_group_symop_operation_xyz
x,y,z
-x,-y,1/2+z
1/2-x,y,1/2+z
1/2+x,-y,z
loop_
_atom_site_type_symbol
_atom_site_label
_atom_site_fract_x
_atom_site_fract_y
_atom_site_fract_z
Si Si1 0.967518 0.129691 0.254100
Si Si2 0.531330 0.865175 0.993678
Si Si3 0.070890 0.475283 0.739739
Si Si4 0.812859 0.441971 0.581102
Si Si5 0.721439 0.002280 0.374517
Si Si6 0.306205 0.348136 0.435286
Si Si7 0.470840 0.666470 0.397109
O O1 0.827837 0.054971 0.282510
O O2 0.935567 0.241531 0.311660
O O3 0.111575 0.081142 0.316466
O O4 0.000649 0.137409 0.124540
O O5 0.384661 0.910962 0.932484
O O6 0.583760 0.749340 0.954948
O O7 0.667677 0.944157 0.960938
O O8 0.161041 0.542138 0.647923
O O9 0.169737 0.393008 0.810143
O O10 0.936921 0.421527 0.674517
O O11 0.010517 0.557454 0.830063
O O12 0.836613 0.555016 0.519616
O O13 0.840108 0.354603 0.486680
O O14 0.133353 0.314244 0.451665
#
# Coordination Sequence:
#
# PCOD9341270 Si02
#       7
#     4   4   4   4   4   4   4
#     4  11  23  43  68  96 132 171 220 275 337 390
#     4  11  23  43  72  93 135 175 216 279 338 389
#     4  11  23  40  63  91 130 170 209 264 322 383
#     4  11  23  40  63  90 130 169 211 264 321 381
#     4  10  24  44  66 102 129 168 227 281 325 406
#     4  11  23  40  64  97 127 170 218 261 322 398
#     4  11  23  40  64  97 129 165 221 266 317 405
#
# _framework density 20.590398
#
# number of rings (size 3 to 8) (size 9 to 14) (size 15 to 20)
#    0.000    1.143    4.286    1.714    0.000    3.429 
#    0.000    1.429    0.000    0.000    0.000    0.000 
#    0.000    0.000    0.000    0.000    0.000    0.000 
#
# Total GULP energy -156445.620790 kJ/mol
# GULP energy per Si atom -5587.343600 kJ/mol
# Density = 2.054353 g / cm^3
# Si number density = 20.590398 Si / 1000 Ang^3
#
#
#
# Elastic Constant Matrix: (Units=GPa)
#
#
# Indices 1 2 3 4 5 6 
#
# 1 75.9719 14.8436 18.4597 0.0000 0.0000 0.0000
# 2 14.8436 60.5203 19.0356 0.0000 0.0000 0.0000
# 3 18.4597 19.0356 93.6430 0.0000 0.0000 0.0000
# 4 0.0000 0.0000 0.0000 27.1432 0.0000 0.0000
# 5 0.0000 0.0000 0.0000 0.0000 25.4326 0.0000
# 6 0.0000 0.0000 0.0000 0.0000 0.0000 25.9706
#
#
#
# Elastic Compliance Matrix: (Units=1/GPa)
#
#
# Indices 1 2 3 4 5 6 
#
# 1 0.014253 -0.002790 -0.002242 0.000000 0.000000 0.000000
# 2 -0.002790 0.018198 -0.003149 0.000000 0.000000 0.000000
# 3 -0.002242 -0.003149 0.011761 0.000000 0.000000 0.000000
# 4 0.000000 0.000000 0.000000 0.036842 0.000000 0.000000
# 5 0.000000 0.000000 0.000000 0.000000 0.039320 0.000000
# 6 0.000000 0.000000 0.000000 0.000000 0.000000 0.038505
#
#
# Mechanical properties :
#
#
# Convention : Reuss Voigt Hill
#
# Bulk Modulus (GPa) = 35.90916 37.20144 36.55530
# Shear Modulus (GPa) = 27.09654 27.56237 27.32946
#
# Velocity S-wave (km/s) = 3.63158 3.66266 3.64715
# Velocity P-wave (km/s) = 5.92133 5.99945 5.96052
#
# Compressibility (1/GPa) = 0.02784805
#
# Stress axis : x y z
#
# Youngs Moduli (GPa) = 70.16158 54.95012 85.02629
#
# Poissons Ratio (x) = 0.15333 0.19066
# Poissons Ratio (y) = 0.19578 0.26777
# Poissons Ratio (z) = 0.15733 0.17305
#
# Static dielectric constant tensor:
#      x y z
#    x 1.723810 0.000000 0.000000 
#    y 0.000000 1.729210 0.000000 
#    z 0.000000 0.000000 1.707550 
# 
# From -- ./inp_files/2850.got.cif
#   From: 2010.05.17/outbox.cif.g08.bks.cpg/sg29_2_cif.got.tgz:2850.got - 2010.06.04 01:19:37.
