data_PCOD9341732
_publ_section_title
;
Structure prediction by ZEFSAII (Michael W. Deem and Ramdas Pophale) SiO2 
 PCOD9341732
Probable space group: P C A 21
;
_chemical_formula_sum "Si O2"
_cell_formula_units_Z 24
_cell_length_a 19.146810
_cell_length_b 6.847572
_cell_length_c 6.698771
_cell_angle_alpha 90.000000
_cell_angle_beta 90.000000
_cell_angle_gamma 90.000000
_cell_volume 878.270239
_symmetry_space_group_name_H-M "P C A 21"
_symmetry_group_IT_number 29
_symmetry_cell_setting 'orthorhombic'
loop_
_space_group_symop_operation_xyz
x,y,z
-x,-y,1/2+z
1/2-x,y,1/2+z
1/2+x,-y,z
loop_
_atom_site_type_symbol
_atom_site_label
_atom_site_fract_x
_atom_site_fract_y
_atom_site_fract_z
Si Si1 0.155970 0.250000 0.669610
Si Si2 0.745577 0.403523 0.286381
Si Si3 0.410348 0.979939 0.491207
Si Si4 0.910348 0.479942 0.848010
Si Si5 0.019488 0.750001 0.669607
Si Si6 0.254423 0.903524 0.552840
O O1 0.204242 0.406649 0.786558
O O2 0.106721 0.142557 0.825787
O O3 0.106720 0.357443 0.513433
O O4 0.204242 0.093353 0.552662
O O5 0.663753 0.450107 0.245809
O O6 0.763402 0.152548 0.301063
O O7 0.736599 0.347450 0.538157
O O8 0.470069 0.064203 0.631967
O O9 0.434215 0.792054 0.364470
O O10 0.336248 0.950104 0.593413
O O11 0.970067 0.564208 0.707247
O O12 0.934215 0.292056 0.974744
#
# Coordination Sequence:
#
# PCOD9341732 Si02
#       6
#     4   4   4   4   4   4
#     4  12  25  50  74 114 141 190 240 322 370 436
#     4  12  26  45  76 110 143 187 240 311 377 433
#     4  12  27  47  74 103 152 188 254 291 370 441
#     4  12  27  47  74 103 152 188 254 291 370 441
#     4  12  29  48  72 106 147 212 240 302 354 454
#     4  12  26  45  76 110 143 187 240 311 377 433
#
# _framework density 27.326442
#
# number of rings (size 3 to 8) (size 9 to 14) (size 15 to 20)
#    0.000    0.000    3.333    6.000    9.333    0.000 
#    0.000    0.000    0.000    0.000    0.000    0.000 
#    0.000    0.000    0.000    0.000    0.000    0.000 
#
# Total GULP energy -134552.836408 kJ/mol
# GULP energy per Si atom -5606.368184 kJ/mol
# Density = 2.726425 g / cm^3
# Si number density = 27.326442 Si / 1000 Ang^3
#
#
#
# Elastic Constant Matrix: (Units=GPa)
#
#
# Indices 1 2 3 4 5 6 
#
# 1 141.4371 23.5883 14.7385 0.0000 0.0000 0.0000
# 2 23.5883 94.7996 41.3347 0.0000 0.0000 0.0000
# 3 14.7385 41.3347 123.7893 0.0000 0.0000 0.0000
# 4 0.0000 0.0000 0.0000 89.7769 0.0000 0.0000
# 5 0.0000 0.0000 0.0000 0.0000 38.7042 0.0000
# 6 0.0000 0.0000 0.0000 0.0000 0.0000 46.7461
#
#
#
# Elastic Compliance Matrix: (Units=1/GPa)
#
#
# Indices 1 2 3 4 5 6 
#
# 1 0.007387 -0.001702 -0.000311 0.000000 0.000000 0.000000
# 2 -0.001702 0.012738 -0.004051 0.000000 0.000000 0.000000
# 3 -0.000311 -0.004051 0.009468 0.000000 0.000000 0.000000
# 4 0.000000 0.000000 0.000000 0.011139 0.000000 0.000000
# 5 0.000000 0.000000 0.000000 0.000000 0.025837 0.000000
# 6 0.000000 0.000000 0.000000 0.000000 0.000000 0.021392
#
#
# Mechanical properties :
#
#
# Convention : Reuss Voigt Hill
#
# Bulk Modulus (GPa) = 57.25896 57.70545 57.48221
# Shear Modulus (GPa) = 47.20960 53.73640 50.47300
#
# Velocity S-wave (km/s) = 4.16097 4.43929 4.30238
# Velocity P-wave (km/s) = 6.63958 6.88762 6.76474
#
# Compressibility (1/GPa) = 0.01746451
#
# Stress axis : x y z
#
# Youngs Moduli (GPa) = 135.38026 78.50285 105.62015
#
# Poissons Ratio (x) = 0.13364 0.03285
# Poissons Ratio (y) = 0.23046 0.42785
# Poissons Ratio (z) = 0.04211 0.31800
#
# Static dielectric constant tensor:
#      x y z
#    x 1.926150 0.000000 0.000000 
#    y 0.000000 2.176860 0.000000 
#    z 0.000000 0.000000 2.176800 
# 
# From -- ./inp_files/2009.got.cif
#   From: 2010.05.17/outbox.cif.g08.bks.cpg/sg29_2_cif.got.tgz:2009.got - 2010.06.04 01:19:37.
