data_PCOD9341683
_publ_section_title
;
Structure prediction by ZEFSAII (Michael W. Deem and Ramdas Pophale) SiO2 
 PCOD9341683
Probable space group: P C A 21
;
_chemical_formula_sum "Si O2"
_cell_formula_units_Z 20
_cell_length_a 9.715232
_cell_length_b 9.152373
_cell_length_c 8.317634
_cell_angle_alpha 90.000000
_cell_angle_beta 90.000000
_cell_angle_gamma 90.000000
_cell_volume 739.582614
_symmetry_space_group_name_H-M "P C A 21"
_symmetry_group_IT_number 29
_symmetry_cell_setting 'orthorhombic'
loop_
_space_group_symop_operation_xyz
x,y,z
-x,-y,1/2+z
1/2-x,y,1/2+z
1/2+x,-y,z
loop_
_atom_site_type_symbol
_atom_site_label
_atom_site_fract_x
_atom_site_fract_y
_atom_site_fract_z
Si Si1 0.106024 0.496266 0.809090
Si Si2 0.275043 0.243997 0.131651
Si Si3 0.918978 0.239348 0.512517
Si Si4 0.473908 0.709522 0.018026
Si Si5 0.798158 0.086378 0.203803
O O1 0.220144 0.384119 0.747831
O O2 0.138848 0.601402 0.959957
O O3 0.069583 0.604191 0.664658
O O4 0.978126 0.392828 0.861400
O O5 0.132814 0.249344 0.038674
O O6 0.280229 0.085382 0.211800
O O7 0.417940 0.253158 0.033218
O O8 0.878552 0.138514 0.361158
O O9 0.846072 0.166911 0.666420
O O10 0.386194 0.855340 0.049024
#
# Coordination Sequence:
#
# PCOD9341683 Si02
#       5
#     4   4   4   4   4
#     4  11  27  46  75 111 150 196 254 320 369 463
#     4  12  28  49  79 111 156 202 264 315 394 464
#     4  11  28  51  75 112 156 203 259 317 394 460
#     4  11  28  49  80 109 152 200 258 316 389 454
#     4  11  29  49  79 113 156 203 253 324 392 469
#
# _framework density 27.042279000000001
#
# number of rings (size 3 to 8) (size 9 to 14) (size 15 to 20)
#    0.000    0.800    2.000    1.200   22.400    0.000 
#    0.000    0.000    0.000    0.000    0.000    0.000 
#    0.000    0.000    0.000    0.000    0.000    0.000 
#
# Total GULP energy -112137.354181 kJ/mol
# GULP energy per Si atom -5606.867709 kJ/mol
# Density = 2.698073 g / cm^3
# Si number density = 27.042279 Si / 1000 Ang^3
#
#
#
# Elastic Constant Matrix: (Units=GPa)
#
#
# Indices 1 2 3 4 5 6 
#
# 1 135.5887 40.9492 9.1254 0.0000 0.0000 0.0000
# 2 40.9492 194.4785 29.7404 0.0000 0.0000 0.0000
# 3 9.1254 29.7404 51.6082 0.0000 0.0000 0.0000
# 4 0.0000 0.0000 0.0000 39.8447 0.0000 0.0000
# 5 0.0000 0.0000 0.0000 0.0000 33.5131 0.0000
# 6 0.0000 0.0000 0.0000 0.0000 0.0000 44.2263
#
#
#
# Elastic Compliance Matrix: (Units=1/GPa)
#
#
# Indices 1 2 3 4 5 6 
#
# 1 0.007887 -0.001587 -0.000480 0.000000 0.000000 0.000000
# 2 -0.001587 0.005958 -0.003153 0.000000 0.000000 0.000000
# 3 -0.000480 -0.003153 0.021279 0.000000 0.000000 0.000000
# 4 0.000000 0.000000 0.000000 0.025097 0.000000 0.000000
# 5 0.000000 0.000000 0.000000 0.000000 0.029839 0.000000
# 6 0.000000 0.000000 0.000000 0.000000 0.000000 0.022611
#
#
# Mechanical properties :
#
#
# Convention : Reuss Voigt Hill
#
# Bulk Modulus (GPa) = 40.51266 60.14503 50.32885
# Shear Modulus (GPa) = 38.06931 43.64085 40.85508
#
# Velocity S-wave (km/s) = 3.75610 4.02157 3.89110
# Velocity P-wave (km/s) = 5.81591 6.62219 6.23210
#
# Compressibility (1/GPa) = 0.02468364
#
# Stress axis : x y z
#
# Youngs Moduli (GPa) = 126.79222 167.83203 46.99557
#
# Poissons Ratio (x) = 0.26640 0.02255
# Poissons Ratio (y) = 0.20125 0.14818
# Poissons Ratio (z) = 0.06084 0.52917
#
# Static dielectric constant tensor:
#      x y z
#    x 2.077740 0.000000 0.000000 
#    y 0.000000 2.081400 0.000000 
#    z 0.000000 0.000000 2.189440 
# 
# From -- ./inp_files/1059.got.cif
#   From: 2010.05.17/outbox.cif.g08.bks.cpg/sg29_1_cif.got.tgz:1059.got - 2010.06.04 01:19:37.
