data_PCOD9341219
_publ_section_title
;
Structure prediction by ZEFSAII (Michael W. Deem and Ramdas Pophale) SiO2 
 PCOD9341219
Probable space group: P C A 21
;
_chemical_formula_sum "Si O2"
_cell_formula_units_Z 28
_cell_length_a 14.558121
_cell_length_b 9.480042
_cell_length_c 9.017562
_cell_angle_alpha 90.000000
_cell_angle_beta 90.000000
_cell_angle_gamma 90.000000
_cell_volume 1244.528146
_symmetry_space_group_name_H-M "P C A 21"
_symmetry_group_IT_number 29
_symmetry_cell_setting 'orthorhombic'
loop_
_space_group_symop_operation_xyz
x,y,z
-x,-y,1/2+z
1/2-x,y,1/2+z
1/2+x,-y,z
loop_
_atom_site_type_symbol
_atom_site_label
_atom_site_fract_x
_atom_site_fract_y
_atom_site_fract_z
Si Si1 0.073833 0.535874 0.734260
Si Si2 0.777517 0.750000 0.606858
Si Si3 0.224078 0.052752 0.873884
Si Si4 0.926167 0.035874 0.979456
Si Si5 0.724079 0.552752 0.339832
Si Si6 0.427457 0.646523 0.898908
Si Si7 0.927457 0.146523 0.314808
O O1 0.173535 0.472508 0.778464
O O2 0.061014 0.578114 0.562586
O O3 0.064354 0.686377 0.815361
O O4 0.999708 0.424876 0.789997
O O5 0.829730 0.856377 0.498602
O O6 0.726137 0.851375 0.725664
O O7 0.726137 0.648625 0.488052
O O8 0.829730 0.643623 0.715114
O O9 0.326465 0.027492 0.935252
O O10 0.174421 0.905363 0.855649
O O11 0.935646 0.186377 0.898354
O O12 0.938986 0.078114 0.151130
O O13 0.000292 0.924876 0.923719
O O14 0.674421 0.405363 0.358067
#
# Coordination Sequence:
#
# PCOD9341219 Si02
#       7
#     4   4   4   4   4   4   4
#     4  11  27  45  68  98 135 176 223 274 333 395
#     4  10  24  38  78  98 132 172 226 270 336 392
#     4  11  23  46  68 100 136 176 220 274 334 394
#     4  11  27  45  68  98 135 176 223 274 333 395
#     4  11  23  46  68 100 136 176 220 274 334 394
#     4  11  27  45  68  98 135 176 223 274 333 395
#     4  11  27  45  68  98 135 176 223 274 333 395
#
# _framework density 22.498487000000001
#
# number of rings (size 3 to 8) (size 9 to 14) (size 15 to 20)
#    0.000    1.143    2.857    0.857   12.000    1.143 
#    0.000    0.000    0.000    0.000    0.000    0.000 
#    0.000    0.000    0.000    0.000    0.000    0.000 
#
# Total GULP energy -156438.830949 kJ/mol
# GULP energy per Si atom -5587.101105 kJ/mol
# Density = 2.244728 g / cm^3
# Si number density = 22.498487 Si / 1000 Ang^3
#
#
#
# Elastic Constant Matrix: (Units=GPa)
#
#
# Indices 1 2 3 4 5 6 
#
# 1 67.4223 -4.2075 4.6165 0.0000 0.0000 0.0000
# 2 -4.2075 77.0763 17.4135 0.0000 0.0000 0.0000
# 3 4.6165 17.4135 84.1402 0.0000 0.0000 0.0000
# 4 0.0000 0.0000 0.0000 34.6650 0.0000 0.0000
# 5 0.0000 0.0000 0.0000 0.0000 4.0003 0.0000
# 6 0.0000 0.0000 0.0000 0.0000 0.0000 23.2193
#
#
#
# Elastic Compliance Matrix: (Units=1/GPa)
#
#
# Indices 1 2 3 4 5 6 
#
# 1 0.014969 0.001052 -0.001039 0.000000 0.000000 0.000000
# 2 0.001052 0.013684 -0.002890 0.000000 0.000000 0.000000
# 3 -0.001039 -0.002890 0.012540 0.000000 0.000000 0.000000
# 4 0.000000 0.000000 0.000000 0.028848 0.000000 0.000000
# 5 0.000000 0.000000 0.000000 0.000000 0.249984 0.000000
# 6 0.000000 0.000000 0.000000 0.000000 0.000000 0.043068
#
#
# Mechanical properties :
#
#
# Convention : Reuss Voigt Hill
#
# Bulk Modulus (GPa) = 28.21731 29.36487 28.79109
# Shear Modulus (GPa) = 13.13512 26.43133 19.78322
#
# Velocity S-wave (km/s) = 2.41886 3.43126 2.96854
# Velocity P-wave (km/s) = 4.51335 5.36454 4.95725
#
# Compressibility (1/GPa) = 0.03543924
#
# Stress axis : x y z
#
# Youngs Moduli (GPa) = 66.80618 73.07557 79.74481
#
# Poissons Ratio (x) = -0.07686 0.08285
# Poissons Ratio (y) = -0.07027 0.23045
# Poissons Ratio (z) = 0.06941 0.21118
#
# Static dielectric constant tensor:
#      x y z
#    x 1.814370 0.000000 0.000000 
#    y 0.000000 1.784830 0.000000 
#    z 0.000000 0.000000 1.855120 
# 
# From -- ./inp_files/1774.got.cif
#   From: 2010.05.17/outbox.cif.g08.bks.cpg/sg29_1_cif.got.tgz:1774.got - 2010.06.04 01:19:37.
