data_PCOD9341666
_publ_section_title
;
Structure prediction by ZEFSAII (Michael W. Deem and Ramdas Pophale) SiO2 
 PCOD9341666
Probable space group: P C A 21
;
_chemical_formula_sum "Si O2"
_cell_formula_units_Z 20
_cell_length_a 9.114304
_cell_length_b 11.040445
_cell_length_c 7.575790
_cell_angle_alpha 90.000000
_cell_angle_beta 90.000000
_cell_angle_gamma 90.000000
_cell_volume 762.321233
_symmetry_space_group_name_H-M "P C A 21"
_symmetry_group_IT_number 29
_symmetry_cell_setting 'orthorhombic'
loop_
_space_group_symop_operation_xyz
x,y,z
-x,-y,1/2+z
1/2-x,y,1/2+z
1/2+x,-y,z
loop_
_atom_site_type_symbol
_atom_site_label
_atom_site_fract_x
_atom_site_fract_y
_atom_site_fract_z
Si Si1 0.595041 0.118806 0.562030
Si Si2 0.479419 0.483538 0.154330
Si Si3 0.199075 0.386564 0.330055
Si Si4 0.605566 0.869862 0.394841
Si Si5 0.887104 0.232676 0.690875
O O1 0.466816 0.099279 0.705316
O O2 0.721430 0.191060 0.663597
O O3 0.557619 0.188563 0.381421
O O4 0.660444 0.991397 0.488908
O O5 0.350357 0.452590 0.292352
O O6 0.574863 0.603899 0.175743
O O7 0.596867 0.375771 0.171638
O O8 0.388404 0.460110 0.978159
O O9 0.213145 0.244660 0.372420
O O10 0.482808 0.821441 0.531356
#
# Coordination Sequence:
#
# PCOD9341666 Si02
#       5
#     4   4   4   4   4
#     4  12  24  45  75 105 156 203 261 325 389 467
#     4  11  27  48  74 113 152 207 255 326 387 464
#     4  11  27  48  76 111 157 202 264 320 389 471
#     4  11  26  45  73 113 149 206 262 325 389 465
#     4  11  26  44  72 110 152 202 260 322 390 461
#
# _framework density 26.235662000000001
#
# number of rings (size 3 to 8) (size 9 to 14) (size 15 to 20)
#    0.000    0.800    4.000    1.200    8.400    4.800 
#    0.000    0.000    0.000    0.000    0.000    0.000 
#    0.000    0.000    0.000    0.000    0.000    0.000 
#
# Total GULP energy -112104.551747 kJ/mol
# GULP energy per Si atom -5605.227587 kJ/mol
# Density = 2.617595 g / cm^3
# Si number density = 26.235662 Si / 1000 Ang^3
#
#
#
# Elastic Constant Matrix: (Units=GPa)
#
#
# Indices 1 2 3 4 5 6 
#
# 1 119.2654 39.5111 22.5661 0.0000 0.0000 0.0000
# 2 39.5111 93.1550 14.8317 0.0000 0.0000 0.0000
# 3 22.5661 14.8317 157.0882 0.0000 0.0000 0.0000
# 4 0.0000 0.0000 0.0000 40.3706 0.0000 0.0000
# 5 0.0000 0.0000 0.0000 0.0000 28.1282 0.0000
# 6 0.0000 0.0000 0.0000 0.0000 0.0000 22.1917
#
#
#
# Elastic Compliance Matrix: (Units=1/GPa)
#
#
# Indices 1 2 3 4 5 6 
#
# 1 0.009921 -0.004042 -0.001044 0.000000 0.000000 0.000000
# 2 -0.004042 0.012545 -0.000604 0.000000 0.000000 0.000000
# 3 -0.001044 -0.000604 0.006573 0.000000 0.000000 0.000000
# 4 0.000000 0.000000 0.000000 0.024771 0.000000 0.000000
# 5 0.000000 0.000000 0.000000 0.000000 0.035552 0.000000
# 6 0.000000 0.000000 0.000000 0.000000 0.000000 0.045062
#
#
# Mechanical properties :
#
#
# Convention : Reuss Voigt Hill
#
# Bulk Modulus (GPa) = 56.62314 58.14739 57.38527
# Shear Modulus (GPa) = 32.96229 37.64474 35.30352
#
# Velocity S-wave (km/s) = 3.54841 3.79208 3.67226
# Velocity P-wave (km/s) = 6.19820 6.43310 6.31674
#
# Compressibility (1/GPa) = 0.01766062
#
# Stress axis : x y z
#
# Youngs Moduli (GPa) = 100.79502 79.71140 152.14271
#
# Poissons Ratio (x) = 0.32218 0.15877
# Poissons Ratio (y) = 0.40740 0.09187
# Poissons Ratio (z) = 0.10519 0.04813
#
# Static dielectric constant tensor:
#      x y z
#    x 1.980950 0.000000 0.000000 
#    y 0.000000 2.055930 0.000000 
#    z 0.000000 0.000000 2.286660 
# 
# From -- ./inp_files/1081.got.cif
#   From: 2010.05.17/outbox.cif.g08.bks.cpg/sg29_1_cif.got.tgz:1081.got - 2010.06.04 01:19:37.
