data_PCOD9341479
_publ_section_title
;
Structure prediction by ZEFSAII (Michael W. Deem and Ramdas Pophale) SiO2 
 PCOD9341479
Probable space group: P C A 21
;
_chemical_formula_sum "Si O2"
_cell_formula_units_Z 32
_cell_length_a 9.324307
_cell_length_b 12.179526
_cell_length_c 11.237893
_cell_angle_alpha 90.000000
_cell_angle_beta 90.000000
_cell_angle_gamma 90.000000
_cell_volume 1276.238506
_symmetry_space_group_name_H-M "P C A 21"
_symmetry_group_IT_number 29
_symmetry_cell_setting 'orthorhombic'
loop_
_space_group_symop_operation_xyz
x,y,z
-x,-y,1/2+z
1/2-x,y,1/2+z
1/2+x,-y,z
loop_
_atom_site_type_symbol
_atom_site_label
_atom_site_fract_x
_atom_site_fract_y
_atom_site_fract_z
Si Si1 0.223982 0.288562 0.494130
Si Si2 0.091142 0.209533 0.776429
Si Si3 0.711218 0.233912 0.381721
Si Si4 0.934242 0.861444 0.638923
Si Si5 0.229750 0.634608 0.632234
Si Si6 0.170651 0.008642 0.597218
Si Si7 0.994745 0.866336 0.910839
Si Si8 0.947601 0.568663 0.121576
O O1 0.295593 0.244390 0.375565
O O2 0.342389 0.240146 0.587054
O O3 0.064878 0.234149 0.488978
O O4 0.169111 0.410832 0.514729
O O5 0.122033 0.099462 0.698671
O O6 0.082622 0.324513 0.704063
O O7 0.944043 0.188677 0.846748
O O8 0.753164 0.296679 0.256985
O O9 0.700893 0.306376 0.503483
O O10 0.834483 0.143599 0.406274
O O11 0.839588 0.967443 0.597538
O O12 0.938429 0.856048 0.778858
O O13 0.100892 0.890606 0.616941
O O14 0.102586 0.550034 0.663886
O O15 0.382367 0.574339 0.609327
O O16 0.095744 0.040095 0.474098
#
# Coordination Sequence:
#
# PCOD9341479 Si02
#       8
#     4   4   4   4   4   4   4   4
#     4  11  22  45  70  95 139 182 230 276 359 412
#     4  11  24  44  68  99 141 182 226 290 344 422
#     4  11  26  46  69 107 140 182 240 286 359 409
#     4  11  26  40  69 103 128 188 225 281 347 418
#     4  11  27  44  71 106 138 185 234 296 343 430
#     4  11  25  45  65 102 140 177 237 287 349 413
#     4  11  22  46  71  92 143 184 224 292 350 416
#     4  11  24  46  67 102 143 178 232 292 353 410
#
# _framework density 25.073682999999999
#
# number of rings (size 3 to 8) (size 9 to 14) (size 15 to 20)
#    0.000    1.000    5.000    0.750    8.750    3.000 
#    0.000    0.000    0.000    0.000    0.000    0.000 
#    0.000    0.000    0.000    0.000    0.000    0.000 
#
# Total GULP energy -178317.747265 kJ/mol
# GULP energy per Si atom -5572.429602 kJ/mol
# Density = 2.501661 g / cm^3
# Si number density = 25.073683 Si / 1000 Ang^3
#
#
#
# Elastic Constant Matrix: (Units=GPa)
#
#
# Indices 1 2 3 4 5 6 
#
# 1 132.9644 31.2105 11.0694 0.0000 0.0000 0.0000
# 2 31.2105 52.7339 30.0497 0.0000 0.0000 0.0000
# 3 11.0694 30.0497 112.8715 0.0000 0.0000 0.0000
# 4 0.0000 0.0000 0.0000 22.4701 0.0000 0.0000
# 5 0.0000 0.0000 0.0000 0.0000 57.3782 0.0000
# 6 0.0000 0.0000 0.0000 0.0000 0.0000 40.0120
#
#
#
# Elastic Compliance Matrix: (Units=1/GPa)
#
#
# Indices 1 2 3 4 5 6 
#
# 1 0.008770 -0.005541 0.000615 0.000000 0.000000 0.000000
# 2 -0.005541 0.025855 -0.006340 0.000000 0.000000 0.000000
# 3 0.000615 -0.006340 0.010487 0.000000 0.000000 0.000000
# 4 0.000000 0.000000 0.000000 0.044504 0.000000 0.000000
# 5 0.000000 0.000000 0.000000 0.000000 0.017428 0.000000
# 6 0.000000 0.000000 0.000000 0.000000 0.000000 0.024992
#
#
# Mechanical properties :
#
#
# Convention : Reuss Voigt Hill
#
# Bulk Modulus (GPa) = 44.28560 49.24766 46.76663
# Shear Modulus (GPa) = 30.84585 39.05476 34.95031
#
# Velocity S-wave (km/s) = 3.51124 3.95093 3.73755
# Velocity P-wave (km/s) = 5.84285 6.36372 6.10884
#
# Compressibility (1/GPa) = 0.02258070
#
# Stress axis : x y z
#
# Youngs Moduli (GPa) = 114.02152 38.67654 95.35421
#
# Poissons Ratio (x) = 0.21431 -0.05865
# Poissons Ratio (y) = 0.63182 0.60455
# Poissons Ratio (z) = -0.07014 0.24521
#
# Static dielectric constant tensor:
#      x y z
#    x 1.720070 0.000000 0.000000 
#    y 0.000000 2.108240 0.000000 
#    z 0.000000 0.000000 2.109930 
# 
# From -- ./inp_files/2949.got.cif
#   From: 2010.05.17/outbox.cif.g08.bks.cpg/sg29_2_cif.got.tgz:2949.got - 2010.06.04 01:19:37.
