data_PCOD9341481
_publ_section_title
;
Structure prediction by ZEFSAII (Michael W. Deem and Ramdas Pophale) SiO2 
 PCOD9341481
Probable space group: P C A 21
;
_chemical_formula_sum "Si O2"
_cell_formula_units_Z 16
_cell_length_a 13.232529
_cell_length_b 5.195480
_cell_length_c 8.243309
_cell_angle_alpha 90.000000
_cell_angle_beta 90.000000
_cell_angle_gamma 90.000000
_cell_volume 566.722051
_symmetry_space_group_name_H-M "P C A 21"
_symmetry_group_IT_number 29
_symmetry_cell_setting 'orthorhombic'
loop_
_space_group_symop_operation_xyz
x,y,z
-x,-y,1/2+z
1/2-x,y,1/2+z
1/2+x,-y,z
loop_
_atom_site_type_symbol
_atom_site_label
_atom_site_fract_x
_atom_site_fract_y
_atom_site_fract_z
Si Si1 0.558740 0.016209 0.666930
Si Si2 0.174579 0.132128 0.950718
Si Si3 0.382516 0.267738 0.840165
Si Si4 0.769777 0.356575 0.034061
O O1 0.584649 0.839285 0.823196
O O2 0.457542 0.177714 0.699084
O O3 0.648083 0.230101 0.652653
O O4 0.564866 0.838338 0.508136
O O5 0.180221 0.848146 0.020898
O O6 0.277758 0.113419 0.842177
O O7 0.209439 0.375737 0.057619
O O8 0.343180 0.555301 0.882755
#
# Coordination Sequence:
#
# PCOD9341481 Si02
#       4
#     4   4   4   4
#     4  11  22  45  74 102 147 186 236 297 356 423
#     4   9  22  43  63  96 141 185 227 288 340 421
#     4   9  24  43  69 106 137 183 240 285 358 418
#     4   9  22  43  62  98 139 174 239 276 350 410
#
# _framework density 28.232537000000001
#
# number of rings (size 3 to 8) (size 9 to 14) (size 15 to 20)
#    1.500    1.000    0.000    0.000    3.500    8.000 
#    4.500    0.000    0.000    0.000    0.000    0.000 
#    0.000    0.000    0.000    0.000    0.000    0.000 
#
# Total GULP energy -89276.086670 kJ/mol
# GULP energy per Si atom -5579.755417 kJ/mol
# Density = 2.816828 g / cm^3
# Si number density = 28.232537 Si / 1000 Ang^3
#
#
#
# Elastic Constant Matrix: (Units=GPa)
#
#
# Indices 1 2 3 4 5 6 
#
# 1 77.6004 9.1804 -44.0234 0.0000 0.0000 0.0000
# 2 9.1804 170.2866 28.7205 0.0000 0.0000 0.0000
# 3 -44.0234 28.7205 48.2464 0.0000 0.0000 0.0000
# 4 0.0000 0.0000 0.0000 41.1679 0.0000 0.0000
# 5 0.0000 0.0000 0.0000 0.0000 54.7522 0.0000
# 6 0.0000 0.0000 0.0000 0.0000 0.0000 28.1313
#
#
#
# Elastic Compliance Matrix: (Units=1/GPa)
#
#
# Indices 1 2 3 4 5 6 
#
# 1 0.034181 -0.007896 0.035890 0.000000 0.000000 0.000000
# 2 -0.007896 0.008352 -0.012177 0.000000 0.000000 0.000000
# 3 0.035890 -0.012177 0.060724 0.000000 0.000000 0.000000
# 4 0.000000 0.000000 0.000000 0.024291 0.000000 0.000000
# 5 0.000000 0.000000 0.000000 0.000000 0.018264 0.000000
# 6 0.000000 0.000000 0.000000 0.000000 0.000000 0.035548
#
#
# Mechanical properties :
#
#
# Convention : Reuss Voigt Hill
#
# Bulk Modulus (GPa) = 7.41338 31.54317 19.47827
# Shear Modulus (GPa) = 25.68203 44.96065 35.32134
#
# Velocity S-wave (km/s) = 3.01933 3.99496 3.54091
# Velocity P-wave (km/s) = 3.84534 5.69881 4.86123
#
# Compressibility (1/GPa) = 0.13489127
#
# Stress axis : x y z
#
# Youngs Moduli (GPa) = 29.25585 119.73425 16.46801
#
# Poissons Ratio (x) = 0.94541 -0.59103
# Poissons Ratio (y) = 0.23100 0.20052
# Poissons Ratio (z) = -1.04998 1.45795
#
# Static dielectric constant tensor:
#      x y z
#    x 2.155230 0.000000 0.000000 
#    y 0.000000 2.179170 0.000000 
#    z 0.000000 0.000000 2.518440 
# 
# From -- ./inp_files/1924.got.cif
#   From: 2010.05.17/outbox.cif.g08.bks.cpg/sg29_1_cif.got.tgz:1924.got - 2010.06.04 01:19:37.
