data_PCOD9341690
_publ_section_title
;
Structure prediction by ZEFSAII (Michael W. Deem and Ramdas Pophale) SiO2 
 PCOD9341690
Probable space group: P C A 21
;
_chemical_formula_sum "Si O2"
_cell_formula_units_Z 32
_cell_length_a 10.050078
_cell_length_b 11.431655
_cell_length_c 14.201417
_cell_angle_alpha 90.000000
_cell_angle_beta 90.000000
_cell_angle_gamma 90.000000
_cell_volume 1631.586944
_symmetry_space_group_name_H-M "P C A 21"
_symmetry_group_IT_number 29
_symmetry_cell_setting 'orthorhombic'
loop_
_space_group_symop_operation_xyz
x,y,z
-x,-y,1/2+z
1/2-x,y,1/2+z
1/2+x,-y,z
loop_
_atom_site_type_symbol
_atom_site_label
_atom_site_fract_x
_atom_site_fract_y
_atom_site_fract_z
Si Si1 0.354731 0.493537 0.000000
Si Si2 0.102048 0.239943 0.211476
Si Si3 0.859842 0.129795 0.097872
Si Si4 0.607505 0.513525 0.130395
Si Si5 0.631242 0.854142 0.617914
Si Si6 0.374673 0.749014 0.704928
Si Si7 0.282132 0.744113 0.917147
Si Si8 0.039504 0.257283 0.422137
O O1 0.463092 0.509462 0.082483
O O2 0.215821 0.460620 0.049346
O O3 0.330320 0.615241 0.947765
O O4 0.411912 0.391121 0.934725
O O5 0.114202 0.380147 0.202806
O O6 0.226323 0.181689 0.159070
O O7 0.087143 0.209236 0.321367
O O8 0.972360 0.200772 0.153653
O O9 0.720271 0.173440 0.139664
O O10 0.881510 0.993453 0.114852
O O11 0.851111 0.165257 0.988608
O O12 0.637042 0.386625 0.174146
O O13 0.522829 0.793012 0.685015
O O14 0.601628 0.807255 0.512669
O O15 0.327096 0.764706 0.811025
O O16 0.121403 0.748682 0.925719
#
# Coordination Sequence:
#
# PCOD9341690 Si02
#       8
#     4   4   4   4   4   4   4   4
#     4  12  21  42  72  98 142 178 222 287 356 414
#     4  12  26  44  72 107 136 177 234 292 346 416
#     4  12  25  46  72  98 139 189 233 278 349 411
#     4  12  21  42  73 100 138 181 220 287 360 410
#     4  12  27  46  71 101 143 183 232 296 336 408
#     4  12  24  48  71 102 142 184 230 284 358 417
#     4  12  25  45  74 103 138 190 231 283 355 418
#     4  12  25  47  69 105 142 180 236 293 348 412
#
# _framework density 19.612805999999999
#
# number of rings (size 3 to 8) (size 9 to 14) (size 15 to 20)
#    0.000    0.000    8.750    1.500    0.000    4.000 
#    4.500    0.000    0.000    0.000    0.000    0.000 
#    0.000    0.000    0.000    0.000    0.000    0.000 
#
# Total GULP energy -179017.965963 kJ/mol
# GULP energy per Si atom -5594.311436 kJ/mol
# Density = 1.956817 g / cm^3
# Si number density = 19.612806 Si / 1000 Ang^3
#
#
#
# Elastic Constant Matrix: (Units=GPa)
#
#
# Indices 1 2 3 4 5 6 
#
# 1 51.4254 -1.3166 3.1428 0.0000 0.0000 0.0000
# 2 -1.3166 83.6154 26.8558 0.0000 0.0000 0.0000
# 3 3.1428 26.8558 118.8888 0.0000 0.0000 0.0000
# 4 0.0000 0.0000 0.0000 3.8673 0.0000 0.0000
# 5 0.0000 0.0000 0.0000 0.0000 28.2326 0.0000
# 6 0.0000 0.0000 0.0000 0.0000 0.0000 13.2794
#
#
#
# Elastic Compliance Matrix: (Units=1/GPa)
#
#
# Indices 1 2 3 4 5 6 
#
# 1 0.019497 0.000510 -0.000631 0.000000 0.000000 0.000000
# 2 0.000510 0.012908 -0.002929 0.000000 0.000000 0.000000
# 3 -0.000631 -0.002929 0.009090 0.000000 0.000000 0.000000
# 4 0.000000 0.000000 0.000000 0.258580 0.000000 0.000000
# 5 0.000000 0.000000 0.000000 0.000000 0.035420 0.000000
# 6 0.000000 0.000000 0.000000 0.000000 0.000000 0.075304
#
#
# Mechanical properties :
#
#
# Convention : Reuss Voigt Hill
#
# Bulk Modulus (GPa) = 28.25294 34.58819 31.42056
# Shear Modulus (GPa) = 11.66322 24.09237 17.87780
#
# Velocity S-wave (km/s) = 2.44124 3.50866 3.02244
# Velocity P-wave (km/s) = 4.73105 5.83849 5.31370
#
# Compressibility (1/GPa) = 0.03539455
#
# Stress axis : x y z
#
# Youngs Moduli (GPa) = 51.28932 77.46894 110.01582
#
# Poissons Ratio (x) = -0.03947 0.06937
# Poissons Ratio (y) = -0.02613 0.32228
# Poissons Ratio (z) = 0.03234 0.22693
#
# Static dielectric constant tensor:
#      x y z
#    x 1.654640 0.000000 0.000000 
#    y 0.000000 1.674130 0.000000 
#    z 0.000000 0.000000 1.673740 
# 
# From -- ./inp_files/4319.got.cif
#   From: 2010.05.17/outbox.cif.g08.bks.cpg/sg29_3_cif.got.tgz:4319.got - 2010.06.04 01:19:37.
