data_PCOD9341847
_publ_section_title
;
Structure prediction by ZEFSAII (Michael W. Deem and Ramdas Pophale) SiO2 
 PCOD9341847
Probable space group: P N C 2
;
_chemical_formula_sum "Si O2"
_cell_formula_units_Z 24
_cell_length_a 13.977208
_cell_length_b 11.537665
_cell_length_c 5.649102
_cell_angle_alpha 90.000000
_cell_angle_beta 90.000000
_cell_angle_gamma 90.000000
_cell_volume 910.998726
_symmetry_space_group_name_H-M "P N C 2"
_symmetry_group_IT_number 30
_symmetry_cell_setting 'orthorhombic'
loop_
_space_group_symop_operation_xyz
x,y,z
-x,-y,z
-x,1/2+y,1/2+z
x,1/2-y,1/2+z
loop_
_atom_site_type_symbol
_atom_site_label
_atom_site_fract_x
_atom_site_fract_y
_atom_site_fract_z
Si Si1 0.137005 0.320393 0.516560
Si Si2 0.075551 0.874294 0.016560
Si Si3 0.327634 0.471180 0.516559
Si Si4 0.468565 0.260772 0.516559
Si Si5 0.086080 0.905372 0.516560
Si Si6 0.386190 0.018536 0.516559
O O1 0.134932 0.250000 0.266560
O O2 0.039274 0.395584 0.516560
O O3 0.234276 0.391745 0.516560
O O4 0.127543 0.915971 0.254320
O O5 0.066692 0.732918 0.016560
O O6 0.127543 0.915971 0.778801
O O7 0.419452 0.384904 0.516559
O O8 0.339995 0.528290 0.774998
O O9 0.339995 0.528290 0.258120
O O10 0.521254 0.250000 0.766559
O O11 0.385025 0.160983 0.516559
O O12 0.000000 0.000000 0.516560
O O13 0.500000 0.000000 0.516559
#
# Coordination Sequence:
#
# PCOD9341847 Si02
#       6
#     4   4   4   4   4   4
#     4  12  18  30  48  66 103 129 162 195 234 307
#     4  10  19  32  45  77  98 138 176 203 253 301
#     4  10  19  28  43  64  83 129 149 178 239 290
#     4   8  14  25  36  54  75 101 144 157 210 260
#     4  10  18  32  48  67 104 143 169 207 245 303
#     4  10  18  29  40  58  87 118 150 190 226 271
#
# _framework density 26.344712999999999
#
# number of rings (size 3 to 8) (size 9 to 14) (size 15 to 20)
#    0.000    2.000    3.333    5.000    0.000    0.000 
#    0.000    0.000    0.000    0.000    0.000    0.000 
#    0.000    0.000  340.000    0.000    0.000    0.000 
#
# Total GULP energy -133868.858955 kJ/mol
# GULP energy per Si atom -5577.869123 kJ/mol
# Density = 2.628475 g / cm^3
# Si number density = 26.344713 Si / 1000 Ang^3
#
#
#
# Elastic Constant Matrix: (Units=GPa)
#
#
# Indices 1 2 3 4 5 6 
#
# 1 132.3210 28.9235 61.8339 0.0000 0.0000 0.0000
# 2 28.9235 61.7872 33.7905 0.0000 0.0000 0.0000
# 3 61.8339 33.7905 386.5570 0.0000 0.0000 0.0000
# 4 0.0000 0.0000 0.0000 26.5999 0.0000 0.0000
# 5 0.0000 0.0000 0.0000 0.0000 14.0874 0.0000
# 6 0.0000 0.0000 0.0000 0.0000 0.0000 44.3294
#
#
#
# Elastic Compliance Matrix: (Units=1/GPa)
#
#
# Indices 1 2 3 4 5 6 
#
# 1 0.008847 -0.003537 -0.001106 0.000000 0.000000 0.000000
# 2 -0.003537 0.018411 -0.001044 0.000000 0.000000 0.000000
# 3 -0.001106 -0.001044 0.002855 0.000000 0.000000 0.000000
# 4 0.000000 0.000000 0.000000 0.037594 0.000000 0.000000
# 5 0.000000 0.000000 0.000000 0.000000 0.070986 0.000000
# 6 0.000000 0.000000 0.000000 0.000000 0.000000 0.022558
#
#
# Mechanical properties :
#
#
# Convention : Reuss Voigt Hill
#
# Bulk Modulus (GPa) = 53.36017 92.19566 72.77792
# Shear Modulus (GPa) = 27.95310 47.41115 37.68212
#
# Velocity S-wave (km/s) = 3.26091 4.24683 3.78610
# Velocity P-wave (km/s) = 5.87168 7.68890 6.84090
#
# Compressibility (1/GPa) = 0.01874057
#
# Stress axis : x y z
#
# Youngs Moduli (GPa) = 113.02873 54.31562 350.25074
#
# Poissons Ratio (x) = 0.19210 0.38740
# Poissons Ratio (y) = 0.39974 0.36554
# Poissons Ratio (z) = 0.12502 0.05669
#
# Static dielectric constant tensor:
#      x y z
#    x 1.996590 0.000000 0.000000 
#    y 0.000000 2.224960 0.000000 
#    z 0.000000 0.000000 2.212290 
# 
# From -- ./inp_files/912.got.cif
#   From: 2010.05.17/outbox.cif.g08.bks.cpg/sg30_1_cif.got.tgz:912.got - 2010.06.03 17:03:02.
