data_PCOD9341581
_publ_section_title
;
Structure prediction by ZEFSAII (Michael W. Deem and Ramdas Pophale) SiO2 
 PCOD9341581
Probable space group: P C A 21
;
_chemical_formula_sum "Si O2"
_cell_formula_units_Z 32
_cell_length_a 11.468254
_cell_length_b 12.029691
_cell_length_c 9.213902
_cell_angle_alpha 90.000000
_cell_angle_beta 90.000000
_cell_angle_gamma 90.000000
_cell_volume 1271.145791
_symmetry_space_group_name_H-M "P C A 21"
_symmetry_group_IT_number 29
_symmetry_cell_setting 'orthorhombic'
loop_
_space_group_symop_operation_xyz
x,y,z
-x,-y,1/2+z
1/2-x,y,1/2+z
1/2+x,-y,z
loop_
_atom_site_type_symbol
_atom_site_label
_atom_site_fract_x
_atom_site_fract_y
_atom_site_fract_z
Si Si1 0.370731 0.326807 0.250000
Si Si2 0.282157 0.947879 0.652726
Si Si3 0.098079 0.549114 0.301240
Si Si4 0.490519 0.684838 0.230784
Si Si5 0.990518 0.184839 0.516540
Si Si6 0.629269 0.826807 0.997323
Si Si7 0.098079 0.950887 0.446084
Si Si8 0.217843 0.552121 0.594597
O O1 0.483928 0.378544 0.332202
O O2 0.309239 0.250000 0.373662
O O3 0.543815 0.250001 0.873662
O O4 0.309342 0.431779 0.170120
O O5 0.376738 0.860240 0.597272
O O6 0.309342 0.068221 0.577203
O O7 0.154591 0.915267 0.598577
O O8 0.303151 0.948517 0.823637
O O9 0.056139 0.424532 0.285482
O O10 0.196850 0.551484 0.423686
O O11 0.154591 0.584734 0.148747
O O12 0.577455 0.751093 0.125416
O O13 0.376740 0.639759 0.150052
O O14 0.056137 0.075468 0.461842
O O15 0.077455 0.251093 0.621908
O O16 0.516072 0.878543 0.915121
#
# Coordination Sequence:
#
# PCOD9341581 Si02
#       8
#     4   4   4   4   4   4   4   4
#     4  11  24  45  66  91 130 172 213 259 317 378
#     4  11  26  42  65  97 131 165 213 267 316 378
#     4  11  26  42  65  99 129 165 215 263 318 378
#     4  11  24  45  66  91 130 172 213 259 317 378
#     4  11  24  45  66  91 130 172 213 259 317 378
#     4  11  24  45  66  91 130 172 213 259 317 378
#     4  11  26  42  65  99 129 165 215 263 318 378
#     4  11  26  42  65  97 131 165 213 267 316 378
#
# _framework density 25.174140000000001
#
# number of rings (size 3 to 8) (size 9 to 14) (size 15 to 20)
#    0.000    1.000    5.000    0.000    7.000    4.000 
#    0.000    0.000    0.000    0.000    0.000    0.000 
#    0.000    0.000    0.000    0.000    0.000    0.000 
#
# Total GULP energy -179389.405364 kJ/mol
# GULP energy per Si atom -5605.918918 kJ/mol
# Density = 2.511684 g / cm^3
# Si number density = 25.174140 Si / 1000 Ang^3
#
#
#
# Elastic Constant Matrix: (Units=GPa)
#
#
# Indices 1 2 3 4 5 6 
#
# 1 31.6280 -0.2694 -13.0753 0.0000 0.0000 0.0000
# 2 -0.2694 105.0349 39.7510 0.0000 0.0000 0.0000
# 3 -13.0753 39.7510 86.0393 0.0000 0.0000 0.0000
# 4 0.0000 0.0000 0.0000 34.7538 0.0000 0.0000
# 5 0.0000 0.0000 0.0000 0.0000 39.6483 0.0000
# 6 0.0000 0.0000 0.0000 0.0000 0.0000 23.9469
#
#
#
# Elastic Compliance Matrix: (Units=1/GPa)
#
#
# Indices 1 2 3 4 5 6 
#
# 1 0.034180 -0.002276 0.006246 0.000000 0.000000 0.000000
# 2 -0.002276 0.011690 -0.005747 0.000000 0.000000 0.000000
# 3 0.006246 -0.005747 0.015227 0.000000 0.000000 0.000000
# 4 0.000000 0.000000 0.000000 0.028774 0.000000 0.000000
# 5 0.000000 0.000000 0.000000 0.000000 0.025222 0.000000
# 6 0.000000 0.000000 0.000000 0.000000 0.000000 0.041759
#
#
# Mechanical properties :
#
#
# Convention : Reuss Voigt Hill
#
# Bulk Modulus (GPa) = 17.37831 30.61277 23.99554
# Shear Modulus (GPa) = 27.84183 32.75622 30.29902
#
# Velocity S-wave (km/s) = 3.32922 3.61111 3.47302
# Velocity P-wave (km/s) = 4.65795 5.43816 5.06311
#
# Compressibility (1/GPa) = 0.05754299
#
# Stress axis : x y z
#
# Youngs Moduli (GPa) = 29.25665 85.54582 65.67379
#
# Poissons Ratio (x) = 0.19471 -0.41019
# Poissons Ratio (y) = 0.06659 0.37740
# Poissons Ratio (z) = -0.18273 0.49160
#
# Static dielectric constant tensor:
#      x y z
#    x 1.968890 0.000000 0.000000 
#    y 0.000000 1.980660 0.000000 
#    z 0.000000 0.000000 1.988220 
# 
# From -- ./inp_files/1527.got.cif
#   From: 2010.05.17/outbox.cif.g08.bks.cpg/sg29_1_cif.got.tgz:1527.got - 2010.06.04 01:19:37.
