data_PCOD9341972
_publ_section_title
;
Structure prediction by ZEFSAII (Michael W. Deem and Ramdas Pophale) SiO2 
 PCOD9341972
Probable space group: P N C 2
;
_chemical_formula_sum "Si O2"
_cell_formula_units_Z 26
_cell_length_a 8.311439
_cell_length_b 11.690432
_cell_length_c 14.159439
_cell_angle_alpha 90.000000
_cell_angle_beta 90.000000
_cell_angle_gamma 90.000000
_cell_volume 1375.792155
_symmetry_space_group_name_H-M "P N C 2"
_symmetry_group_IT_number 30
_symmetry_cell_setting 'orthorhombic'
loop_
_space_group_symop_operation_xyz
x,y,z
-x,-y,z
-x,1/2+y,1/2+z
x,1/2-y,1/2+z
loop_
_atom_site_type_symbol
_atom_site_label
_atom_site_fract_x
_atom_site_fract_y
_atom_site_fract_z
Si Si1 0.452505 0.130890 0.661840
Si Si2 0.500000 0.000000 0.167915
Si Si3 0.772899 0.894713 0.837688
Si Si4 0.965870 0.366452 0.595026
Si Si5 0.144046 0.649119 0.387156
Si Si6 0.678841 0.813408 0.037250
Si Si7 0.712689 0.196645 0.245378
O O1 0.309728 0.137780 0.739701
O O2 0.400336 0.194428 0.566468
O O3 0.598735 0.204856 0.703494
O O4 0.500000 0.000000 0.649032
O O5 0.404422 0.087296 0.099832
O O6 0.618358 0.077609 0.231229
O O7 0.958242 0.855274 0.851279
O O8 0.776124 0.032186 0.849472
O O9 0.676021 0.843796 0.926977
O O10 0.859296 0.358698 0.500119
O O11 0.871553 0.312560 0.681241
O O12 0.000000 0.500000 0.613101
O O13 0.135480 0.310577 0.569594
O O14 0.233219 0.759955 0.347639
#
# Coordination Sequence:
#
# PCOD9341972 Si02
#       7
#     4   2   4   4   4   4   4
#     4  11  23  37  58  92 126 161 194 244 313 357
#     4  10  20  34  54  92 124 162 190 240 310 360
#     4  10  19  37  60  89 117 154 205 250 292 359
#     4  11  19  39  64  91 116 154 210 253 296 357
#     4  10  19  36  65  92 111 154 211 250 294 355
#     4  10  21  37  63  88 121 158 205 246 297 358
#     4  11  22  35  62  89 125 157 198 252 299 359
#
# _framework density 18.898204
#
# number of rings (size 3 to 8) (size 9 to 14) (size 15 to 20)
#    0.000    1.538    6.154    0.923    1.077    2.462 
#    0.000    0.000   15.231    0.000    0.000    0.000 
#    0.000    0.000    0.000    0.000    0.000    0.000 
#
# Total GULP energy -145191.713453 kJ/mol
# GULP energy per Si atom -5584.296671 kJ/mol
# Density = 1.885519 g / cm^3
# Si number density = 18.898204 Si / 1000 Ang^3
#
#
#
# Elastic Constant Matrix: (Units=GPa)
#
#
# Indices 1 2 3 4 5 6 
#
# 1 24.5257 15.3784 17.4966 0.0000 0.0000 0.0000
# 2 15.3784 90.8310 31.2327 0.0000 0.0000 0.0000
# 3 17.4966 31.2327 58.7508 0.0000 0.0000 0.0000
# 4 0.0000 0.0000 0.0000 27.1883 0.0000 0.0000
# 5 0.0000 0.0000 0.0000 0.0000 24.0695 0.0000
# 6 0.0000 0.0000 0.0000 0.0000 0.0000 20.3699
#
#
#
# Elastic Compliance Matrix: (Units=1/GPa)
#
#
# Indices 1 2 3 4 5 6 
#
# 1 0.053142 -0.004351 -0.013513 0.000000 0.000000 0.000000
# 2 -0.004351 0.013828 -0.006056 0.000000 0.000000 0.000000
# 3 -0.013513 -0.006056 0.024265 0.000000 0.000000 0.000000
# 4 0.000000 0.000000 0.000000 0.036780 0.000000 0.000000
# 5 0.000000 0.000000 0.000000 0.000000 0.041546 0.000000
# 6 0.000000 0.000000 0.000000 0.000000 0.000000 0.049092
#
#
# Mechanical properties :
#
#
# Convention : Reuss Voigt Hill
#
# Bulk Modulus (GPa) = 23.04380 33.59143 28.31762
# Shear Modulus (GPa) = 17.79624 21.65887 19.72755
#
# Velocity S-wave (km/s) = 3.07202 3.38905 3.23443
# Velocity P-wave (km/s) = 4.98028 5.75567 5.38196
#
# Compressibility (1/GPa) = 0.04339562
#
# Stress axis : x y z
#
# Youngs Moduli (GPa) = 18.81755 72.31536 41.21224
#
# Poissons Ratio (x) = 0.31463 0.55691
# Poissons Ratio (y) = 0.08187 0.24956
# Poissons Ratio (z) = 0.25429 0.43791
#
# Static dielectric constant tensor:
#      x y z
#    x 1.688570 0.000000 0.000000 
#    y 0.000000 1.630090 0.000000 
#    z 0.000000 0.000000 1.633270 
# 
# From -- ./inp_files/3669.got.cif
#   From: 2010.05.17/outbox.cif.g08.bks.cpg/sg30_2_cif.got.tgz:3669.got - 2010.06.03 17:03:02.
