data_PCOD9341232
_publ_section_title
;
Structure prediction by ZEFSAII (Michael W. Deem and Ramdas Pophale) SiO2 
 PCOD9341232
Probable space group: P C A 21
;
_chemical_formula_sum "Si O2"
_cell_formula_units_Z 32
_cell_length_a 10.534736
_cell_length_b 5.577098
_cell_length_c 22.839839
_cell_angle_alpha 90.000000
_cell_angle_beta 90.000000
_cell_angle_gamma 90.000000
_cell_volume 1341.914887
_symmetry_space_group_name_H-M "P C A 21"
_symmetry_group_IT_number 29
_symmetry_cell_setting 'orthorhombic'
loop_
_space_group_symop_operation_xyz
x,y,z
-x,-y,1/2+z
1/2-x,y,1/2+z
1/2+x,-y,z
loop_
_atom_site_type_symbol
_atom_site_label
_atom_site_fract_x
_atom_site_fract_y
_atom_site_fract_z
Si Si1 0.117550 0.335765 0.070360
Si Si2 0.857223 0.380644 0.123122
Si Si3 0.658541 0.627863 0.736123
Si Si4 0.246294 0.603797 0.348210
Si Si5 0.025480 0.840978 0.891682
Si Si6 0.053237 0.898462 0.286794
Si Si7 0.189727 0.019594 0.170519
Si Si8 0.091991 0.340893 0.936190
O O1 0.227569 0.506134 0.097022
O O2 0.121639 0.095738 0.110666
O O3 0.970513 0.407920 0.077478
O O4 0.142608 0.318266 0.001834
O O5 0.910962 0.512817 0.181051
O O6 0.813809 0.121918 0.148058
O O7 0.685140 0.444362 0.786699
O O8 0.589534 0.844990 0.768153
O O9 0.781204 0.734742 0.705040
O O10 0.323559 0.823839 0.376482
O O11 0.108512 0.684855 0.327194
O O12 0.290117 0.390017 0.391383
O O13 0.010026 0.588345 0.925925
O O14 0.015863 0.094231 0.924770
O O15 0.948269 0.874207 0.830550
O O16 0.121797 0.886342 0.223877
#
# Coordination Sequence:
#
# PCOD9341232 Si02
#       8
#     4   4   4   4   4   4   4   4
#     4  11  27  48  76 103 151 203 264 321 382 471
#     4  11  25  48  72 111 145 204 255 326 391 467
#     4  11  23  41  63 106 147 178 249 309 384 469
#     4  10  24  41  68 103 146 185 248 304 389 454
#     4  10  24  46  67 104 146 184 252 302 381 451
#     4  12  21  40  73 107 146 200 236 331 391 472
#     4  11  25  40  71 111 148 196 249 318 400 466
#     4  10  25  50  68 105 145 200 257 313 374 462
#
# _framework density 23.846518
#
# number of rings (size 3 to 8) (size 9 to 14) (size 15 to 20)
#    0.750    0.500    2.500    2.250    5.250    3.000 
#    2.250    0.000    0.000    0.000    0.000    0.000 
#    0.000    0.000    0.000    0.000    0.000    0.000 
#
# Total GULP energy -178164.946719 kJ/mol
# GULP energy per Si atom -5567.654585 kJ/mol
# Density = 2.379224 g / cm^3
# Si number density = 23.846518 Si / 1000 Ang^3
#
#
#
# Elastic Constant Matrix: (Units=GPa)
#
#
# Indices 1 2 3 4 5 6 
#
# 1 60.0843 8.5719 16.8856 0.0000 0.0000 0.0000
# 2 8.5719 98.2936 35.5028 0.0000 0.0000 0.0000
# 3 16.8856 35.5028 135.7375 0.0000 0.0000 0.0000
# 4 0.0000 0.0000 0.0000 24.3956 0.0000 0.0000
# 5 0.0000 0.0000 0.0000 0.0000 29.5344 0.0000
# 6 0.0000 0.0000 0.0000 0.0000 0.0000 10.5726
#
#
#
# Elastic Compliance Matrix: (Units=1/GPa)
#
#
# Indices 1 2 3 4 5 6 
#
# 1 0.017304 -0.000808 -0.001941 0.000000 0.000000 0.000000
# 2 -0.000808 0.011273 -0.002848 0.000000 0.000000 0.000000
# 3 -0.001941 -0.002848 0.008354 0.000000 0.000000 0.000000
# 4 0.000000 0.000000 0.000000 0.040991 0.000000 0.000000
# 5 0.000000 0.000000 0.000000 0.000000 0.033859 0.000000
# 6 0.000000 0.000000 0.000000 0.000000 0.000000 0.094584
#
#
# Mechanical properties :
#
#
# Convention : Reuss Voigt Hill
#
# Bulk Modulus (GPa) = 38.85583 46.22621 42.54102
# Shear Modulus (GPa) = 22.11044 28.44419 25.27732
#
# Velocity S-wave (km/s) = 3.04830 3.45744 3.25930
# Velocity P-wave (km/s) = 5.35901 5.94689 5.66059
#
# Compressibility (1/GPa) = 0.02573616
#
# Stress axis : x y z
#
# Youngs Moduli (GPa) = 57.78972 88.70993 119.70958
#
# Poissons Ratio (x) = 0.07166 0.23239
# Poissons Ratio (y) = 0.04669 0.34092
# Poissons Ratio (z) = 0.11219 0.25264
#
# Static dielectric constant tensor:
#      x y z
#    x 1.942280 0.000000 0.000000 
#    y 0.000000 2.011110 0.000000 
#    z 0.000000 0.000000 1.910930 
# 
# From -- ./inp_files/5576.got.cif
#   From: 2010.05.17/outbox.cif.g08.bks.cpg/sg29_3_cif.got.tgz:5576.got - 2010.06.04 01:19:37.
