data_PCOD9341692
_publ_section_title
;
Structure prediction by ZEFSAII (Michael W. Deem and Ramdas Pophale) SiO2 
 PCOD9341692
Probable space group: P C A 21
;
_chemical_formula_sum "Si O2"
_cell_formula_units_Z 24
_cell_length_a 16.786668
_cell_length_b 4.834546
_cell_length_c 13.337399
_cell_angle_alpha 90.000000
_cell_angle_beta 90.000000
_cell_angle_gamma 90.000000
_cell_volume 1082.408868
_symmetry_space_group_name_H-M "P C A 21"
_symmetry_group_IT_number 29
_symmetry_cell_setting 'orthorhombic'
loop_
_space_group_symop_operation_xyz
x,y,z
-x,-y,1/2+z
1/2-x,y,1/2+z
1/2+x,-y,z
loop_
_atom_site_type_symbol
_atom_site_label
_atom_site_fract_x
_atom_site_fract_y
_atom_site_fract_z
Si Si1 0.829880 0.128754 0.076750
Si Si2 0.918111 0.637044 0.587989
Si Si3 0.747134 0.307375 0.372828
Si Si4 0.829875 0.128739 0.668905
Si Si5 0.362182 0.193728 0.372828
Si Si6 0.081886 0.362937 0.657666
O O1 0.750004 0.997562 0.122830
O O2 0.853868 0.393361 0.142568
O O3 0.896714 0.895845 0.086574
O O4 0.806779 0.237114 0.968239
O O5 0.853866 0.393336 0.603083
O O6 0.911393 0.742419 0.473737
O O7 0.999998 0.499995 0.622829
O O8 0.896706 0.895819 0.659082
O O9 0.693222 0.237110 0.277416
O O10 0.782863 0.614189 0.372827
O O11 0.825840 0.112922 0.372829
O O12 0.411394 0.257572 0.271918
#
# Coordination Sequence:
#
# PCOD9341692 Si02
#       6
#     4   4   4   4   4   4
#     4  12  23  44  67  99 125 173 223 265 315 387
#     4  12  26  43  67  98 138 169 212 274 329 389
#     4  12  24  38  74  96 126 170 226 268 312 384
#     4  12  23  44  67  99 125 173 223 265 315 387
#     4  12  22  42  66  96 128 178 210 266 340 374
#     4  12  26  43  67  98 138 169 212 274 329 389
#
# _framework density 22.172767
#
# number of rings (size 3 to 8) (size 9 to 14) (size 15 to 20)
#    0.000    0.000    6.667    4.000    0.000    2.667 
#    0.000    0.000    0.000    0.000    0.000    0.000 
#    0.000    0.000    0.000    0.000    0.000    0.000 
#
# Total GULP energy -134404.358953 kJ/mol
# GULP energy per Si atom -5600.181623 kJ/mol
# Density = 2.212230 g / cm^3
# Si number density = 22.172767 Si / 1000 Ang^3
#
#
#
# Elastic Constant Matrix: (Units=GPa)
#
#
# Indices 1 2 3 4 5 6 
#
# 1 47.4029 -8.2833 27.0513 0.0000 0.0000 0.0000
# 2 -8.2833 65.8039 -22.4380 0.0000 0.0000 0.0000
# 3 27.0513 -22.4380 102.3566 0.0000 0.0000 0.0000
# 4 0.0000 0.0000 0.0000 23.7652 0.0000 0.0000
# 5 0.0000 0.0000 0.0000 0.0000 31.4926 0.0000
# 6 0.0000 0.0000 0.0000 0.0000 0.0000 29.0233
#
#
#
# Elastic Compliance Matrix: (Units=1/GPa)
#
#
# Indices 1 2 3 4 5 6 
#
# 1 0.024899 0.000962 -0.006369 0.000000 0.000000 0.000000
# 2 0.000962 0.016462 0.003354 0.000000 0.000000 0.000000
# 3 -0.006369 0.003354 0.012188 0.000000 0.000000 0.000000
# 4 0.000000 0.000000 0.000000 0.042078 0.000000 0.000000
# 5 0.000000 0.000000 0.000000 0.000000 0.031754 0.000000
# 6 0.000000 0.000000 0.000000 0.000000 0.000000 0.034455
#
#
# Mechanical properties :
#
#
# Convention : Reuss Voigt Hill
#
# Bulk Modulus (GPa) = 20.22527 23.13596 21.68062
# Shear Modulus (GPa) = 27.40895 31.47178 29.44037
#
# Velocity S-wave (km/s) = 3.51971 3.77157 3.64781
# Velocity P-wave (km/s) = 5.06550 5.42433 5.24798
#
# Compressibility (1/GPa) = 0.04944310
#
# Stress axis : x y z
#
# Youngs Moduli (GPa) = 40.16269 60.74763 82.04523
#
# Poissons Ratio (x) = -0.05846 0.52258
# Poissons Ratio (y) = -0.03865 -0.27520
# Poissons Ratio (z) = 0.25581 -0.20376
#
# Static dielectric constant tensor:
#      x y z
#    x 1.942510 0.000000 0.000000 
#    y 0.000000 1.794810 0.000000 
#    z 0.000000 0.000000 1.815340 
# 
# From -- ./inp_files/1405.got.cif
#   From: 2010.05.17/outbox.cif.g08.bks.cpg/sg29_1_cif.got.tgz:1405.got - 2010.06.04 01:19:37.
