data_PCOD9341951
_publ_section_title
;
Structure prediction by ZEFSAII (Michael W. Deem and Ramdas Pophale) SiO2 
 PCOD9341951
Probable space group: P N C 2
;
_chemical_formula_sum "Si O2"
_cell_formula_units_Z 32
_cell_length_a 11.791932
_cell_length_b 7.370341
_cell_length_c 13.825427
_cell_angle_alpha 90.000000
_cell_angle_beta 90.000000
_cell_angle_gamma 90.000000
_cell_volume 1201.575601
_symmetry_space_group_name_H-M "P N C 2"
_symmetry_group_IT_number 30
_symmetry_cell_setting 'orthorhombic'
loop_
_space_group_symop_operation_xyz
x,y,z
-x,-y,z
-x,1/2+y,1/2+z
x,1/2-y,1/2+z
loop_
_atom_site_type_symbol
_atom_site_label
_atom_site_fract_x
_atom_site_fract_y
_atom_site_fract_z
Si Si1 0.960227 0.250000 0.770190
Si Si2 0.528519 0.217318 0.633867
Si Si3 0.788733 0.192043 0.912443
Si Si4 0.788734 0.192041 0.127937
Si Si5 0.154906 0.389154 0.910289
Si Si6 0.347151 0.250002 0.270191
Si Si7 0.528519 0.217318 0.406514
Si Si8 0.154906 0.110845 0.630092
O O1 0.871805 0.116082 0.828823
O O2 0.871806 0.383920 0.711557
O O3 0.046587 0.319952 0.851974
O O4 0.046587 0.180047 0.688407
O O5 0.657658 0.276248 0.656195
O O6 0.437805 0.330148 0.694634
O O7 0.512837 0.245305 0.520191
O O8 0.500000 0.000000 0.650433
O O9 0.837604 0.395027 0.920601
O O10 0.657658 0.223754 0.884185
O O11 0.794455 0.108595 0.020190
O O12 0.837605 0.395025 0.119780
O O13 0.263511 0.342827 0.845871
O O14 0.158170 0.316153 0.020191
O O15 0.437805 0.330149 0.345749
O O16 0.263511 0.342829 0.194510
O O17 0.500000 0.000000 0.389948
#
# Coordination Sequence:
#
# PCOD9341951 Si02
#       8
#     4   4   4   4   4   4   4   4
#     4  11  21  32  56  88 109 145 190 240 276 323
#     4  10  19  34  58  87 114 141 182 231 274 327
#     4  10  20  37  59  84 112 144 189 235 277 328
#     4  10  20  37  59  84 112 144 189 235 277 328
#     4  10  21  37  58  83 111 147 191 235 274 327
#     4  11  19  32  60  90 111 143 186 230 276 333
#     4  10  19  34  58  87 114 141 182 231 274 327
#     4  10  21  37  58  83 111 147 191 235 274 327
#
# _framework density 26.631699999999999
#
# number of rings (size 3 to 8) (size 9 to 14) (size 15 to 20)
#    0.000    1.750    2.500    3.000    0.000    2.000 
#    0.000    0.000    0.000   34.500    0.000    0.000 
#    0.000    0.000    0.000    0.000    0.000    0.000 
#
# Total GULP energy -178762.742754 kJ/mol
# GULP energy per Si atom -5586.335711 kJ/mol
# Density = 2.657109 g / cm^3
# Si number density = 26.631700 Si / 1000 Ang^3
#
#
#
# Elastic Constant Matrix: (Units=GPa)
#
#
# Indices 1 2 3 4 5 6 
#
# 1 259.1605 46.1194 101.0377 0.0000 0.0000 0.0000
# 2 46.1194 74.4504 42.5409 0.0000 0.0000 0.0000
# 3 101.0377 42.5409 230.6747 0.0000 0.0000 0.0000
# 4 0.0000 0.0000 0.0000 21.1390 0.0000 0.0000
# 5 0.0000 0.0000 0.0000 0.0000 344.9476 0.0000
# 6 0.0000 0.0000 0.0000 0.0000 0.0000 10.5162
#
#
#
# Elastic Compliance Matrix: (Units=1/GPa)
#
#
# Indices 1 2 3 4 5 6 
#
# 1 0.004913 -0.002027 -0.001778 0.000000 0.000000 0.000000
# 2 -0.002027 0.015850 -0.002035 0.000000 0.000000 0.000000
# 3 -0.001778 -0.002035 0.005489 0.000000 0.000000 0.000000
# 4 0.000000 0.000000 0.000000 0.047306 0.000000 0.000000
# 5 0.000000 0.000000 0.000000 0.000000 0.002899 0.000000
# 6 0.000000 0.000000 0.000000 0.000000 0.000000 0.095091
#
#
# Mechanical properties :
#
#
# Convention : Reuss Voigt Hill
#
# Bulk Modulus (GPa) = 68.62687 104.85349 86.74018
# Shear Modulus (GPa) = 26.58359 100.29306 63.43833
#
# Velocity S-wave (km/s) = 3.16285 6.14337 4.88593
# Velocity P-wave (km/s) = 6.25803 9.47515 8.02937
#
# Compressibility (1/GPa) = 0.01457155
#
# Stress axis : x y z
#
# Youngs Moduli (GPa) = 203.56223 63.08959 182.17740
#
# Poissons Ratio (x) = 0.12790 0.32389
# Poissons Ratio (y) = 0.41267 0.37076
# Poissons Ratio (z) = 0.36190 0.12840
#
# Static dielectric constant tensor:
#      x y z
#    x 2.035910 0.000000 0.000000 
#    y 0.000000 2.181910 0.000000 
#    z 0.000000 0.000000 2.220700 
# 
# From -- ./inp_files/4139.got.cif
#   From: 2010.05.17/outbox.cif.g08.bks.cpg/sg30_3_cif.got.tgz:4139.got - 2010.06.03 17:03:02.
