data_PCOD9341412
_publ_section_title
;
Structure prediction by ZEFSAII (Michael W. Deem and Ramdas Pophale) SiO2 
 PCOD9341412
Probable space group: P C A 21
;
_chemical_formula_sum "Si O2"
_cell_formula_units_Z 32
_cell_length_a 20.934858
_cell_length_b 8.795447
_cell_length_c 7.084821
_cell_angle_alpha 90.000000
_cell_angle_beta 90.000000
_cell_angle_gamma 90.000000
_cell_volume 1304.538250
_symmetry_space_group_name_H-M "P C A 21"
_symmetry_group_IT_number 29
_symmetry_cell_setting 'orthorhombic'
loop_
_space_group_symop_operation_xyz
x,y,z
-x,-y,1/2+z
1/2-x,y,1/2+z
1/2+x,-y,z
loop_
_atom_site_type_symbol
_atom_site_label
_atom_site_fract_x
_atom_site_fract_y
_atom_site_fract_z
Si Si1 0.246083 0.819877 0.299540
Si Si2 0.612671 0.849497 0.411883
Si Si3 0.758114 0.949511 0.052530
Si Si4 0.602318 0.184679 0.252299
Si Si5 0.821978 0.479251 0.266747
Si Si6 0.450636 0.599251 0.060887
Si Si7 0.190202 0.351602 0.134830
Si Si8 0.015403 0.706307 0.954488
O O1 0.247505 0.011684 0.298033
O O2 0.249618 0.861388 0.046955
O O3 0.173847 0.760315 0.293877
O O4 0.299675 0.693217 0.292489
O O5 0.641073 0.705299 0.295056
O O6 0.546598 0.804349 0.505447
O O7 0.668439 0.897130 0.554471
O O8 0.601478 0.004113 0.291464
O O9 0.711344 0.807870 0.044712
O O10 0.559223 0.286992 0.388173
O O11 0.577449 0.221507 0.046391
O O12 0.883036 0.474996 0.129564
O O13 0.839846 0.547761 0.470140
O O14 0.756722 0.567619 0.201397
O O15 0.476456 0.699698 0.231824
O O16 0.499708 0.464977 0.016863
#
# Coordination Sequence:
#
# PCOD9341412 Si02
#       8
#     4   4   4   4   4   4   4   4
#     4  11  24  43  72 107 146 179 243 304 373 454
#     4  11  26  46  74 107 149 192 253 307 362 461
#     4  11  20  45  67 102 144 187 225 304 373 434
#     4  11  26  52  75 106 149 191 247 312 370 445
#     4  12  26  40  73 113 143 193 239 307 380 440
#     4  12  28  50  74 106 145 199 251 307 370 439
#     4  12  23  42  71 109 151 183 241 301 380 446
#     4  12  29  50  76 102 147 202 253 306 360 443
#
# _framework density 24.529752999999999
#
# number of rings (size 3 to 8) (size 9 to 14) (size 15 to 20)
#    0.000    0.500    5.000    3.750    8.750    0.000 
#    0.000    0.000    0.000    0.000    0.000    0.000 
#    0.000    0.000    0.000    0.000    0.000    0.000 
#
# Total GULP energy -179048.199994 kJ/mol
# GULP energy per Si atom -5595.256250 kJ/mol
# Density = 2.447392 g / cm^3
# Si number density = 24.529753 Si / 1000 Ang^3
#
#
#
# Elastic Constant Matrix: (Units=GPa)
#
#
# Indices 1 2 3 4 5 6 
#
# 1 68.3310 15.7043 2.8192 0.0000 0.0000 0.0000
# 2 15.7043 83.1430 31.4410 0.0000 0.0000 0.0000
# 3 2.8192 31.4410 80.7471 0.0000 0.0000 0.0000
# 4 0.0000 0.0000 0.0000 43.5696 0.0000 0.0000
# 5 0.0000 0.0000 0.0000 0.0000 39.5852 0.0000
# 6 0.0000 0.0000 0.0000 0.0000 0.0000 38.1551
#
#
#
# Elastic Compliance Matrix: (Units=1/GPa)
#
#
# Indices 1 2 3 4 5 6 
#
# 1 0.015332 -0.003159 0.000695 0.000000 0.000000 0.000000
# 2 -0.003159 0.014755 -0.005635 0.000000 0.000000 0.000000
# 3 0.000695 -0.005635 0.014554 0.000000 0.000000 0.000000
# 4 0.000000 0.000000 0.000000 0.022952 0.000000 0.000000
# 5 0.000000 0.000000 0.000000 0.000000 0.025262 0.000000
# 6 0.000000 0.000000 0.000000 0.000000 0.000000 0.026209
#
#
# Mechanical properties :
#
#
# Convention : Reuss Voigt Hill
#
# Bulk Modulus (GPa) = 35.15783 36.90555 36.03169
# Shear Modulus (GPa) = 34.54407 36.41240 35.47824
#
# Velocity S-wave (km/s) = 3.75674 3.85699 3.80720
# Velocity P-wave (km/s) = 5.76032 5.90873 5.83500
#
# Compressibility (1/GPa) = 0.02844316
#
# Stress axis : x y z
#
# Youngs Moduli (GPa) = 65.22344 67.77383 68.70865
#
# Poissons Ratio (x) = 0.21407 -0.04772
# Poissons Ratio (y) = 0.20601 0.38717
# Poissons Ratio (z) = -0.04530 0.38190
#
# Static dielectric constant tensor:
#      x y z
#    x 1.847100 0.000000 0.000000 
#    y 0.000000 1.880730 0.000000 
#    z 0.000000 0.000000 2.413090 
# 
# From -- ./inp_files/2332.got.cif
#   From: 2010.05.17/outbox.cif.g08.bks.cpg/sg29_2_cif.got.tgz:2332.got - 2010.06.04 01:19:37.
