data_PCOD9341702
_publ_section_title
;
Structure prediction by ZEFSAII (Michael W. Deem and Ramdas Pophale) SiO2 
 PCOD9341702
Probable space group: P C A 21
;
_chemical_formula_sum "Si O2"
_cell_formula_units_Z 32
_cell_length_a 8.962548
_cell_length_b 11.622521
_cell_length_c 14.100167
_cell_angle_alpha 90.000000
_cell_angle_beta 90.000000
_cell_angle_gamma 90.000000
_cell_volume 1468.777769
_symmetry_space_group_name_H-M "P C A 21"
_symmetry_group_IT_number 29
_symmetry_cell_setting 'orthorhombic'
loop_
_space_group_symop_operation_xyz
x,y,z
-x,-y,1/2+z
1/2-x,y,1/2+z
1/2+x,-y,z
loop_
_atom_site_type_symbol
_atom_site_label
_atom_site_fract_x
_atom_site_fract_y
_atom_site_fract_z
Si Si1 0.586072 0.661192 0.672170
Si Si2 0.748577 0.107982 0.907146
Si Si3 0.290918 0.113633 0.664332
Si Si4 0.399762 0.124241 0.447922
Si Si5 0.384872 0.881398 0.214625
Si Si6 0.131759 0.512042 0.496584
Si Si7 0.140555 0.381806 0.884730
Si Si8 0.711333 0.265013 0.075591
O O1 0.701461 0.767655 0.674545
O O2 0.619361 0.571423 0.587516
O O3 0.592117 0.604236 0.775839
O O4 0.425133 0.712886 0.645714
O O5 0.700911 0.161816 0.807786
O O6 0.924248 0.112117 0.927539
O O7 0.688288 0.979131 0.899397
O O8 0.669574 0.173961 0.993854
O O9 0.356653 0.111571 0.557855
O O10 0.438574 0.107053 0.729317
O O11 0.185757 0.003269 0.681506
O O12 0.351385 0.246951 0.408068
O O13 0.348043 0.789383 0.133374
O O14 0.204954 0.441953 0.410478
O O15 0.235302 0.618952 0.525797
O O16 0.978065 0.564230 0.458229
#
# Coordination Sequence:
#
# PCOD9341702 Si02
#       8
#     4   4   4   4   4   4   4   4
#     4  12  29  47  79 105 149 193 255 308 377 447
#     4  12  26  43  73 104 149 195 237 300 370 447
#     4  12  23  47  72 110 148 195 242 315 371 449
#     4  12  23  46  71 106 149 187 241 304 369 437
#     4  12  25  44  73 106 153 192 248 298 380 445
#     4  12  27  50  72 105 147 192 249 311 365 437
#     4  12  27  51  75 108 144 196 252 311 371 444
#     4  12  26  46  71 106 145 194 238 303 369 442
#
# _framework density 21.786822000000001
#
# number of rings (size 3 to 8) (size 9 to 14) (size 15 to 20)
#    0.000    0.000    6.250    3.000    3.500    1.000 
#    0.000    0.000    0.000    0.000    0.000    0.000 
#    0.000    0.000    0.000    0.000    0.000    0.000 
#
# Total GULP energy -179200.400868 kJ/mol
# GULP energy per Si atom -5600.012527 kJ/mol
# Density = 2.173723 g / cm^3
# Si number density = 21.786822 Si / 1000 Ang^3
#
#
#
# Elastic Constant Matrix: (Units=GPa)
#
#
# Indices 1 2 3 4 5 6 
#
# 1 57.8545 23.8545 -10.3270 0.0000 0.0000 0.0000
# 2 23.8545 99.7153 9.3180 0.0000 0.0000 0.0000
# 3 -10.3270 9.3180 85.7691 0.0000 0.0000 0.0000
# 4 0.0000 0.0000 0.0000 19.3843 0.0000 0.0000
# 5 0.0000 0.0000 0.0000 0.0000 31.7566 0.0000
# 6 0.0000 0.0000 0.0000 0.0000 0.0000 30.3343
#
#
#
# Elastic Compliance Matrix: (Units=1/GPa)
#
#
# Indices 1 2 3 4 5 6 
#
# 1 0.019884 -0.005032 0.002941 0.000000 0.000000 0.000000
# 2 -0.005032 0.011405 -0.001845 0.000000 0.000000 0.000000
# 3 0.002941 -0.001845 0.012214 0.000000 0.000000 0.000000
# 4 0.000000 0.000000 0.000000 0.051588 0.000000 0.000000
# 5 0.000000 0.000000 0.000000 0.000000 0.031490 0.000000
# 6 0.000000 0.000000 0.000000 0.000000 0.000000 0.032966
#
#
# Mechanical properties :
#
#
# Convention : Reuss Voigt Hill
#
# Bulk Modulus (GPa) = 28.06521 32.11442 30.08982
# Shear Modulus (GPa) = 27.88705 30.99461 29.44083
#
# Velocity S-wave (km/s) = 3.58158 3.77587 3.68001
# Velocity P-wave (km/s) = 5.47845 5.81222 5.64780
#
# Compressibility (1/GPa) = 0.03563131
#
# Stress axis : x y z
#
# Youngs Moduli (GPa) = 50.29094 87.68356 81.87516
#
# Poissons Ratio (x) = 0.44119 -0.24078
# Poissons Ratio (y) = 0.25305 0.15105
# Poissons Ratio (z) = -0.14790 0.16176
#
# Static dielectric constant tensor:
#      x y z
#    x 1.780570 0.000000 0.000000 
#    y 0.000000 1.771310 0.000000 
#    z 0.000000 0.000000 1.808620 
# 
# From -- ./inp_files/4313.got.cif
#   From: 2010.05.17/outbox.cif.g08.bks.cpg/sg29_3_cif.got.tgz:4313.got - 2010.06.04 01:19:37.
