data_PCOD9341664
_publ_section_title
;
Structure prediction by ZEFSAII (Michael W. Deem and Ramdas Pophale) SiO2 
 PCOD9341664
Probable space group: P C A 21
;
_chemical_formula_sum "Si O2"
_cell_formula_units_Z 28
_cell_length_a 9.204552
_cell_length_b 4.851252
_cell_length_c 23.484956
_cell_angle_alpha 90.000000
_cell_angle_beta 90.000000
_cell_angle_gamma 90.000000
_cell_volume 1048.687862
_symmetry_space_group_name_H-M "P C A 21"
_symmetry_group_IT_number 29
_symmetry_cell_setting 'orthorhombic'
loop_
_space_group_symop_operation_xyz
x,y,z
-x,-y,1/2+z
1/2-x,y,1/2+z
1/2+x,-y,z
loop_
_atom_site_type_symbol
_atom_site_label
_atom_site_fract_x
_atom_site_fract_y
_atom_site_fract_z
Si Si1 0.758117 0.679037 0.111390
Si Si2 0.773164 0.186629 0.535093
Si Si3 0.953276 0.827907 0.963182
Si Si4 0.706807 0.514661 0.363084
Si Si5 0.538053 0.812409 0.262702
Si Si6 0.964886 0.852415 0.359507
Si Si7 0.033895 0.679622 0.185678
O O1 0.691889 0.951479 0.082520
O O2 0.901117 0.764535 0.145616
O O3 0.652038 0.499026 0.151287
O O4 0.796781 0.458145 0.062391
O O5 0.656587 0.034735 0.494870
O O6 0.923831 0.280249 0.506069
O O7 0.858731 0.628094 0.922784
O O8 0.053322 0.992086 0.917974
O O9 0.649556 0.677692 0.307471
O O10 0.876234 0.571279 0.363227
O O11 0.635837 0.218121 0.356682
O O12 0.474280 0.551202 0.229698
O O13 0.428582 0.976082 0.303767
O O14 0.590795 0.050147 0.218959
#
# Coordination Sequence:
#
# PCOD9341664 Si02
#       7
#     4   4   4   4   4   4   4
#     4  12  28  48  72 106 140 188 254 302 354 428
#     4  12  26  48  74 104 144 192 242 306 362 424
#     4  11  26  43  74 108 146 195 236 299 372 430
#     4  11  26  46  73 116 149 192 242 298 358 463
#     4  11  26  45  76 108 146 189 236 295 370 428
#     4  11  26  46  73 116 149 192 242 298 358 463
#     4  12  26  48  74 104 144 192 242 306 362 424
#
# _framework density 26.700033000000001
#
# number of rings (size 3 to 8) (size 9 to 14) (size 15 to 20)
#    0.000    0.571    2.857    3.429   10.000    1.143 
#    0.000    0.000    0.000    0.000    0.000    0.000 
#    0.000    0.000    0.000    0.000    0.000    0.000 
#
# Total GULP energy -156953.492338 kJ/mol
# GULP energy per Si atom -5605.481869 kJ/mol
# Density = 2.663926 g / cm^3
# Si number density = 26.700033 Si / 1000 Ang^3
#
#
#
# Elastic Constant Matrix: (Units=GPa)
#
#
# Indices 1 2 3 4 5 6 
#
# 1 80.9432 -10.4942 31.5684 0.0000 0.0000 0.0000
# 2 -10.4942 114.8107 32.6922 0.0000 0.0000 0.0000
# 3 31.5684 32.6922 119.4728 0.0000 0.0000 0.0000
# 4 0.0000 0.0000 0.0000 18.7957 0.0000 0.0000
# 5 0.0000 0.0000 0.0000 0.0000 25.9394 0.0000
# 6 0.0000 0.0000 0.0000 0.0000 0.0000 34.4789
#
#
#
# Elastic Compliance Matrix: (Units=1/GPa)
#
#
# Indices 1 2 3 4 5 6 
#
# 1 0.014463 0.002614 -0.004537 0.000000 0.000000 0.000000
# 2 0.002614 0.009918 -0.003405 0.000000 0.000000 0.000000
# 3 -0.004537 -0.003405 0.010500 0.000000 0.000000 0.000000
# 4 0.000000 0.000000 0.000000 0.053204 0.000000 0.000000
# 5 0.000000 0.000000 0.000000 0.000000 0.038551 0.000000
# 6 0.000000 0.000000 0.000000 0.000000 0.000000 0.029003
#
#
# Mechanical properties :
#
#
# Convention : Reuss Voigt Hill
#
# Bulk Modulus (GPa) = 41.27762 46.97329 44.12546
# Shear Modulus (GPa) = 28.67463 33.27349 30.97406
#
# Velocity S-wave (km/s) = 3.28068 3.53398 3.40968
# Velocity P-wave (km/s) = 5.46295 5.85518 5.66246
#
# Compressibility (1/GPa) = 0.02422620
#
# Stress axis : x y z
#
# Youngs Moduli (GPa) = 69.14419 100.82301 95.23378
#
# Poissons Ratio (x) = -0.26353 0.43204
# Poissons Ratio (y) = -0.18073 0.32424
# Poissons Ratio (z) = 0.31368 0.34327
#
# Static dielectric constant tensor:
#      x y z
#    x 2.028830 0.000000 0.000000 
#    y 0.000000 2.016640 0.000000 
#    z 0.000000 0.000000 2.154560 
# 
# From -- ./inp_files/5661.got.cif
#   From: 2010.05.17/outbox.cif.g08.bks.cpg/sg29_3_cif.got.tgz:5661.got - 2010.06.04 01:19:37.
