data_PCOD9341558
_publ_section_title
;
Structure prediction by ZEFSAII (Michael W. Deem and Ramdas Pophale) SiO2 
 PCOD9341558
Probable space group: P C A 21
;
_chemical_formula_sum "Si O2"
_cell_formula_units_Z 24
_cell_length_a 8.443850
_cell_length_b 13.091117
_cell_length_c 8.876639
_cell_angle_alpha 90.000000
_cell_angle_beta 90.000000
_cell_angle_gamma 90.000000
_cell_volume 981.218600
_symmetry_space_group_name_H-M "P C A 21"
_symmetry_group_IT_number 29
_symmetry_cell_setting 'orthorhombic'
loop_
_space_group_symop_operation_xyz
x,y,z
-x,-y,1/2+z
1/2-x,y,1/2+z
1/2+x,-y,z
loop_
_atom_site_type_symbol
_atom_site_label
_atom_site_fract_x
_atom_site_fract_y
_atom_site_fract_z
Si Si1 0.382047 0.117161 0.583000
Si Si2 0.137807 0.774501 0.198192
Si Si3 0.780636 0.090627 0.980214
Si Si4 0.371575 0.586797 0.167884
Si Si5 0.700184 0.745432 0.808600
Si Si6 0.154634 0.451308 0.951338
O O1 0.567219 0.093874 0.590484
O O2 0.357659 0.202182 0.459158
O O3 0.311567 0.171495 0.729567
O O4 0.296264 0.018297 0.512421
O O5 0.160919 0.868480 0.317879
O O6 0.156888 0.825220 0.035985
O O7 0.273390 0.688579 0.212066
O O8 0.962045 0.729652 0.214463
O O9 0.254856 0.518628 0.065688
O O10 0.411623 0.523798 0.318715
O O11 0.519078 0.601019 0.054565
O O12 0.756320 0.635011 0.863445
#
# Coordination Sequence:
#
# PCOD9341558 Si02
#       6
#     4   4   4   4   4   4
#     4  11  24  42  66  98 133 173 224 279 344 419
#     4  11  24  44  67  95 133 176 226 280 344 411
#     4  11  24  42  67  97 132 175 224 281 345 417
#     4  12  25  45  71 103 143 188 239 298 359 428
#     4  11  24  43  65  96 133 175 225 281 344 417
#     4  12  25  44  70 103 142 187 238 295 360 428
#
# _framework density 24.459381
#
# number of rings (size 3 to 8) (size 9 to 14) (size 15 to 20)
#    0.000    0.667    0.000    9.000    0.000    6.667 
#    0.000    0.000    0.000    0.000    0.000    0.000 
#    0.000    0.000    0.000    0.000    0.000    0.000 
#
# Total GULP energy -134259.572951 kJ/mol
# GULP energy per Si atom -5594.148873 kJ/mol
# Density = 2.440371 g / cm^3
# Si number density = 24.459381 Si / 1000 Ang^3
#
#
#
# Elastic Constant Matrix: (Units=GPa)
#
#
# Indices 1 2 3 4 5 6 
#
# 1 62.9713 40.6665 28.3975 0.0000 0.0000 0.0000
# 2 40.6665 135.9227 15.2610 0.0000 0.0000 0.0000
# 3 28.3975 15.2610 69.2817 0.0000 0.0000 0.0000
# 4 0.0000 0.0000 0.0000 38.1047 0.0000 0.0000
# 5 0.0000 0.0000 0.0000 0.0000 54.6263 0.0000
# 6 0.0000 0.0000 0.0000 0.0000 0.0000 29.8055
#
#
#
# Elastic Compliance Matrix: (Units=1/GPa)
#
#
# Indices 1 2 3 4 5 6 
#
# 1 0.023586 -0.006123 -0.008319 0.000000 0.000000 0.000000
# 2 -0.006123 0.009133 0.000498 0.000000 0.000000 0.000000
# 3 -0.008319 0.000498 0.017734 0.000000 0.000000 0.000000
# 4 0.000000 0.000000 0.000000 0.026243 0.000000 0.000000
# 5 0.000000 0.000000 0.000000 0.000000 0.018306 0.000000
# 6 0.000000 0.000000 0.000000 0.000000 0.000000 0.033551
#
#
# Mechanical properties :
#
#
# Convention : Reuss Voigt Hill
#
# Bulk Modulus (GPa) = 44.31544 48.53620 46.42582
# Shear Modulus (GPa) = 30.49489 36.76401 33.62945
#
# Velocity S-wave (km/s) = 3.53477 3.88114 3.71200
# Velocity P-wave (km/s) = 5.90058 6.32226 6.11506
#
# Compressibility (1/GPa) = 0.02256550
#
# Stress axis : x y z
#
# Youngs Moduli (GPa) = 42.39881 109.49275 56.38916
#
# Poissons Ratio (x) = 0.67037 0.46909
# Poissons Ratio (y) = 0.25959 -0.02807
# Poissons Ratio (z) = 0.35270 -0.05450
#
# Static dielectric constant tensor:
#      x y z
#    x 1.930400 0.000000 0.000000 
#    y 0.000000 2.017850 0.000000 
#    z 0.000000 0.000000 1.961890 
# 
# From -- ./inp_files/1128.got.cif
#   From: 2010.05.17/outbox.cif.g08.bks.cpg/sg29_1_cif.got.tgz:1128.got - 2010.06.04 01:19:37.
