data_PCOD9341348
_publ_section_title
;
Structure prediction by ZEFSAII (Michael W. Deem and Ramdas Pophale) SiO2 
 PCOD9341348
Probable space group: P C A 21
;
_chemical_formula_sum "Si O2"
_cell_formula_units_Z 28
_cell_length_a 10.409732
_cell_length_b 9.337303
_cell_length_c 10.803153
_cell_angle_alpha 90.000000
_cell_angle_beta 90.000000
_cell_angle_gamma 90.000000
_cell_volume 1050.053744
_symmetry_space_group_name_H-M "P C A 21"
_symmetry_group_IT_number 29
_symmetry_cell_setting 'orthorhombic'
loop_
_space_group_symop_operation_xyz
x,y,z
-x,-y,1/2+z
1/2-x,y,1/2+z
1/2+x,-y,z
loop_
_atom_site_type_symbol
_atom_site_label
_atom_site_fract_x
_atom_site_fract_y
_atom_site_fract_z
Si Si1 0.080709 0.541406 0.243360
Si Si2 0.684293 0.951884 0.541592
Si Si3 0.060977 0.604293 0.519496
Si Si4 0.754723 0.222681 0.169312
Si Si5 0.410980 0.144201 0.398270
Si Si6 0.503824 0.910553 0.227993
Si Si7 0.746936 0.714230 0.698443
O O1 0.055423 0.520649 0.389537
O O2 0.135341 0.701517 0.230199
O O3 0.203378 0.443938 0.207488
O O4 0.982223 0.491346 0.136587
O O5 0.770483 0.061774 0.625298
O O6 0.548641 0.007232 0.601772
O O7 0.781004 0.946290 0.426058
O O8 0.690892 0.783553 0.574308
O O9 0.195747 0.681540 0.552900
O O10 0.969490 0.744644 0.497906
O O11 0.883915 0.200079 0.250382
O O12 0.363268 0.255209 0.295462
O O13 0.506600 0.027533 0.338151
O O14 0.628894 0.813079 0.228143
#
# Coordination Sequence:
#
# PCOD9341348 Si02
#       7
#     4   4   4   4   4   4   4
#     4  12  28  49  77 109 159 206 258 316 390 473
#     4   9  21  42  66 100 140 190 246 317 370 446
#     4  12  29  50  76 112 159 205 261 318 392 466
#     4  10  25  45  72 107 153 196 256 314 389 456
#     4  11  24  40  77 105 147 194 259 317 388 454
#     4   9  22  40  69 103 146 186 248 318 383 439
#     4  11  23  44  69 104 150 191 254 308 380 464
#
# _framework density 26.665300999999999
#
# number of rings (size 3 to 8) (size 9 to 14) (size 15 to 20)
#    0.857    0.571    2.857    0.000   10.000    1.143 
#    2.571    0.000    0.000    0.000    0.000    0.000 
#    0.000    0.000    0.000    0.000    0.000    0.000 
#
# Total GULP energy -156048.031771 kJ/mol
# GULP energy per Si atom -5573.143992 kJ/mol
# Density = 2.660461 g / cm^3
# Si number density = 26.665301 Si / 1000 Ang^3
#
#
#
# Elastic Constant Matrix: (Units=GPa)
#
#
# Indices 1 2 3 4 5 6 
#
# 1 119.1017 18.4553 13.8672 0.0000 0.0000 0.0000
# 2 18.4553 95.5296 24.6259 0.0000 0.0000 0.0000
# 3 13.8672 24.6259 110.3368 0.0000 0.0000 0.0000
# 4 0.0000 0.0000 0.0000 44.8588 0.0000 0.0000
# 5 0.0000 0.0000 0.0000 0.0000 24.6432 0.0000
# 6 0.0000 0.0000 0.0000 0.0000 0.0000 39.3516
#
#
#
# Elastic Compliance Matrix: (Units=1/GPa)
#
#
# Indices 1 2 3 4 5 6 
#
# 1 0.008715 -0.001487 -0.000764 0.000000 0.000000 0.000000
# 2 -0.001487 0.011361 -0.002349 0.000000 0.000000 0.000000
# 3 -0.000764 -0.002349 0.009683 0.000000 0.000000 0.000000
# 4 0.000000 0.000000 0.000000 0.022292 0.000000 0.000000
# 5 0.000000 0.000000 0.000000 0.000000 0.040579 0.000000
# 6 0.000000 0.000000 0.000000 0.000000 0.000000 0.025412
#
#
# Mechanical properties :
#
#
# Convention : Reuss Voigt Hill
#
# Bulk Modulus (GPa) = 48.63519 48.76276 48.69898
# Shear Modulus (GPa) = 37.28709 39.63870 38.46290
#
# Velocity S-wave (km/s) = 3.74349 3.85973 3.80206
# Velocity P-wave (km/s) = 6.07978 6.17981 6.13000
#
# Compressibility (1/GPa) = 0.02056124
#
# Stress axis : x y z
#
# Youngs Moduli (GPa) = 114.73832 88.02299 103.27042
#
# Poissons Ratio (x) = 0.13088 0.07885
# Poissons Ratio (y) = 0.17061 0.24255
# Poissons Ratio (z) = 0.08760 0.20674
#
# Static dielectric constant tensor:
#      x y z
#    x 2.171070 0.000000 0.000000 
#    y 0.000000 2.038690 0.000000 
#    z 0.000000 0.000000 2.241330 
# 
# From -- ./inp_files/3150.got.cif
#   From: 2010.05.17/outbox.cif.g08.bks.cpg/sg29_2_cif.got.tgz:3150.got - 2010.06.04 01:19:37.
