data_PCOD9341147
_publ_section_title
;
Structure prediction by ZEFSAII (Michael W. Deem and Ramdas Pophale) SiO2 
 PCOD9341147
Probable space group: P C A 21
;
_chemical_formula_sum "Si O2"
_cell_formula_units_Z 24
_cell_length_a 13.406126
_cell_length_b 5.059793
_cell_length_c 14.661196
_cell_angle_alpha 90.000000
_cell_angle_beta 90.000000
_cell_angle_gamma 90.000000
_cell_volume 994.501509
_symmetry_space_group_name_H-M "P C A 21"
_symmetry_group_IT_number 29
_symmetry_cell_setting 'orthorhombic'
loop_
_space_group_symop_operation_xyz
x,y,z
-x,-y,1/2+z
1/2-x,y,1/2+z
1/2+x,-y,z
loop_
_atom_site_type_symbol
_atom_site_label
_atom_site_fract_x
_atom_site_fract_y
_atom_site_fract_z
Si Si1 0.279295 0.205335 0.364720
Si Si2 0.035992 0.765845 0.095165
Si Si3 0.220704 0.794662 0.207481
Si Si4 0.910280 0.445145 0.234502
Si Si5 0.410282 0.445141 0.837698
Si Si6 0.464007 0.234161 0.477037
O O1 0.342836 0.436461 0.315385
O O2 0.171649 0.300826 0.399385
O O3 0.359603 0.117174 0.438604
O O4 0.250000 0.999995 0.286101
O O5 0.140396 0.882832 0.133599
O O6 0.963615 0.672510 0.176502
O O7 0.054365 0.500004 0.036101
O O8 0.990055 0.000004 0.036101
O O9 0.328349 0.699169 0.172815
O O10 0.157162 0.563535 0.256814
O O11 0.999998 0.290752 0.286100
O O12 0.463617 0.672506 0.895698
#
# Coordination Sequence:
#
# PCOD9341147 Si02
#       6
#     4   4   4   4   4   4
#     4  10  23  43  74  97 136 187 240 282 338 423
#     4  11  27  46  68 106 147 179 230 294 358 412
#     4  10  23  43  74  97 136 187 240 282 338 423
#     4   9  22  43  69  99 131 187 234 285 342 421
#     4   9  22  43  69  99 131 187 234 285 342 421
#     4  11  27  46  68 106 147 179 230 294 358 412
#
# _framework density 24.132693
#
# number of rings (size 3 to 8) (size 9 to 14) (size 15 to 20)
#    0.000    2.000    0.000    0.000   18.667    2.667 
#    0.000    0.000    0.000    0.000    0.000    0.000 
#    0.000    0.000    0.000    0.000    0.000    0.000 
#
# Total GULP energy -133963.283476 kJ/mol
# GULP energy per Si atom -5581.803478 kJ/mol
# Density = 2.407777 g / cm^3
# Si number density = 24.132693 Si / 1000 Ang^3
#
#
#
# Elastic Constant Matrix: (Units=GPa)
#
#
# Indices 1 2 3 4 5 6 
#
# 1 182.8041 30.4936 38.2110 0.0000 0.0000 0.0000
# 2 30.4936 71.5731 13.4846 0.0000 0.0000 0.0000
# 3 38.2110 13.4846 65.6691 0.0000 0.0000 0.0000
# 4 0.0000 0.0000 0.0000 47.0708 0.0000 0.0000
# 5 0.0000 0.0000 0.0000 0.0000 32.4536 0.0000
# 6 0.0000 0.0000 0.0000 0.0000 0.0000 17.1875
#
#
#
# Elastic Compliance Matrix: (Units=1/GPa)
#
#
# Indices 1 2 3 4 5 6 
#
# 1 0.006531 -0.002150 -0.003359 0.000000 0.000000 0.000000
# 2 -0.002150 0.015242 -0.001879 0.000000 0.000000 0.000000
# 3 -0.003359 -0.001879 0.017568 0.000000 0.000000 0.000000
# 4 0.000000 0.000000 0.000000 0.021245 0.000000 0.000000
# 5 0.000000 0.000000 0.000000 0.000000 0.030813 0.000000
# 6 0.000000 0.000000 0.000000 0.000000 0.000000 0.058182
#
#
# Mechanical properties :
#
#
# Convention : Reuss Voigt Hill
#
# Bulk Modulus (GPa) = 40.70680 53.82497 47.26589
# Shear Modulus (GPa) = 28.97818 35.19952 32.08885
#
# Velocity S-wave (km/s) = 3.46899 3.82328 3.65044
# Velocity P-wave (km/s) = 5.74019 6.46855 6.11522
#
# Compressibility (1/GPa) = 0.02456592
#
# Stress axis : x y z
#
# Youngs Moduli (GPa) = 153.11569 65.60988 56.92151
#
# Poissons Ratio (x) = 0.14104 0.19119
# Poissons Ratio (y) = 0.32916 0.10695
# Poissons Ratio (z) = 0.51428 0.12327
#
# Static dielectric constant tensor:
#      x y z
#    x 2.006280 0.000000 0.000000 
#    y 0.000000 1.961370 0.000000 
#    z 0.000000 0.000000 2.175610 
# 
# From -- ./inp_files/4418.got.cif
#   From: 2010.05.17/outbox.cif.g08.bks.cpg/sg29_3_cif.got.tgz:4418.got - 2010.06.04 01:19:37.
