data_PCOD9341353
_publ_section_title
;
Structure prediction by ZEFSAII (Michael W. Deem and Ramdas Pophale) SiO2 
 PCOD9341353
Probable space group: P C A 21
;
_chemical_formula_sum "Si O2"
_cell_formula_units_Z 24
_cell_length_a 8.926100
_cell_length_b 10.031011
_cell_length_c 9.946508
_cell_angle_alpha 90.000000
_cell_angle_beta 90.000000
_cell_angle_gamma 90.000000
_cell_volume 890.588516
_symmetry_space_group_name_H-M "P C A 21"
_symmetry_group_IT_number 29
_symmetry_cell_setting 'orthorhombic'
loop_
_space_group_symop_operation_xyz
x,y,z
-x,-y,1/2+z
1/2-x,y,1/2+z
1/2+x,-y,z
loop_
_atom_site_type_symbol
_atom_site_label
_atom_site_fract_x
_atom_site_fract_y
_atom_site_fract_z
Si Si1 0.135494 0.710006 0.563100
Si Si2 0.428684 0.346201 0.916065
Si Si3 0.643958 0.054851 0.160975
Si Si4 0.925663 0.939112 0.909482
Si Si5 0.792495 0.792635 0.572527
Si Si6 0.783475 0.448212 0.327245
O O1 0.237515 0.837566 0.608265
O O2 0.177910 0.604317 0.680061
O O3 0.185072 0.652127 0.418764
O O4 0.957859 0.735638 0.563254
O O5 0.493876 0.205000 0.863347
O O6 0.343924 0.311683 0.055021
O O7 0.300125 0.410729 0.825344
O O8 0.563503 0.448467 0.913398
O O9 0.573898 0.064724 0.310621
O O10 0.514710 0.040499 0.049533
O O11 0.709977 0.905971 0.184628
O O12 0.759094 0.892957 0.952273
#
# Coordination Sequence:
#
# PCOD9341353 Si02
#       6
#     4   4   4   4   4   4
#     4  12  28  49  78 117 156 212 262 327 399 480
#     4  10  25  53  76 117 151 215 264 328 392 471
#     4  12  25  50  80 120 159 209 259 325 411 479
#     4  10  26  50  79 117 162 204 261 331 403 479
#     4  10  25  46  74 112 161 202 263 330 399 472
#     4  12  27  52  79 111 161 208 269 325 394 477
#
# _framework density 26.948471999999999
#
# number of rings (size 3 to 8) (size 9 to 14) (size 15 to 20)
#    1.000    0.000    1.667    3.000    4.667    5.333 
#    3.000    0.000    0.000    0.000    0.000    0.000 
#    0.000    0.000    0.000    0.000    0.000    0.000 
#
# Total GULP energy -133942.099959 kJ/mol
# GULP energy per Si atom -5580.920832 kJ/mol
# Density = 2.688714 g / cm^3
# Si number density = 26.948472 Si / 1000 Ang^3
#
#
#
# Elastic Constant Matrix: (Units=GPa)
#
#
# Indices 1 2 3 4 5 6 
#
# 1 117.0243 14.9309 23.4078 0.0000 0.0000 0.0000
# 2 14.9309 96.1615 24.7671 0.0000 0.0000 0.0000
# 3 23.4078 24.7671 102.9351 0.0000 0.0000 0.0000
# 4 0.0000 0.0000 0.0000 35.8905 0.0000 0.0000
# 5 0.0000 0.0000 0.0000 0.0000 33.8973 0.0000
# 6 0.0000 0.0000 0.0000 0.0000 0.0000 38.9435
#
#
#
# Elastic Compliance Matrix: (Units=1/GPa)
#
#
# Indices 1 2 3 4 5 6 
#
# 1 0.009030 -0.000931 -0.001829 0.000000 0.000000 0.000000
# 2 -0.000931 0.011182 -0.002479 0.000000 0.000000 0.000000
# 3 -0.001829 -0.002479 0.010727 0.000000 0.000000 0.000000
# 4 0.000000 0.000000 0.000000 0.027863 0.000000 0.000000
# 5 0.000000 0.000000 0.000000 0.000000 0.029501 0.000000
# 6 0.000000 0.000000 0.000000 0.000000 0.000000 0.025678
#
#
# Mechanical properties :
#
#
# Convention : Reuss Voigt Hill
#
# Bulk Modulus (GPa) = 48.87338 49.14809 49.01073
# Shear Modulus (GPa) = 38.08659 38.61392 38.35026
#
# Velocity S-wave (km/s) = 3.76348 3.78945 3.77649
# Velocity P-wave (km/s) = 6.08772 6.11751 6.10263
#
# Compressibility (1/GPa) = 0.02046104
#
# Stress axis : x y z
#
# Youngs Moduli (GPa) = 110.74268 89.42816 93.21994
#
# Poissons Ratio (x) = 0.08325 0.17054
# Poissons Ratio (y) = 0.10309 0.23108
# Poissons Ratio (z) = 0.20260 0.22168
#
# Static dielectric constant tensor:
#      x y z
#    x 2.180930 0.000000 0.000000 
#    y 0.000000 2.333280 0.000000 
#    z 0.000000 0.000000 2.353030 
# 
# From -- ./inp_files/2846.got.cif
#   From: 2010.05.17/outbox.cif.g08.bks.cpg/sg29_2_cif.got.tgz:2846.got - 2010.06.04 01:19:37.
