data_PCOD9341815
_publ_section_title
;
Structure prediction by ZEFSAII (Michael W. Deem and Ramdas Pophale) SiO2 
 PCOD9341815
Probable space group: P N C 2
;
_chemical_formula_sum "Si O2"
_cell_formula_units_Z 24
_cell_length_a 13.733178
_cell_length_b 12.944063
_cell_length_c 5.354206
_cell_angle_alpha 90.000000
_cell_angle_beta 90.000000
_cell_angle_gamma 90.000000
_cell_volume 951.780370
_symmetry_space_group_name_H-M "P N C 2"
_symmetry_group_IT_number 30
_symmetry_cell_setting 'orthorhombic'
loop_
_space_group_symop_operation_xyz
x,y,z
-x,-y,z
-x,1/2+y,1/2+z
x,1/2-y,1/2+z
loop_
_atom_site_type_symbol
_atom_site_label
_atom_site_fract_x
_atom_site_fract_y
_atom_site_fract_z
Si Si1 0.679580 0.877088 0.061270
Si Si2 0.055654 0.892862 0.900841
Si Si3 0.256256 0.818679 0.057455
Si Si4 0.240313 0.360666 0.059956
Si Si5 0.980752 0.878260 0.399698
Si Si6 0.533137 0.182085 0.974452
O O1 0.712832 0.754490 0.080405
O O2 0.709253 0.918881 0.329971
O O3 0.565171 0.881596 0.011367
O O4 0.738660 0.914274 0.821930
O O5 0.162642 0.889750 0.015320
O O6 0.990975 0.838378 0.116079
O O7 0.000000 0.000000 0.861458
O O8 0.057337 0.850573 0.618077
O O9 0.252882 0.765845 0.330765
O O10 0.362264 0.870207 0.018276
O O11 0.126662 0.356957 0.000723
O O12 0.000000 0.000000 0.358900
O O13 0.529454 0.268184 0.197288
#
# Coordination Sequence:
#
# PCOD9341815 Si02
#       6
#     4   4   4   4   4   4
#     4  10  17  30  48  78 111 136 164 220 280 332
#     4  10  21  40  57  76 109 159 195 225 274 341
#     4  10  21  35  55  87 117 142 183 238 284 327
#     4  10  18  30  48  76 105 139 178 214 269 322
#     4  10  21  37  55  74 103 151 192 227 261 319
#     4  10  16  30  51  75 115 142 168 214 281 339
#
# _framework density 25.215903000000001
#
# number of rings (size 3 to 8) (size 9 to 14) (size 15 to 20)
#    0.000    2.000    3.333    2.000    0.000    0.000 
#   18.000    0.000    0.000    0.000    0.000   28.000 
#    0.000    0.000    0.000    0.000    0.000    0.000 
#
# Total GULP energy -134091.403822 kJ/mol
# GULP energy per Si atom -5587.141826 kJ/mol
# Density = 2.515851 g / cm^3
# Si number density = 25.215903 Si / 1000 Ang^3
#
#
#
# Elastic Constant Matrix: (Units=GPa)
#
#
# Indices 1 2 3 4 5 6 
#
# 1 149.2878 15.4936 -30.9576 0.0000 0.0000 0.0000
# 2 15.4936 68.0662 -8.2097 0.0000 0.0000 0.0000
# 3 -30.9576 -8.2097 154.4433 0.0000 0.0000 0.0000
# 4 0.0000 0.0000 0.0000 12.8757 0.0000 0.0000
# 5 0.0000 0.0000 0.0000 0.0000 46.8848 0.0000
# 6 0.0000 0.0000 0.0000 0.0000 0.0000 28.6784
#
#
#
# Elastic Compliance Matrix: (Units=1/GPa)
#
#
# Indices 1 2 3 4 5 6 
#
# 1 0.007130 -0.001460 0.001352 0.000000 0.000000 0.000000
# 2 -0.001460 0.015085 0.000509 0.000000 0.000000 0.000000
# 3 0.001352 0.000509 0.006773 0.000000 0.000000 0.000000
# 4 0.000000 0.000000 0.000000 0.077665 0.000000 0.000000
# 5 0.000000 0.000000 0.000000 0.000000 0.021329 0.000000
# 6 0.000000 0.000000 0.000000 0.000000 0.000000 0.034869
#
#
# Mechanical properties :
#
#
# Convention : Reuss Voigt Hill
#
# Bulk Modulus (GPa) = 33.56812 36.05001 34.80906
# Shear Modulus (GPa) = 29.07304 44.05253 36.56278
#
# Velocity S-wave (km/s) = 3.39922 4.18426 3.81200
# Velocity P-wave (km/s) = 5.36166 6.13772 5.76277
#
# Compressibility (1/GPa) = 0.02979017
#
# Stress axis : x y z
#
# Youngs Moduli (GPa) = 140.24696 66.28959 147.64798
#
# Poissons Ratio (x) = 0.09678 -0.19957
# Poissons Ratio (y) = 0.20476 -0.07519
# Poissons Ratio (z) = -0.18956 -0.03376
#
# Static dielectric constant tensor:
#      x y z
#    x 1.953280 0.000000 0.000000 
#    y 0.000000 1.806740 0.000000 
#    z 0.000000 0.000000 2.047670 
# 
# From -- ./inp_files/740.got.cif
#   From: 2010.05.17/outbox.cif.g08.bks.cpg/sg30_1_cif.got.tgz:740.got - 2010.06.03 17:03:02.
