data_PCOD9341918
_publ_section_title
;
Structure prediction by ZEFSAII (Michael W. Deem and Ramdas Pophale) SiO2 
 PCOD9341918
Probable space group: P N C 2
;
_chemical_formula_sum "Si O2"
_cell_formula_units_Z 24
_cell_length_a 8.982926
_cell_length_b 8.531457
_cell_length_c 14.794931
_cell_angle_alpha 90.000000
_cell_angle_beta 90.000000
_cell_angle_gamma 90.000000
_cell_volume 1133.845739
_symmetry_space_group_name_H-M "P N C 2"
_symmetry_group_IT_number 30
_symmetry_cell_setting 'orthorhombic'
loop_
_space_group_symop_operation_xyz
x,y,z
-x,-y,z
-x,1/2+y,1/2+z
x,1/2-y,1/2+z
loop_
_atom_site_type_symbol
_atom_site_label
_atom_site_fract_x
_atom_site_fract_y
_atom_site_fract_z
Si Si1 0.791445 0.241193 0.943260
Si Si2 0.000000 0.000000 0.529641
Si Si3 0.099692 0.229408 0.665084
Si Si4 0.644208 0.914222 0.197857
Si Si5 0.774249 0.241352 0.233872
Si Si6 0.448850 0.675112 0.090056
Si Si7 0.000000 0.000000 0.027940
O O1 0.747101 0.257647 0.839837
O O2 0.910460 0.376341 0.970015
O O3 0.652544 0.261591 0.009373
O O4 0.874371 0.079833 0.966569
O O5 0.883546 0.917282 0.598152
O O6 0.235582 0.282961 0.728869
O O7 0.944658 0.210760 0.717523
O O8 0.068716 0.367120 0.592323
O O9 0.567782 0.812085 0.117052
O O10 0.500000 0.000000 0.243994
O O11 0.747202 0.068738 0.190858
O O12 0.654681 0.341839 0.179241
O O13 0.500000 0.500000 0.066969
#
# Coordination Sequence:
#
# PCOD9341918 Si02
#       7
#     4   2   4   4   4   4   2
#     4  11  24  42  67 102 136 172 231 285 342 408
#     4  10  22  36  66 100 126 176 222 286 350 376
#     4  11  19  40  67  95 128 175 230 279 334 402
#     4  10  21  37  65  92 125 182 219 265 347 409
#     4  11  23  42  68  98 134 176 235 284 332 417
#     4  11  23  45  65  96 141 178 224 287 347 413
#     4  10  18  40  64  94 128 170 212 282 334 388
#
# _framework density 21.166903000000001
#
# number of rings (size 3 to 8) (size 9 to 14) (size 15 to 20)
#    0.000    1.333    5.000    2.000    2.333    2.667 
#    0.000    4.167    0.000    0.000    0.000    0.000 
#    0.000    0.000    0.000    0.000    0.000    0.000 
#
# Total GULP energy -133644.436634 kJ/mol
# GULP energy per Si atom -5568.518193 kJ/mol
# Density = 2.111873 g / cm^3
# Si number density = 21.166903 Si / 1000 Ang^3
#
#
#
# Elastic Constant Matrix: (Units=GPa)
#
#
# Indices 1 2 3 4 5 6 
#
# 1 80.5398 7.0532 33.3221 0.0000 0.0000 0.0000
# 2 7.0532 76.7459 33.4819 0.0000 0.0000 0.0000
# 3 33.3221 33.4819 102.6946 0.0000 0.0000 0.0000
# 4 0.0000 0.0000 0.0000 11.4915 0.0000 0.0000
# 5 0.0000 0.0000 0.0000 0.0000 4.3272 0.0000
# 6 0.0000 0.0000 0.0000 0.0000 0.0000 47.7960
#
#
#
# Elastic Compliance Matrix: (Units=1/GPa)
#
#
# Indices 1 2 3 4 5 6 
#
# 1 0.014387 0.000833 -0.004940 0.000000 0.000000 0.000000
# 2 0.000833 0.015239 -0.005239 0.000000 0.000000 0.000000
# 3 -0.004940 -0.005239 0.013048 0.000000 0.000000 0.000000
# 4 0.000000 0.000000 0.000000 0.087021 0.000000 0.000000
# 5 0.000000 0.000000 0.000000 0.000000 0.231096 0.000000
# 6 0.000000 0.000000 0.000000 0.000000 0.000000 0.020922
#
#
# Mechanical properties :
#
#
# Convention : Reuss Voigt Hill
#
# Bulk Modulus (GPa) = 41.69580 45.29941 43.49761
# Shear Modulus (GPa) = 12.24294 25.13116 18.68705
#
# Velocity S-wave (km/s) = 2.40760 3.44944 2.97449
# Velocity P-wave (km/s) = 5.24119 6.10838 5.69133
#
# Compressibility (1/GPa) = 0.02398323
#
# Stress axis : x y z
#
# Youngs Moduli (GPa) = 69.50698 65.62142 76.63752
#
# Poissons Ratio (x) = -0.05465 0.37857
# Poissons Ratio (y) = -0.05789 0.40148
# Poissons Ratio (z) = 0.34335 0.34377
#
# Static dielectric constant tensor:
#      x y z
#    x 1.865140 0.000000 0.000000 
#    y 0.000000 1.816220 0.000000 
#    z 0.000000 0.000000 1.704230 
# 
# From -- ./inp_files/5055.got.cif
#   From: 2010.05.17/outbox.cif.g08.bks.cpg/sg30_3_cif.got.tgz:5055.got - 2010.06.03 17:03:02.
