data_PCOD9341157
_publ_section_title
;
Structure prediction by ZEFSAII (Michael W. Deem and Ramdas Pophale) SiO2 
 PCOD9341157
Probable space group: P C A 21
;
_chemical_formula_sum "Si O2"
_cell_formula_units_Z 28
_cell_length_a 10.991486
_cell_length_b 8.842875
_cell_length_c 12.056595
_cell_angle_alpha 90.000000
_cell_angle_beta 90.000000
_cell_angle_gamma 90.000000
_cell_volume 1171.856868
_symmetry_space_group_name_H-M "P C A 21"
_symmetry_group_IT_number 29
_symmetry_cell_setting 'orthorhombic'
loop_
_space_group_symop_operation_xyz
x,y,z
-x,-y,1/2+z
1/2-x,y,1/2+z
1/2+x,-y,z
loop_
_atom_site_type_symbol
_atom_site_label
_atom_site_fract_x
_atom_site_fract_y
_atom_site_fract_z
Si Si1 0.808990 0.804626 0.610270
Si Si2 0.316078 0.913256 0.021988
Si Si3 0.965718 0.811259 0.393135
Si Si4 0.982816 0.005774 0.198338
Si Si5 0.908246 0.277924 0.563612
Si Si6 0.274779 0.492580 0.729361
Si Si7 0.021915 0.535755 0.851259
O O1 0.899281 0.774591 0.507957
O O2 0.744855 0.656340 0.656532
O O3 0.719119 0.916752 0.547668
O O4 0.890253 0.899606 0.699566
O O5 0.198379 0.814900 0.003653
O O6 0.390833 0.881498 0.135388
O O7 0.406398 0.886231 0.922899
O O8 0.982763 0.645956 0.346457
O O9 0.917393 0.934213 0.305771
O O10 0.018662 0.856093 0.125856
O O11 0.839028 0.384613 0.650974
O O12 0.970706 0.383226 0.471098
O O13 0.153294 0.558330 0.788519
O O14 0.387587 0.427961 0.803333
#
# Coordination Sequence:
#
# PCOD9341157 Si02
#       7
#     4   4   4   4   4   4   4
#     4  10  24  42  67 105 137 191 241 313 360 440
#     4  10  24  45  69 100 145 193 245 312 366 442
#     4  11  22  44  70 102 141 194 247 299 372 444
#     4  10  23  44  68 101 141 189 246 306 369 437
#     4  11  25  46  71 106 148 191 251 305 369 448
#     4  12  27  46  75 109 151 195 250 307 374 439
#     4  12  27  45  76 111 145 203 242 310 372 440
#
# _framework density 23.893702000000001
#
# number of rings (size 3 to 8) (size 9 to 14) (size 15 to 20)
#    0.000    1.143    2.857    1.714    4.000    9.143 
#    0.000    0.000    0.000    0.000    0.000    0.000 
#    0.000    0.000    0.000    0.000    0.000    0.000 
#
# Total GULP energy -156125.173195 kJ/mol
# GULP energy per Si atom -5575.899043 kJ/mol
# Density = 2.383932 g / cm^3
# Si number density = 23.893702 Si / 1000 Ang^3
#
#
#
# Elastic Constant Matrix: (Units=GPa)
#
#
# Indices 1 2 3 4 5 6 
#
# 1 29.1865 6.9524 -7.9454 0.0000 0.0000 0.0000
# 2 6.9524 58.9571 -1.1300 0.0000 0.0000 0.0000
# 3 -7.9454 -1.1300 41.7550 0.0000 0.0000 0.0000
# 4 0.0000 0.0000 0.0000 41.1552 0.0000 0.0000
# 5 0.0000 0.0000 0.0000 0.0000 -129.7374 0.0000
# 6 0.0000 0.0000 0.0000 0.0000 0.0000 137.0567
#
#
#
# Elastic Compliance Matrix: (Units=1/GPa)
#
#
# Indices 1 2 3 4 5 6 
#
# 1 0.037169 -0.004250 0.006958 0.000000 0.000000 0.000000
# 2 -0.004250 0.017456 -0.000336 0.000000 0.000000 0.000000
# 3 0.006958 -0.000336 0.025264 0.000000 0.000000 0.000000
# 4 0.000000 0.000000 0.000000 0.024298 0.000000 0.000000
# 5 0.000000 0.000000 0.000000 0.000000 -0.007708 0.000000
# 6 0.000000 0.000000 0.000000 0.000000 0.000000 0.007296
#
#
# Mechanical properties :
#
#
# Convention : Reuss Voigt Hill
#
# Bulk Modulus (GPa) = 11.81575 13.96137 12.88856
# Shear Modulus (GPa) = 39.29488 18.49635 28.89561
#
# Velocity S-wave (km/s) = 4.05973 2.78530 3.48133
# Velocity P-wave (km/s) = 5.18952 4.02488 4.64385
#
# Compressibility (1/GPa) = 0.08463282
#
# Stress axis : x y z
#
# Youngs Moduli (GPa) = 26.90423 57.28631 39.58188
#
# Poissons Ratio (x) = 0.24345 -0.27540
# Poissons Ratio (y) = 0.11433 0.01331
# Poissons Ratio (z) = -0.18719 0.01926
#
# Static dielectric constant tensor:
#      x y z
#    x 2.286980 0.000000 0.000000 
#    y 0.000000 1.783190 0.000000 
#    z 0.000000 0.000000 2.154090 
# 
# From -- ./inp_files/3128.got.cif
#   From: 2010.05.17/outbox.cif.g08.bks.cpg/sg29_2_cif.got.tgz:3128.got - 2010.06.04 01:19:37.
