data_PCOD9341357
_publ_section_title
;
Structure prediction by ZEFSAII (Michael W. Deem and Ramdas Pophale) SiO2 
 PCOD9341357
Probable space group: P C A 21
;
_chemical_formula_sum "Si O2"
_cell_formula_units_Z 28
_cell_length_a 8.928920
_cell_length_b 10.932901
_cell_length_c 12.576671
_cell_angle_alpha 90.000000
_cell_angle_beta 90.000000
_cell_angle_gamma 90.000000
_cell_volume 1227.722026
_symmetry_space_group_name_H-M "P C A 21"
_symmetry_group_IT_number 29
_symmetry_cell_setting 'orthorhombic'
loop_
_space_group_symop_operation_xyz
x,y,z
-x,-y,1/2+z
1/2-x,y,1/2+z
1/2+x,-y,z
loop_
_atom_site_type_symbol
_atom_site_label
_atom_site_fract_x
_atom_site_fract_y
_atom_site_fract_z
Si Si1 0.188350 0.169443 0.086250
Si Si2 0.459756 0.698247 0.963770
Si Si3 0.197559 0.402040 0.222157
Si Si4 0.436279 0.546367 0.367426
Si Si5 0.814852 0.361991 0.582282
Si Si6 0.623781 0.166879 0.256560
Si Si7 0.597434 0.018242 0.667952
O O1 0.238784 0.272127 0.171546
O O2 0.316357 0.066446 0.080602
O O3 0.037473 0.098033 0.121129
O O4 0.124321 0.247240 0.987342
O O5 0.469691 0.560936 0.922188
O O6 0.380520 0.776577 0.872840
O O7 0.353729 0.687230 0.066369
O O8 0.312517 0.470792 0.300814
O O9 0.178335 0.501187 0.128165
O O10 0.042828 0.385373 0.285157
O O11 0.381554 0.631234 0.463662
O O12 0.891653 0.273818 0.667924
O O13 0.486095 0.074607 0.246249
O O14 0.775838 0.095793 0.227448
#
# Coordination Sequence:
#
# PCOD9341357 Si02
#       7
#     4   4   4   4   4   4   4
#     4  11  24  45  72  98 139 179 238 284 346 409
#     4  12  24  43  71 106 139 185 231 285 359 422
#     4  12  26  43  73 103 145 177 228 293 351 425
#     4  12  25  42  68 111 138 184 224 275 371 423
#     4  12  24  43  72 102 146 177 227 294 355 419
#     4  11  24  47  71  99 146 182 240 293 345 410
#     4  10  25  47  69  97 135 194 232 294 339 400
#
# _framework density 22.806467999999999
#
# number of rings (size 3 to 8) (size 9 to 14) (size 15 to 20)
#    0.000    0.571    5.714    1.714    2.000    2.286 
#    0.000    0.000    0.000    0.000    0.000    0.000 
#    0.000    0.000    0.000    0.000    0.000    0.000 
#
# Total GULP energy -156568.153288 kJ/mol
# GULP energy per Si atom -5591.719760 kJ/mol
# Density = 2.275456 g / cm^3
# Si number density = 22.806468 Si / 1000 Ang^3
#
#
#
# Elastic Constant Matrix: (Units=GPa)
#
#
# Indices 1 2 3 4 5 6 
#
# 1 71.5746 14.5179 9.4892 0.0000 0.0000 0.0000
# 2 14.5179 85.3895 7.4454 0.0000 0.0000 0.0000
# 3 9.4892 7.4454 68.2502 0.0000 0.0000 0.0000
# 4 0.0000 0.0000 0.0000 24.5610 0.0000 0.0000
# 5 0.0000 0.0000 0.0000 0.0000 7.6499 0.0000
# 6 0.0000 0.0000 0.0000 0.0000 0.0000 38.1545
#
#
#
# Elastic Compliance Matrix: (Units=1/GPa)
#
#
# Indices 1 2 3 4 5 6 
#
# 1 0.014683 -0.002341 -0.001786 0.000000 0.000000 0.000000
# 2 -0.002341 0.012197 -0.001005 0.000000 0.000000 0.000000
# 3 -0.001786 -0.001005 0.015010 0.000000 0.000000 0.000000
# 4 0.000000 0.000000 0.000000 0.040715 0.000000 0.000000
# 5 0.000000 0.000000 0.000000 0.000000 0.130721 0.000000
# 6 0.000000 0.000000 0.000000 0.000000 0.000000 0.026209
#
#
# Mechanical properties :
#
#
# Convention : Reuss Voigt Hill
#
# Bulk Modulus (GPa) = 31.61969 32.01325 31.81647
# Shear Modulus (GPa) = 19.20564 26.99054 23.09809
#
# Velocity S-wave (km/s) = 2.90507 3.44388 3.18588
# Velocity P-wave (km/s) = 5.01468 5.46636 5.24538
#
# Compressibility (1/GPa) = 0.03162586
#
# Stress axis : x y z
#
# Youngs Moduli (GPa) = 68.10590 81.98980 66.62250
#
# Poissons Ratio (x) = 0.19191 0.11899
# Poissons Ratio (y) = 0.15941 0.06696
# Poissons Ratio (z) = 0.12164 0.08241
#
# Static dielectric constant tensor:
#      x y z
#    x 1.925380 0.000000 0.000000 
#    y 0.000000 1.869020 0.000000 
#    z 0.000000 0.000000 1.895600 
# 
# From -- ./inp_files/2861.got.cif
#   From: 2010.05.17/outbox.cif.g08.bks.cpg/sg29_2_cif.got.tgz:2861.got - 2010.06.04 01:19:37.
