data_PCOD9341314
_publ_section_title
;
Structure prediction by ZEFSAII (Michael W. Deem and Ramdas Pophale) SiO2 
 PCOD9341314
Probable space group: P C A 21
;
_chemical_formula_sum "Si O2"
_cell_formula_units_Z 20
_cell_length_a 17.372610
_cell_length_b 4.648235
_cell_length_c 8.331537
_cell_angle_alpha 90.000000
_cell_angle_beta 90.000000
_cell_angle_gamma 90.000000
_cell_volume 672.788058
_symmetry_space_group_name_H-M "P C A 21"
_symmetry_group_IT_number 29
_symmetry_cell_setting 'orthorhombic'
loop_
_space_group_symop_operation_xyz
x,y,z
-x,-y,1/2+z
1/2-x,y,1/2+z
1/2+x,-y,z
loop_
_atom_site_type_symbol
_atom_site_label
_atom_site_fract_x
_atom_site_fract_y
_atom_site_fract_z
Si Si1 0.101228 0.216125 0.116740
Si Si2 0.072402 0.403520 0.632375
Si Si3 0.839258 0.067663 0.294683
Si Si4 0.535111 0.137950 0.422136
Si Si5 0.666766 0.282303 0.303564
O O1 0.152571 0.479710 0.172778
O O2 0.013775 0.298790 0.075885
O O3 0.109164 0.986162 0.263606
O O4 0.138762 0.059941 0.967507
O O5 0.109187 0.661912 0.752006
O O6 0.150398 0.173265 0.657733
O O7 0.032457 0.183403 0.488978
O O8 0.017253 0.252585 0.778365
O O9 0.751212 0.174599 0.313367
O O10 0.611984 0.360295 0.456147
#
# Coordination Sequence:
#
# PCOD9341314 Si02
#       5
#     4   4   4   4   4
#     4  12  28  47  78 113 152 202 266 317 397 472
#     4  10  24  46  76 103 148 204 252 314 394 448
#     4  11  26  47  78 107 154 200 259 324 388 470
#     4  11  26  47  78 107 155 202 260 323 390 468
#     4  12  28  47  78 110 155 200 265 318 397 468
#
# _framework density 29.727046000000001
#
# number of rings (size 3 to 8) (size 9 to 14) (size 15 to 20)
#    0.000    0.800    0.000    4.800   16.800    0.000 
#    0.000    0.000    0.000    0.000    0.000    0.000 
#    0.000    0.000    0.000    0.000    0.000    0.000 
#
# Total GULP energy -111844.063941 kJ/mol
# GULP energy per Si atom -5592.203197 kJ/mol
# Density = 2.965939 g / cm^3
# Si number density = 29.727046 Si / 1000 Ang^3
#
#
#
# Elastic Constant Matrix: (Units=GPa)
#
#
# Indices 1 2 3 4 5 6 
#
# 1 253.7521 47.3634 101.7788 0.0000 0.0000 0.0000
# 2 47.3634 249.3746 104.2219 0.0000 0.0000 0.0000
# 3 101.7788 104.2219 203.0807 0.0000 0.0000 0.0000
# 4 0.0000 0.0000 0.0000 77.3517 0.0000 0.0000
# 5 0.0000 0.0000 0.0000 0.0000 40.9630 0.0000
# 6 0.0000 0.0000 0.0000 0.0000 0.0000 26.5157
#
#
#
# Elastic Compliance Matrix: (Units=1/GPa)
#
#
# Indices 1 2 3 4 5 6 
#
# 1 0.004935 0.000123 -0.002536 0.000000 0.000000 0.000000
# 2 0.000123 0.005108 -0.002683 0.000000 0.000000 0.000000
# 3 -0.002536 -0.002683 0.007572 0.000000 0.000000 0.000000
# 4 0.000000 0.000000 0.000000 0.012928 0.000000 0.000000
# 5 0.000000 0.000000 0.000000 0.000000 0.024412 0.000000
# 6 0.000000 0.000000 0.000000 0.000000 0.000000 0.037713
#
#
# Mechanical properties :
#
#
# Convention : Reuss Voigt Hill
#
# Bulk Modulus (GPa) = 134.73053 134.77060 134.75057
# Shear Modulus (GPa) = 47.46686 59.15563 53.31125
#
# Velocity S-wave (km/s) = 4.00028 4.46574 4.23940
# Velocity P-wave (km/s) = 8.17051 8.48675 8.33013
#
# Compressibility (1/GPa) = 0.00742222
#
# Stress axis : x y z
#
# Youngs Moduli (GPa) = 202.62214 195.77049 132.06142
#
# Poissons Ratio (x) = -0.02402 0.33496
# Poissons Ratio (y) = -0.02486 0.35431
# Poissons Ratio (z) = 0.51393 0.52524
#
# Static dielectric constant tensor:
#      x y z
#    x 2.572450 0.000000 0.000000 
#    y 0.000000 2.642260 0.000000 
#    z 0.000000 0.000000 2.793110 
# 
# From -- ./inp_files/3352.got.cif
#   From: 2010.05.17/outbox.cif.g08.bks.cpg/sg29_2_cif.got.tgz:3352.got - 2010.06.04 01:19:37.
