data_PCOD9341102
_publ_section_title
;
Structure prediction by ZEFSAII (Michael W. Deem and Ramdas Pophale) SiO2 
 PCOD9341102
Probable space group: P C A 21
;
_chemical_formula_sum "Si O2"
_cell_formula_units_Z 32
_cell_length_a 9.982550
_cell_length_b 8.072628
_cell_length_c 16.803734
_cell_angle_alpha 90.000000
_cell_angle_beta 90.000000
_cell_angle_gamma 90.000000
_cell_volume 1354.135838
_symmetry_space_group_name_H-M "P C A 21"
_symmetry_group_IT_number 29
_symmetry_cell_setting 'orthorhombic'
loop_
_space_group_symop_operation_xyz
x,y,z
-x,-y,1/2+z
1/2-x,y,1/2+z
1/2+x,-y,z
loop_
_atom_site_type_symbol
_atom_site_label
_atom_site_fract_x
_atom_site_fract_y
_atom_site_fract_z
Si Si1 0.099950 0.693351 0.424740
Si Si2 0.339025 0.118338 0.414893
Si Si3 0.162027 0.796010 0.011916
Si Si4 0.922904 0.446261 0.653746
Si Si5 0.914959 0.978647 0.236120
Si Si6 0.808785 0.681579 0.125409
Si Si7 0.900644 0.685312 0.943098
Si Si8 0.318170 0.815118 0.759923
O O1 0.184729 0.745797 0.501215
O O2 0.121513 0.499405 0.413946
O O3 0.167766 0.802228 0.355049
O O4 0.944135 0.734794 0.433038
O O5 0.389015 0.054221 0.329639
O O6 0.189621 0.183019 0.398125
O O7 0.347317 0.989406 0.488549
O O8 0.058123 0.719474 0.947363
O O9 0.113585 0.702678 0.091174
O O10 0.838968 0.608910 0.635273
O O11 0.873992 0.363656 0.734651
O O12 0.082458 0.457810 0.651928
O O13 0.846719 0.839848 0.179172
O O14 0.074221 0.951853 0.227981
O O15 0.827864 0.144254 0.225565
O O16 0.841428 0.706598 0.032626
#
# Coordination Sequence:
#
# PCOD9341102 Si02
#       8
#     4   4   4   4   4   4   4   4
#     4  11  22  41  64  92 129 164 210 268 324 381
#     4  11  24  40  64  95 126 163 216 264 326 384
#     4  11  22  41  64  92 129 164 210 268 324 381
#     4  10  23  42  62  91 127 166 213 258 315 381
#     4  10  23  42  62  90 127 165 210 261 311 383
#     4  10  23  42  62  90 127 165 210 261 311 383
#     4  11  24  40  64  95 126 163 216 264 326 384
#     4  10  23  42  62  91 127 166 213 258 315 381
#
# _framework density 23.631305000000001
#
# number of rings (size 3 to 8) (size 9 to 14) (size 15 to 20)
#    0.000    1.500    2.500    1.500    7.000    1.000 
#    4.500    0.000    0.000    0.000    0.000    0.000 
#    0.000    0.000    0.000    0.000    0.000    0.000 
#
# Total GULP energy -178556.206809 kJ/mol
# GULP energy per Si atom -5579.881463 kJ/mol
# Density = 2.357752 g / cm^3
# Si number density = 23.631305 Si / 1000 Ang^3
#
#
#
# Elastic Constant Matrix: (Units=GPa)
#
#
# Indices 1 2 3 4 5 6 
#
# 1 46.5632 0.3207 1.7980 0.0000 0.0000 0.0000
# 2 0.3207 76.4854 8.8034 0.0000 0.0000 0.0000
# 3 1.7980 8.8034 40.7781 0.0000 0.0000 0.0000
# 4 0.0000 0.0000 0.0000 21.5438 0.0000 0.0000
# 5 0.0000 0.0000 0.0000 0.0000 21.0656 0.0000
# 6 0.0000 0.0000 0.0000 0.0000 0.0000 33.3101
#
#
#
# Elastic Compliance Matrix: (Units=1/GPa)
#
#
# Indices 1 2 3 4 5 6 
#
# 1 0.021513 0.000019 -0.000953 0.000000 0.000000 0.000000
# 2 0.000019 0.013408 -0.002895 0.000000 0.000000 0.000000
# 3 -0.000953 -0.002895 0.025190 0.000000 0.000000 0.000000
# 4 0.000000 0.000000 0.000000 0.046417 0.000000 0.000000
# 5 0.000000 0.000000 0.000000 0.000000 0.047471 0.000000
# 6 0.000000 0.000000 0.000000 0.000000 0.000000 0.030021
#
#
# Mechanical properties :
#
#
# Convention : Reuss Voigt Hill
#
# Bulk Modulus (GPa) = 19.06465 20.63012 19.84739
# Shear Modulus (GPa) = 23.90505 25.37755 24.64130
#
# Velocity S-wave (km/s) = 3.18399 3.28059 3.23265
# Velocity P-wave (km/s) = 4.64781 4.80610 4.72762
#
# Compressibility (1/GPa) = 0.05245310
#
# Stress axis : x y z
#
# Youngs Moduli (GPa) = 46.48389 74.58477 39.69825
#
# Poissons Ratio (x) = -0.00145 0.03782
# Poissons Ratio (y) = -0.00090 0.11494
# Poissons Ratio (z) = 0.04429 0.21595
#
# Static dielectric constant tensor:
#      x y z
#    x 1.918820 0.000000 0.000000 
#    y 0.000000 1.938290 0.000000 
#    z 0.000000 0.000000 1.929550 
# 
# From -- ./inp_files/5427.got.cif
#   From: 2010.05.17/outbox.cif.g08.bks.cpg/sg29_3_cif.got.tgz:5427.got - 2010.06.04 01:19:37.
