data_PCOD9341300
_publ_section_title
;
Structure prediction by ZEFSAII (Michael W. Deem and Ramdas Pophale) SiO2 
 PCOD9341300
Probable space group: P C A 21
;
_chemical_formula_sum "Si O2"
_cell_formula_units_Z 20
_cell_length_a 7.587351
_cell_length_b 7.989768
_cell_length_c 13.918303
_cell_angle_alpha 90.000000
_cell_angle_beta 90.000000
_cell_angle_gamma 90.000000
_cell_volume 843.743871
_symmetry_space_group_name_H-M "P C A 21"
_symmetry_group_IT_number 29
_symmetry_cell_setting 'orthorhombic'
loop_
_space_group_symop_operation_xyz
x,y,z
-x,-y,1/2+z
1/2-x,y,1/2+z
1/2+x,-y,z
loop_
_atom_site_type_symbol
_atom_site_label
_atom_site_fract_x
_atom_site_fract_y
_atom_site_fract_z
Si Si1 0.684457 0.598978 0.801140
Si Si2 0.890039 0.599570 0.089704
Si Si3 0.420711 0.208007 0.666724
Si Si4 0.289726 0.855144 0.584898
Si Si5 0.132163 0.676576 0.424660
O O1 0.587084 0.551408 0.701557
O O2 0.841585 0.723688 0.767267
O O3 0.744476 0.428829 0.852255
O O4 0.549472 0.697996 0.868396
O O5 0.694787 0.678895 0.092982
O O6 0.043550 0.733112 0.074614
O O7 0.889897 0.459183 0.009972
O O8 0.629373 0.205352 0.652772
O O9 0.358120 0.023687 0.633734
O O10 0.204182 0.842359 0.477722
#
# Coordination Sequence:
#
# PCOD9341300 Si02
#       5
#     4   4   4   4   4
#     4  10  26  43  72 114 143 200 253 307 376 442
#     4  10  25  45  74 107 152 191 246 315 372 427
#     4  10  24  45  75 101 156 197 241 302 388 439
#     4  12  23  48  77 105 152 202 239 311 377 442
#     4  12  24  45  76 111 147 198 257 309 367 452
#
# _framework density 23.703875
#
# number of rings (size 3 to 8) (size 9 to 14) (size 15 to 20)
#    1.200    0.000    4.000    1.200    5.600    0.000 
#    0.000    8.000    0.000    0.000    0.000    0.000 
#    0.000    0.000    0.000    0.000    0.000    0.000 
#
# Total GULP energy -111647.878067 kJ/mol
# GULP energy per Si atom -5582.393903 kJ/mol
# Density = 2.364992 g / cm^3
# Si number density = 23.703875 Si / 1000 Ang^3
#
#
#
# Elastic Constant Matrix: (Units=GPa)
#
#
# Indices 1 2 3 4 5 6 
#
# 1 68.1181 -17.1577 3.5908 0.0000 0.0000 0.0000
# 2 -17.1577 47.8811 4.6872 0.0000 0.0000 0.0000
# 3 3.5908 4.6872 99.6772 0.0000 0.0000 0.0000
# 4 0.0000 0.0000 0.0000 30.0033 0.0000 0.0000
# 5 0.0000 0.0000 0.0000 0.0000 55.6853 0.0000
# 6 0.0000 0.0000 0.0000 0.0000 0.0000 25.6068
#
#
#
# Elastic Compliance Matrix: (Units=1/GPa)
#
#
# Indices 1 2 3 4 5 6 
#
# 1 0.016210 0.005893 -0.000861 0.000000 0.000000 0.000000
# 2 0.005893 0.023124 -0.001300 0.000000 0.000000 0.000000
# 3 -0.000861 -0.001300 0.010125 0.000000 0.000000 0.000000
# 4 0.000000 0.000000 0.000000 0.033330 0.000000 0.000000
# 5 0.000000 0.000000 0.000000 0.000000 0.017958 0.000000
# 6 0.000000 0.000000 0.000000 0.000000 0.000000 0.039052
#
#
# Mechanical properties :
#
#
# Convention : Reuss Voigt Hill
#
# Bulk Modulus (GPa) = 17.56755 21.99080 19.77918
# Shear Modulus (GPa) = 33.04512 37.22950 35.13731
#
# Velocity S-wave (km/s) = 3.73779 3.96739 3.85430
# Velocity P-wave (km/s) = 5.10445 5.50312 5.30753
#
# Compressibility (1/GPa) = 0.05692312
#
# Stress axis : x y z
#
# Youngs Moduli (GPa) = 61.68988 43.24514 98.77008
#
# Poissons Ratio (x) = -0.25484 0.08505
# Poissons Ratio (y) = -0.36354 0.12837
# Poissons Ratio (z) = 0.05312 0.05620
#
# Static dielectric constant tensor:
#      x y z
#    x 1.934390 0.000000 0.000000 
#    y 0.000000 1.975710 0.000000 
#    z 0.000000 0.000000 1.948730 
# 
# From -- ./inp_files/2770.got.cif
#   From: 2010.05.17/outbox.cif.g08.bks.cpg/sg29_2_cif.got.tgz:2770.got - 2010.06.04 01:19:37.
