data_PCOD9341401
_publ_section_title
;
Structure prediction by ZEFSAII (Michael W. Deem and Ramdas Pophale) SiO2 
 PCOD9341401
Probable space group: P C A 21
;
_chemical_formula_sum "Si O2"
_cell_formula_units_Z 24
_cell_length_a 8.790971
_cell_length_b 9.496855
_cell_length_c 11.519036
_cell_angle_alpha 90.000000
_cell_angle_beta 90.000000
_cell_angle_gamma 90.000000
_cell_volume 961.684885
_symmetry_space_group_name_H-M "P C A 21"
_symmetry_group_IT_number 29
_symmetry_cell_setting 'orthorhombic'
loop_
_space_group_symop_operation_xyz
x,y,z
-x,-y,1/2+z
1/2-x,y,1/2+z
1/2+x,-y,z
loop_
_atom_site_type_symbol
_atom_site_label
_atom_site_fract_x
_atom_site_fract_y
_atom_site_fract_z
Si Si1 0.322665 0.607853 0.600250
Si Si2 0.945039 0.929922 0.339620
Si Si3 0.746298 0.160111 0.448395
Si Si4 0.150724 0.188949 0.275902
Si Si5 0.911518 0.383659 0.280018
Si Si6 0.110214 0.412722 0.467366
O O1 0.270586 0.768229 0.572884
O O2 0.231946 0.560501 0.712652
O O3 0.501150 0.604175 0.579147
O O4 0.246564 0.509160 0.503383
O O5 0.826987 0.848473 0.255483
O O6 0.071353 0.844037 0.410461
O O7 0.831647 0.012595 0.428082
O O8 0.051355 0.046359 0.276219
O O9 0.839282 0.261869 0.361245
O O10 0.046451 0.303583 0.207368
O O11 0.153398 0.266772 0.403716
O O12 0.006272 0.482494 0.365959
#
# Coordination Sequence:
#
# PCOD9341401 Si02
#       6
#     4   4   4   4   4   4
#     4  11  20  37  57  81 117 155 193 243 291 345
#     4   9  15  34  63  78 113 155 184 235 299 339
#     4   9  19  34  58  82 112 152 189 240 287 346
#     4   8  17  35  57  84 111 147 193 232 290 347
#     4   8  19  38  52  82 116 140 196 240 288 347
#     4   9  22  36  55  83 113 153 195 238 291 350
#
# _framework density 24.956199999999999
#
# number of rings (size 3 to 8) (size 9 to 14) (size 15 to 20)
#    1.000    2.000    1.667    0.000    2.333    2.667 
#    0.000    8.333    0.000    0.000    0.000    0.000 
#    0.000    0.000    0.000    0.000    0.000    0.000 
#
# Total GULP energy -133625.081199 kJ/mol
# GULP energy per Si atom -5567.711717 kJ/mol
# Density = 2.489940 g / cm^3
# Si number density = 24.956200 Si / 1000 Ang^3
#
#
#
# Elastic Constant Matrix: (Units=GPa)
#
#
# Indices 1 2 3 4 5 6 
#
# 1 142.0528 39.5274 -0.5259 0.0000 0.0000 0.0000
# 2 39.5274 55.9833 2.7827 0.0000 0.0000 0.0000
# 3 -0.5259 2.7827 23.0717 0.0000 0.0000 0.0000
# 4 0.0000 0.0000 0.0000 9.8514 0.0000 0.0000
# 5 0.0000 0.0000 0.0000 0.0000 24.8179 0.0000
# 6 0.0000 0.0000 0.0000 0.0000 0.0000 53.1431
#
#
#
# Elastic Compliance Matrix: (Units=1/GPa)
#
#
# Indices 1 2 3 4 5 6 
#
# 1 0.008782 -0.006248 0.000954 0.000000 0.000000 0.000000
# 2 -0.006248 0.022415 -0.002846 0.000000 0.000000 0.000000
# 3 0.000954 -0.002846 0.043708 0.000000 0.000000 0.000000
# 4 0.000000 0.000000 0.000000 0.101509 0.000000 0.000000
# 5 0.000000 0.000000 0.000000 0.000000 0.040294 0.000000
# 6 0.000000 0.000000 0.000000 0.000000 0.000000 0.018817
#
#
# Mechanical properties :
#
#
# Convention : Reuss Voigt Hill
#
# Bulk Modulus (GPa) = 17.05753 33.85291 25.45522
# Shear Modulus (GPa) = 18.42665 29.51737 23.97201
#
# Velocity S-wave (km/s) = 2.72023 3.44287 3.10266
# Velocity P-wave (km/s) = 4.08852 5.42207 4.80181
#
# Compressibility (1/GPa) = 0.05862512
#
# Stress axis : x y z
#
# Youngs Moduli (GPa) = 113.87361 44.61254 22.87902
#
# Poissons Ratio (x) = 0.27873 -0.02182
# Poissons Ratio (y) = 0.71146 0.06511
# Poissons Ratio (z) = -0.10860 0.12696
#
# Static dielectric constant tensor:
#      x y z
#    x 2.092940 0.000000 0.000000 
#    y 0.000000 2.032290 0.000000 
#    z 0.000000 0.000000 2.112220 
# 
# From -- ./inp_files/4223.got.cif
#   From: 2010.05.17/outbox.cif.g08.bks.cpg/sg29_3_cif.got.tgz:4223.got - 2010.06.04 01:19:37.
