data_PCOD9341242
_publ_section_title
;
Structure prediction by ZEFSAII (Michael W. Deem and Ramdas Pophale) SiO2 
 PCOD9341242
Probable space group: P C A 21
;
_chemical_formula_sum "Si O2"
_cell_formula_units_Z 32
_cell_length_a 13.911970
_cell_length_b 10.349442
_cell_length_c 9.593316
_cell_angle_alpha 90.000000
_cell_angle_beta 90.000000
_cell_angle_gamma 90.000000
_cell_volume 1381.256446
_symmetry_space_group_name_H-M "P C A 21"
_symmetry_group_IT_number 29
_symmetry_cell_setting 'orthorhombic'
loop_
_space_group_symop_operation_xyz
x,y,z
-x,-y,1/2+z
1/2-x,y,1/2+z
1/2+x,-y,z
loop_
_atom_site_type_symbol
_atom_site_label
_atom_site_fract_x
_atom_site_fract_y
_atom_site_fract_z
Si Si1 0.044843 0.246349 0.494430
Si Si2 0.010665 0.404758 0.219392
Si Si3 0.705388 0.968046 0.147790
Si Si4 0.053896 0.190216 0.991734
Si Si5 0.186828 0.287167 0.741368
Si Si6 0.134403 0.645975 0.115602
Si Si7 0.293242 0.570560 0.310147
Si Si8 0.868726 0.034206 0.933420
O O1 0.039237 0.347588 0.369076
O O2 0.123849 0.296793 0.602401
O O3 0.078336 0.105848 0.442558
O O4 0.939760 0.242778 0.567635
O O5 0.062428 0.536254 0.175528
O O6 0.895821 0.418183 0.232411
O O7 0.040753 0.300608 0.105299
O O8 0.742601 0.830819 0.209889
O O9 0.679001 0.047239 0.283487
O O10 0.614527 0.928512 0.054957
O O11 0.788251 0.030569 0.053622
O O12 0.114751 0.245774 0.863980
O O13 0.949304 0.141081 0.951559
O O14 0.235814 0.420819 0.784866
O O15 0.214929 0.659154 0.234001
O O16 0.187669 0.600372 0.972700
#
# Coordination Sequence:
#
# PCOD9341242 Si02
#       8
#     4   4   4   4   4   4   4   4
#     4  10  24  42  68  95 140 179 228 286 348 413
#     4  11  23  46  66 101 136 177 233 286 349 419
#     4  11  24  44  69 108 130 181 243 285 339 414
#     4  12  25  45  71 102 143 184 232 291 359 418
#     4  11  23  41  67 104 132 180 234 283 343 415
#     4  11  24  42  66 101 136 181 228 287 348 421
#     4  11  25  38  67  99 137 181 226 285 353 411
#     4  11  26  46  74 102 142 185 234 293 349 423
#
# _framework density 23.167313
#
# number of rings (size 3 to 8) (size 9 to 14) (size 15 to 20)
#    0.000    1.000    5.000    0.750    5.250    1.000 
#    2.250    1.250    0.000    0.000    0.000    0.000 
#    0.000    0.000    0.000    0.000    0.000    0.000 
#
# Total GULP energy -179319.748312 kJ/mol
# GULP energy per Si atom -5603.742135 kJ/mol
# Density = 2.311458 g / cm^3
# Si number density = 23.167313 Si / 1000 Ang^3
#
#
#
# Elastic Constant Matrix: (Units=GPa)
#
#
# Indices 1 2 3 4 5 6 
#
# 1 122.2947 21.1292 50.9476 0.0000 0.0000 0.0000
# 2 21.1292 60.5115 32.7995 0.0000 0.0000 0.0000
# 3 50.9476 32.7995 106.3814 0.0000 0.0000 0.0000
# 4 0.0000 0.0000 0.0000 -211.6571 0.0000 0.0000
# 5 0.0000 0.0000 0.0000 0.0000 30.6062 0.0000
# 6 0.0000 0.0000 0.0000 0.0000 0.0000 20.8232
#
#
#
# Elastic Compliance Matrix: (Units=1/GPa)
#
#
# Indices 1 2 3 4 5 6 
#
# 1 0.010276 -0.001105 -0.004581 0.000000 0.000000 0.000000
# 2 -0.001105 0.019961 -0.005625 0.000000 0.000000 0.000000
# 3 -0.004581 -0.005625 0.013328 0.000000 0.000000 0.000000
# 4 0.000000 0.000000 0.000000 -0.004725 0.000000 0.000000
# 5 0.000000 0.000000 0.000000 0.000000 0.032673 0.000000
# 6 0.000000 0.000000 0.000000 0.000000 0.000000 0.048023
#
#
# Mechanical properties :
#
#
# Convention : Reuss Voigt Hill
#
# Bulk Modulus (GPa) = 47.74807 55.43781 51.59294
# Shear Modulus (GPa) = 33.52562 -19.75812 6.88375
#
# Velocity S-wave (km/s) = 3.80821 -2.92352 1.72562
# Velocity P-wave (km/s) = 6.32388 3.54758 5.12722
#
# Compressibility (1/GPa) = 0.02094325
#
# Stress axis : x y z
#
# Youngs Moduli (GPa) = 97.31202 50.09860 75.02916
#
# Poissons Ratio (x) = 0.05538 0.34368
# Poissons Ratio (y) = 0.10756 0.42203
# Poissons Ratio (z) = 0.44575 0.28180
#
# Static dielectric constant tensor:
#      x y z
#    x 1.862680 0.000000 0.000000 
#    y 0.000000 2.342920 0.000000 
#    z 0.000000 0.000000 1.843740 
# 
# From -- ./inp_files/1859.got.cif
#   From: 2010.05.17/outbox.cif.g08.bks.cpg/sg29_1_cif.got.tgz:1859.got - 2010.06.04 01:19:37.
