data_PCOD9341866
_publ_section_title
;
Structure prediction by ZEFSAII (Michael W. Deem and Ramdas Pophale) SiO2 
 PCOD9341866
Probable space group: P N C 2
;
_chemical_formula_sum "Si O2"
_cell_formula_units_Z 26
_cell_length_a 7.916686
_cell_length_b 25.516251
_cell_length_c 5.345573
_cell_angle_alpha 90.000000
_cell_angle_beta 90.000000
_cell_angle_gamma 90.000000
_cell_volume 1079.827914
_symmetry_space_group_name_H-M "P N C 2"
_symmetry_group_IT_number 30
_symmetry_cell_setting 'orthorhombic'
loop_
_space_group_symop_operation_xyz
x,y,z
-x,-y,z
-x,1/2+y,1/2+z
x,1/2-y,1/2+z
loop_
_atom_site_type_symbol
_atom_site_label
_atom_site_fract_x
_atom_site_fract_y
_atom_site_fract_z
Si Si1 0.000000 0.500000 0.736650
Si Si2 0.448733 0.092954 0.981236
Si Si3 0.730906 0.944269 0.491878
Si Si4 0.983683 0.251933 0.935561
Si Si5 0.833636 0.098755 0.051194
Si Si6 0.032393 0.863674 0.549281
Si Si7 0.359070 0.217039 0.947669
O O1 0.168800 0.496422 0.906997
O O2 0.032905 0.550895 0.567480
O O3 0.368281 0.075261 0.245614
O O4 0.646504 0.081101 0.991314
O O5 0.418288 0.156169 0.946905
O O6 0.374139 0.060806 0.745347
O O7 0.889184 0.906588 0.539537
O O8 0.878672 0.247124 0.185674
O O9 0.151790 0.217100 0.948171
O O10 0.054974 0.310328 0.967164
O O11 0.837560 0.124328 0.326072
O O12 0.889214 0.136614 0.824976
O O13 0.407807 0.249725 0.198559
#
# Coordination Sequence:
#
# PCOD9341866 Si02
#       7
#     2   4   4   4   4   4   4
#     4  10  26  48  68 102 128 180 224 286 338 414
#     4  12  24  44  69 102 134 181 216 283 344 393
#     4  11  23  42  72  96 134 170 228 272 337 403
#     4  10  18  32  58  90 122 162 220 261 302 385
#     4  11  26  45  68  95 141 170 225 280 346 405
#     4  11  22  42  66  95 129 180 213 271 329 395
#     4  10  20  35  61  94 130 167 220 265 313 393
#
# _framework density 24.077912000000001
#
# number of rings (size 3 to 8) (size 9 to 14) (size 15 to 20)
#    0.000    1.231    0.000    8.308    0.000    6.154 
#    0.000    7.692    0.000    0.000    0.000    0.000 
#    0.000    0.000    0.000    0.000    0.000    0.000 
#
# Total GULP energy -145204.433672 kJ/mol
# GULP energy per Si atom -5584.785910 kJ/mol
# Density = 2.402311 g / cm^3
# Si number density = 24.077912 Si / 1000 Ang^3
#
#
#
# Elastic Constant Matrix: (Units=GPa)
#
#
# Indices 1 2 3 4 5 6 
#
# 1 83.8991 -4.6040 31.2927 0.0000 0.0000 0.0000
# 2 -4.6040 44.4342 18.2688 0.0000 0.0000 0.0000
# 3 31.2927 18.2688 216.4439 0.0000 0.0000 0.0000
# 4 0.0000 0.0000 0.0000 18.8430 0.0000 0.0000
# 5 0.0000 0.0000 0.0000 0.0000 18.5209 0.0000
# 6 0.0000 0.0000 0.0000 0.0000 0.0000 16.0584
#
#
#
# Elastic Compliance Matrix: (Units=1/GPa)
#
#
# Indices 1 2 3 4 5 6 
#
# 1 0.012796 0.002161 -0.002032 0.000000 0.000000 0.000000
# 2 0.002161 0.023679 -0.002311 0.000000 0.000000 0.000000
# 3 -0.002032 -0.002311 0.005109 0.000000 0.000000 0.000000
# 4 0.000000 0.000000 0.000000 0.053070 0.000000 0.000000
# 5 0.000000 0.000000 0.000000 0.000000 0.053993 0.000000
# 6 0.000000 0.000000 0.000000 0.000000 0.000000 0.062273
#
#
# Mechanical properties :
#
#
# Convention : Reuss Voigt Hill
#
# Bulk Modulus (GPa) = 26.86735 48.29914 37.58324
# Shear Modulus (GPa) = 21.95958 30.67243 26.31601
#
# Velocity S-wave (km/s) = 3.02325 3.57302 3.30957
# Velocity P-wave (km/s) = 4.83419 6.09303 5.49975
#
# Compressibility (1/GPa) = 0.03721990
#
# Stress axis : x y z
#
# Youngs Moduli (GPa) = 78.15109 42.23094 195.73148
#
# Poissons Ratio (x) = -0.09128 0.39780
# Poissons Ratio (y) = -0.16892 0.45236
# Poissons Ratio (z) = 0.15883 0.09760
#
# Static dielectric constant tensor:
#      x y z
#    x 1.891350 0.000000 0.000000 
#    y 0.000000 2.040990 0.000000 
#    z 0.000000 0.000000 2.113380 
# 
# From -- ./inp_files/513.got.cif
#   From: 2010.05.17/outbox.cif.g08.bks.cpg/sg30_1_cif.got.tgz:513.got - 2010.06.03 17:03:02.
