data_PCOD9341958
_publ_section_title
;
Structure prediction by ZEFSAII (Michael W. Deem and Ramdas Pophale) SiO2 
 PCOD9341958
Probable space group: P N C 2
;
_chemical_formula_sum "Si O2"
_cell_formula_units_Z 32
_cell_length_a 14.039763
_cell_length_b 7.466812
_cell_length_c 14.407863
_cell_angle_alpha 90.000000
_cell_angle_beta 90.000000
_cell_angle_gamma 90.000000
_cell_volume 1510.408996
_symmetry_space_group_name_H-M "P N C 2"
_symmetry_group_IT_number 30
_symmetry_cell_setting 'orthorhombic'
loop_
_space_group_symop_operation_xyz
x,y,z
-x,-y,z
-x,1/2+y,1/2+z
x,1/2-y,1/2+z
loop_
_atom_site_type_symbol
_atom_site_label
_atom_site_fract_x
_atom_site_fract_y
_atom_site_fract_z
Si Si1 0.691869 0.784646 0.521240
Si Si2 0.999771 0.212211 0.504333
Si Si3 0.208814 0.801453 0.703805
Si Si4 0.595287 0.430021 0.146087
Si Si5 0.192792 0.694799 0.403020
Si Si6 0.131007 0.321978 0.160446
Si Si7 0.826365 0.777167 0.867380
Si Si8 0.673253 0.376434 0.552858
O O1 0.782477 0.789442 0.590221
O O2 0.739551 0.820930 0.420605
O O3 0.654558 0.581353 0.529333
O O4 0.621214 0.930209 0.564076
O O5 0.898337 0.276307 0.468063
O O6 0.040175 0.258973 0.606365
O O7 0.078020 0.261172 0.427491
O O8 0.000000 0.000000 0.504926
O O9 0.310802 0.909048 0.709527
O O10 0.183825 0.715297 0.802486
O O11 0.238813 0.655553 0.626421
O O12 0.134404 0.958667 0.674782
O O13 0.500000 0.500000 0.192875
O O14 0.588272 0.233976 0.099605
O O15 0.197507 0.486528 0.376454
O O16 0.287001 0.728149 0.462775
O O17 0.151862 0.239211 0.260607
#
# Coordination Sequence:
#
# PCOD9341958 Si02
#       8
#     4   4   4   4   4   4   4   4
#     4   9  18  35  57  83 111 147 190 231 287 345
#     4  11  22  30  49  82 109 149 197 243 274 330
#     4   8  18  35  57  78 109 156 187 234 295 349
#     4   9  19  37  62  84 114 146 189 240 293 347
#     4  10  19  35  56  76 114 151 194 232 288 346
#     4   9  18  36  54  75 110 152 195 234 285 335
#     4   9  20  36  53  77 109 154 190 235 282 338
#     4   9  19  34  57  83 107 154 183 235 286 346
#
# _framework density 21.186312999999998
#
# number of rings (size 3 to 8) (size 9 to 14) (size 15 to 20)
#    0.750    2.000    0.000    1.125    1.750    4.500 
#    0.000    2.500   11.000    0.000    0.000    0.000 
#    0.000    0.000    0.000    0.000    0.000    0.000 
#
# Total GULP energy -178137.686887 kJ/mol
# GULP energy per Si atom -5566.802715 kJ/mol
# Density = 2.113809 g / cm^3
# Si number density = 21.186313 Si / 1000 Ang^3
#
#
#
# Elastic Constant Matrix: (Units=GPa)
#
#
# Indices 1 2 3 4 5 6 
#
# 1 48.8499 -8.2330 13.2082 0.0000 0.0000 0.0000
# 2 -8.2330 43.6493 7.8302 0.0000 0.0000 0.0000
# 3 13.2082 7.8302 115.4498 0.0000 0.0000 0.0000
# 4 0.0000 0.0000 0.0000 20.0587 0.0000 0.0000
# 5 0.0000 0.0000 0.0000 0.0000 16.6953 0.0000
# 6 0.0000 0.0000 0.0000 0.0000 0.0000 20.9163
#
#
#
# Elastic Compliance Matrix: (Units=1/GPa)
#
#
# Indices 1 2 3 4 5 6 
#
# 1 0.022023 0.004663 -0.002836 0.000000 0.000000 0.000000
# 2 0.004663 0.024179 -0.002173 0.000000 0.000000 0.000000
# 3 -0.002836 -0.002173 0.009134 0.000000 0.000000 0.000000
# 4 0.000000 0.000000 0.000000 0.049854 0.000000 0.000000
# 5 0.000000 0.000000 0.000000 0.000000 0.059897 0.000000
# 6 0.000000 0.000000 0.000000 0.000000 0.000000 0.047810
#
#
# Mechanical properties :
#
#
# Convention : Reuss Voigt Hill
#
# Bulk Modulus (GPa) = 18.30051 25.95110 22.12580
# Shear Modulus (GPa) = 21.56991 24.54361 23.05676
#
# Velocity S-wave (km/s) = 3.19424 3.40732 3.30250
# Velocity P-wave (km/s) = 4.71814 5.26833 5.00081
#
# Compressibility (1/GPa) = 0.05464329
#
# Stress axis : x y z
#
# Youngs Moduli (GPa) = 45.40608 41.35780 109.48556
#
# Poissons Ratio (x) = -0.19284 0.31049
# Poissons Ratio (y) = -0.21172 0.23795
# Poissons Ratio (z) = 0.12877 0.08989
#
# Static dielectric constant tensor:
#      x y z
#    x 1.713290 0.000000 0.000000 
#    y 0.000000 1.770840 0.000000 
#    z 0.000000 0.000000 1.826030 
# 
# From -- ./inp_files/5627.got.cif
#   From: 2010.05.17/outbox.cif.g08.bks.cpg/sg30_3_cif.got.tgz:5627.got - 2010.06.03 17:03:02.
