data_PCOD9341316
_publ_section_title
;
Structure prediction by ZEFSAII (Michael W. Deem and Ramdas Pophale) SiO2 
 PCOD9341316
Probable space group: P C A 21
;
_chemical_formula_sum "Si O2"
_cell_formula_units_Z 32
_cell_length_a 10.159651
_cell_length_b 11.771238
_cell_length_c 10.301563
_cell_angle_alpha 90.000000
_cell_angle_beta 90.000000
_cell_angle_gamma 90.000000
_cell_volume 1231.981122
_symmetry_space_group_name_H-M "P C A 21"
_symmetry_group_IT_number 29
_symmetry_cell_setting 'orthorhombic'
loop_
_space_group_symop_operation_xyz
x,y,z
-x,-y,1/2+z
1/2-x,y,1/2+z
1/2+x,-y,z
loop_
_atom_site_type_symbol
_atom_site_label
_atom_site_fract_x
_atom_site_fract_y
_atom_site_fract_z
Si Si1 0.037924 0.369853 0.371680
Si Si2 0.986423 0.974869 0.140773
Si Si3 0.572464 0.729031 0.653798
Si Si4 0.581435 0.709632 0.933235
Si Si5 0.120745 0.830016 0.800773
Si Si6 0.704619 0.258335 0.533711
Si Si7 0.787440 0.495024 0.425359
Si Si8 0.736371 0.891752 0.040395
O O1 0.041795 0.343833 0.527327
O O2 0.167372 0.444487 0.349196
O O3 0.012058 0.246286 0.310906
O O4 0.902042 0.434387 0.343378
O O5 0.921131 0.043304 0.260288
O O6 0.116795 0.037382 0.096477
O O7 0.014697 0.843275 0.166328
O O8 0.869227 0.966079 0.031839
O O9 0.557455 0.667078 0.787791
O O10 0.713578 0.789354 0.633379
O O11 0.447849 0.753763 0.993578
O O12 0.642375 0.598857 0.001146
O O13 0.681142 0.815565 0.924374
O O14 0.202057 0.809789 0.932850
O O15 0.205793 0.781798 0.681363
O O16 0.734494 0.392122 0.513388
#
# Coordination Sequence:
#
# PCOD9341316 Si02
#       8
#     4   4   4   4   4   4   4   4
#     4  11  25  49  74 112 152 204 252 330 384 481
#     4  10  24  47  76 110 149 214 253 332 397 470
#     4  10  27  45  76 106 155 201 268 323 395 467
#     4  12  24  47  73 108 155 201 262 325 392 478
#     4  11  27  49  79 110 160 197 274 319 401 471
#     4  11  27  48  74 117 151 207 258 334 386 487
#     4  11  24  48  71 113 147 207 250 320 396 465
#     4  10  24  47  69 112 149 203 257 323 391 467
#
# _framework density 25.974425
#
# number of rings (size 3 to 8) (size 9 to 14) (size 15 to 20)
#    0.750    0.500    3.750    0.000    7.000    4.000 
#    6.750    0.000    0.000    0.000    0.000    0.000 
#    0.000    0.000    0.000    0.000    0.000    0.000 
#
# Total GULP energy -178863.608390 kJ/mol
# GULP energy per Si atom -5589.487762 kJ/mol
# Density = 2.591531 g / cm^3
# Si number density = 25.974425 Si / 1000 Ang^3
#
#
#
# Elastic Constant Matrix: (Units=GPa)
#
#
# Indices 1 2 3 4 5 6 
#
# 1 153.7787 30.1442 18.5787 0.0000 0.0000 0.0000
# 2 30.1442 95.4447 28.6258 0.0000 0.0000 0.0000
# 3 18.5787 28.6258 105.7385 0.0000 0.0000 0.0000
# 4 0.0000 0.0000 0.0000 29.1569 0.0000 0.0000
# 5 0.0000 0.0000 0.0000 0.0000 21.5303 0.0000
# 6 0.0000 0.0000 0.0000 0.0000 0.0000 49.6944
#
#
#
# Elastic Compliance Matrix: (Units=1/GPa)
#
#
# Indices 1 2 3 4 5 6 
#
# 1 0.006977 -0.001998 -0.000685 0.000000 0.000000 0.000000
# 2 -0.001998 0.011975 -0.002891 0.000000 0.000000 0.000000
# 3 -0.000685 -0.002891 0.010360 0.000000 0.000000 0.000000
# 4 0.000000 0.000000 0.000000 0.034297 0.000000 0.000000
# 5 0.000000 0.000000 0.000000 0.000000 0.046446 0.000000
# 6 0.000000 0.000000 0.000000 0.000000 0.000000 0.020123
#
#
# Mechanical properties :
#
#
# Convention : Reuss Voigt Hill
#
# Bulk Modulus (GPa) = 55.05156 56.62882 55.84019
# Shear Modulus (GPa) = 33.92532 38.58385 36.25459
#
# Velocity S-wave (km/s) = 3.61793 3.85834 3.74007
# Velocity P-wave (km/s) = 6.22038 6.45741 6.34000
#
# Compressibility (1/GPa) = 0.01816479
#
# Stress axis : x y z
#
# Youngs Moduli (GPa) = 143.32190 83.50446 96.52247
#
# Poissons Ratio (x) = 0.16686 0.06612
# Poissons Ratio (y) = 0.28639 0.27904
# Poissons Ratio (z) = 0.09817 0.24140
#
# Static dielectric constant tensor:
#      x y z
#    x 2.096340 0.000000 0.000000 
#    y 0.000000 2.083350 0.000000 
#    z 0.000000 0.000000 2.006990 
# 
# From -- ./inp_files/1587.got.cif
#   From: 2010.05.17/outbox.cif.g08.bks.cpg/sg29_1_cif.got.tgz:1587.got - 2010.06.04 01:19:37.
