data_PCOD9341810
_publ_section_title
;
Structure prediction by ZEFSAII (Michael W. Deem and Ramdas Pophale) SiO2 
 PCOD9341810
Probable space group: P N C 2
;
_chemical_formula_sum "Si O2"
_cell_formula_units_Z 32
_cell_length_a 38.216344
_cell_length_b 6.919862
_cell_length_c 5.265437
_cell_angle_alpha 90.000000
_cell_angle_beta 90.000000
_cell_angle_gamma 90.000000
_cell_volume 1392.454433
_symmetry_space_group_name_H-M "P N C 2"
_symmetry_group_IT_number 30
_symmetry_cell_setting 'orthorhombic'
loop_
_space_group_symop_operation_xyz
x,y,z
-x,-y,z
-x,1/2+y,1/2+z
x,1/2-y,1/2+z
loop_
_atom_site_type_symbol
_atom_site_label
_atom_site_fract_x
_atom_site_fract_y
_atom_site_fract_z
Si Si1 0.108626 0.621018 0.997160
Si Si2 0.183714 0.880309 0.591567
Si Si3 0.465247 0.376009 0.998520
Si Si4 0.256200 0.467120 0.942810
Si Si5 0.034666 0.876539 0.604842
Si Si6 0.609814 0.519113 0.153237
Si Si7 0.715603 0.532621 0.442470
Si Si8 0.637401 0.539134 0.652799
O O1 0.108536 0.706529 0.711062
O O2 0.145801 0.521013 0.049453
O O3 0.071808 0.517099 0.052716
O O4 0.185223 0.715831 0.370228
O O5 0.216932 0.015001 0.542397
O O6 0.500000 0.500000 0.033437
O O7 0.464888 0.288418 0.716181
O O8 0.429383 0.490551 0.050008
O O9 0.260491 0.556422 0.663559
O O10 0.269380 0.248774 0.900761
O O11 0.281203 0.552159 0.161566
O O12 0.034492 0.709946 0.388781
O O13 0.000000 0.000000 0.567672
O O14 0.635518 0.449392 0.931701
O O15 0.621865 0.744433 0.191882
O O16 0.613542 0.442230 0.437340
O O17 0.676377 0.543843 0.544773
#
# Coordination Sequence:
#
# PCOD9341810 Si02
#       8
#     4   4   4   4   4   4   4   4
#     4   8  16  30  49  71  93 128 179 219 254 303
#     4  10  19  32  50  71  93 135 184 215 241 303
#     4  12  23  40  59  89 122 152 187 234 278 332
#     4  10  18  30  46  68 105 125 157 206 261 307
#     4  10  19  33  55  79 109 141 178 235 284 334
#     4  10  16  29  49  77 106 124 169 220 262 287
#     4  10  19  30  48  79 103 127 161 209 281 303
#     4  10  16  28  51  74 105 122 175 221 262 285
#
# _framework density 22.981000000000002
#
# number of rings (size 3 to 8) (size 9 to 14) (size 15 to 20)
#    0.000    2.000    2.500    5.250    0.000    0.000 
#    0.000    0.000    5.500    0.000    0.000   29.750 
#    0.000    0.000    0.000    0.000    0.000    0.000 
#
# Total GULP energy -178587.869160 kJ/mol
# GULP energy per Si atom -5580.870911 kJ/mol
# Density = 2.292869 g / cm^3
# Si number density = 22.981000 Si / 1000 Ang^3
#
#
#
# Elastic Constant Matrix: (Units=GPa)
#
#
# Indices 1 2 3 4 5 6 
#
# 1 163.5576 -6.7810 -12.5454 0.0000 0.0000 0.0000
# 2 -6.7810 42.2267 -18.0649 0.0000 0.0000 0.0000
# 3 -12.5454 -18.0649 145.2901 0.0000 0.0000 0.0000
# 4 0.0000 0.0000 0.0000 -14.0640 0.0000 0.0000
# 5 0.0000 0.0000 0.0000 0.0000 38.3018 0.0000
# 6 0.0000 0.0000 0.0000 0.0000 0.0000 28.1202
#
#
#
# Elastic Compliance Matrix: (Units=1/GPa)
#
#
# Indices 1 2 3 4 5 6 
#
# 1 0.006221 0.001298 0.000699 0.000000 0.000000 0.000000
# 2 0.001298 0.025283 0.003256 0.000000 0.000000 0.000000
# 3 0.000699 0.003256 0.007348 0.000000 0.000000 0.000000
# 4 0.000000 0.000000 0.000000 -0.071103 0.000000 0.000000
# 5 0.000000 0.000000 0.000000 0.000000 0.026108 0.000000
# 6 0.000000 0.000000 0.000000 0.000000 0.000000 0.035562
#
#
# Mechanical properties :
#
#
# Convention : Reuss Voigt Hill
#
# Bulk Modulus (GPa) = 20.26070 30.69911 25.47991
# Shear Modulus (GPa) = 141.37548 36.36930 88.87239
#
# Velocity S-wave (km/s) = 7.85188 3.98248 6.22544
# Velocity P-wave (km/s) = 9.54139 5.87659 7.92377
#
# Compressibility (1/GPa) = 0.04935664
#
# Stress axis : x y z
#
# Youngs Moduli (GPa) = 160.73429 39.55236 136.09333
#
# Poissons Ratio (x) = -0.05134 -0.09507
# Poissons Ratio (y) = -0.20862 -0.44307
# Poissons Ratio (z) = -0.11229 -0.12877
#
# Static dielectric constant tensor:
#      x y z
#    x 1.879230 0.000000 0.000000 
#    y 0.000000 2.255360 0.000000 
#    z 0.000000 0.000000 1.939270 
# 
# From -- ./inp_files/1078.got.cif
#   From: 2010.05.17/outbox.cif.g08.bks.cpg/sg30_1_cif.got.tgz:1078.got - 2010.06.03 17:03:02.
