data_PCOD9341004
_publ_section_title
;
Structure prediction by ZEFSAII (Michael W. Deem and Ramdas Pophale) SiO2 
 PCOD9341004
Probable space group: P C A 21
;
_chemical_formula_sum "Si O2"
_cell_formula_units_Z 28
_cell_length_a 11.130998
_cell_length_b 8.440026
_cell_length_c 12.290514
_cell_angle_alpha 90.000000
_cell_angle_beta 90.000000
_cell_angle_gamma 90.000000
_cell_volume 1154.643553
_symmetry_space_group_name_H-M "P C A 21"
_symmetry_group_IT_number 29
_symmetry_cell_setting 'orthorhombic'
loop_
_space_group_symop_operation_xyz
x,y,z
-x,-y,1/2+z
1/2-x,y,1/2+z
1/2+x,-y,z
loop_
_atom_site_type_symbol
_atom_site_label
_atom_site_fract_x
_atom_site_fract_y
_atom_site_fract_z
Si Si1 0.897114 0.897417 0.890850
Si Si2 0.969676 0.895847 0.237707
Si Si3 0.839870 0.681908 0.398945
Si Si4 0.328301 0.892411 0.096534
Si Si5 0.148807 0.436366 0.120303
Si Si6 0.388001 0.554067 0.216657
Si Si7 0.087564 0.766500 0.029862
O O1 0.787263 0.773983 0.885144
O O2 0.925737 0.987883 0.779240
O O3 0.015660 0.796913 0.920898
O O4 0.891922 0.026392 0.990479
O O5 0.937665 0.783419 0.335693
O O6 0.004439 0.794340 0.134075
O O7 0.855400 0.993590 0.197300
O O8 0.868143 0.692716 0.527071
O O9 0.852317 0.509447 0.338141
O O10 0.357977 0.721110 0.153427
O O11 0.195574 0.885523 0.048887
O O12 0.287037 0.437879 0.159300
O O13 0.137725 0.594346 0.048828
O O14 0.033919 0.448274 0.201007
#
# Coordination Sequence:
#
# PCOD9341004 Si02
#       7
#     4   4   4   4   4   4   4
#     4  11  24  43  73 107 143 196 252 310 382 460
#     4  11  23  43  70 104 142 186 249 304 373 459
#     4  12  26  43  77 107 145 199 254 311 388 457
#     4  10  24  44  70 101 148 191 241 315 375 447
#     4  11  25  46  70 102 151 190 247 305 378 448
#     4  11  26  47  73 109 147 199 250 311 380 459
#     4  10  22  44  65  98 146 183 239 308 364 442
#
# _framework density 24.249907
#
# number of rings (size 3 to 8) (size 9 to 14) (size 15 to 20)
#    0.000    1.143    1.429    3.429    6.000    2.286 
#    7.714    0.000    0.000    0.000    0.000    0.000 
#    0.000    0.000    0.000    0.000    0.000    0.000 
#
# Total GULP energy -155897.981612 kJ/mol
# GULP energy per Si atom -5567.785058 kJ/mol
# Density = 2.419471 g / cm^3
# Si number density = 24.249907 Si / 1000 Ang^3
#
#
#
# Elastic Constant Matrix: (Units=GPa)
#
#
# Indices 1 2 3 4 5 6 
#
# 1 94.7858 16.8594 12.6189 0.0000 0.0000 0.0000
# 2 16.8594 57.3472 13.1272 0.0000 0.0000 0.0000
# 3 12.6189 13.1272 83.0319 0.0000 0.0000 0.0000
# 4 0.0000 0.0000 0.0000 20.2481 0.0000 0.0000
# 5 0.0000 0.0000 0.0000 0.0000 33.3169 0.0000
# 6 0.0000 0.0000 0.0000 0.0000 0.0000 30.3641
#
#
#
# Elastic Compliance Matrix: (Units=1/GPa)
#
#
# Indices 1 2 3 4 5 6 
#
# 1 0.011252 -0.003026 -0.001232 0.000000 0.000000 0.000000
# 2 -0.003026 0.018906 -0.002529 0.000000 0.000000 0.000000
# 3 -0.001232 -0.002529 0.012631 0.000000 0.000000 0.000000
# 4 0.000000 0.000000 0.000000 0.049387 0.000000 0.000000
# 5 0.000000 0.000000 0.000000 0.000000 0.030015 0.000000
# 6 0.000000 0.000000 0.000000 0.000000 0.000000 0.032934
#
#
# Mechanical properties :
#
#
# Convention : Reuss Voigt Hill
#
# Bulk Modulus (GPa) = 34.22864 35.59733 34.91298
# Shear Modulus (GPa) = 28.02105 29.62310 28.82208
#
# Velocity S-wave (km/s) = 3.40297 3.49890 3.45127
# Velocity P-wave (km/s) = 5.43929 5.57084 5.50546
#
# Compressibility (1/GPa) = 0.02921530
#
# Stress axis : x y z
#
# Youngs Moduli (GPa) = 88.87052 52.89264 79.17277
#
# Poissons Ratio (x) = 0.16006 0.09751
# Poissons Ratio (y) = 0.26893 0.20024
# Poissons Ratio (z) = 0.10946 0.13377
#
# Static dielectric constant tensor:
#      x y z
#    x 1.928200 0.000000 0.000000 
#    y 0.000000 2.036570 0.000000 
#    z 0.000000 0.000000 1.990980 
# 
# From -- ./inp_files/3133.got.cif
#   From: 2010.05.17/outbox.cif.g08.bks.cpg/sg29_2_cif.got.tgz:3133.got - 2010.06.04 01:19:37.
