data_PCOD9341459
_publ_section_title
;
Structure prediction by ZEFSAII (Michael W. Deem and Ramdas Pophale) SiO2 
 PCOD9341459
Probable space group: P C A 21
;
_chemical_formula_sum "Si O2"
_cell_formula_units_Z 24
_cell_length_a 13.553287
_cell_length_b 7.500780
_cell_length_c 9.207571
_cell_angle_alpha 90.000000
_cell_angle_beta 90.000000
_cell_angle_gamma 90.000000
_cell_volume 936.043731
_symmetry_space_group_name_H-M "P C A 21"
_symmetry_group_IT_number 29
_symmetry_cell_setting 'orthorhombic'
loop_
_space_group_symop_operation_xyz
x,y,z
-x,-y,1/2+z
1/2-x,y,1/2+z
1/2+x,-y,z
loop_
_atom_site_type_symbol
_atom_site_label
_atom_site_fract_x
_atom_site_fract_y
_atom_site_fract_z
Si Si1 0.742729 0.970905 0.840640
Si Si2 0.254061 0.766917 0.099822
Si Si3 0.560705 0.476784 0.571734
Si Si4 0.944872 0.809460 0.748724
Si Si5 0.956958 0.961321 0.453799
Si Si6 0.556184 0.327322 0.271481
O O1 0.717024 0.053022 0.685106
O O2 0.837023 0.843855 0.817788
O O3 0.648352 0.878716 0.910840
O O4 0.749107 0.152719 0.938170
O O5 0.336789 0.616729 0.110803
O O6 0.153201 0.695469 0.172582
O O7 0.472894 0.353877 0.642000
O O8 0.558564 0.483259 0.396982
O O9 0.537296 0.651015 0.664708
O O10 0.958984 0.965629 0.625856
O O11 0.024710 0.852251 0.872970
O O12 0.039874 0.836343 0.383208
#
# Coordination Sequence:
#
# PCOD9341459 Si02
#       6
#     4   4   4   4   4   4
#     4  12  22  40  69 101 132 173 223 286 345 407
#     4  12  23  45  69  99 137 182 223 280 354 410
#     4  11  26  44  67  99 139 181 230 279 342 414
#     4  11  23  40  65  98 129 170 226 283 335 404
#     4  11  22  40  65  97 129 168 228 279 338 403
#     4  11  26  45  67 100 138 184 228 283 340 412
#
# _framework density 25.639828000000001
#
# number of rings (size 3 to 8) (size 9 to 14) (size 15 to 20)
#    0.000    0.667    6.667    1.000    2.333    2.667 
#    0.000    3.333    0.000    0.000    0.000    0.000 
#    0.000    0.000    0.000    0.000    0.000    0.000 
#
# Total GULP energy -134025.065386 kJ/mol
# GULP energy per Si atom -5584.377724 kJ/mol
# Density = 2.558147 g / cm^3
# Si number density = 25.639828 Si / 1000 Ang^3
#
#
#
# Elastic Constant Matrix: (Units=GPa)
#
#
# Indices 1 2 3 4 5 6 
#
# 1 162.5673 16.0338 43.4464 0.0000 0.0000 0.0000
# 2 16.0338 33.0199 -2.6129 0.0000 0.0000 0.0000
# 3 43.4464 -2.6129 129.6768 0.0000 0.0000 0.0000
# 4 0.0000 0.0000 0.0000 39.0245 0.0000 0.0000
# 5 0.0000 0.0000 0.0000 0.0000 46.0141 0.0000
# 6 0.0000 0.0000 0.0000 0.0000 0.0000 47.2477
#
#
#
# Elastic Compliance Matrix: (Units=1/GPa)
#
#
# Indices 1 2 3 4 5 6 
#
# 1 0.007177 -0.003681 -0.002479 0.000000 0.000000 0.000000
# 2 -0.003681 0.032221 0.001883 0.000000 0.000000 0.000000
# 3 -0.002479 0.001883 0.008580 0.000000 0.000000 0.000000
# 4 0.000000 0.000000 0.000000 0.025625 0.000000 0.000000
# 5 0.000000 0.000000 0.000000 0.000000 0.021732 0.000000
# 6 0.000000 0.000000 0.000000 0.000000 0.000000 0.021165
#
#
# Mechanical properties :
#
#
# Convention : Reuss Voigt Hill
#
# Bulk Modulus (GPa) = 25.36560 48.77762 37.07161
# Shear Modulus (GPa) = 36.18056 44.35036 40.26546
#
# Velocity S-wave (km/s) = 3.76055 4.16353 3.96716
# Velocity P-wave (km/s) = 5.36378 6.49452 5.95604
#
# Compressibility (1/GPa) = 0.03942346
#
# Stress axis : x y z
#
# Youngs Moduli (GPa) = 139.33836 31.03550 116.55221
#
# Poissons Ratio (x) = 0.11424 0.28889
# Poissons Ratio (y) = 0.51291 -0.21941
# Poissons Ratio (z) = 0.34537 -0.05842
#
# Static dielectric constant tensor:
#      x y z
#    x 2.015360 0.000000 0.000000 
#    y 0.000000 2.277880 0.000000 
#    z 0.000000 0.000000 1.994760 
# 
# From -- ./inp_files/1736.got.cif
#   From: 2010.05.17/outbox.cif.g08.bks.cpg/sg29_1_cif.got.tgz:1736.got - 2010.06.04 01:19:37.
