data_PCOD9341188
_publ_section_title
;
Structure prediction by ZEFSAII (Michael W. Deem and Ramdas Pophale) SiO2 
 PCOD9341188
Probable space group: P C A 21
;
_chemical_formula_sum "Si O2"
_cell_formula_units_Z 32
_cell_length_a 14.123872
_cell_length_b 5.183904
_cell_length_c 17.213720
_cell_angle_alpha 90.000000
_cell_angle_beta 90.000000
_cell_angle_gamma 90.000000
_cell_volume 1260.333435
_symmetry_space_group_name_H-M "P C A 21"
_symmetry_group_IT_number 29
_symmetry_cell_setting 'orthorhombic'
loop_
_space_group_symop_operation_xyz
x,y,z
-x,-y,1/2+z
1/2-x,y,1/2+z
1/2+x,-y,z
loop_
_atom_site_type_symbol
_atom_site_label
_atom_site_fract_x
_atom_site_fract_y
_atom_site_fract_z
Si Si1 0.803244 0.400253 0.092340
Si Si2 0.944504 0.490626 0.792435
Si Si3 0.263607 0.354319 0.738760
Si Si4 0.949199 0.860701 0.497009
Si Si5 0.619101 0.842366 0.837462
Si Si6 0.130833 0.930266 0.146626
Si Si7 0.928123 0.641806 0.965552
Si Si8 0.441729 0.899529 0.192814
O O1 0.803439 0.592779 0.165788
O O2 0.881330 0.190461 0.119426
O O3 0.700362 0.267446 0.101551
O O4 0.836936 0.545499 0.014920
O O5 0.845378 0.430936 0.750573
O O6 0.916735 0.642895 0.872032
O O7 0.014430 0.273220 0.823900
O O8 0.000271 0.666368 0.731582
O O9 0.201720 0.353227 0.816221
O O10 0.318518 0.095421 0.714202
O O11 0.879555 0.929593 0.425164
O O12 0.893058 0.866407 0.576955
O O13 0.993960 0.579294 0.484527
O O14 0.028798 0.084607 0.490882
O O15 0.626881 0.033176 0.764667
O O16 0.020698 0.883456 0.171955
#
# Coordination Sequence:
#
# PCOD9341188 Si02
#       8
#     4   4   4   4   4   4   4   4
#     4  12  25  42  72 106 147 194 243 309 368 447
#     4  10  23  46  69 101 138 190 241 302 361 437
#     4  11  25  42  71 108 141 190 250 301 369 435
#     4  11  26  47  75 104 146 195 241 300 372 437
#     4  11  22  44  71  97 147 187 245 304 367 443
#     4  11  26  43  68 107 144 189 249 300 371 439
#     4  11  26  48  73 105 145 194 238 299 374 435
#     4  11  21  44  69 100 140 193 241 301 362 439
#
# _framework density 25.390108000000001
#
# number of rings (size 3 to 8) (size 9 to 14) (size 15 to 20)
#    0.000    1.000    5.000    0.750    5.250    1.000 
#    4.500    0.000    0.000    0.000    0.000    0.000 
#    0.000    0.000    0.000    0.000    0.000    0.000 
#
# Total GULP energy -178758.609525 kJ/mol
# GULP energy per Si atom -5586.206548 kJ/mol
# Density = 2.533232 g / cm^3
# Si number density = 25.390108 Si / 1000 Ang^3
#
#
#
# Elastic Constant Matrix: (Units=GPa)
#
#
# Indices 1 2 3 4 5 6 
#
# 1 93.4980 10.1613 8.4291 0.0000 0.0000 0.0000
# 2 10.1613 71.6145 -11.5530 0.0000 0.0000 0.0000
# 3 8.4291 -11.5530 86.8494 0.0000 0.0000 0.0000
# 4 0.0000 0.0000 0.0000 28.8094 0.0000 0.0000
# 5 0.0000 0.0000 0.0000 0.0000 42.1726 0.0000
# 6 0.0000 0.0000 0.0000 0.0000 0.0000 31.1759
#
#
#
# Elastic Compliance Matrix: (Units=1/GPa)
#
#
# Indices 1 2 3 4 5 6 
#
# 1 0.011006 -0.001772 -0.001304 0.000000 0.000000 0.000000
# 2 -0.001772 0.014555 0.002108 0.000000 0.000000 0.000000
# 3 -0.001304 0.002108 0.011921 0.000000 0.000000 0.000000
# 4 0.000000 0.000000 0.000000 0.034711 0.000000 0.000000
# 5 0.000000 0.000000 0.000000 0.000000 0.023712 0.000000
# 6 0.000000 0.000000 0.000000 0.000000 0.000000 0.032076
#
#
# Mechanical properties :
#
#
# Convention : Reuss Voigt Hill
#
# Bulk Modulus (GPa) = 28.13201 29.55961 28.84581
# Shear Modulus (GPa) = 35.26966 36.75989 36.01477
#
# Velocity S-wave (km/s) = 3.73112 3.80913 3.77033
# Velocity P-wave (km/s) = 5.44662 5.56897 5.50813
#
# Compressibility (1/GPa) = 0.03554670
#
# Stress axis : x y z
#
# Youngs Moduli (GPa) = 90.86346 68.70414 83.88446
#
# Poissons Ratio (x) = 0.12174 0.10937
# Poissons Ratio (y) = 0.16100 -0.17684
# Poissons Ratio (z) = 0.11847 -0.14484
#
# Static dielectric constant tensor:
#      x y z
#    x 2.146950 0.000000 0.000000 
#    y 0.000000 2.112620 0.000000 
#    z 0.000000 0.000000 2.053620 
# 
# From -- ./inp_files/5227.got.cif
#   From: 2010.05.17/outbox.cif.g08.bks.cpg/sg29_3_cif.got.tgz:5227.got - 2010.06.04 01:19:37.
