data_PCOD9341633
_publ_section_title
;
Structure prediction by ZEFSAII (Michael W. Deem and Ramdas Pophale) SiO2 
 PCOD9341633
Probable space group: P C A 21
;
_chemical_formula_sum "Si O2"
_cell_formula_units_Z 28
_cell_length_a 8.652799
_cell_length_b 10.903188
_cell_length_c 13.420912
_cell_angle_alpha 90.000000
_cell_angle_beta 90.000000
_cell_angle_gamma 90.000000
_cell_volume 1266.170365
_symmetry_space_group_name_H-M "P C A 21"
_symmetry_group_IT_number 29
_symmetry_cell_setting 'orthorhombic'
loop_
_space_group_symop_operation_xyz
x,y,z
-x,-y,1/2+z
1/2-x,y,1/2+z
1/2+x,-y,z
loop_
_atom_site_type_symbol
_atom_site_label
_atom_site_fract_x
_atom_site_fract_y
_atom_site_fract_z
Si Si1 0.648077 0.381040 0.832110
Si Si2 0.343945 0.445661 0.161954
Si Si3 0.402574 0.250000 0.692975
Si Si4 0.648077 0.118960 0.553840
Si Si5 0.843945 0.945661 0.223995
Si Si6 0.653689 0.148633 0.321835
Si Si7 0.153689 0.648633 0.064115
O O1 0.664347 0.510908 0.776934
O O2 0.507398 0.316479 0.774586
O O3 0.795227 0.290662 0.815767
O O4 0.621710 0.384963 0.949479
O O5 0.209281 0.348974 0.142819
O O6 0.299235 0.568067 0.101233
O O7 0.506241 0.389753 0.128960
O O8 0.507398 0.183521 0.611364
O O9 0.290719 0.151026 0.743131
O O10 0.621710 0.115037 0.436471
O O11 0.795227 0.209338 0.570183
O O12 0.664347 0.989092 0.609015
O O13 0.006241 0.889753 0.256989
O O14 0.799235 0.068067 0.284717
#
# Coordination Sequence:
#
# PCOD9341633 Si02
#       7
#     4   4   4   4   4   4   4
#     4  11  25  49  70 102 143 182 235 298 340 427
#     4  12  25  46  70 105 140 187 226 292 350 420
#     4  12  26  44  70 100 144 182 232 280 356 406
#     4  11  25  49  70 102 143 182 235 298 340 427
#     4  12  25  46  70 105 140 187 226 292 350 420
#     4  11  25  45  75 102 141 185 236 287 359 408
#     4  11  25  45  75 102 141 185 236 287 359 408
#
# _framework density 22.113928999999999
#
# number of rings (size 3 to 8) (size 9 to 14) (size 15 to 20)
#    0.000    0.571    5.714    0.000    8.000    1.143 
#    5.143    0.000    0.000    0.000    0.000    0.000 
#    0.000    0.000    0.000    0.000    0.000    0.000 
#
# Total GULP energy -156751.601626 kJ/mol
# GULP energy per Si atom -5598.271487 kJ/mol
# Density = 2.206360 g / cm^3
# Si number density = 22.113929 Si / 1000 Ang^3
#
#
#
# Elastic Constant Matrix: (Units=GPa)
#
#
# Indices 1 2 3 4 5 6 
#
# 1 107.1811 19.0178 40.6269 0.0000 0.0000 0.0000
# 2 19.0178 33.3327 16.7766 0.0000 0.0000 0.0000
# 3 40.6269 16.7766 117.0674 0.0000 0.0000 0.0000
# 4 0.0000 0.0000 0.0000 31.1068 0.0000 0.0000
# 5 0.0000 0.0000 0.0000 0.0000 14.9311 0.0000
# 6 0.0000 0.0000 0.0000 0.0000 0.0000 45.3771
#
#
#
# Elastic Compliance Matrix: (Units=1/GPa)
#
#
# Indices 1 2 3 4 5 6 
#
# 1 0.011435 -0.004879 -0.003269 0.000000 0.000000 0.000000
# 2 -0.004879 0.034414 -0.003239 0.000000 0.000000 0.000000
# 3 -0.003269 -0.003239 0.010141 0.000000 0.000000 0.000000
# 4 0.000000 0.000000 0.000000 0.032147 0.000000 0.000000
# 5 0.000000 0.000000 0.000000 0.000000 0.066974 0.000000
# 6 0.000000 0.000000 0.000000 0.000000 0.000000 0.022038
#
#
# Mechanical properties :
#
#
# Convention : Reuss Voigt Hill
#
# Bulk Modulus (GPa) = 30.10542 45.60264 37.85403
# Shear Modulus (GPa) = 23.69734 30.36034 27.02884
#
# Velocity S-wave (km/s) = 3.27709 3.70929 3.49987
# Velocity P-wave (km/s) = 5.28795 6.24593 5.78679
#
# Compressibility (1/GPa) = 0.03321661
#
# Stress axis : x y z
#
# Youngs Moduli (GPa) = 87.45202 29.05778 98.61203
#
# Poissons Ratio (x) = 0.14176 0.32238
# Poissons Ratio (y) = 0.42665 0.31938
# Poissons Ratio (z) = 0.28590 0.09411
#
# Static dielectric constant tensor:
#      x y z
#    x 1.794810 0.000000 0.000000 
#    y 0.000000 1.905200 0.000000 
#    z 0.000000 0.000000 1.799880 
# 
# From -- ./inp_files/4231.got.cif
#   From: 2010.05.17/outbox.cif.g08.bks.cpg/sg29_3_cif.got.tgz:4231.got - 2010.06.04 01:19:37.
