data_PCOD9341897
_publ_section_title
;
Structure prediction by ZEFSAII (Michael W. Deem and Ramdas Pophale) SiO2 
 PCOD9341897
Probable space group: P N C 2
;
_chemical_formula_sum "Si O2"
_cell_formula_units_Z 20
_cell_length_a 8.136624
_cell_length_b 5.632297
_cell_length_c 21.039991
_cell_angle_alpha 90.000000
_cell_angle_beta 90.000000
_cell_angle_gamma 90.000000
_cell_volume 964.218245
_symmetry_space_group_name_H-M "P N C 2"
_symmetry_group_IT_number 30
_symmetry_cell_setting 'orthorhombic'
loop_
_space_group_symop_operation_xyz
x,y,z
-x,-y,z
-x,1/2+y,1/2+z
x,1/2-y,1/2+z
loop_
_atom_site_type_symbol
_atom_site_label
_atom_site_fract_x
_atom_site_fract_y
_atom_site_fract_z
Si Si1 0.174423 0.359510 0.821510
Si Si2 0.000000 0.500000 0.400668
Si Si3 0.325608 0.136104 0.567417
Si Si4 0.898805 0.747649 0.187257
Si Si5 0.256870 0.641125 0.941432
Si Si6 0.500000 0.500000 0.492326
O O1 0.215490 0.311721 0.748437
O O2 0.272051 0.504410 0.874678
O O3 0.000000 0.500000 0.817390
O O4 0.137772 0.111599 0.855671
O O5 0.908768 0.296820 0.439001
O O6 0.208600 0.169397 0.626990
O O7 0.365836 0.393468 0.539236
O O8 0.500000 0.000000 0.581487
O O9 0.249071 0.008329 0.505955
O O10 0.000000 0.500000 0.203170
O O11 0.000000 0.000000 0.175220
O O12 0.417064 0.801301 0.950222
#
# Coordination Sequence:
#
# PCOD9341897 Si02
#       6
#     4   2   4   4   4   2
#     4   9  19  38  63  93 133 166 213 277 336 387
#     4  10  18  36  66  92 128 164 210 282 326 396
#     4  10  24  44  67  93 138 180 224 281 345 407
#     4  11  25  44  71 102 135 180 232 282 340 411
#     4  10  21  38  65  97 126 173 219 275 338 396
#     4  10  22  42  64  86 134 176 216 280 336 402
#
# _framework density 20.742190000000001
#
# number of rings (size 3 to 8) (size 9 to 14) (size 15 to 20)
#    0.000    2.000    1.000    1.200    5.600    4.000 
#    1.800    0.000   28.600    0.000    0.000    0.000 
#    0.000    0.000    0.000    0.000    0.000    0.000 
#
# Total GULP energy -111435.518706 kJ/mol
# GULP energy per Si atom -5571.775935 kJ/mol
# Density = 2.069498 g / cm^3
# Si number density = 20.742190 Si / 1000 Ang^3
#
#
#
# Elastic Constant Matrix: (Units=GPa)
#
#
# Indices 1 2 3 4 5 6 
#
# 1 31.3468 13.3640 51.1984 0.0000 0.0000 0.0000
# 2 13.3640 91.9565 54.3083 0.0000 0.0000 0.0000
# 3 51.1984 54.3083 185.9871 0.0000 0.0000 0.0000
# 4 0.0000 0.0000 0.0000 -1.1052 0.0000 0.0000
# 5 0.0000 0.0000 0.0000 0.0000 55.2063 0.0000
# 6 0.0000 0.0000 0.0000 0.0000 0.0000 30.6354
#
#
#
# Elastic Compliance Matrix: (Units=1/GPa)
#
#
# Indices 1 2 3 4 5 6 
#
# 1 0.058072 0.001210 -0.016340 0.000000 0.000000 0.000000
# 2 0.001210 0.013166 -0.004178 0.000000 0.000000 0.000000
# 3 -0.016340 -0.004178 0.011095 0.000000 0.000000 0.000000
# 4 0.000000 0.000000 0.000000 -0.904836 0.000000 0.000000
# 5 0.000000 0.000000 0.000000 0.000000 0.018114 0.000000
# 6 0.000000 0.000000 0.000000 0.000000 0.000000 0.032642
#
#
# Mechanical properties :
#
#
# Convention : Reuss Voigt Hill
#
# Bulk Modulus (GPa) = 22.87325 60.78133 41.82729
# Shear Modulus (GPa) = -6.95836 29.64195 11.34180
#
# Velocity S-wave (km/s) = -1.83357 3.78440 2.34091
# Velocity P-wave (km/s) = 2.56295 6.96150 5.24553
#
# Compressibility (1/GPa) = 0.04371920
#
# Stress axis : x y z
#
# Youngs Moduli (GPa) = 17.21987 75.95269 90.13454
#
# Poissons Ratio (x) = -0.09192 1.47276
# Poissons Ratio (y) = -0.02084 0.37655
# Poissons Ratio (z) = 0.28136 0.31730
#
# Static dielectric constant tensor:
#      x y z
#    x 1.770580 0.000000 0.000000 
#    y 0.000000 1.868760 0.000000 
#    z 0.000000 0.000000 1.736780 
# 
# From -- ./inp_files/6192.got.cif
#   From: 2010.05.17/outbox.cif.g08.bks.cpg/sg30_4_cif.got.tgz:6192.got - 2010.06.03 17:03:02.
