data_PCOD9341366
_publ_section_title
;
Structure prediction by ZEFSAII (Michael W. Deem and Ramdas Pophale) SiO2 
 PCOD9341366
Probable space group: P C A 21
;
_chemical_formula_sum "Si O2"
_cell_formula_units_Z 24
_cell_length_a 9.493279
_cell_length_b 5.408673
_cell_length_c 18.981169
_cell_angle_alpha 90.000000
_cell_angle_beta 90.000000
_cell_angle_gamma 90.000000
_cell_volume 974.607897
_symmetry_space_group_name_H-M "P C A 21"
_symmetry_group_IT_number 29
_symmetry_cell_setting 'orthorhombic'
loop_
_space_group_symop_operation_xyz
x,y,z
-x,-y,1/2+z
1/2-x,y,1/2+z
1/2+x,-y,z
loop_
_atom_site_type_symbol
_atom_site_label
_atom_site_fract_x
_atom_site_fract_y
_atom_site_fract_z
Si Si1 0.050073 0.003920 0.333940
Si Si2 0.392852 0.186671 0.623549
Si Si3 0.962350 0.320860 0.579955
Si Si4 0.311266 0.168217 0.254406
Si Si5 0.590446 0.511355 0.866873
Si Si6 0.263784 0.441681 0.004489
O O1 0.210548 0.034469 0.312240
O O2 0.991690 0.254344 0.367896
O O3 0.959735 0.968867 0.261926
O O4 0.011000 0.753410 0.375232
O O5 0.471766 0.449126 0.634148
O O6 0.272684 0.169807 0.682461
O O7 0.320376 0.228430 0.546771
O O8 0.483994 0.943222 0.613587
O O9 0.803657 0.330653 0.548676
O O10 0.073994 0.391724 0.519726
O O11 0.340465 0.436056 0.289846
O O12 0.709221 0.530376 0.926129
#
# Coordination Sequence:
#
# PCOD9341366 Si02
#       6
#     4   4   4   4   4   4
#     4  10  26  40  69  96 130 170 218 269 325 389
#     4  10  26  40  68  96 134 171 219 269 327 388
#     4  10  26  39  69  94 132 171 218 268 326 389
#     4  10  26  42  70  94 135 172 222 269 330 383
#     4  10  26  41  70  96 134 169 220 268 328 388
#     4  10  26  44  70  96 135 171 221 269 330 385
#
# _framework density 24.625287
#
# number of rings (size 3 to 8) (size 9 to 14) (size 15 to 20)
#    2.000    0.000    0.000    0.000   14.000    1.333 
#    0.000    0.000    0.000    0.000    0.000    0.000 
#    0.000    0.000    0.000    0.000    0.000    0.000 
#
# Total GULP energy -133887.139265 kJ/mol
# GULP energy per Si atom -5578.630803 kJ/mol
# Density = 2.456924 g / cm^3
# Si number density = 24.625287 Si / 1000 Ang^3
#
#
#
# Elastic Constant Matrix: (Units=GPa)
#
#
# Indices 1 2 3 4 5 6 
#
# 1 68.5459 5.2546 8.2463 0.0000 0.0000 0.0000
# 2 5.2546 149.9571 14.4977 0.0000 0.0000 0.0000
# 3 8.2463 14.4977 81.8619 0.0000 0.0000 0.0000
# 4 0.0000 0.0000 0.0000 13.7657 0.0000 0.0000
# 5 0.0000 0.0000 0.0000 0.0000 42.7010 0.0000
# 6 0.0000 0.0000 0.0000 0.0000 0.0000 -3.7925
#
#
#
# Elastic Compliance Matrix: (Units=1/GPa)
#
#
# Indices 1 2 3 4 5 6 
#
# 1 0.014789 -0.000381 -0.001422 0.000000 0.000000 0.000000
# 2 -0.000381 0.006795 -0.001165 0.000000 0.000000 0.000000
# 3 -0.001422 -0.001165 0.012565 0.000000 0.000000 0.000000
# 4 0.000000 0.000000 0.000000 0.072644 0.000000 0.000000
# 5 0.000000 0.000000 0.000000 0.000000 0.023419 0.000000
# 6 0.000000 0.000000 0.000000 0.000000 0.000000 -0.263675
#
#
# Mechanical properties :
#
#
# Convention : Reuss Voigt Hill
#
# Bulk Modulus (GPa) = 35.44481 39.59579 37.52030
# Shear Modulus (GPa) = -42.32879 28.69258 -6.81811
#
# Velocity S-wave (km/s) = -4.15048 3.41716 -1.66576
# Velocity P-wave (km/s) = 2.92296 5.62881 3.40146
#
# Compressibility (1/GPa) = 0.02821287
#
# Stress axis : x y z
#
# Youngs Moduli (GPa) = 67.61753 147.17697 79.58435
#
# Poissons Ratio (x) = 0.05603 0.11320
# Poissons Ratio (y) = 0.02574 0.09271
# Poissons Ratio (z) = 0.09617 0.17146
#
# Static dielectric constant tensor:
#      x y z
#    x 1.945430 0.000000 0.000000 
#    y 0.000000 1.990210 0.000000 
#    z 0.000000 0.000000 1.965680 
# 
# From -- ./inp_files/5065.got.cif
#   From: 2010.05.17/outbox.cif.g08.bks.cpg/sg29_3_cif.got.tgz:5065.got - 2010.06.04 01:19:37.
