data_PCOD9341189
_publ_section_title
;
Structure prediction by ZEFSAII (Michael W. Deem and Ramdas Pophale) SiO2 
 PCOD9341189
Probable space group: P C A 21
;
_chemical_formula_sum "Si O2"
_cell_formula_units_Z 16
_cell_length_a 7.854078
_cell_length_b 8.537915
_cell_length_c 10.793253
_cell_angle_alpha 90.000000
_cell_angle_beta 90.000000
_cell_angle_gamma 90.000000
_cell_volume 723.768027
_symmetry_space_group_name_H-M "P C A 21"
_symmetry_group_IT_number 29
_symmetry_cell_setting 'orthorhombic'
loop_
_space_group_symop_operation_xyz
x,y,z
-x,-y,1/2+z
1/2-x,y,1/2+z
1/2+x,-y,z
loop_
_atom_site_type_symbol
_atom_site_label
_atom_site_fract_x
_atom_site_fract_y
_atom_site_fract_z
Si Si1 0.809308 0.173447 0.542360
Si Si2 0.309315 0.173450 0.042358
Si Si3 0.499996 0.596155 0.687214
Si Si4 0.999996 0.635526 0.454744
O O1 0.840888 0.287991 0.659594
O O2 0.666508 0.255980 0.460802
O O3 0.999996 0.164272 0.485711
O O4 0.749997 0.999998 0.576440
O O5 0.340894 0.287994 0.159591
O O6 0.166517 0.255982 0.960797
O O7 0.499994 0.472534 0.576222
O O8 0.499998 0.539934 0.827059
#
# Coordination Sequence:
#
# PCOD9341189 Si02
#       4
#     4   4   4   4
#     4  10  23  46  69 102 140 183 227 288 351 411
#     4  10  23  46  69 102 140 183 227 288 351 411
#     4  10  27  42  74 102 136 192 225 286 348 414
#     4  12  23  50  68 104 144 180 235 284 348 412
#
# _framework density 22.106532000000001
#
# number of rings (size 3 to 8) (size 9 to 14) (size 15 to 20)
#    1.500    0.000    2.500    1.500    0.000   10.000 
#    4.500    0.000    0.000    0.000    0.000    0.000 
#    0.000    0.000    0.000    0.000    0.000    0.000 
#
# Total GULP energy -89203.126093 kJ/mol
# GULP energy per Si atom -5575.195381 kJ/mol
# Density = 2.205622 g / cm^3
# Si number density = 22.106532 Si / 1000 Ang^3
#
#
#
# Elastic Constant Matrix: (Units=GPa)
#
#
# Indices 1 2 3 4 5 6 
#
# 1 163.7429 45.7933 41.9131 0.0000 0.0000 0.0000
# 2 45.7933 110.0749 35.2578 0.0000 0.0000 0.0000
# 3 41.9131 35.2578 119.5366 0.0000 0.0000 0.0000
# 4 0.0000 0.0000 0.0000 18.2142 0.0000 0.0000
# 5 0.0000 0.0000 0.0000 0.0000 3.7616 0.0000
# 6 0.0000 0.0000 0.0000 0.0000 0.0000 23.6275
#
#
#
# Elastic Compliance Matrix: (Units=1/GPa)
#
#
# Indices 1 2 3 4 5 6 
#
# 1 0.007255 -0.002433 -0.001826 0.000000 0.000000 0.000000
# 2 -0.002433 0.010849 -0.002347 0.000000 0.000000 0.000000
# 3 -0.001826 -0.002347 0.009698 0.000000 0.000000 0.000000
# 4 0.000000 0.000000 0.000000 0.054902 0.000000 0.000000
# 5 0.000000 0.000000 0.000000 0.000000 0.265846 0.000000
# 6 0.000000 0.000000 0.000000 0.000000 0.000000 0.042324
#
#
# Mechanical properties :
#
#
# Convention : Reuss Voigt Hill
#
# Bulk Modulus (GPa) = 68.54193 71.03144 69.78668
# Shear Modulus (GPa) = 12.22647 27.14666 19.68657
#
# Velocity S-wave (km/s) = 2.35430 3.50807 2.98742
# Velocity P-wave (km/s) = 6.20184 6.97208 6.59821
#
# Compressibility (1/GPa) = 0.01458961
#
# Stress axis : x y z
#
# Youngs Moduli (GPa) = 137.83422 92.17697 103.11299
#
# Poissons Ratio (x) = 0.22430 0.18830
# Poissons Ratio (y) = 0.33540 0.24197
# Poissons Ratio (z) = 0.25170 0.21631
#
# Static dielectric constant tensor:
#      x y z
#    x 1.876840 0.000000 0.000000 
#    y 0.000000 1.819630 0.000000 
#    z 0.000000 0.000000 1.789510 
# 
# From -- ./inp_files/1039.got.cif
#   From: 2010.05.17/outbox.cif.g08.bks.cpg/sg29_1_cif.got.tgz:1039.got - 2010.06.04 01:19:37.
