data_PCOD9341252
_publ_section_title
;
Structure prediction by ZEFSAII (Michael W. Deem and Ramdas Pophale) SiO2 
 PCOD9341252
Probable space group: P C A 21
;
_chemical_formula_sum "Si O2"
_cell_formula_units_Z 28
_cell_length_a 19.168699
_cell_length_b 5.493932
_cell_length_c 11.279281
_cell_angle_alpha 90.000000
_cell_angle_beta 90.000000
_cell_angle_gamma 90.000000
_cell_volume 1187.838326
_symmetry_space_group_name_H-M "P C A 21"
_symmetry_group_IT_number 29
_symmetry_cell_setting 'orthorhombic'
loop_
_space_group_symop_operation_xyz
x,y,z
-x,-y,1/2+z
1/2-x,y,1/2+z
1/2+x,-y,z
loop_
_atom_site_type_symbol
_atom_site_label
_atom_site_fract_x
_atom_site_fract_y
_atom_site_fract_z
Si Si1 0.749854 0.925305 0.690130
Si Si2 0.891374 0.696938 0.679198
Si Si3 0.999115 0.069235 0.628163
Si Si4 0.179108 0.586043 0.743438
Si Si5 0.940383 0.346239 0.849625
Si Si6 0.428115 0.596961 0.458487
Si Si7 0.639652 0.097832 0.540607
O O1 0.831695 0.896965 0.675941
O O2 0.718585 0.672547 0.742044
O O3 0.728065 0.172569 0.758589
O O4 0.712630 0.966258 0.561908
O O5 0.889589 0.555222 0.802295
O O6 0.884153 0.523070 0.565432
O O7 0.967489 0.814731 0.669585
O O8 0.978165 0.250845 0.732051
O O9 0.958321 0.149324 0.509032
O O10 0.080908 0.054550 0.610144
O O11 0.147475 0.647359 0.612896
O O12 0.119390 0.601732 0.842549
O O13 0.893604 0.147811 0.914756
O O14 0.001646 0.443466 0.933232
#
# Coordination Sequence:
#
# PCOD9341252 Si02
#       7
#     4   4   4   4   4   4   4
#     4  10  26  48  73 104 153 193 246 302 375 453
#     4  11  26  47  69 108 150 191 257 310 379 452
#     4  11  25  43  70 105 147 188 250 318 371 451
#     4  10  25  47  74 105 147 196 247 295 382 451
#     4  11  25  42  71 111 145 193 252 317 380 447
#     4  11  25  43  75 107 146 193 251 312 384 441
#     4  10  24  42  76 104 148 192 249 306 379 449
#
# _framework density 23.572232
#
# number of rings (size 3 to 8) (size 9 to 14) (size 15 to 20)
#    0.857    0.571    1.429    1.714   14.000    0.000 
#    7.714    0.000    0.000    0.000    0.000    0.000 
#    0.000    0.000    0.000    0.000    0.000    0.000 
#
# Total GULP energy -156473.844941 kJ/mol
# GULP energy per Si atom -5588.351605 kJ/mol
# Density = 2.351858 g / cm^3
# Si number density = 23.572232 Si / 1000 Ang^3
#
#
#
# Elastic Constant Matrix: (Units=GPa)
#
#
# Indices 1 2 3 4 5 6 
#
# 1 86.8314 11.8420 29.0739 0.0000 0.0000 0.0000
# 2 11.8420 95.5641 18.1237 0.0000 0.0000 0.0000
# 3 29.0739 18.1237 61.7406 0.0000 0.0000 0.0000
# 4 0.0000 0.0000 0.0000 28.1742 0.0000 0.0000
# 5 0.0000 0.0000 0.0000 0.0000 21.7263 0.0000
# 6 0.0000 0.0000 0.0000 0.0000 0.0000 36.3142
#
#
#
# Elastic Compliance Matrix: (Units=1/GPa)
#
#
# Indices 1 2 3 4 5 6 
#
# 1 0.013695 -0.000502 -0.006302 0.000000 0.000000 0.000000
# 2 -0.000502 0.011099 -0.003022 0.000000 0.000000 0.000000
# 3 -0.006302 -0.003022 0.020051 0.000000 0.000000 0.000000
# 4 0.000000 0.000000 0.000000 0.035493 0.000000 0.000000
# 5 0.000000 0.000000 0.000000 0.000000 0.046027 0.000000
# 6 0.000000 0.000000 0.000000 0.000000 0.000000 0.027537
#
#
# Mechanical properties :
#
#
# Convention : Reuss Voigt Hill
#
# Bulk Modulus (GPa) = 39.69060 40.24616 39.96838
# Shear Modulus (GPa) = 27.47961 29.58272 28.53116
#
# Velocity S-wave (km/s) = 3.41803 3.54642 3.48281
# Velocity P-wave (km/s) = 5.69663 5.82066 5.75898
#
# Compressibility (1/GPa) = 0.02519488
#
# Stress axis : x y z
#
# Youngs Moduli (GPa) = 73.01916 90.09435 49.87194
#
# Poissons Ratio (x) = 0.04522 0.31428
# Poissons Ratio (y) = 0.03665 0.15071
# Poissons Ratio (z) = 0.46015 0.27225
#
# Static dielectric constant tensor:
#      x y z
#    x 1.844400 0.000000 0.000000 
#    y 0.000000 1.925630 0.000000 
#    z 0.000000 0.000000 1.914780 
# 
# From -- ./inp_files/3752.got.cif
#   From: 2010.05.17/outbox.cif.g08.bks.cpg/sg29_2_cif.got.tgz:3752.got - 2010.06.04 01:19:37.
