data_PCOD9341145
_publ_section_title
;
Structure prediction by ZEFSAII (Michael W. Deem and Ramdas Pophale) SiO2 
 PCOD9341145
Probable space group: P C A 21
;
_chemical_formula_sum "Si O2"
_cell_formula_units_Z 32
_cell_length_a 8.553587
_cell_length_b 11.644970
_cell_length_c 14.225324
_cell_angle_alpha 90.000000
_cell_angle_beta 90.000000
_cell_angle_gamma 90.000000
_cell_volume 1416.931378
_symmetry_space_group_name_H-M "P C A 21"
_symmetry_group_IT_number 29
_symmetry_cell_setting 'orthorhombic'
loop_
_space_group_symop_operation_xyz
x,y,z
-x,-y,1/2+z
1/2-x,y,1/2+z
1/2+x,-y,z
loop_
_atom_site_type_symbol
_atom_site_label
_atom_site_fract_x
_atom_site_fract_y
_atom_site_fract_z
Si Si1 0.336817 0.611917 0.538000
Si Si2 0.494347 0.504733 0.868660
Si Si3 0.674868 0.691705 0.280876
Si Si4 0.983572 0.831035 0.642760
Si Si5 0.909984 0.254114 0.960156
Si Si6 0.437400 0.119171 0.310081
Si Si7 0.276755 0.962823 0.699429
Si Si8 0.877456 0.546303 0.160115
O O1 0.390139 0.534954 0.450352
O O2 0.267416 0.729102 0.496092
O O3 0.194305 0.552735 0.595122
O O4 0.483966 0.612426 0.607516
O O5 0.369174 0.401138 0.858709
O O6 0.435088 0.631233 0.896720
O O7 0.563748 0.507057 0.763068
O O8 0.530210 0.765238 0.242373
O O9 0.816670 0.774701 0.308181
O O10 0.734524 0.627534 0.187537
O O11 0.980759 0.751121 0.551974
O O12 0.149712 0.894479 0.640702
O O13 0.846072 0.925267 0.647101
O O14 0.960510 0.141703 0.902738
O O15 0.572537 0.110237 0.230830
O O16 0.324158 0.011447 0.288660
#
# Coordination Sequence:
#
# PCOD9341145 Si02
#       8
#     4   4   4   4   4   4   4   4
#     4  12  27  41  65  99 142 199 249 286 349 433
#     4  12  25  43  66 101 157 194 246 295 348 447
#     4  11  23  41  71 100 139 198 232 296 364 437
#     4  10  23  44  73 103 138 184 247 310 380 435
#     4  12  25  39  65 106 141 186 241 295 358 453
#     4  10  23  43  73  99 134 179 240 305 376 434
#     4   9  22  48  73 100 132 180 250 321 375 437
#     4  12  24  43  64  94 145 204 237 296 346 424
#
# _framework density 22.584016999999999
#
# number of rings (size 3 to 8) (size 9 to 14) (size 15 to 20)
#    0.000    1.000    3.750    2.250    3.500    2.000 
#    0.000    0.000    0.000    0.000    0.000    0.000 
#    0.000    0.000    0.000    0.000    0.000    0.000 
#
# Total GULP energy -178547.990949 kJ/mol
# GULP energy per Si atom -5579.624717 kJ/mol
# Density = 2.253261 g / cm^3
# Si number density = 22.584017 Si / 1000 Ang^3
#
#
#
# Elastic Constant Matrix: (Units=GPa)
#
#
# Indices 1 2 3 4 5 6 
#
# 1 86.2002 31.3951 32.6602 0.0000 0.0000 0.0000
# 2 31.3951 58.9690 23.8525 0.0000 0.0000 0.0000
# 3 32.6602 23.8525 96.1578 0.0000 0.0000 0.0000
# 4 0.0000 0.0000 0.0000 32.7628 0.0000 0.0000
# 5 0.0000 0.0000 0.0000 0.0000 32.0978 0.0000
# 6 0.0000 0.0000 0.0000 0.0000 0.0000 36.8585
#
#
#
# Elastic Compliance Matrix: (Units=1/GPa)
#
#
# Indices 1 2 3 4 5 6 
#
# 1 0.015413 -0.006767 -0.003556 0.000000 0.000000 0.000000
# 2 -0.006767 0.021821 -0.003114 0.000000 0.000000 0.000000
# 3 -0.003556 -0.003114 0.012380 0.000000 0.000000 0.000000
# 4 0.000000 0.000000 0.000000 0.030522 0.000000 0.000000
# 5 0.000000 0.000000 0.000000 0.000000 0.031155 0.000000
# 6 0.000000 0.000000 0.000000 0.000000 0.000000 0.027131
#
#
# Mechanical properties :
#
#
# Convention : Reuss Voigt Hill
#
# Bulk Modulus (GPa) = 43.97959 46.34918 45.16438
# Shear Modulus (GPa) = 28.92226 30.57176 29.74701
#
# Velocity S-wave (km/s) = 3.58250 3.68324 3.63322
# Velocity P-wave (km/s) = 6.05215 6.21739 6.13532
#
# Compressibility (1/GPa) = 0.02273782
#
# Stress axis : x y z
#
# Youngs Moduli (GPa) = 64.87961 45.82804 80.77545
#
# Poissons Ratio (x) = 0.31014 0.28727
# Poissons Ratio (y) = 0.43907 0.25155
# Poissons Ratio (z) = 0.23074 0.14272
#
# Static dielectric constant tensor:
#      x y z
#    x 1.892370 0.000000 0.000000 
#    y 0.000000 1.900310 0.000000 
#    z 0.000000 0.000000 1.879880 
# 
# From -- ./inp_files/4329.got.cif
#   From: 2010.05.17/outbox.cif.g08.bks.cpg/sg29_3_cif.got.tgz:4329.got - 2010.06.04 01:19:37.
