data_PCOD9341380
_publ_section_title
;
Structure prediction by ZEFSAII (Michael W. Deem and Ramdas Pophale) SiO2 
 PCOD9341380
Probable space group: P C A 21
;
_chemical_formula_sum "Si O2"
_cell_formula_units_Z 20
_cell_length_a 11.161903
_cell_length_b 7.971839
_cell_length_c 9.732672
_cell_angle_alpha 90.000000
_cell_angle_beta 90.000000
_cell_angle_gamma 90.000000
_cell_volume 866.021852
_symmetry_space_group_name_H-M "P C A 21"
_symmetry_group_IT_number 29
_symmetry_cell_setting 'orthorhombic'
loop_
_space_group_symop_operation_xyz
x,y,z
-x,-y,1/2+z
1/2-x,y,1/2+z
1/2+x,-y,z
loop_
_atom_site_type_symbol
_atom_site_label
_atom_site_fract_x
_atom_site_fract_y
_atom_site_fract_z
Si Si1 0.133043 0.190946 0.147740
Si Si2 0.165398 0.307274 0.852039
Si Si3 0.866961 0.190947 0.140071
Si Si4 0.665402 0.307275 0.935773
Si Si5 0.500003 0.134379 0.143908
O O1 0.222184 0.277435 0.252278
O O2 0.395852 0.002244 0.102542
O O3 0.000002 0.272955 0.143906
O O4 0.177496 0.203186 0.991901
O O5 0.155993 0.499999 0.893909
O O6 0.049601 0.243480 0.768246
O O7 0.822504 0.203192 0.295908
O O8 0.604153 0.002243 0.185275
O O9 0.777823 0.277434 0.035529
O O10 0.549607 0.243478 0.019569
#
# Coordination Sequence:
#
# PCOD9341380 Si02
#       5
#     4   4   4   4   4
#     4  10  27  47  75 110 160 206 254 307 388 466
#     4  12  26  47  79 115 153 203 261 324 381 453
#     4  10  27  47  75 110 160 206 254 307 388 466
#     4  12  26  47  79 115 153 203 261 324 381 453
#     4  10  26  46  76 108 158 204 252 310 388 464
#
# _framework density 23.094104999999999
#
# number of rings (size 3 to 8) (size 9 to 14) (size 15 to 20)
#    1.200    0.000    0.000    3.600    8.400    1.600 
#    0.000    0.000    0.000    0.000    0.000    0.000 
#    0.000    0.000    0.000    0.000    0.000    0.000 
#
# Total GULP energy -111933.252392 kJ/mol
# GULP energy per Si atom -5596.662620 kJ/mol
# Density = 2.304154 g / cm^3
# Si number density = 23.094105 Si / 1000 Ang^3
#
#
#
# Elastic Constant Matrix: (Units=GPa)
#
#
# Indices 1 2 3 4 5 6 
#
# 1 100.4954 81.9217 114.2388 0.0000 0.0000 0.0000
# 2 81.9217 169.6182 80.1432 0.0000 0.0000 0.0000
# 3 114.2388 80.1432 191.9619 0.0000 0.0000 0.0000
# 4 0.0000 0.0000 0.0000 113.0854 0.0000 0.0000
# 5 0.0000 0.0000 0.0000 0.0000 61.2655 0.0000
# 6 0.0000 0.0000 0.0000 0.0000 0.0000 2.9702
#
#
#
# Elastic Compliance Matrix: (Units=1/GPa)
#
#
# Indices 1 2 3 4 5 6 
#
# 1 0.041830 -0.010515 -0.020503 0.000000 0.000000 0.000000
# 2 -0.010515 0.009988 0.002088 0.000000 0.000000 0.000000
# 3 -0.020503 0.002088 0.016539 0.000000 0.000000 0.000000
# 4 0.000000 0.000000 0.000000 0.008843 0.000000 0.000000
# 5 0.000000 0.000000 0.000000 0.000000 0.016322 0.000000
# 6 0.000000 0.000000 0.000000 0.000000 0.000000 0.336683
#
#
# Mechanical properties :
#
#
# Convention : Reuss Voigt Hill
#
# Bulk Modulus (GPa) = 95.27754 112.74256 104.01005
# Shear Modulus (GPa) = 10.17159 47.84900 29.01029
#
# Velocity S-wave (km/s) = 2.10095 4.55677 3.54810
# Velocity P-wave (km/s) = 6.87249 8.75273 7.86897
#
# Compressibility (1/GPa) = 0.01049565
#
# Stress axis : x y z
#
# Youngs Moduli (GPa) = 23.90641 100.12349 60.46137
#
# Poissons Ratio (x) = 1.05281 1.23966
# Poissons Ratio (y) = 0.25138 -0.12624
# Poissons Ratio (z) = 0.49016 -0.20905
#
# Static dielectric constant tensor:
#      x y z
#    x 1.919070 0.000000 0.000000 
#    y 0.000000 1.868300 0.000000 
#    z 0.000000 0.000000 1.807220 
# 
# From -- ./inp_files/1678.got.cif
#   From: 2010.05.17/outbox.cif.g08.bks.cpg/sg29_1_cif.got.tgz:1678.got - 2010.06.04 01:19:37.
