data_PCOD9341813
_publ_section_title
;
Structure prediction by ZEFSAII (Michael W. Deem and Ramdas Pophale) SiO2 
 PCOD9341813
Probable space group: P N C 2
;
_chemical_formula_sum "Si O2"
_cell_formula_units_Z 24
_cell_length_a 11.851783
_cell_length_b 16.429085
_cell_length_c 5.347180
_cell_angle_alpha 90.000000
_cell_angle_beta 90.000000
_cell_angle_gamma 90.000000
_cell_volume 1041.170541
_symmetry_space_group_name_H-M "P N C 2"
_symmetry_group_IT_number 30
_symmetry_cell_setting 'orthorhombic'
loop_
_space_group_symop_operation_xyz
x,y,z
-x,-y,z
-x,1/2+y,1/2+z
x,1/2-y,1/2+z
loop_
_atom_site_type_symbol
_atom_site_label
_atom_site_fract_x
_atom_site_fract_y
_atom_site_fract_z
Si Si1 0.188897 0.551969 0.590890
Si Si2 0.548176 0.407026 0.591920
Si Si3 0.125504 0.277814 0.258391
Si Si4 0.451824 0.407026 0.087301
Si Si5 0.811103 0.551969 0.088326
Si Si6 0.874497 0.277814 0.420829
O O1 0.318056 0.583244 0.605360
O O2 0.178196 0.500000 0.339608
O O3 0.118360 0.632944 0.540214
O O4 0.162414 0.500000 0.839608
O O5 0.500000 0.500000 0.590996
O O6 0.499999 0.368801 0.339611
O O7 0.500001 0.366410 0.839611
O O8 0.181312 0.275700 0.536234
O O9 0.118360 0.367056 0.139004
O O10 0.000000 0.250622 0.339610
O O11 0.500000 0.500000 0.088227
O O12 0.318056 0.416756 0.073857
O O13 0.818688 0.224301 0.642985
#
# Coordination Sequence:
#
# PCOD9341813 Si02
#       6
#     4   4   4   4   4   4
#     4  12  21  34  63  97 115 150 208 259 291 347
#     4  10  16  30  50  84 119 156 181 233 298 371
#     4  10  23  44  62  80 119 168 199 239 313 375
#     4  10  16  30  50  84 119 156 181 233 298 371
#     4  12  21  34  63  97 115 150 208 259 291 347
#     4  10  23  44  62  80 119 168 199 239 313 375
#
# _framework density 23.050979000000002
#
# number of rings (size 3 to 8) (size 9 to 14) (size 15 to 20)
#    0.000    1.333    6.667    2.000    0.000    0.667 
#    0.000    1.667    0.000    6.000    0.000    0.000 
#    0.000    0.000    0.000    0.000    0.000    0.000 
#
# Total GULP energy -133880.569750 kJ/mol
# GULP energy per Si atom -5578.357073 kJ/mol
# Density = 2.299851 g / cm^3
# Si number density = 23.050979 Si / 1000 Ang^3
#
#
#
# Elastic Constant Matrix: (Units=GPa)
#
#
# Indices 1 2 3 4 5 6 
#
# 1 43.4448 29.7394 21.3068 0.0000 0.0000 0.0000
# 2 29.7394 81.7330 70.7189 0.0000 0.0000 0.0000
# 3 21.3068 70.7189 296.2925 0.0000 0.0000 0.0000
# 4 0.0000 0.0000 0.0000 113.0916 0.0000 0.0000
# 5 0.0000 0.0000 0.0000 0.0000 9.9245 0.0000
# 6 0.0000 0.0000 0.0000 0.0000 0.0000 -115.3799
#
#
#
# Elastic Compliance Matrix: (Units=1/GPa)
#
#
# Indices 1 2 3 4 5 6 
#
# 1 0.030731 -0.011682 0.000578 0.000000 0.000000 0.000000
# 2 -0.011682 0.019860 -0.003900 0.000000 0.000000 0.000000
# 3 0.000578 -0.003900 0.004264 0.000000 0.000000 0.000000
# 4 0.000000 0.000000 0.000000 0.008842 0.000000 0.000000
# 5 0.000000 0.000000 0.000000 0.000000 0.100761 0.000000
# 6 0.000000 0.000000 0.000000 0.000000 0.000000 -0.008667
#
#
# Mechanical properties :
#
#
# Convention : Reuss Voigt Hill
#
# Bulk Modulus (GPa) = 40.24537 73.88893 57.06715
# Shear Modulus (GPa) = 25.76224 21.50759 23.63492
#
# Velocity S-wave (km/s) = 3.34671 3.05789 3.20556
# Velocity P-wave (km/s) = 5.69483 6.67771 6.20576
#
# Compressibility (1/GPa) = 0.02484758
#
# Stress axis : x y z
#
# Youngs Moduli (GPa) = 32.54051 50.35192 234.50330
#
# Poissons Ratio (x) = 0.58822 -0.13564
# Poissons Ratio (y) = 0.38015 0.91460
# Poissons Ratio (z) = -0.01882 0.19638
#
# Static dielectric constant tensor:
#      x y z
#    x 2.168990 0.000000 0.000000 
#    y 0.000000 1.863880 0.000000 
#    z 0.000000 0.000000 1.967940 
# 
# From -- ./inp_files/701.got.cif
#   From: 2010.05.17/outbox.cif.g08.bks.cpg/sg30_1_cif.got.tgz:701.got - 2010.06.03 17:03:02.
