data_PCOD9341290
_publ_section_title
;
Structure prediction by ZEFSAII (Michael W. Deem and Ramdas Pophale) SiO2 
 PCOD9341290
Probable space group: P C A 21
;
_chemical_formula_sum "Si O2"
_cell_formula_units_Z 20
_cell_length_a 8.917561
_cell_length_b 5.028587
_cell_length_c 16.530291
_cell_angle_alpha 90.000000
_cell_angle_beta 90.000000
_cell_angle_gamma 90.000000
_cell_volume 741.263398
_symmetry_space_group_name_H-M "P C A 21"
_symmetry_group_IT_number 29
_symmetry_cell_setting 'orthorhombic'
loop_
_space_group_symop_operation_xyz
x,y,z
-x,-y,1/2+z
1/2-x,y,1/2+z
1/2+x,-y,z
loop_
_atom_site_type_symbol
_atom_site_label
_atom_site_fract_x
_atom_site_fract_y
_atom_site_fract_z
Si Si1 0.158456 0.128273 0.568300
Si Si2 0.490514 0.422290 0.201988
Si Si3 0.012637 0.376410 0.031358
Si Si4 0.328255 0.182885 0.413281
Si Si5 0.746001 0.325233 0.814235
O O1 0.306439 0.204054 0.514244
O O2 0.126210 0.218308 0.659074
O O3 0.035763 0.308087 0.520627
O O4 0.126834 0.819822 0.557631
O O5 0.570593 0.567355 0.126940
O O6 0.395012 0.623840 0.255036
O O7 0.611083 0.275580 0.257642
O O8 0.008706 0.290553 0.931986
O O9 0.241704 0.396385 0.361813
O O10 0.299191 0.903773 0.376121
#
# Coordination Sequence:
#
# PCOD9341290 Si02
#       5
#     4   4   4   4   4
#     4  10  24  44  75  97 144 196 250 284 361 455
#     4  10  28  48  74 110 150 200 242 304 374 442
#     4  10  24  44  75  97 144 196 250 284 361 455
#     4  12  27  45  72 110 147 195 248 308 373 431
#     4  12  29  43  78 108 161 181 248 316 379 419
#
# _framework density 26.980962999999999
#
# number of rings (size 3 to 8) (size 9 to 14) (size 15 to 20)
#    1.200    0.000    0.000    3.600   14.000    1.600 
#    0.000    0.000    0.000    0.000    0.000    0.000 
#    0.000    0.000    0.000    0.000    0.000    0.000 
#
# Total GULP energy -111464.581562 kJ/mol
# GULP energy per Si atom -5573.229078 kJ/mol
# Density = 2.691955 g / cm^3
# Si number density = 26.980963 Si / 1000 Ang^3
#
#
#
# Elastic Constant Matrix: (Units=GPa)
#
#
# Indices 1 2 3 4 5 6 
#
# 1 86.7298 9.6958 38.1285 0.0000 0.0000 0.0000
# 2 9.6958 83.5086 30.8979 0.0000 0.0000 0.0000
# 3 38.1285 30.8979 159.7987 0.0000 0.0000 0.0000
# 4 0.0000 0.0000 0.0000 47.5109 0.0000 0.0000
# 5 0.0000 0.0000 0.0000 0.0000 46.6231 0.0000
# 6 0.0000 0.0000 0.0000 0.0000 0.0000 23.4786
#
#
#
# Elastic Compliance Matrix: (Units=1/GPa)
#
#
# Indices 1 2 3 4 5 6 
#
# 1 0.012893 -0.000386 -0.003002 0.000000 0.000000 0.000000
# 2 -0.000386 0.012909 -0.002404 0.000000 0.000000 0.000000
# 3 -0.003002 -0.002404 0.007439 0.000000 0.000000 0.000000
# 4 0.000000 0.000000 0.000000 0.021048 0.000000 0.000000
# 5 0.000000 0.000000 0.000000 0.000000 0.021449 0.000000
# 6 0.000000 0.000000 0.000000 0.000000 0.000000 0.042592
#
#
# Mechanical properties :
#
#
# Convention : Reuss Voigt Hill
#
# Bulk Modulus (GPa) = 46.17400 54.16461 50.16931
# Shear Modulus (GPa) = 36.46129 40.27685 38.36907
#
# Velocity S-wave (km/s) = 3.68009 3.86785 3.77514
# Velocity P-wave (km/s) = 5.93364 6.32975 6.13489
#
# Compressibility (1/GPa) = 0.02165721
#
# Stress axis : x y z
#
# Youngs Moduli (GPa) = 77.56253 77.46478 134.42931
#
# Poissons Ratio (x) = 0.02993 0.40350
# Poissons Ratio (y) = 0.02997 0.32315
# Poissons Ratio (z) = 0.23281 0.18621
#
# Static dielectric constant tensor:
#      x y z
#    x 2.216300 0.000000 0.000000 
#    y 0.000000 1.963760 0.000000 
#    z 0.000000 0.000000 2.195520 
# 
# From -- ./inp_files/4384.got.cif
#   From: 2010.05.17/outbox.cif.g08.bks.cpg/sg29_3_cif.got.tgz:4384.got - 2010.06.04 01:19:37.
