data_PCOD9341990
_publ_section_title
;
Structure prediction by ZEFSAII (Michael W. Deem and Ramdas Pophale) SiO2 
 PCOD9341990
Probable space group: P N C 2
;
_chemical_formula_sum "Si O2"
_cell_formula_units_Z 32
_cell_length_a 15.904482
_cell_length_b 10.755058
_cell_length_c 8.172611
_cell_angle_alpha 90.000000
_cell_angle_beta 90.000000
_cell_angle_gamma 90.000000
_cell_volume 1397.954748
_symmetry_space_group_name_H-M "P N C 2"
_symmetry_group_IT_number 30
_symmetry_cell_setting 'orthorhombic'
loop_
_space_group_symop_operation_xyz
x,y,z
-x,-y,z
-x,1/2+y,1/2+z
x,1/2-y,1/2+z
loop_
_atom_site_type_symbol
_atom_site_label
_atom_site_fract_x
_atom_site_fract_y
_atom_site_fract_z
Si Si1 0.909526 0.311501 0.384700
Si Si2 0.983599 0.627520 0.086330
Si Si3 0.360568 0.512456 0.787269
Si Si4 0.688697 0.384721 0.117807
Si Si5 0.205944 0.859807 0.165315
Si Si6 0.790519 0.873676 0.585236
Si Si7 0.317342 0.254763 0.353125
Si Si8 0.595128 0.492611 0.431345
O O1 0.853084 0.203543 0.301167
O O2 0.849739 0.388178 0.506248
O O3 0.954393 0.384003 0.240705
O O4 0.981787 0.244843 0.488451
O O5 0.000000 0.500000 0.987326
O O6 0.886626 0.642979 0.131020
O O7 0.368608 0.589764 0.956441
O O8 0.262740 0.529860 0.731842
O O9 0.374020 0.368001 0.831900
O O10 0.406870 0.552921 0.620769
O O11 0.766143 0.481250 0.092350
O O12 0.728078 0.248789 0.118823
O O13 0.646177 0.415466 0.293107
O O14 0.771310 0.797859 0.421102
O O15 0.712776 0.815667 0.685541
O O16 0.362819 0.370083 0.440611
O O17 0.500000 0.500000 0.371478
#
# Coordination Sequence:
#
# PCOD9341990 Si02
#       8
#     4   4   4   4   4   4   4   4
#     4  10  22  38  59  94 132 174 224 288 346 394
#     4  11  23  38  57  93 134 176 222 289 355 392
#     4  11  23  42  71 102 131 185 230 273 346 412
#     4  10  23  42  72  99 128 182 232 277 340 411
#     4  11  20  42  65  94 130 173 235 282 326 418
#     4  10  19  38  64  87 132 173 229 278 325 412
#     4  10  21  41  67  95 125 179 230 271 335 417
#     4  11  25  47  69 103 141 172 219 287 352 417
#
# _framework density 22.890585999999999
#
# number of rings (size 3 to 8) (size 9 to 14) (size 15 to 20)
#    0.000    1.500    2.500    3.000    1.750    1.500 
#    4.500    1.250    0.000    0.000    0.000    0.000 
#    0.000    0.000    0.000    0.000    0.000    0.000 
#
# Total GULP energy -178557.843531 kJ/mol
# GULP energy per Si atom -5579.932610 kJ/mol
# Density = 2.283849 g / cm^3
# Si number density = 22.890586 Si / 1000 Ang^3
#
#
#
# Elastic Constant Matrix: (Units=GPa)
#
#
# Indices 1 2 3 4 5 6 
#
# 1 79.5353 9.1644 12.4384 0.0000 0.0000 0.0000
# 2 9.1644 70.1245 4.7270 0.0000 0.0000 0.0000
# 3 12.4384 4.7270 97.1608 0.0000 0.0000 0.0000
# 4 0.0000 0.0000 0.0000 13.0920 0.0000 0.0000
# 5 0.0000 0.0000 0.0000 0.0000 22.2186 0.0000
# 6 0.0000 0.0000 0.0000 0.0000 0.0000 5.5881
#
#
#
# Elastic Compliance Matrix: (Units=1/GPa)
#
#
# Indices 1 2 3 4 5 6 
#
# 1 0.013005 -0.001593 -0.001587 0.000000 0.000000 0.000000
# 2 -0.001593 0.014502 -0.000502 0.000000 0.000000 0.000000
# 3 -0.001587 -0.000502 0.010520 0.000000 0.000000 0.000000
# 4 0.000000 0.000000 0.000000 0.076383 0.000000 0.000000
# 5 0.000000 0.000000 0.000000 0.000000 0.045007 0.000000
# 6 0.000000 0.000000 0.000000 0.000000 0.000000 0.178952
#
#
# Mechanical properties :
#
#
# Convention : Reuss Voigt Hill
#
# Bulk Modulus (GPa) = 32.61184 33.27556 32.94370
# Shear Modulus (GPa) = 14.04681 22.87914 18.46297
#
# Velocity S-wave (km/s) = 2.47988 3.16492 2.84311
# Velocity P-wave (km/s) = 4.74105 5.28431 5.02003
#
# Compressibility (1/GPa) = 0.03066371
#
# Stress axis : x y z
#
# Youngs Moduli (GPa) = 76.89483 68.95461 95.05847
#
# Poissons Ratio (x) = 0.10981 0.15089
# Poissons Ratio (y) = 0.12246 0.04769
# Poissons Ratio (z) = 0.12206 0.03459
#
# Static dielectric constant tensor:
#      x y z
#    x 1.818750 0.000000 0.000000 
#    y 0.000000 1.870970 0.000000 
#    z 0.000000 0.000000 1.954810 
# 
# From -- ./inp_files/2716.got.cif
#   From: 2010.05.17/outbox.cif.g08.bks.cpg/sg30_2_cif.got.tgz:2716.got - 2010.06.03 17:03:02.
