data_PCOD9341347
_publ_section_title
;
Structure prediction by ZEFSAII (Michael W. Deem and Ramdas Pophale) SiO2 
 PCOD9341347
Probable space group: P C A 21
;
_chemical_formula_sum "Si O2"
_cell_formula_units_Z 28
_cell_length_a 7.840407
_cell_length_b 16.865456
_cell_length_c 8.520147
_cell_angle_alpha 90.000000
_cell_angle_beta 90.000000
_cell_angle_gamma 90.000000
_cell_volume 1126.636413
_symmetry_space_group_name_H-M "P C A 21"
_symmetry_group_IT_number 29
_symmetry_cell_setting 'orthorhombic'
loop_
_space_group_symop_operation_xyz
x,y,z
-x,-y,1/2+z
1/2-x,y,1/2+z
1/2+x,-y,z
loop_
_atom_site_type_symbol
_atom_site_label
_atom_site_fract_x
_atom_site_fract_y
_atom_site_fract_z
Si Si1 0.335015 0.588765 0.053050
Si Si2 0.321415 0.769421 0.961537
Si Si3 0.502184 0.914691 0.112150
Si Si4 0.669811 0.947468 0.772590
Si Si5 0.488923 0.797312 0.644255
Si Si6 0.134192 0.445183 0.303156
Si Si7 0.938820 0.625822 0.115982
O O1 0.479480 0.568659 0.181452
O O2 0.137684 0.595795 0.115577
O O3 0.365207 0.677797 0.991120
O O4 0.352992 0.524012 0.913615
O O5 0.436738 0.828281 0.064876
O O6 0.354303 0.790774 0.783948
O O7 0.123572 0.786289 0.991703
O O8 0.590762 0.945744 0.948144
O O9 0.635270 0.921454 0.255055
O O10 0.352430 0.970690 0.177763
O O11 0.578959 0.879588 0.668990
O O12 0.592236 0.716217 0.666599
O O13 0.111664 0.378795 0.435094
O O14 0.809753 0.571394 0.213249
#
# Coordination Sequence:
#
# PCOD9341347 Si02
#       7
#     4   4   4   4   4   4   4
#     4  11  31  53  79 117 154 208 262 334 398 478
#     4  10  25  46  73 104 150 195 251 312 391 451
#     4  11  24  44  71 108 149 198 246 313 376 464
#     4  11  24  43  70 108 149 194 250 309 377 456
#     4  10  25  45  72 106 148 195 251 313 384 464
#     4  12  32  49  82 109 156 200 267 324 401 474
#     4  11  31  50  77 114 152 204 261 327 395 475
#
# _framework density 24.852737999999999
#
# number of rings (size 3 to 8) (size 9 to 14) (size 15 to 20)
#    0.000    1.143    0.000    1.714   18.000    6.857 
#    0.000    0.000    0.000    0.000    0.000    0.000 
#    0.000    0.000    0.000    0.000    0.000    0.000 
#
# Total GULP energy -156695.490075 kJ/mol
# GULP energy per Si atom -5596.267503 kJ/mol
# Density = 2.479617 g / cm^3
# Si number density = 24.852738 Si / 1000 Ang^3
#
#
#
# Elastic Constant Matrix: (Units=GPa)
#
#
# Indices 1 2 3 4 5 6 
#
# 1 84.1020 40.5249 32.6564 0.0000 0.0000 0.0000
# 2 40.5249 89.3242 31.7454 0.0000 0.0000 0.0000
# 3 32.6564 31.7454 88.5248 0.0000 0.0000 0.0000
# 4 0.0000 0.0000 0.0000 30.2932 0.0000 0.0000
# 5 0.0000 0.0000 0.0000 0.0000 48.9205 0.0000
# 6 0.0000 0.0000 0.0000 0.0000 0.0000 26.2141
#
#
#
# Elastic Compliance Matrix: (Units=1/GPa)
#
#
# Indices 1 2 3 4 5 6 
#
# 1 0.016286 -0.006021 -0.003849 0.000000 0.000000 0.000000
# 2 -0.006021 0.015056 -0.003178 0.000000 0.000000 0.000000
# 3 -0.003849 -0.003178 0.013856 0.000000 0.000000 0.000000
# 4 0.000000 0.000000 0.000000 0.033011 0.000000 0.000000
# 5 0.000000 0.000000 0.000000 0.000000 0.020441 0.000000
# 6 0.000000 0.000000 0.000000 0.000000 0.000000 0.038147
#
#
# Mechanical properties :
#
#
# Convention : Reuss Voigt Hill
#
# Bulk Modulus (GPa) = 52.34927 52.42273 52.38600
# Shear Modulus (GPa) = 29.54031 31.55386 30.54709
#
# Velocity S-wave (km/s) = 3.45137 3.56706 3.50969
# Velocity P-wave (km/s) = 6.08211 6.17287 6.12766
#
# Compressibility (1/GPa) = 0.01910246
#
# Stress axis : x y z
#
# Youngs Moduli (GPa) = 61.40274 66.41769 72.17218
#
# Poissons Ratio (x) = 0.39989 0.27777
# Poissons Ratio (y) = 0.36970 0.22938
# Poissons Ratio (z) = 0.23632 0.21109
#
# Static dielectric constant tensor:
#      x y z
#    x 2.010710 0.000000 0.000000 
#    y 0.000000 2.126050 0.000000 
#    z 0.000000 0.000000 1.997520 
# 
# From -- ./inp_files/1223.got.cif
#   From: 2010.05.17/outbox.cif.g08.bks.cpg/sg29_1_cif.got.tgz:1223.got - 2010.06.04 01:19:37.
