data_PCOD9341436
_publ_section_title
;
Structure prediction by ZEFSAII (Michael W. Deem and Ramdas Pophale) SiO2 
 PCOD9341436
Probable space group: P C A 21
;
_chemical_formula_sum "Si O2"
_cell_formula_units_Z 20
_cell_length_a 13.282684
_cell_length_b 9.126192
_cell_length_c 5.920934
_cell_angle_alpha 90.000000
_cell_angle_beta 90.000000
_cell_angle_gamma 90.000000
_cell_volume 717.737541
_symmetry_space_group_name_H-M "P C A 21"
_symmetry_group_IT_number 29
_symmetry_cell_setting 'orthorhombic'
loop_
_space_group_symop_operation_xyz
x,y,z
-x,-y,1/2+z
1/2-x,y,1/2+z
1/2+x,-y,z
loop_
_atom_site_type_symbol
_atom_site_label
_atom_site_fract_x
_atom_site_fract_y
_atom_site_fract_z
Si Si1 0.347399 0.992991 0.902470
Si Si2 0.791549 0.291671 0.104108
Si Si3 0.891475 0.561450 0.985648
Si Si4 0.177996 0.269105 0.101700
Si Si5 0.981185 0.809427 0.217036
O O1 0.296628 0.884358 0.085352
O O2 0.409172 0.872707 0.760287
O O3 0.298207 0.126630 0.760994
O O4 0.433192 0.080222 0.037314
O O5 0.733967 0.328994 0.865738
O O6 0.887783 0.394432 0.057327
O O7 0.886411 0.606403 0.727384
O O8 0.783713 0.643252 0.059868
O O9 0.978860 0.650730 0.105226
O O10 0.098346 0.203976 0.922067
#
# Coordination Sequence:
#
# PCOD9341436 Si02
#       5
#     4   4   4   4   4
#     4  11  27  41  69 105 142 183 239 300 364 422
#     4  12  28  48  72 109 146 184 243 307 357 430
#     4  11  23  43  72  97 135 190 239 288 360 435
#     4  11  21  41  71  95 131 186 235 287 351 431
#     4  11  23  45  66 100 140 183 240 294 358 436
#
# _framework density 27.86534
#
# number of rings (size 3 to 8) (size 9 to 14) (size 15 to 20)
#    0.000    0.800    6.000    0.000    8.400    0.000 
#    3.600    0.000    0.000    0.000    0.000    0.000 
#    0.000    0.000    0.000    0.000    0.000    0.000 
#
# Total GULP energy -111684.454964 kJ/mol
# GULP energy per Si atom -5584.222748 kJ/mol
# Density = 2.780192 g / cm^3
# Si number density = 27.865340 Si / 1000 Ang^3
#
#
#
# Elastic Constant Matrix: (Units=GPa)
#
#
# Indices 1 2 3 4 5 6 
#
# 1 107.3390 29.2816 12.8001 0.0000 0.0000 0.0000
# 2 29.2816 166.9067 7.6123 0.0000 0.0000 0.0000
# 3 12.8001 7.6123 42.1453 0.0000 0.0000 0.0000
# 4 0.0000 0.0000 0.0000 29.6768 0.0000 0.0000
# 5 0.0000 0.0000 0.0000 0.0000 31.5437 0.0000
# 6 0.0000 0.0000 0.0000 0.0000 0.0000 54.3342
#
#
#
# Elastic Compliance Matrix: (Units=1/GPa)
#
#
# Indices 1 2 3 4 5 6 
#
# 1 0.010095 -0.001645 -0.002769 0.000000 0.000000 0.000000
# 2 -0.001645 0.006309 -0.000640 0.000000 0.000000 0.000000
# 3 -0.002769 -0.000640 0.024684 0.000000 0.000000 0.000000
# 4 0.000000 0.000000 0.000000 0.033696 0.000000 0.000000
# 5 0.000000 0.000000 0.000000 0.000000 0.031702 0.000000
# 6 0.000000 0.000000 0.000000 0.000000 0.000000 0.018405
#
#
# Mechanical properties :
#
#
# Convention : Reuss Voigt Hill
#
# Bulk Modulus (GPa) = 32.27808 46.19766 39.23787
# Shear Modulus (GPa) = 34.40547 40.89073 37.64810
#
# Velocity S-wave (km/s) = 3.51765 3.83487 3.67968
# Velocity P-wave (km/s) = 5.30162 6.01857 5.67144
#
# Compressibility (1/GPa) = 0.03098078
#
# Stress axis : x y z
#
# Youngs Moduli (GPa) = 99.05736 158.50086 40.51211
#
# Poissons Ratio (x) = 0.26070 0.11218
# Poissons Ratio (y) = 0.16293 0.02593
# Poissons Ratio (z) = 0.27429 0.10144
#
# Static dielectric constant tensor:
#      x y z
#    x 2.128870 0.000000 0.000000 
#    y 0.000000 2.137650 0.000000 
#    z 0.000000 0.000000 2.452900 
# 
# From -- ./inp_files/328.got.cif
#   From: 2010.05.17/outbox.cif.g08.bks.cpg/sg29_1_cif.got.tgz:328.got - 2010.06.04 01:19:37.
