data_PCOD9341155
_publ_section_title
;
Structure prediction by ZEFSAII (Michael W. Deem and Ramdas Pophale) SiO2 
 PCOD9341155
Probable space group: P C A 21
;
_chemical_formula_sum "Si O2"
_cell_formula_units_Z 24
_cell_length_a 9.000469
_cell_length_b 7.983119
_cell_length_c 13.317079
_cell_angle_alpha 90.000000
_cell_angle_beta 90.000000
_cell_angle_gamma 90.000000
_cell_volume 956.856298
_symmetry_space_group_name_H-M "P C A 21"
_symmetry_group_IT_number 29
_symmetry_cell_setting 'orthorhombic'
loop_
_space_group_symop_operation_xyz
x,y,z
-x,-y,1/2+z
1/2-x,y,1/2+z
1/2+x,-y,z
loop_
_atom_site_type_symbol
_atom_site_label
_atom_site_fract_x
_atom_site_fract_y
_atom_site_fract_z
Si Si1 0.820783 0.729314 0.539760
Si Si2 0.967658 0.885702 0.366053
Si Si3 0.357769 0.606695 0.671583
Si Si4 0.171595 0.089461 0.240020
Si Si5 0.519069 0.233566 0.983600
Si Si6 0.557911 0.387332 0.790676
O O1 0.945070 0.749532 0.453572
O O2 0.843491 0.562570 0.604502
O O3 0.819823 0.882554 0.620783
O O4 0.657281 0.730886 0.490700
O O5 0.829648 0.877713 0.290224
O O6 0.954695 0.053284 0.435043
O O7 0.109085 0.922656 0.294999
O O8 0.415010 0.743337 0.593859
O O9 0.476669 0.557117 0.757122
O O10 0.199355 0.636597 0.720812
O O11 0.056869 0.235888 0.271410
O O12 0.594022 0.366353 0.907299
#
# Coordination Sequence:
#
# PCOD9341155 Si02
#       6
#     4   4   4   4   4   4
#     4  11  24  47  73 105 151 188 253 309 379 452
#     4  11  23  46  70 105 148 190 248 310 372 450
#     4  11  24  44  75 108 145 193 247 312 372 452
#     4  10  25  43  68 105 144 192 243 305 373 445
#     4  11  25  46  71 110 145 197 250 307 384 440
#     4  10  23  44  67 105 147 188 245 301 374 439
#
# _framework density 25.082135999999998
#
# number of rings (size 3 to 8) (size 9 to 14) (size 15 to 20)
#    0.000    1.333    5.000    0.000    4.667    5.333 
#    0.000    0.000    0.000    0.000    0.000    0.000 
#    0.000    0.000    0.000    0.000    0.000    0.000 
#
# Total GULP energy -134356.547496 kJ/mol
# GULP energy per Si atom -5598.189479 kJ/mol
# Density = 2.502505 g / cm^3
# Si number density = 25.082136 Si / 1000 Ang^3
#
#
#
# Elastic Constant Matrix: (Units=GPa)
#
#
# Indices 1 2 3 4 5 6 
#
# 1 63.9086 4.9661 8.8130 0.0000 0.0000 0.0000
# 2 4.9661 80.0295 10.7457 0.0000 0.0000 0.0000
# 3 8.8130 10.7457 143.4352 0.0000 0.0000 0.0000
# 4 0.0000 0.0000 0.0000 47.2261 0.0000 0.0000
# 5 0.0000 0.0000 0.0000 0.0000 59.7399 0.0000
# 6 0.0000 0.0000 0.0000 0.0000 0.0000 38.4349
#
#
#
# Elastic Compliance Matrix: (Units=1/GPa)
#
#
# Indices 1 2 3 4 5 6 
#
# 1 0.015840 -0.000861 -0.000909 0.000000 0.000000 0.000000
# 2 -0.000861 0.012669 -0.000896 0.000000 0.000000 0.000000
# 3 -0.000909 -0.000896 0.007095 0.000000 0.000000 0.000000
# 4 0.000000 0.000000 0.000000 0.021175 0.000000 0.000000
# 5 0.000000 0.000000 0.000000 0.000000 0.016739 0.000000
# 6 0.000000 0.000000 0.000000 0.000000 0.000000 0.026018
#
#
# Mechanical properties :
#
#
# Convention : Reuss Voigt Hill
#
# Bulk Modulus (GPa) = 33.03406 37.38032 35.20719
# Shear Modulus (GPa) = 43.49423 46.60341 45.04882
#
# Velocity S-wave (km/s) = 4.16874 4.31517 4.24258
# Velocity P-wave (km/s) = 6.03076 6.30580 6.16981
#
# Compressibility (1/GPa) = 0.03027178
#
# Stress axis : x y z
#
# Youngs Moduli (GPa) = 63.13308 78.93187 140.94900
#
# Poissons Ratio (x) = 0.06795 0.12808
# Poissons Ratio (y) = 0.05435 0.12632
# Poissons Ratio (z) = 0.05737 0.07074
#
# Static dielectric constant tensor:
#      x y z
#    x 1.901070 0.000000 0.000000 
#    y 0.000000 2.112960 0.000000 
#    z 0.000000 0.000000 1.998380 
# 
# From -- ./inp_files/2811.got.cif
#   From: 2010.05.17/outbox.cif.g08.bks.cpg/sg29_2_cif.got.tgz:2811.got - 2010.06.04 01:19:37.
