data_PCOD9341748
_publ_section_title
;
Structure prediction by ZEFSAII (Michael W. Deem and Ramdas Pophale) SiO2 
 PCOD9341748
Probable space group: P C A 21
;
_chemical_formula_sum "Si O2"
_cell_formula_units_Z 28
_cell_length_a 23.106894
_cell_length_b 6.555478
_cell_length_c 7.349339
_cell_angle_alpha 90.000000
_cell_angle_beta 90.000000
_cell_angle_gamma 90.000000
_cell_volume 1113.253878
_symmetry_space_group_name_H-M "P C A 21"
_symmetry_group_IT_number 29
_symmetry_cell_setting 'orthorhombic'
loop_
_space_group_symop_operation_xyz
x,y,z
-x,-y,1/2+z
1/2-x,y,1/2+z
1/2+x,-y,z
loop_
_atom_site_type_symbol
_atom_site_label
_atom_site_fract_x
_atom_site_fract_y
_atom_site_fract_z
Si Si1 0.121200 0.488710 0.573260
Si Si2 0.112216 0.801018 0.169622
Si Si3 0.944484 0.865330 0.912897
Si Si4 0.983720 0.220724 0.116901
Si Si5 0.106405 0.375541 0.989990
Si Si6 0.176079 0.004820 0.884523
Si Si7 0.300517 0.841336 0.995148
O O1 0.107579 0.287521 0.456160
O O2 0.112118 0.444121 0.783468
O O3 0.181499 0.609276 0.549915
O O4 0.068066 0.643774 0.537387
O O5 0.165919 0.852693 0.303579
O O6 0.067686 0.956569 0.264452
O O7 0.107136 0.558408 0.137928
O O8 0.124377 0.870342 0.964178
O O9 0.998303 0.743586 0.826727
O O10 0.961603 0.991056 0.088834
O O11 0.043818 0.270590 0.014957
O O12 0.160703 0.216645 0.988041
O O13 0.178472 0.982044 0.665522
O O14 0.235279 0.902786 0.953539
#
# Coordination Sequence:
#
# PCOD9341748 Si02
#       7
#     4   4   4   4   4   4   4
#     4  12  27  48  77 118 156 209 266 332 401 489
#     4  12  26  52  74 113 155 199 265 320 399 475
#     4  12  27  46  76 115 164 210 262 333 401 489
#     4  12  27  42  78 113 163 208 261 324 406 484
#     4  12  28  48  80 118 158 207 266 328 411 486
#     4  12  27  53  75 112 150 205 258 339 394 477
#     4  12  26  53  78 107 156 200 268 328 398 480
#
# _framework density 25.151496000000002
#
# number of rings (size 3 to 8) (size 9 to 14) (size 15 to 20)
#    0.000    0.000    5.714    3.429    8.000    0.000 
#    7.714    0.000    0.000    0.000    0.000    0.000 
#    0.000    0.000    0.000    0.000    0.000    0.000 
#
# Total GULP energy -156289.876477 kJ/mol
# GULP energy per Si atom -5581.781303 kJ/mol
# Density = 2.509425 g / cm^3
# Si number density = 25.151496 Si / 1000 Ang^3
#
#
#
# Elastic Constant Matrix: (Units=GPa)
#
#
# Indices 1 2 3 4 5 6 
#
# 1 127.7620 64.8200 24.7644 0.0000 0.0000 0.0000
# 2 64.8200 152.6797 49.1195 0.0000 0.0000 0.0000
# 3 24.7644 49.1195 98.7490 0.0000 0.0000 0.0000
# 4 0.0000 0.0000 0.0000 59.6785 0.0000 0.0000
# 5 0.0000 0.0000 0.0000 0.0000 48.3081 0.0000
# 6 0.0000 0.0000 0.0000 0.0000 0.0000 33.1522
#
#
#
# Elastic Compliance Matrix: (Units=1/GPa)
#
#
# Indices 1 2 3 4 5 6 
#
# 1 0.009994 -0.004091 -0.000471 0.000000 0.000000 0.000000
# 2 -0.004091 0.009472 -0.003686 0.000000 0.000000 0.000000
# 3 -0.000471 -0.003686 0.012078 0.000000 0.000000 0.000000
# 4 0.000000 0.000000 0.000000 0.016756 0.000000 0.000000
# 5 0.000000 0.000000 0.000000 0.000000 0.020700 0.000000
# 6 0.000000 0.000000 0.000000 0.000000 0.000000 0.030164
#
#
# Mechanical properties :
#
#
# Convention : Reuss Voigt Hill
#
# Bulk Modulus (GPa) = 66.45349 72.95542 69.70445
# Shear Modulus (GPa) = 41.43248 44.26021 42.84634
#
# Velocity S-wave (km/s) = 4.06312 4.19948 4.13186
# Velocity P-wave (km/s) = 6.96352 7.25145 7.10894
#
# Compressibility (1/GPa) = 0.01504812
#
# Stress axis : x y z
#
# Youngs Moduli (GPa) = 100.05840 105.56974 82.79390
#
# Poissons Ratio (x) = 0.43193 0.03901
# Poissons Ratio (y) = 0.40938 0.30515
# Poissons Ratio (z) = 0.04715 0.38910
#
# Static dielectric constant tensor:
#      x y z
#    x 1.970820 0.000000 0.000000 
#    y 0.000000 2.165730 0.000000 
#    z 0.000000 0.000000 2.066910 
# 
# From -- ./inp_files/2413.got.cif
#   From: 2010.05.17/outbox.cif.g08.bks.cpg/sg29_2_cif.got.tgz:2413.got - 2010.06.04 01:19:37.
