data_PCOD9341385
_publ_section_title
;
Structure prediction by ZEFSAII (Michael W. Deem and Ramdas Pophale) SiO2 
 PCOD9341385
Probable space group: P C A 21
;
_chemical_formula_sum "Si O2"
_cell_formula_units_Z 28
_cell_length_a 9.812495
_cell_length_b 5.599884
_cell_length_c 20.500253
_cell_angle_alpha 90.000000
_cell_angle_beta 90.000000
_cell_angle_gamma 90.000000
_cell_volume 1126.464994
_symmetry_space_group_name_H-M "P C A 21"
_symmetry_group_IT_number 29
_symmetry_cell_setting 'orthorhombic'
loop_
_space_group_symop_operation_xyz
x,y,z
-x,-y,1/2+z
1/2-x,y,1/2+z
1/2+x,-y,z
loop_
_atom_site_type_symbol
_atom_site_label
_atom_site_fract_x
_atom_site_fract_y
_atom_site_fract_z
Si Si1 0.029386 0.914029 0.071080
Si Si2 0.885670 0.524376 0.158720
Si Si3 0.195256 0.751069 0.527713
Si Si4 0.551223 0.121345 0.874506
Si Si5 0.176403 0.894304 0.303432
Si Si6 0.525214 0.376769 0.406335
Si Si7 0.622324 0.795714 0.187331
O O1 0.145659 0.803623 0.026475
O O2 0.975167 0.730254 0.125024
O O3 0.103690 0.125067 0.111948
O O4 0.897718 0.011752 0.033878
O O5 0.828042 0.379334 0.096721
O O6 0.757924 0.638411 0.195715
O O7 0.985876 0.355969 0.199964
O O8 0.132279 0.617482 0.465763
O O9 0.665689 0.105659 0.819118
O O10 0.396722 0.668226 0.837220
O O11 0.398790 0.100739 0.845590
O O12 0.561828 0.869356 0.913319
O O13 0.142008 0.967705 0.230422
O O14 0.940806 0.382950 0.404059
#
# Coordination Sequence:
#
# PCOD9341385 Si02
#       7
#     4   4   4   4   4   4   4
#     4  11  24  44  67 111 142 195 246 313 379 450
#     4  11  24  44  71 110 146 197 251 308 389 442
#     4  11  25  43  75 102 150 193 254 314 383 455
#     4  10  26  49  70 114 143 197 254 300 388 442
#     4  10  27  46  75 108 149 196 251 315 375 457
#     4  10  27  47  76 108 150 199 252 316 379 456
#     4  11  25  47  72 109 148 195 252 316 379 460
#
# _framework density 24.856522999999999
#
# number of rings (size 3 to 8) (size 9 to 14) (size 15 to 20)
#    0.857    0.571    2.857    0.000    8.000    2.286 
#    0.000    0.000    0.000    0.000    0.000    0.000 
#    0.000    0.000    0.000    0.000    0.000    0.000 
#
# Total GULP energy -156518.241440 kJ/mol
# GULP energy per Si atom -5589.937194 kJ/mol
# Density = 2.479995 g / cm^3
# Si number density = 24.856523 Si / 1000 Ang^3
#
#
#
# Elastic Constant Matrix: (Units=GPa)
#
#
# Indices 1 2 3 4 5 6 
#
# 1 127.0517 40.0293 40.3199 0.0000 0.0000 0.0000
# 2 40.0293 101.6435 23.8843 0.0000 0.0000 0.0000
# 3 40.3199 23.8843 78.6822 0.0000 0.0000 0.0000
# 4 0.0000 0.0000 0.0000 24.9374 0.0000 0.0000
# 5 0.0000 0.0000 0.0000 0.0000 35.0877 0.0000
# 6 0.0000 0.0000 0.0000 0.0000 0.0000 28.3245
#
#
#
# Elastic Compliance Matrix: (Units=1/GPa)
#
#
# Indices 1 2 3 4 5 6 
#
# 1 0.010182 -0.002998 -0.004308 0.000000 0.000000 0.000000
# 2 -0.002998 0.011477 -0.001948 0.000000 0.000000 0.000000
# 3 -0.004308 -0.001948 0.015508 0.000000 0.000000 0.000000
# 4 0.000000 0.000000 0.000000 0.040100 0.000000 0.000000
# 5 0.000000 0.000000 0.000000 0.000000 0.028500 0.000000
# 6 0.000000 0.000000 0.000000 0.000000 0.000000 0.035305
#
#
# Mechanical properties :
#
#
# Convention : Reuss Voigt Hill
#
# Bulk Modulus (GPa) = 53.58894 57.31603 55.45249
# Shear Modulus (GPa) = 30.15696 31.21284 30.68490
#
# Velocity S-wave (km/s) = 3.48694 3.54746 3.51733
# Velocity P-wave (km/s) = 6.14962 6.31570 6.23321
#
# Compressibility (1/GPa) = 0.01866057
#
# Stress axis : x y z
#
# Youngs Moduli (GPa) = 98.20858 87.13435 64.48252
#
# Poissons Ratio (x) = 0.26121 0.27778
# Poissons Ratio (y) = 0.29441 0.12558
# Poissons Ratio (z) = 0.42307 0.16970
#
# Static dielectric constant tensor:
#      x y z
#    x 1.909550 0.000000 0.000000 
#    y 0.000000 1.997040 0.000000 
#    z 0.000000 0.000000 2.007590 
# 
# From -- ./inp_files/5673.got.cif
#   From: 2010.05.17/outbox.cif.g08.bks.cpg/sg29_3_cif.got.tgz:5673.got - 2010.06.04 01:19:37.
