data_PCOD9341326
_publ_section_title
;
Structure prediction by ZEFSAII (Michael W. Deem and Ramdas Pophale) SiO2 
 PCOD9341326
Probable space group: P C A 21
;
_chemical_formula_sum "Si O2"
_cell_formula_units_Z 28
_cell_length_a 10.533949
_cell_length_b 7.504072
_cell_length_c 13.766321
_cell_angle_alpha 90.000000
_cell_angle_beta 90.000000
_cell_angle_gamma 90.000000
_cell_volume 1088.193421
_symmetry_space_group_name_H-M "P C A 21"
_symmetry_group_IT_number 29
_symmetry_cell_setting 'orthorhombic'
loop_
_space_group_symop_operation_xyz
x,y,z
-x,-y,1/2+z
1/2-x,y,1/2+z
1/2+x,-y,z
loop_
_atom_site_type_symbol
_atom_site_label
_atom_site_fract_x
_atom_site_fract_y
_atom_site_fract_z
Si Si1 0.041964 0.871558 0.793910
Si Si2 0.385156 0.496560 0.230197
Si Si3 0.709110 0.985970 0.186750
Si Si4 0.488643 0.905291 0.981652
Si Si5 0.700627 0.618840 0.938350
Si Si6 0.253196 0.702400 0.050987
Si Si7 0.891462 0.760611 0.083376
O O1 0.038100 0.660033 0.777388
O O2 0.104831 0.231172 0.976769
O O3 0.021820 0.954485 0.898505
O O4 0.180304 0.936599 0.756535
O O5 0.315649 0.404483 0.322463
O O6 0.303348 0.591873 0.144564
O O7 0.465145 0.360299 0.162068
O O8 0.577707 0.953631 0.238267
O O9 0.764053 0.802030 0.145490
O O10 0.695345 0.121455 0.097053
O O11 0.445288 0.043294 0.064709
O O12 0.366838 0.772922 0.981230
O O13 0.668889 0.428585 0.987227
O O14 0.838723 0.670926 0.984102
#
# Coordination Sequence:
#
# PCOD9341326 Si02
#       7
#     4   4   4   4   4   4   4
#     4  11  26  47  85 111 161 210 277 333 422 487
#     4  10  24  49  72 119 154 212 272 348 405 485
#     4  10  24  50  78 116 152 212 262 344 411 489
#     4  11  26  47  77 119 155 217 274 334 412 494
#     4  11  25  49  76 113 159 211 280 333 415 487
#     4   9  24  50  77 112 164 203 271 340 409 481
#     4  10  25  48  79 108 165 205 276 342 416 489
#
# _framework density 25.730720000000002
#
# number of rings (size 3 to 8) (size 9 to 14) (size 15 to 20)
#    0.000    1.714    0.000    0.857   14.000    3.429 
#    7.714    1.429    0.000    0.000    0.000    0.000 
#    0.000    0.000    0.000    0.000    0.000    0.000 
#
# Total GULP energy -156469.068064 kJ/mol
# GULP energy per Si atom -5588.181002 kJ/mol
# Density = 2.567216 g / cm^3
# Si number density = 25.730720 Si / 1000 Ang^3
#
#
#
# Elastic Constant Matrix: (Units=GPa)
#
#
# Indices 1 2 3 4 5 6 
#
# 1 97.1598 43.3531 45.7392 0.0000 0.0000 0.0000
# 2 43.3531 163.0813 63.1125 0.0000 0.0000 0.0000
# 3 45.7392 63.1125 129.0774 0.0000 0.0000 0.0000
# 4 0.0000 0.0000 0.0000 47.1772 0.0000 0.0000
# 5 0.0000 0.0000 0.0000 0.0000 29.0676 0.0000
# 6 0.0000 0.0000 0.0000 0.0000 0.0000 22.0700
#
#
#
# Elastic Compliance Matrix: (Units=1/GPa)
#
#
# Indices 1 2 3 4 5 6 
#
# 1 0.012883 -0.002045 -0.003565 0.000000 0.000000 0.000000
# 2 -0.002045 0.007888 -0.003132 0.000000 0.000000 0.000000
# 3 -0.003565 -0.003132 0.010542 0.000000 0.000000 0.000000
# 4 0.000000 0.000000 0.000000 0.021197 0.000000 0.000000
# 5 0.000000 0.000000 0.000000 0.000000 0.034403 0.000000
# 6 0.000000 0.000000 0.000000 0.000000 0.000000 0.045310
#
#
# Mechanical properties :
#
#
# Convention : Reuss Voigt Hill
#
# Bulk Modulus (GPa) = 72.31584 77.08089 74.69837
# Shear Modulus (GPa) = 32.40090 35.47054 33.93572
#
# Velocity S-wave (km/s) = 3.55241 3.71688 3.63558
# Velocity P-wave (km/s) = 6.70761 6.96003 6.83499
#
# Compressibility (1/GPa) = 0.01382823
#
# Stress axis : x y z
#
# Youngs Moduli (GPa) = 77.62007 126.78051 94.85806
#
# Poissons Ratio (x) = 0.25928 0.33820
# Poissons Ratio (y) = 0.15874 0.29709
# Poissons Ratio (z) = 0.27674 0.39707
#
# Static dielectric constant tensor:
#      x y z
#    x 2.107340 0.000000 0.000000 
#    y 0.000000 2.116720 0.000000 
#    z 0.000000 0.000000 2.075230 
# 
# From -- ./inp_files/3429.got.cif
#   From: 2010.05.17/outbox.cif.g08.bks.cpg/sg29_2_cif.got.tgz:3429.got - 2010.06.04 01:19:37.
