data_PCOD9341021
_publ_section_title
;
Structure prediction by ZEFSAII (Michael W. Deem and Ramdas Pophale) SiO2 
 PCOD9341021
Probable space group: P C A 21
;
_chemical_formula_sum "Si O2"
_cell_formula_units_Z 28
_cell_length_a 20.079803
_cell_length_b 5.659853
_cell_length_c 11.157533
_cell_angle_alpha 90.000000
_cell_angle_beta 90.000000
_cell_angle_gamma 90.000000
_cell_volume 1268.039492
_symmetry_space_group_name_H-M "P C A 21"
_symmetry_group_IT_number 29
_symmetry_cell_setting 'orthorhombic'
loop_
_space_group_symop_operation_xyz
x,y,z
-x,-y,1/2+z
1/2-x,y,1/2+z
1/2+x,-y,z
loop_
_atom_site_type_symbol
_atom_site_label
_atom_site_fract_x
_atom_site_fract_y
_atom_site_fract_z
Si Si1 0.250000 0.418484 0.645740
Si Si2 0.212119 0.268377 0.395740
Si Si3 0.489578 0.179590 0.755138
Si Si4 0.634533 0.221310 0.395739
Si Si5 0.397545 0.574826 0.128680
Si Si6 0.897545 0.425176 0.662799
Si Si7 0.489578 0.179592 0.036341
O O1 0.249019 0.269504 0.523277
O O2 0.250981 0.269506 0.768203
O O3 0.180878 0.563088 0.655570
O O4 0.319122 0.563086 0.635910
O O5 0.178110 0.532889 0.395740
O O6 0.171544 0.025831 0.395738
O O7 0.553800 0.354094 0.735928
O O8 0.424146 0.329665 0.718811
O O9 0.500000 0.999998 0.645739
O O10 0.488041 0.112419 0.895739
O O11 0.594523 0.244551 0.518224
O O12 0.594522 0.244555 0.273256
O O13 0.424146 0.329669 0.072667
O O14 0.946200 0.354095 0.555550
#
# Coordination Sequence:
#
# PCOD9341021 Si02
#       7
#     4   4   4   4   4   4   4
#     4  10  24  46  70 108 138 186 240 306 372 440
#     4  10  24  42  69 104 147 184 231 294 369 440
#     4  11  26  45  70 103 143 197 248 309 372 450
#     4  10  22  44  73  98 143 196 231 286 375 444
#     4  10  24  45  72 100 146 187 249 302 375 442
#     4  10  24  45  72 100 146 187 249 302 375 442
#     4  11  26  45  70 103 143 197 248 309 372 450
#
# _framework density 22.081332
#
# number of rings (size 3 to 8) (size 9 to 14) (size 15 to 20)
#    0.000    1.714    1.429    0.000   12.000    5.714 
#    0.000    0.000    0.000    0.000    0.000    0.000 
#    0.000    0.000    0.000    0.000    0.000    0.000 
#
# Total GULP energy -156070.980350 kJ/mol
# GULP energy per Si atom -5573.963584 kJ/mol
# Density = 2.203107 g / cm^3
# Si number density = 22.081332 Si / 1000 Ang^3
#
#
#
# Elastic Constant Matrix: (Units=GPa)
#
#
# Indices 1 2 3 4 5 6 
#
# 1 126.1504 31.6833 34.7284 0.0000 0.0000 0.0000
# 2 31.6833 102.0444 65.9046 0.0000 0.0000 0.0000
# 3 34.7284 65.9046 188.5143 0.0000 0.0000 0.0000
# 4 0.0000 0.0000 0.0000 36.7971 0.0000 0.0000
# 5 0.0000 0.0000 0.0000 0.0000 42.0995 0.0000
# 6 0.0000 0.0000 0.0000 0.0000 0.0000 38.1528
#
#
#
# Elastic Compliance Matrix: (Units=1/GPa)
#
#
# Indices 1 2 3 4 5 6 
#
# 1 0.008702 -0.002152 -0.000851 0.000000 0.000000 0.000000
# 2 -0.002152 0.013190 -0.004215 0.000000 0.000000 0.000000
# 3 -0.000851 -0.004215 0.006935 0.000000 0.000000 0.000000
# 4 0.000000 0.000000 0.000000 0.027176 0.000000 0.000000
# 5 0.000000 0.000000 0.000000 0.000000 0.023753 0.000000
# 6 0.000000 0.000000 0.000000 0.000000 0.000000 0.026210
#
#
# Mechanical properties :
#
#
# Convention : Reuss Voigt Hill
#
# Bulk Modulus (GPa) = 69.48710 75.70464 72.59587
# Shear Modulus (GPa) = 39.93651 42.36940 41.15296
#
# Velocity S-wave (km/s) = 4.25739 4.38515 4.32174
# Velocity P-wave (km/s) = 7.46352 7.74585 7.60600
#
# Compressibility (1/GPa) = 0.01439116
#
# Stress axis : x y z
#
# Youngs Moduli (GPa) = 114.91876 75.81511 144.20055
#
# Poissons Ratio (x) = 0.16319 0.12265
# Poissons Ratio (y) = 0.24736 0.60776
# Poissons Ratio (z) = 0.09775 0.31954
#
# Static dielectric constant tensor:
#      x y z
#    x 1.872790 0.000000 0.000000 
#    y 0.000000 1.919870 0.000000 
#    z 0.000000 0.000000 1.843180 
# 
# From -- ./inp_files/3770.got.cif
#   From: 2010.05.17/outbox.cif.g08.bks.cpg/sg29_2_cif.got.tgz:3770.got - 2010.06.04 01:19:37.
