data_PCOD9341798
_publ_section_title
;
Structure prediction by ZEFSAII (Michael W. Deem and Ramdas Pophale) SiO2 
 PCOD9341798
Probable space group: P C A 21
;
_chemical_formula_sum "Si O2"
_cell_formula_units_Z 24
_cell_length_a 12.000000
_cell_length_b 9.000000
_cell_length_c 9.000000
_cell_angle_alpha 90.000000
_cell_angle_beta 90.000000
_cell_angle_gamma 90.000000
_cell_volume 972.000000
_symmetry_space_group_name_H-M "P C A 21"
_symmetry_group_IT_number 29
_symmetry_cell_setting 'orthorhombic'
loop_
_space_group_symop_operation_xyz
x,y,z
-x,-y,1/2+z
1/2-x,y,1/2+z
1/2+x,-y,z
loop_
_atom_site_type_symbol
_atom_site_label
_atom_site_fract_x
_atom_site_fract_y
_atom_site_fract_z
Si Si1 0.863376 0.233766 0.780900
Si Si2 0.172146 0.857619 0.944208
Si Si3 0.882010 0.844510 0.316790
Si Si4 0.497450 0.320031 0.762576
Si Si5 0.778233 0.737598 0.596478
Si Si6 0.623373 0.494674 0.509524
O O1 0.829895 0.212995 0.608182
O O2 0.795475 0.114410 0.878957
O O3 0.836817 0.378492 0.882754
O O4 0.995767 0.215236 0.786139
O O5 0.106591 0.762992 0.820573
O O6 0.109331 0.013093 0.923936
O O7 0.807976 0.741512 0.422728
O O8 0.813022 0.852025 0.163031
O O9 0.392122 0.239162 0.686973
O O10 0.541047 0.424516 0.630590
O O11 0.447244 0.391226 0.911044
O O12 0.719706 0.576190 0.603324
#
# Coordination Sequence:
#
# PCOD9341798 Si02
#       6
#     4   4   4   4   4   4
#     4  12  29  49  78 119 153 218 258 335 395 475
#     4  12  30  49  80 111 164 206 272 326 397 477
#     4  12  28  52  79 113 157 206 268 320 399 467
#     4  12  27  48  76 116 151 210 249 330 388 471
#     4  12  27  49  76 117 152 206 252 329 391 466
#     4  12  27  47  79 112 163 192 269 312 410 470
#
# _framework density 24.691358000000001
#
# number of rings (size 3 to 8) (size 9 to 14) (size 15 to 20)
#    0.000    0.000    3.333    5.000   11.667    0.000 
#    0.000    0.000    0.000    0.000    0.000    0.000 
#    0.000    0.000    0.000    0.000    0.000    0.000 
#
# Total GULP energy -134147.398695 kJ/mol
# GULP energy per Si atom -5589.474946 kJ/mol
# Density = 2.463516 g / cm^3
# Si number density = 24.691358 Si / 1000 Ang^3
#
#
#
# Elastic Constant Matrix: (Units=GPa)
#
#
# Indices 1 2 3 4 5 6 
#
# 1 108.7375 1.6004 56.2564 0.0000 0.0000 0.0000
# 2 1.6004 22.1324 10.0352 0.0000 0.0000 0.0000
# 3 56.2564 10.0352 147.5188 0.0000 0.0000 0.0000
# 4 0.0000 0.0000 0.0000 42.1450 0.0000 0.0000
# 5 0.0000 0.0000 0.0000 0.0000 54.8184 0.0000
# 6 0.0000 0.0000 0.0000 0.0000 0.0000 11.9945
#
#
#
# Elastic Compliance Matrix: (Units=1/GPa)
#
#
# Indices 1 2 3 4 5 6 
#
# 1 0.011487 0.001192 -0.004462 0.000000 0.000000 0.000000
# 2 0.001192 0.046744 -0.003635 0.000000 0.000000 0.000000
# 3 -0.004462 -0.003635 0.008728 0.000000 0.000000 0.000000
# 4 0.000000 0.000000 0.000000 0.023728 0.000000 0.000000
# 5 0.000000 0.000000 0.000000 0.000000 0.018242 0.000000
# 6 0.000000 0.000000 0.000000 0.000000 0.000000 0.083372
#
#
# Mechanical properties :
#
#
# Convention : Reuss Voigt Hill
#
# Bulk Modulus (GPa) = 18.81422 46.01918 32.41670
# Shear Modulus (GPa) = 22.33880 35.82468 29.08174
#
# Velocity S-wave (km/s) = 3.01112 3.81320 3.43565
# Velocity P-wave (km/s) = 4.44133 6.16973 5.37545
#
# Compressibility (1/GPa) = 0.05315130
#
# Stress axis : x y z
#
# Youngs Moduli (GPa) = 87.05292 21.39292 114.57961
#
# Poissons Ratio (x) = -0.02551 0.51123
# Poissons Ratio (y) = -0.10380 0.41645
# Poissons Ratio (z) = 0.38841 0.07775
#
# Static dielectric constant tensor:
#      x y z
#    x 2.019420 0.000000 0.000000 
#    y 0.000000 2.214100 0.000000 
#    z 0.000000 0.000000 1.908140 
# 
# From -- ./inp_files/1401.got.cif
#   From: 2010.05.17/outbox.ucp.g08.bks.cvg/sg29_1_cif.got.tgz:1401.got - 2010.06.11 15:24:14.
