data_PCOD9341946
_publ_section_title
;
Structure prediction by ZEFSAII (Michael W. Deem and Ramdas Pophale) SiO2 
 PCOD9341946
Probable space group: P N C 2
;
_chemical_formula_sum "Si O2"
_cell_formula_units_Z 24
_cell_length_a 5.258988
_cell_length_b 7.125026
_cell_length_c 27.207153
_cell_angle_alpha 90.000000
_cell_angle_beta 90.000000
_cell_angle_gamma 90.000000
_cell_volume 1019.463620
_symmetry_space_group_name_H-M "P N C 2"
_symmetry_group_IT_number 30
_symmetry_cell_setting 'orthorhombic'
loop_
_space_group_symop_operation_xyz
x,y,z
-x,-y,z
-x,1/2+y,1/2+z
x,1/2-y,1/2+z
loop_
_atom_site_type_symbol
_atom_site_label
_atom_site_fract_x
_atom_site_fract_y
_atom_site_fract_z
Si Si1 0.270581 0.206245 0.258650
Si Si2 0.529687 0.772433 0.866287
Si Si3 0.230856 0.715985 0.716107
Si Si4 0.969359 0.274080 0.416008
Si Si5 0.750100 0.373807 0.515749
Si Si6 0.749483 0.374092 0.111046
O O1 0.354134 0.206374 0.314880
O O2 0.499475 0.300478 0.229903
O O3 0.000157 0.295741 0.247774
O O4 0.249217 0.999353 0.234487
O O5 0.243271 0.705925 0.877440
O O6 0.742122 0.711567 0.906388
O O7 0.500000 0.000000 0.865357
O O8 0.191485 0.745492 0.658571
O O9 0.841068 0.249872 0.469184
O O10 0.000000 0.500000 0.411101
O O11 0.500000 0.500000 0.503403
O O12 0.694424 0.251029 0.563348
O O13 0.000000 0.500000 0.526305
O O14 0.500000 0.500000 0.120265
O O15 0.000000 0.500000 0.102584
#
# Coordination Sequence:
#
# PCOD9341946 Si02
#       6
#     4   4   4   4   4   4
#     4  10  21  38  63  91 127 170 228 269 319 398
#     4  10  19  33  60  92 134 171 213 269 332 378
#     4  10  23  40  62  86 131 168 224 272 330 399
#     4   9  18  35  59  96 129 168 218 266 321 398
#     4  11  23  41  74 101 132 179 230 273 332 407
#     4  12  27  45  68  98 140 176 221 286 353 392
#
# _framework density 23.541792000000001
#
# number of rings (size 3 to 8) (size 9 to 14) (size 15 to 20)
#    0.000    1.667    0.000    5.500    4.667    2.000 
#    0.000    0.000   22.000    0.000    0.000    0.000 
#    0.000    0.000    0.000    0.000    0.000    0.000 
#
# Total GULP energy -134090.492803 kJ/mol
# GULP energy per Si atom -5587.103867 kJ/mol
# Density = 2.348821 g / cm^3
# Si number density = 23.541792 Si / 1000 Ang^3
#
#
#
# Elastic Constant Matrix: (Units=GPa)
#
#
# Indices 1 2 3 4 5 6 
#
# 1 154.8862 16.8771 28.6513 0.0000 0.0000 0.0000
# 2 16.8771 106.3861 23.7675 0.0000 0.0000 0.0000
# 3 28.6513 23.7675 152.5642 0.0000 0.0000 0.0000
# 4 0.0000 0.0000 0.0000 116.1555 0.0000 0.0000
# 5 0.0000 0.0000 0.0000 0.0000 39.9827 0.0000
# 6 0.0000 0.0000 0.0000 0.0000 0.0000 -7.2060
#
#
#
# Elastic Compliance Matrix: (Units=1/GPa)
#
#
# Indices 1 2 3 4 5 6 
#
# 1 0.006757 -0.000817 -0.001142 0.000000 0.000000 0.000000
# 2 -0.000817 0.009837 -0.001379 0.000000 0.000000 0.000000
# 3 -0.001142 -0.001379 0.006984 0.000000 0.000000 0.000000
# 4 0.000000 0.000000 0.000000 0.008609 0.000000 0.000000
# 5 0.000000 0.000000 0.000000 0.000000 0.025011 0.000000
# 6 0.000000 0.000000 0.000000 0.000000 0.000000 -0.138773
#
#
# Mechanical properties :
#
#
# Convention : Reuss Voigt Hill
#
# Bulk Modulus (GPa) = 59.16225 61.38092 60.27158
# Shear Modulus (GPa) = -72.18563 52.75580 -9.71492
#
# Velocity S-wave (km/s) = -5.54340 4.73900 -2.03362
# Velocity P-wave (km/s) = 3.97330 7.48825 4.48814
#
# Compressibility (1/GPa) = 0.01690267
#
# Stress axis : x y z
#
# Youngs Moduli (GPa) = 148.00486 101.65268 143.18726
#
# Poissons Ratio (x) = 0.08303 0.16346
# Poissons Ratio (y) = 0.12089 0.19748
# Poissons Ratio (z) = 0.16896 0.14019
#
# Static dielectric constant tensor:
#      x y z
#    x 1.822100 0.000000 0.000000 
#    y 0.000000 1.896380 0.000000 
#    z 0.000000 0.000000 1.870990 
# 
# From -- ./inp_files/7184.got.cif
#   From: 2010.05.17/outbox.cif.g08.bks.cpg/sg30_4_cif.got.tgz:7184.got - 2010.06.03 17:03:02.
