data_PCOD9341786
_publ_section_title
;
Structure prediction by ZEFSAII (Michael W. Deem and Ramdas Pophale) SiO2 
 PCOD9341786
Probable space group: P C A 21
;
_chemical_formula_sum "Si O2"
_cell_formula_units_Z 28
_cell_length_a 12.000000
_cell_length_b 9.000000
_cell_length_c 12.000000
_cell_angle_alpha 90.000000
_cell_angle_beta 90.000000
_cell_angle_gamma 90.000000
_cell_volume 1296.000000
_symmetry_space_group_name_H-M "P C A 21"
_symmetry_group_IT_number 29
_symmetry_cell_setting 'orthorhombic'
loop_
_space_group_symop_operation_xyz
x,y,z
-x,-y,1/2+z
1/2-x,y,1/2+z
1/2+x,-y,z
loop_
_atom_site_type_symbol
_atom_site_label
_atom_site_fract_x
_atom_site_fract_y
_atom_site_fract_z
Si Si1 0.238142 0.132366 0.639190
Si Si2 0.981686 0.597609 0.745431
Si Si3 0.664361 0.206252 0.624122
Si Si4 0.851487 0.447903 0.546608
Si Si5 0.140476 0.339419 0.834182
Si Si6 0.042097 0.095982 0.992474
Si Si7 0.953894 0.768681 0.965675
O O1 0.212780 0.252541 0.738058
O O2 0.364421 0.115632 0.590496
O O3 0.154364 0.189795 0.540183
O O4 0.207329 0.957026 0.666240
O O5 0.083275 0.705083 0.707745
O O6 0.044906 0.444710 0.780062
O O7 0.894562 0.553098 0.647867
O O8 0.927238 0.687215 0.848784
O O9 0.757133 0.327213 0.583915
O O10 0.577980 0.160608 0.527224
O O11 0.818197 0.549873 0.437616
O O12 0.960996 0.349834 0.519305
O O13 0.085944 0.198741 0.894624
O O14 0.021822 0.924688 0.958413
#
# Coordination Sequence:
#
# PCOD9341786 Si02
#       7
#     4   4   4   4   4   4   4
#     4  11  24  46  77 106 146 200 254 310 375 465
#     4  11  24  46  73 108 146 192 247 314 385 453
#     4  11  25  47  73 108 152 195 250 305 381 455
#     4  11  23  48  73 111 149 193 248 319 382 458
#     4  11  25  44  75 107 149 189 257 307 385 444
#     4  11  24  47  71 110 148 198 247 311 375 457
#     4  10  23  46  72 108 146 193 253 310 375 460
#
# _framework density 21.604938000000001
#
# number of rings (size 3 to 8) (size 9 to 14) (size 15 to 20)
#    0.000    1.143    4.286    0.857    2.000    2.286 
#    7.714    2.857    0.000    0.000    0.000    0.000 
#    0.000    0.000    0.000    0.000    0.000    0.000 
#
# Total GULP energy -156379.363944 kJ/mol
# GULP energy per Si atom -5584.977284 kJ/mol
# Density = 2.155576 g / cm^3
# Si number density = 21.604938 Si / 1000 Ang^3
#
#
#
# Elastic Constant Matrix: (Units=GPa)
#
#
# Indices 1 2 3 4 5 6 
#
# 1 114.1878 55.0040 51.8903 0.0000 0.0000 0.0000
# 2 55.0040 187.2705 79.8000 0.0000 0.0000 0.0000
# 3 51.8903 79.8000 127.5723 0.0000 0.0000 0.0000
# 4 0.0000 0.0000 0.0000 51.9964 0.0000 0.0000
# 5 0.0000 0.0000 0.0000 0.0000 24.3283 0.0000
# 6 0.0000 0.0000 0.0000 0.0000 0.0000 53.1137
#
#
#
# Elastic Compliance Matrix: (Units=1/GPa)
#
#
# Indices 1 2 3 4 5 6 
#
# 1 0.011188 -0.001836 -0.003402 0.000000 0.000000 0.000000
# 2 -0.001836 0.007582 -0.003996 0.000000 0.000000 0.000000
# 3 -0.003402 -0.003996 0.011722 0.000000 0.000000 0.000000
# 4 0.000000 0.000000 0.000000 0.019232 0.000000 0.000000
# 5 0.000000 0.000000 0.000000 0.000000 0.041104 0.000000
# 6 0.000000 0.000000 0.000000 0.000000 0.000000 0.018828
#
#
# Mechanical properties :
#
#
# Convention : Reuss Voigt Hill
#
# Bulk Modulus (GPa) = 83.17021 89.15769 86.16395
# Shear Modulus (GPa) = 37.84087 42.04342 39.94215
#
# Velocity S-wave (km/s) = 4.18962 4.41615 4.30437
# Velocity P-wave (km/s) = 7.87295 8.20731 8.04187
#
# Compressibility (1/GPa) = 0.01202354
#
# Stress axis : x y z
#
# Youngs Moduli (GPa) = 89.38079 131.89274 85.31017
#
# Poissons Ratio (x) = 0.24221 0.29023
# Poissons Ratio (y) = 0.16414 0.34088
# Poissons Ratio (z) = 0.30408 0.52701
#
# Static dielectric constant tensor:
#      x y z
#    x 1.800490 0.000000 0.000000 
#    y 0.000000 1.779880 0.000000 
#    z 0.000000 0.000000 1.844040 
# 
# From -- ./inp_files/3127.got.cif
#   From: 2010.05.17/outbox.ucp.g08.bks.cvg/sg29_2_cif.got.tgz:3127.got - 2010.06.11 15:24:14.
