data_PCOD9341774
_publ_section_title
;
Structure prediction by ZEFSAII (Michael W. Deem and Ramdas Pophale) SiO2 
 PCOD9341774
Probable space group: P C A 21
;
_chemical_formula_sum "Si O2"
_cell_formula_units_Z 32
_cell_length_a 15.000000
_cell_length_b 12.000000
_cell_length_c 9.000000
_cell_angle_alpha 90.000000
_cell_angle_beta 90.000000
_cell_angle_gamma 90.000000
_cell_volume 1620.000000
_symmetry_space_group_name_H-M "P C A 21"
_symmetry_group_IT_number 29
_symmetry_cell_setting 'orthorhombic'
loop_
_space_group_symop_operation_xyz
x,y,z
-x,-y,1/2+z
1/2-x,y,1/2+z
1/2+x,-y,z
loop_
_atom_site_type_symbol
_atom_site_label
_atom_site_fract_x
_atom_site_fract_y
_atom_site_fract_z
Si Si1 0.943820 0.383101 0.833710
Si Si2 0.921661 0.478503 0.532909
Si Si3 0.321169 0.832160 0.140725
Si Si4 0.640788 0.705024 0.187434
Si Si5 0.703207 0.795331 0.492281
Si Si6 0.734804 0.324517 0.902356
Si Si7 0.988283 0.839667 0.484703
Si Si8 0.340102 0.068064 0.279156
O O1 0.956949 0.394385 0.657786
O O2 0.835783 0.373298 0.867278
O O3 0.989994 0.269440 0.887201
O O4 0.001283 0.478919 0.919957
O O5 0.895236 0.585813 0.633970
O O6 0.833586 0.419866 0.461561
O O7 0.315488 0.732441 0.262296
O O8 0.303627 0.946625 0.230437
O O9 0.255223 0.778272 0.016721
O O10 0.415380 0.861847 0.059758
O O11 0.652091 0.725250 0.364022
O O12 0.732768 0.719979 0.095636
O O13 0.576220 0.799883 0.118569
O O14 0.651836 0.865486 0.620745
O O15 0.766801 0.874172 0.388456
O O16 0.932107 0.923405 0.376978
#
# Coordination Sequence:
#
# PCOD9341774 Si02
#       8
#     4   4   4   4   4   4   4   4
#     4  10  24  43  63  97 133 177 229 277 342 415
#     4  11  24  40  66  95 133 183 226 277 344 415
#     4  11  23  42  65  91 129 177 226 284 344 411
#     4   9  20  36  58  91 124 163 208 274 327 401
#     4   9  19  37  61  91 125 158 211 274 338 398
#     4  11  24  44  65  98 140 181 234 289 338 416
#     4   9  22  42  56  89 133 158 225 285 325 412
#     4  10  20  40  64  92 123 171 221 276 346 410
#
# _framework density 19.753086
#
# number of rings (size 3 to 8) (size 9 to 14) (size 15 to 20)
#    0.000    2.000    1.250    0.750    7.000    2.000 
#    6.750    2.500    0.000    0.000    0.000    0.000 
#    0.000    0.000    0.000    0.000    0.000    0.000 
#
# Total GULP energy -178281.067949 kJ/mol
# GULP energy per Si atom -5571.283373 kJ/mol
# Density = 1.970813 g / cm^3
# Si number density = 19.753086 Si / 1000 Ang^3
#
#
#
# Elastic Constant Matrix: (Units=GPa)
#
#
# Indices 1 2 3 4 5 6 
#
# 1 76.7609 12.3642 22.4478 0.0000 0.0000 0.0000
# 2 12.3642 47.3244 12.6574 0.0000 0.0000 0.0000
# 3 22.4478 12.6574 111.7943 0.0000 0.0000 0.0000
# 4 0.0000 0.0000 0.0000 38.0660 0.0000 0.0000
# 5 0.0000 0.0000 0.0000 0.0000 35.7158 0.0000
# 6 0.0000 0.0000 0.0000 0.0000 0.0000 16.6816
#
#
#
# Elastic Compliance Matrix: (Units=1/GPa)
#
#
# Indices 1 2 3 4 5 6 
#
# 1 0.014255 -0.003051 -0.002517 0.000000 0.000000 0.000000
# 2 -0.003051 0.022444 -0.001928 0.000000 0.000000 0.000000
# 3 -0.002517 -0.001928 0.009669 0.000000 0.000000 0.000000
# 4 0.000000 0.000000 0.000000 0.026270 0.000000 0.000000
# 5 0.000000 0.000000 0.000000 0.000000 0.027999 0.000000
# 6 0.000000 0.000000 0.000000 0.000000 0.000000 0.059946
#
#
# Mechanical properties :
#
#
# Convention : Reuss Voigt Hill
#
# Bulk Modulus (GPa) = 31.87307 36.75759 34.31533
# Shear Modulus (GPa) = 26.87685 30.65337 28.76511
#
# Velocity S-wave (km/s) = 3.69269 3.94360 3.82020
# Velocity P-wave (km/s) = 5.86106 6.27574 6.07194
#
# Compressibility (1/GPa) = 0.03137445
#
# Stress axis : x y z
#
# Youngs Moduli (GPa) = 70.15100 44.55599 103.42635
#
# Poissons Ratio (x) = 0.13595 0.26031
# Poissons Ratio (y) = 0.21404 0.19945
# Poissons Ratio (z) = 0.17656 0.08592
#
# Static dielectric constant tensor:
#      x y z
#    x 1.716640 0.000000 0.000000 
#    y 0.000000 1.728660 0.000000 
#    z 0.000000 0.000000 1.707770 
# 
# From -- ./inp_files/1891.got.cif
#   From: 2010.05.17/outbox.ucp.g08.bks.cvg/sg29_1_cif.got.tgz:1891.got - 2010.06.11 15:24:14.
