data_PCOD9341439
_publ_section_title
;
Structure prediction by ZEFSAII (Michael W. Deem and Ramdas Pophale) SiO2 
 PCOD9341439
Probable space group: P C A 21
;
_chemical_formula_sum "Si O2"
_cell_formula_units_Z 28
_cell_length_a 15.228481
_cell_length_b 10.038340
_cell_length_c 7.951172
_cell_angle_alpha 90.000000
_cell_angle_beta 90.000000
_cell_angle_gamma 90.000000
_cell_volume 1215.485088
_symmetry_space_group_name_H-M "P C A 21"
_symmetry_group_IT_number 29
_symmetry_cell_setting 'orthorhombic'
loop_
_space_group_symop_operation_xyz
x,y,z
-x,-y,1/2+z
1/2-x,y,1/2+z
1/2+x,-y,z
loop_
_atom_site_type_symbol
_atom_site_label
_atom_site_fract_x
_atom_site_fract_y
_atom_site_fract_z
Si Si1 0.169300 0.204187 0.990010
Si Si2 0.404043 0.566170 0.278652
Si Si3 0.229574 0.033794 0.277170
Si Si4 0.839337 0.623454 0.003069
Si Si5 0.896235 0.121413 0.288625
Si Si6 0.563765 0.900107 0.513638
Si Si7 0.092359 0.437086 0.138102
O O1 0.195919 0.149401 0.809107
O O2 0.244244 0.312508 0.018257
O O3 0.086749 0.286735 0.054552
O O4 0.189561 0.073340 0.098698
O O5 0.401610 0.723169 0.249339
O O6 0.387774 0.528275 0.474504
O O7 0.345046 0.487716 0.145473
O O8 0.500485 0.520108 0.219475
O O9 0.145101 0.050578 0.395024
O O10 0.290852 0.906634 0.297401
O O11 0.910122 0.743241 0.033684
O O12 0.851180 0.574489 0.810226
O O13 0.965040 0.100138 0.441067
O O14 0.932867 0.012121 0.157207
#
# Coordination Sequence:
#
# PCOD9341439 Si02
#       7
#     4   4   4   4   4   4   4
#     4  11  21  43  75  98 127 188 249 289 334 445
#     4  12  26  44  70 107 145 184 230 311 371 426
#     4  11  22  43  70 100 139 182 240 298 347 429
#     4  11  23  48  71 103 136 187 254 286 356 443
#     4  12  26  45  68 108 147 179 242 300 379 425
#     4  11  25  45  71 104 138 198 242 289 367 456
#     4  12  23  44  73 102 140 184 245 293 358 446
#
# _framework density 23.036069000000001
#
# number of rings (size 3 to 8) (size 9 to 14) (size 15 to 20)
#    0.000    0.571    8.571    0.857    4.000    0.000 
#    5.143    0.000    0.000    0.000    0.000    0.000 
#    0.000    0.000    0.000    0.000    0.000    0.000 
#
# Total GULP energy -155999.279023 kJ/mol
# GULP energy per Si atom -5571.402822 kJ/mol
# Density = 2.298364 g / cm^3
# Si number density = 23.036069 Si / 1000 Ang^3
#
#
#
# Elastic Constant Matrix: (Units=GPa)
#
#
# Indices 1 2 3 4 5 6 
#
# 1 67.5463 33.6578 8.3800 0.0000 0.0000 0.0000
# 2 33.6578 124.2657 56.9973 0.0000 0.0000 0.0000
# 3 8.3800 56.9973 93.3528 0.0000 0.0000 0.0000
# 4 0.0000 0.0000 0.0000 30.0540 0.0000 0.0000
# 5 0.0000 0.0000 0.0000 0.0000 35.7532 0.0000
# 6 0.0000 0.0000 0.0000 0.0000 0.0000 36.2539
#
#
#
# Elastic Compliance Matrix: (Units=1/GPa)
#
#
# Indices 1 2 3 4 5 6 
#
# 1 0.017334 -0.005530 0.001820 0.000000 0.000000 0.000000
# 2 -0.005530 0.012942 -0.007405 0.000000 0.000000 0.000000
# 3 0.001820 -0.007405 0.015070 0.000000 0.000000 0.000000
# 4 0.000000 0.000000 0.000000 0.033273 0.000000 0.000000
# 5 0.000000 0.000000 0.000000 0.000000 0.027970 0.000000
# 6 0.000000 0.000000 0.000000 0.000000 0.000000 0.027583
#
#
# Mechanical properties :
#
#
# Convention : Reuss Voigt Hill
#
# Bulk Modulus (GPa) = 43.25966 53.69278 48.47622
# Shear Modulus (GPa) = 30.46785 32.82088 31.64437
#
# Velocity S-wave (km/s) = 3.64072 3.77869 3.71035
# Velocity P-wave (km/s) = 6.04095 6.51128 6.28052
#
# Compressibility (1/GPa) = 0.02311622
#
# Stress axis : x y z
#
# Youngs Moduli (GPa) = 57.68877 77.26975 66.35714
#
# Poissons Ratio (x) = 0.42730 -0.12079
# Poissons Ratio (y) = 0.31902 0.49139
# Poissons Ratio (z) = -0.10501 0.57220
#
# Static dielectric constant tensor:
#      x y z
#    x 1.926880 0.000000 0.000000 
#    y 0.000000 1.891400 0.000000 
#    z 0.000000 0.000000 2.015990 
# 
# From -- ./inp_files/2063.got.cif
#   From: 2010.05.17/outbox.cif.g08.bks.cpg/sg29_2_cif.got.tgz:2063.got - 2010.06.04 01:19:37.
