data_PCOD9341617
_publ_section_title
;
Structure prediction by ZEFSAII (Michael W. Deem and Ramdas Pophale) SiO2 
 PCOD9341617
Probable space group: P C A 21
;
_chemical_formula_sum "Si O2"
_cell_formula_units_Z 24
_cell_length_a 13.693360
_cell_length_b 6.317738
_cell_length_c 11.155316
_cell_angle_alpha 90.000000
_cell_angle_beta 90.000000
_cell_angle_gamma 90.000000
_cell_volume 965.058221
_symmetry_space_group_name_H-M "P C A 21"
_symmetry_group_IT_number 29
_symmetry_cell_setting 'orthorhombic'
loop_
_space_group_symop_operation_xyz
x,y,z
-x,-y,1/2+z
1/2-x,y,1/2+z
1/2+x,-y,z
loop_
_atom_site_type_symbol
_atom_site_label
_atom_site_fract_x
_atom_site_fract_y
_atom_site_fract_z
Si Si1 0.595208 0.267336 0.967960
Si Si2 0.113408 0.236455 0.215350
Si Si3 0.920601 0.044249 0.921072
Si Si4 0.299301 0.414143 0.287609
Si Si5 0.721346 0.905129 0.987313
Si Si6 0.057937 0.566934 0.592757
O O1 0.646063 0.420173 0.872384
O O2 0.523841 0.072980 0.931348
O O3 0.687949 0.142404 0.016900
O O4 0.523407 0.400011 0.051106
O O5 0.180703 0.412287 0.281677
O O6 0.002540 0.297509 0.191072
O O7 0.112787 0.011316 0.285223
O O8 0.167993 0.224611 0.089284
O O9 0.837846 0.912648 0.992377
O O10 0.922543 0.275108 0.980667
O O11 0.311004 0.188382 0.357424
O O12 0.351118 0.459828 0.160447
#
# Coordination Sequence:
#
# PCOD9341617 Si02
#       6
#     4   4   4   4   4   4
#     4  12  24  46  74 108 154 198 267 325 389 486
#     4  11  24  50  75 110 156 201 263 338 389 481
#     4  11  26  47  72 111 155 209 262 329 409 472
#     4  11  26  47  75 111 154 207 272 323 402 486
#     4  11  26  49  71 112 156 200 264 332 403 478
#     4  12  26  47  79 112 155 209 268 329 408 479
#
# _framework density 24.868963999999998
#
# number of rings (size 3 to 8) (size 9 to 14) (size 15 to 20)
#    0.000    0.667    5.000    1.000    2.333    9.333 
#    6.000    0.000    0.000    0.000    0.000    0.000 
#    0.000    0.000    0.000    0.000    0.000    0.000 
#
# Total GULP energy -133823.703750 kJ/mol
# GULP energy per Si atom -5575.987656 kJ/mol
# Density = 2.481236 g / cm^3
# Si number density = 24.868964 Si / 1000 Ang^3
#
#
#
# Elastic Constant Matrix: (Units=GPa)
#
#
# Indices 1 2 3 4 5 6 
#
# 1 98.0752 35.1888 23.8441 0.0000 0.0000 0.0000
# 2 35.1888 85.6436 43.0674 0.0000 0.0000 0.0000
# 3 23.8441 43.0674 78.2569 0.0000 0.0000 0.0000
# 4 0.0000 0.0000 0.0000 -17.4316 0.0000 0.0000
# 5 0.0000 0.0000 0.0000 0.0000 31.8300 0.0000
# 6 0.0000 0.0000 0.0000 0.0000 0.0000 43.5053
#
#
#
# Elastic Compliance Matrix: (Units=1/GPa)
#
#
# Indices 1 2 3 4 5 6 
#
# 1 0.012056 -0.004295 -0.001310 0.000000 0.000000 0.000000
# 2 -0.004295 0.017674 -0.008418 0.000000 0.000000 0.000000
# 3 -0.001310 -0.008418 0.017810 0.000000 0.000000 0.000000
# 4 0.000000 0.000000 0.000000 -0.057367 0.000000 0.000000
# 5 0.000000 0.000000 0.000000 0.000000 0.031417 0.000000
# 6 0.000000 0.000000 0.000000 0.000000 0.000000 0.022986
#
#
# Mechanical properties :
#
#
# Convention : Reuss Voigt Hill
#
# Bulk Modulus (GPa) = 51.29549 51.79739 51.54644
# Shear Modulus (GPa) = 63.19605 22.23908 42.71757
#
# Velocity S-wave (km/s) = 5.04646 2.99365 4.14902
# Velocity P-wave (km/s) = 7.39099 5.72910 6.61246
#
# Compressibility (1/GPa) = 0.01949489
#
# Stress axis : x y z
#
# Youngs Moduli (GPa) = 82.94902 56.58001 56.14757
#
# Poissons Ratio (x) = 0.24300 0.07354
# Poissons Ratio (y) = 0.35625 0.47265
# Poissons Ratio (z) = 0.10864 0.47629
#
# Static dielectric constant tensor:
#      x y z
#    x 1.961500 0.000000 0.000000 
#    y 0.000000 2.018510 0.000000 
#    z 0.000000 0.000000 2.036330 
# 
# From -- ./inp_files/3395.got.cif
#   From: 2010.05.17/outbox.cif.g08.bks.cpg/sg29_2_cif.got.tgz:3395.got - 2010.06.04 01:19:37.
