data_PCOD9341446
_publ_section_title
;
Structure prediction by ZEFSAII (Michael W. Deem and Ramdas Pophale) SiO2 
 PCOD9341446
Probable space group: P C A 21
;
_chemical_formula_sum "Si O2"
_cell_formula_units_Z 32
_cell_length_a 16.405315
_cell_length_b 6.390630
_cell_length_c 14.087969
_cell_angle_alpha 90.000000
_cell_angle_beta 90.000000
_cell_angle_gamma 90.000000
_cell_volume 1476.986871
_symmetry_space_group_name_H-M "P C A 21"
_symmetry_group_IT_number 29
_symmetry_cell_setting 'orthorhombic'
loop_
_space_group_symop_operation_xyz
x,y,z
-x,-y,1/2+z
1/2-x,y,1/2+z
1/2+x,-y,z
loop_
_atom_site_type_symbol
_atom_site_label
_atom_site_fract_x
_atom_site_fract_y
_atom_site_fract_z
Si Si1 0.197697 0.465116 0.094680
Si Si2 0.663514 0.810775 0.263899
Si Si3 0.073769 0.819474 0.159069
Si Si4 0.703900 0.867046 0.924011
Si Si5 0.193164 0.775723 0.502833
Si Si6 0.532078 0.809221 0.841242
Si Si7 0.545775 0.930860 0.503129
Si Si8 0.578020 0.530710 0.400525
O O1 0.210040 0.313222 0.182720
O O2 0.120708 0.616200 0.119151
O O3 0.274144 0.616227 0.080010
O O4 0.191622 0.316258 0.001765
O O5 0.718417 0.834848 0.356613
O O6 0.593320 0.656690 0.303593
O O7 0.633626 0.025867 0.217039
O O8 0.001387 0.781921 0.235205
O O9 0.031165 0.940513 0.072193
O O10 0.625043 0.866916 0.857472
O O11 0.728437 0.086797 0.972638
O O12 0.150636 0.635945 0.420029
O O13 0.121950 0.931045 0.536184
O O14 0.505776 0.595702 0.893725
O O15 0.481392 0.982393 0.900402
O O16 0.573106 0.693461 0.486547
#
# Coordination Sequence:
#
# PCOD9341446 Si02
#       8
#     4   4   4   4   4   4   4   4
#     4  12  25  44  70 105 139 189 243 298 365 441
#     4  12  24  47  71 100 146 190 244 305 368 441
#     4  12  26  44  71 105 138 191 246 307 369 441
#     4  12  26  47  71 107 149 191 246 302 375 444
#     4  11  23  44  72 100 139 190 238 295 367 435
#     4  11  24  43  68 103 138 189 241 302 367 431
#     4  11  23  45  70 100 143 184 239 302 369 438
#     4  11  21  46  73  96 144 194 235 301 372 435
#
# _framework density 21.66573
#
# number of rings (size 3 to 8) (size 9 to 14) (size 15 to 20)
#    0.000    0.500    5.000    3.750    0.000    4.000 
#    2.250    0.000    0.000    0.000    0.000    0.000 
#    0.000    0.000    0.000    0.000    0.000    0.000 
#
# Total GULP energy -178760.609982 kJ/mol
# GULP energy per Si atom -5586.269062 kJ/mol
# Density = 2.161642 g / cm^3
# Si number density = 21.665730 Si / 1000 Ang^3
#
#
#
# Elastic Constant Matrix: (Units=GPa)
#
#
# Indices 1 2 3 4 5 6 
#
# 1 51.8957 17.4281 4.8469 0.0000 0.0000 0.0000
# 2 17.4281 97.8056 29.7416 0.0000 0.0000 0.0000
# 3 4.8469 29.7416 86.4862 0.0000 0.0000 0.0000
# 4 0.0000 0.0000 0.0000 41.2445 0.0000 0.0000
# 5 0.0000 0.0000 0.0000 0.0000 30.0558 0.0000
# 6 0.0000 0.0000 0.0000 0.0000 0.0000 22.1768
#
#
#
# Elastic Compliance Matrix: (Units=1/GPa)
#
#
# Indices 1 2 3 4 5 6 
#
# 1 0.020497 -0.003689 0.000120 0.000000 0.000000 0.000000
# 2 -0.003689 0.012082 -0.003948 0.000000 0.000000 0.000000
# 3 0.000120 -0.003948 0.012914 0.000000 0.000000 0.000000
# 4 0.000000 0.000000 0.000000 0.024246 0.000000 0.000000
# 5 0.000000 0.000000 0.000000 0.000000 0.033271 0.000000
# 6 0.000000 0.000000 0.000000 0.000000 0.000000 0.045092
#
#
# Mechanical properties :
#
#
# Convention : Reuss Voigt Hill
#
# Bulk Modulus (GPa) = 32.83160 37.80230 35.31695
# Shear Modulus (GPa) = 28.85344 30.97346 29.91345
#
# Velocity S-wave (km/s) = 3.65328 3.78512 3.71978
# Velocity P-wave (km/s) = 5.74298 6.04886 5.89790
#
# Compressibility (1/GPa) = 0.03045846
#
# Stress axis : x y z
#
# Youngs Moduli (GPa) = 48.78750 82.76576 77.43796
#
# Poissons Ratio (x) = 0.30531 -0.00928
# Poissons Ratio (y) = 0.17997 0.30574
# Poissons Ratio (z) = -0.00585 0.32678
#
# Static dielectric constant tensor:
#      x y z
#    x 1.808550 0.000000 0.000000 
#    y 0.000000 1.832970 0.000000 
#    z 0.000000 0.000000 1.791930 
# 
# From -- ./inp_files/4777.got.cif
#   From: 2010.05.17/outbox.cif.g08.bks.cpg/sg29_3_cif.got.tgz:4777.got - 2010.06.04 01:19:37.
