data_PCOD9341611
_publ_section_title
;
Structure prediction by ZEFSAII (Michael W. Deem and Ramdas Pophale) SiO2 
 PCOD9341611
Probable space group: P C A 21
;
_chemical_formula_sum "Si O2"
_cell_formula_units_Z 20
_cell_length_a 15.612875
_cell_length_b 5.174562
_cell_length_c 9.306272
_cell_angle_alpha 90.000000
_cell_angle_beta 90.000000
_cell_angle_gamma 90.000000
_cell_volume 751.851758
_symmetry_space_group_name_H-M "P C A 21"
_symmetry_group_IT_number 29
_symmetry_cell_setting 'orthorhombic'
loop_
_space_group_symop_operation_xyz
x,y,z
-x,-y,1/2+z
1/2-x,y,1/2+z
1/2+x,-y,z
loop_
_atom_site_type_symbol
_atom_site_label
_atom_site_fract_x
_atom_site_fract_y
_atom_site_fract_z
Si Si1 0.032810 0.949012 0.346050
Si Si2 0.517398 0.331655 0.058234
Si Si3 0.131592 0.678797 0.575722
Si Si4 0.857277 0.727377 0.482441
Si Si5 0.225551 0.180464 0.692317
O O1 0.022648 0.881618 0.180990
O O2 0.110334 0.784466 0.416284
O O3 0.941962 0.854619 0.414631
O O4 0.035050 0.229922 0.419717
O O5 0.460761 0.565048 0.124811
O O6 0.609581 0.438179 0.012897
O O7 0.190683 0.433450 0.608100
O O8 0.171111 0.924666 0.656674
O O9 0.820230 0.845527 0.628705
O O10 0.786346 0.758973 0.359123
#
# Coordination Sequence:
#
# PCOD9341611 Si02
#       5
#     4   4   4   4   4
#     4  11  24  48  81 116 156 208 276 326 398 470
#     4  11  26  49  82 119 158 213 282 332 403 480
#     4  11  25  49  80 108 158 207 260 333 388 492
#     4  11  29  46  77 114 162 206 269 331 408 482
#     4  12  28  50  76 113 162 204 261 326 419 470
#
# _framework density 26.600992000000002
#
# number of rings (size 3 to 8) (size 9 to 14) (size 15 to 20)
#    0.000    0.800    4.000    0.000   11.200    3.200 
#    0.000    0.000    0.000    0.000    0.000    0.000 
#    0.000    0.000    0.000    0.000    0.000    0.000 
#
# Total GULP energy -111939.359228 kJ/mol
# GULP energy per Si atom -5596.967961 kJ/mol
# Density = 2.654045 g / cm^3
# Si number density = 26.600992 Si / 1000 Ang^3
#
#
#
# Elastic Constant Matrix: (Units=GPa)
#
#
# Indices 1 2 3 4 5 6 
#
# 1 67.6515 41.2875 18.1056 0.0000 0.0000 0.0000
# 2 41.2875 179.8941 55.1070 0.0000 0.0000 0.0000
# 3 18.1056 55.1070 110.8301 0.0000 0.0000 0.0000
# 4 0.0000 0.0000 0.0000 27.1354 0.0000 0.0000
# 5 0.0000 0.0000 0.0000 0.0000 37.9758 0.0000
# 6 0.0000 0.0000 0.0000 0.0000 0.0000 40.5167
#
#
#
# Elastic Compliance Matrix: (Units=1/GPa)
#
#
# Indices 1 2 3 4 5 6 
#
# 1 0.017284 -0.003659 -0.001004 0.000000 0.000000 0.000000
# 2 -0.003659 0.007332 -0.003048 0.000000 0.000000 0.000000
# 3 -0.001004 -0.003048 0.010702 0.000000 0.000000 0.000000
# 4 0.000000 0.000000 0.000000 0.036852 0.000000 0.000000
# 5 0.000000 0.000000 0.000000 0.000000 0.026333 0.000000
# 6 0.000000 0.000000 0.000000 0.000000 0.000000 0.024681
#
#
# Mechanical properties :
#
#
# Convention : Reuss Voigt Hill
#
# Bulk Modulus (GPa) = 50.26202 65.26399 57.76301
# Shear Modulus (GPa) = 34.42609 37.38396 35.90503
#
# Velocity S-wave (km/s) = 3.60135 3.75288 3.67790
# Velocity P-wave (km/s) = 6.01904 6.58532 6.30854
#
# Compressibility (1/GPa) = 0.01989574
#
# Stress axis : x y z
#
# Youngs Moduli (GPa) = 57.85849 136.38207 93.43707
#
# Poissons Ratio (x) = 0.49904 0.09382
# Poissons Ratio (y) = 0.21171 0.28480
# Poissons Ratio (z) = 0.05809 0.41570
#
# Static dielectric constant tensor:
#      x y z
#    x 2.152190 0.000000 0.000000 
#    y 0.000000 2.192320 0.000000 
#    z 0.000000 0.000000 2.061480 
# 
# From -- ./inp_files/1947.got.cif
#   From: 2010.05.17/outbox.cif.g08.bks.cpg/sg29_1_cif.got.tgz:1947.got - 2010.06.04 01:19:37.
