data_PCOD9341903
_publ_section_title
;
Structure prediction by ZEFSAII (Michael W. Deem and Ramdas Pophale) SiO2 
 PCOD9341903
Probable space group: P N C 2
;
_chemical_formula_sum "Si O2"
_cell_formula_units_Z 22
_cell_length_a 9.117295
_cell_length_b 11.727436
_cell_length_c 9.866744
_cell_angle_alpha 90.000000
_cell_angle_beta 90.000000
_cell_angle_gamma 90.000000
_cell_volume 1054.976872
_symmetry_space_group_name_H-M "P N C 2"
_symmetry_group_IT_number 30
_symmetry_cell_setting 'orthorhombic'
loop_
_space_group_symop_operation_xyz
x,y,z
-x,-y,z
-x,1/2+y,1/2+z
x,1/2-y,1/2+z
loop_
_atom_site_type_symbol
_atom_site_label
_atom_site_fract_x
_atom_site_fract_y
_atom_site_fract_z
Si Si1 0.103021 0.767675 0.869550
Si Si2 0.784023 0.666308 0.909627
Si Si3 0.000000 0.000000 0.989286
Si Si4 0.383178 0.265402 0.167759
Si Si5 0.295139 0.763924 0.117253
Si Si6 0.272233 0.027284 0.167373
O O1 0.159770 0.758451 0.717690
O O2 0.955186 0.697461 0.900615
O O3 0.066360 0.898607 0.902565
O O4 0.237756 0.734267 0.968048
O O5 0.694242 0.758437 0.815101
O O6 0.755037 0.549374 0.827105
O O7 0.715566 0.668570 0.058576
O O8 0.122371 0.051473 0.087767
O O9 0.554004 0.296935 0.160702
O O10 0.375571 0.131352 0.125470
O O11 0.315922 0.900317 0.131904
#
# Coordination Sequence:
#
# PCOD9341903 Si02
#       6
#     4   4   2   4   4   4
#     4  11  21  37  60  84 119 153 205 249 293 359
#     4  10  19  36  59  87 115 158 194 241 298 359
#     4  10  18  38  58  92 112 162 202 246 296 358
#     4  10  20  36  60  88 120 155 195 246 300 365
#     4  11  22  38  60  90 118 156 200 251 304 357
#     4   9  20  35  64  83 120 154 200 233 308 366
#
# _framework density 20.853535999999998
#
# number of rings (size 3 to 8) (size 9 to 14) (size 15 to 20)
#    1.091    0.727    1.818    4.909    0.000    0.000 
#    0.000    3.636    0.000    2.182    0.000    0.000 
#    0.000    0.000    0.000    0.000    0.000    0.000 
#
# Total GULP energy -122608.907278 kJ/mol
# GULP energy per Si atom -5573.132149 kJ/mol
# Density = 2.080607 g / cm^3
# Si number density = 20.853536 Si / 1000 Ang^3
#
#
#
# Elastic Constant Matrix: (Units=GPa)
#
#
# Indices 1 2 3 4 5 6 
#
# 1 96.7750 -2.4701 -12.1741 0.0000 0.0000 0.0000
# 2 -2.4701 18.8093 -4.8577 0.0000 0.0000 0.0000
# 3 -12.1741 -4.8577 36.8855 0.0000 0.0000 0.0000
# 4 0.0000 0.0000 0.0000 20.6752 0.0000 0.0000
# 5 0.0000 0.0000 0.0000 0.0000 27.5854 0.0000
# 6 0.0000 0.0000 0.0000 0.0000 0.0000 11.5585
#
#
#
# Elastic Compliance Matrix: (Units=1/GPa)
#
#
# Indices 1 2 3 4 5 6 
#
# 1 0.010888 0.002441 0.003915 0.000000 0.000000 0.000000
# 2 0.002441 0.055584 0.008126 0.000000 0.000000 0.000000
# 3 0.003915 0.008126 0.029473 0.000000 0.000000 0.000000
# 4 0.000000 0.000000 0.000000 0.048367 0.000000 0.000000
# 5 0.000000 0.000000 0.000000 0.000000 0.036251 0.000000
# 6 0.000000 0.000000 0.000000 0.000000 0.000000 0.086516
#
#
# Mechanical properties :
#
#
# Convention : Reuss Voigt Hill
#
# Bulk Modulus (GPa) = 8.00578 12.60732 10.30655
# Shear Modulus (GPa) = 17.87291 23.42860 20.65076
#
# Velocity S-wave (km/s) = 2.93075 3.35548 3.15028
# Velocity P-wave (km/s) = 3.91149 4.59032 4.26444
#
# Compressibility (1/GPa) = 0.12490976
#
# Stress axis : x y z
#
# Youngs Moduli (GPa) = 91.84366 17.99064 33.92903
#
# Poissons Ratio (x) = -0.04391 -0.13284
# Poissons Ratio (y) = -0.22419 -0.27570
# Poissons Ratio (z) = -0.35958 -0.14619
#
# Static dielectric constant tensor:
#      x y z
#    x 1.762180 0.000000 0.000000 
#    y 0.000000 1.769300 0.000000 
#    z 0.000000 0.000000 1.752510 
# 
# From -- ./inp_files/1798.got.cif
#   From: 2010.05.17/outbox.cif.g08.bks.cpg/sg30_1_cif.got.tgz:1798.got - 2010.06.03 17:03:02.
