data_PCOD9341382
_publ_section_title
;
Structure prediction by ZEFSAII (Michael W. Deem and Ramdas Pophale) SiO2 
 PCOD9341382
Probable space group: P C A 21
;
_chemical_formula_sum "Si O2"
_cell_formula_units_Z 32
_cell_length_a 10.360169
_cell_length_b 11.336910
_cell_length_c 11.184115
_cell_angle_alpha 90.000000
_cell_angle_beta 90.000000
_cell_angle_gamma 90.000000
_cell_volume 1313.600070
_symmetry_space_group_name_H-M "P C A 21"
_symmetry_group_IT_number 29
_symmetry_cell_setting 'orthorhombic'
loop_
_space_group_symop_operation_xyz
x,y,z
-x,-y,1/2+z
1/2-x,y,1/2+z
1/2+x,-y,z
loop_
_atom_site_type_symbol
_atom_site_label
_atom_site_fract_x
_atom_site_fract_y
_atom_site_fract_z
Si Si1 0.118723 0.231335 0.231620
Si Si2 0.243062 0.018084 0.786744
Si Si3 0.112628 0.607258 0.835909
Si Si4 0.102672 0.336016 0.791233
Si Si5 0.023821 0.730450 0.057903
Si Si6 0.012745 0.814384 0.498781
Si Si7 0.854374 0.938834 0.018846
Si Si8 0.239519 0.774735 0.684024
O O1 0.122234 0.091112 0.265271
O O2 0.254520 0.282020 0.277409
O O3 0.007281 0.319270 0.277756
O O4 0.102288 0.223645 0.088464
O O5 0.171318 0.056873 0.662640
O O6 0.217082 0.878977 0.778731
O O7 0.232457 0.046880 0.928653
O O8 0.103189 0.468074 0.839087
O O9 0.232497 0.653230 0.756863
O O10 0.108930 0.653322 0.970136
O O11 0.046774 0.344603 0.657947
O O12 0.017165 0.249771 0.874371
O O13 0.921252 0.814024 0.995780
O O14 0.124929 0.810684 0.128301
O O15 0.137544 0.771315 0.576076
O O16 0.051469 0.951584 0.488036
#
# Coordination Sequence:
#
# PCOD9341382 Si02
#       8
#     4   4   4   4   4   4   4   4
#     4  11  25  49  74 105 148 197 251 316 385 458
#     4  11  23  44  77 112 155 197 253 319 395 465
#     4  11  29  48  71 108 151 200 261 320 382 464
#     4  12  29  46  77 109 147 209 259 319 391 462
#     4  12  26  46  75 108 145 202 259 314 393 468
#     4  10  26  47  74 111 151 195 252 320 386 461
#     4  11  24  47  76 120 157 205 259 321 400 471
#     4  10  26  47  74 107 150 201 248 323 386 459
#
# _framework density 24.360534000000001
#
# number of rings (size 3 to 8) (size 9 to 14) (size 15 to 20)
#    0.000    1.000    2.500    1.500   14.000    1.000 
#    0.000    0.000    0.000    0.000    0.000    0.000 
#    0.000    0.000    0.000    0.000    0.000    0.000 
#
# Total GULP energy -178597.616945 kJ/mol
# GULP energy per Si atom -5581.175530 kJ/mol
# Density = 2.430509 g / cm^3
# Si number density = 24.360534 Si / 1000 Ang^3
#
#
#
# Elastic Constant Matrix: (Units=GPa)
#
#
# Indices 1 2 3 4 5 6 
#
# 1 82.5653 15.9260 35.4481 0.0000 0.0000 0.0000
# 2 15.9260 128.5519 46.2972 0.0000 0.0000 0.0000
# 3 35.4481 46.2972 124.0283 0.0000 0.0000 0.0000
# 4 0.0000 0.0000 0.0000 34.7112 0.0000 0.0000
# 5 0.0000 0.0000 0.0000 0.0000 35.1882 0.0000
# 6 0.0000 0.0000 0.0000 0.0000 0.0000 22.8367
#
#
#
# Elastic Compliance Matrix: (Units=1/GPa)
#
#
# Indices 1 2 3 4 5 6 
#
# 1 0.013818 -0.000335 -0.003824 0.000000 0.000000 0.000000
# 2 -0.000335 0.008995 -0.003262 0.000000 0.000000 0.000000
# 3 -0.003824 -0.003262 0.010373 0.000000 0.000000 0.000000
# 4 0.000000 0.000000 0.000000 0.028809 0.000000 0.000000
# 5 0.000000 0.000000 0.000000 0.000000 0.028419 0.000000
# 6 0.000000 0.000000 0.000000 0.000000 0.000000 0.043789
#
#
# Mechanical properties :
#
#
# Convention : Reuss Voigt Hill
#
# Bulk Modulus (GPa) = 54.51206 58.94311 56.72759
# Shear Modulus (GPa) = 32.22467 34.37885 33.30176
#
# Velocity S-wave (km/s) = 3.64101 3.76074 3.70136
# Velocity P-wave (km/s) = 6.33259 6.56553 6.45011
#
# Compressibility (1/GPa) = 0.01834456
#
# Stress axis : x y z
#
# Youngs Moduli (GPa) = 72.36882 111.16991 96.40038
#
# Poissons Ratio (x) = 0.03719 0.36868
# Poissons Ratio (y) = 0.02421 0.31447
# Poissons Ratio (z) = 0.27677 0.36265
#
# Static dielectric constant tensor:
#      x y z
#    x 2.032360 0.000000 0.000000 
#    y 0.000000 1.878300 0.000000 
#    z 0.000000 0.000000 2.006650 
# 
# From -- ./inp_files/3272.got.cif
#   From: 2010.05.17/outbox.cif.g08.bks.cpg/sg29_2_cif.got.tgz:3272.got - 2010.06.04 01:19:37.
