data_PCOD9341496
_publ_section_title
;
Structure prediction by ZEFSAII (Michael W. Deem and Ramdas Pophale) SiO2 
 PCOD9341496
Probable space group: P C A 21
;
_chemical_formula_sum "Si O2"
_cell_formula_units_Z 32
_cell_length_a 9.085826
_cell_length_b 5.281471
_cell_length_c 30.272971
_cell_angle_alpha 90.000000
_cell_angle_beta 90.000000
_cell_angle_gamma 90.000000
_cell_volume 1452.694726
_symmetry_space_group_name_H-M "P C A 21"
_symmetry_group_IT_number 29
_symmetry_cell_setting 'orthorhombic'
loop_
_space_group_symop_operation_xyz
x,y,z
-x,-y,1/2+z
1/2-x,y,1/2+z
1/2+x,-y,z
loop_
_atom_site_type_symbol
_atom_site_label
_atom_site_fract_x
_atom_site_fract_y
_atom_site_fract_z
Si Si1 0.595784 0.220291 0.606450
Si Si2 0.989576 0.283247 0.471919
Si Si3 0.648184 0.970207 0.689222
Si Si4 0.351738 0.470130 0.650535
Si Si5 0.010406 0.783258 0.867832
Si Si6 0.341980 0.793378 0.004462
Si Si7 0.158040 0.706604 0.335290
Si Si8 0.595849 0.279737 0.233302
O O1 0.461012 0.409901 0.610571
O O2 0.742576 0.329590 0.628394
O O3 0.626926 0.160271 0.556375
O O4 0.551803 0.023854 0.645111
O O5 0.831359 0.251756 0.495867
O O6 0.959319 0.249982 0.419875
O O7 0.067120 0.548641 0.486115
O O8 0.099091 0.050866 0.482591
O O9 0.749981 0.750049 0.669884
O O10 0.538884 0.909953 0.729178
O O11 0.757322 0.170509 0.711369
O O12 0.448145 0.523857 0.694637
O O13 0.900887 0.550871 0.857167
O O14 0.168620 0.751750 0.843882
O O15 0.932859 0.048648 0.853635
O O16 0.126944 0.660216 0.283378
#
# Coordination Sequence:
#
# PCOD9341496 Si02
#       8
#     4   4   4   4   4   4   4   4
#     4  11  25  41  66  97 134 181 234 273 343 399
#     4  12  26  49  73 106 140 184 232 302 373 425
#     4  11  23  40  63  92 138 180 218 281 329 402
#     4  11  23  40  63  92 138 180 218 281 329 402
#     4  12  26  49  73 106 140 184 232 302 373 425
#     4  12  28  45  79 105 144 186 242 298 347 444
#     4  12  28  45  79 105 144 186 242 298 347 444
#     4  11  25  41  66  97 134 181 234 273 343 399
#
# _framework density 22.028026000000001
#
# number of rings (size 3 to 8) (size 9 to 14) (size 15 to 20)
#    0.000    0.500    2.500    5.250    7.000    0.000 
#    0.000    0.000    0.000    0.000    0.000    0.000 
#    0.000    0.000    0.000    0.000    0.000    0.000 
#
# Total GULP energy -178563.762821 kJ/mol
# GULP energy per Si atom -5580.117588 kJ/mol
# Density = 2.197789 g / cm^3
# Si number density = 22.028026 Si / 1000 Ang^3
#
#
#
# Elastic Constant Matrix: (Units=GPa)
#
#
# Indices 1 2 3 4 5 6 
#
# 1 70.4243 -5.0652 -40.5557 0.0000 0.0000 0.0000
# 2 -5.0652 63.3584 -16.0379 0.0000 0.0000 0.0000
# 3 -40.5557 -16.0379 89.0584 0.0000 0.0000 0.0000
# 4 0.0000 0.0000 0.0000 21.2481 0.0000 0.0000
# 5 0.0000 0.0000 0.0000 0.0000 41.4284 0.0000
# 6 0.0000 0.0000 0.0000 0.0000 0.0000 35.1519
#
#
#
# Elastic Compliance Matrix: (Units=1/GPa)
#
#
# Indices 1 2 3 4 5 6 
#
# 1 0.020232 0.004138 0.009959 0.000000 0.000000 0.000000
# 2 0.004138 0.017384 0.005015 0.000000 0.000000 0.000000
# 3 0.009959 0.005015 0.016667 0.000000 0.000000 0.000000
# 4 0.000000 0.000000 0.000000 0.047063 0.000000 0.000000
# 5 0.000000 0.000000 0.000000 0.000000 0.024138 0.000000
# 6 0.000000 0.000000 0.000000 0.000000 0.000000 0.028448
#
#
# Mechanical properties :
#
#
# Convention : Reuss Voigt Hill
#
# Bulk Modulus (GPa) = 10.81007 11.05817 10.93412
# Shear Modulus (GPa) = 34.11967 38.53234 36.32601
#
# Velocity S-wave (km/s) = 3.93990 4.18693 4.06529
# Velocity P-wave (km/s) = 5.06114 5.32962 5.19711
#
# Compressibility (1/GPa) = 0.09250634
#
# Stress axis : x y z
#
# Youngs Moduli (GPa) = 49.42606 57.52581 59.99985
#
# Poissons Ratio (x) = -0.23806 -0.59752
# Poissons Ratio (y) = -0.20454 -0.30090
# Poissons Ratio (z) = -0.49222 -0.28849
#
# Static dielectric constant tensor:
#      x y z
#    x 1.911220 0.000000 0.000000 
#    y 0.000000 2.391830 0.000000 
#    z 0.000000 0.000000 2.326560 
# 
# From -- ./inp_files/5820.got.cif
#   From: 2010.05.17/outbox.cif.g08.bks.cpg/sg29_3_cif.got.tgz:5820.got - 2010.06.04 01:19:37.
