data_PCOD9341641
_publ_section_title
;
Structure prediction by ZEFSAII (Michael W. Deem and Ramdas Pophale) SiO2 
 PCOD9341641
Probable space group: P C A 21
;
_chemical_formula_sum "Si O2"
_cell_formula_units_Z 28
_cell_length_a 18.608438
_cell_length_b 5.239467
_cell_length_c 11.612674
_cell_angle_alpha 90.000000
_cell_angle_beta 90.000000
_cell_angle_gamma 90.000000
_cell_volume 1132.215937
_symmetry_space_group_name_H-M "P C A 21"
_symmetry_group_IT_number 29
_symmetry_cell_setting 'orthorhombic'
loop_
_space_group_symop_operation_xyz
x,y,z
-x,-y,1/2+z
1/2-x,y,1/2+z
1/2+x,-y,z
loop_
_atom_site_type_symbol
_atom_site_label
_atom_site_fract_x
_atom_site_fract_y
_atom_site_fract_z
Si Si1 0.002793 0.350763 0.487490
Si Si2 0.761307 0.772229 0.598614
Si Si3 0.651742 0.664646 0.425437
Si Si4 0.976886 0.324235 0.221309
Si Si5 0.194357 0.727190 0.711110
Si Si6 0.172730 0.831764 0.317323
Si Si7 0.907873 0.018782 0.622564
O O1 0.994627 0.430659 0.351400
O O2 0.943106 0.137388 0.509569
O O3 0.083891 0.242587 0.497768
O O4 0.000463 0.528120 0.602327
O O5 0.729483 0.690825 0.477809
O O6 0.727675 0.548609 0.677695
O O7 0.721846 0.042000 0.628663
O O8 0.846131 0.814845 0.592495
O O9 0.639060 0.367215 0.404165
O O10 0.654881 0.870919 0.325170
O O11 0.890996 0.284229 0.217619
O O12 0.025560 0.072596 0.202177
O O13 0.241889 0.798089 0.822681
O O14 0.136850 0.768364 0.194558
#
# Coordination Sequence:
#
# PCOD9341641 Si02
#       7
#     4   4   4   4   4   4   4
#     4  12  28  48  79 117 162 215 262 340 408 487
#     4  11  25  47  77 111 158 206 268 331 399 482
#     4  12  24  47  77 113 155 210 259 333 402 484
#     4  12  28  51  78 119 160 215 267 341 406 489
#     4  11  25  48  76 112 156 208 271 329 399 484
#     4  11  25  46  78 109 156 210 262 328 403 477
#     4  11  27  47  77 113 163 208 269 332 411 477
#
# _framework density 24.730263000000001
#
# number of rings (size 3 to 8) (size 9 to 14) (size 15 to 20)
#    0.000    0.571    2.857    4.286    8.000    2.286 
#    0.000    0.000    0.000    0.000    0.000    0.000 
#    0.000    0.000    0.000    0.000    0.000    0.000 
#
# Total GULP energy -155997.057031 kJ/mol
# GULP energy per Si atom -5571.323465 kJ/mol
# Density = 2.467398 g / cm^3
# Si number density = 24.730263 Si / 1000 Ang^3
#
#
#
# Elastic Constant Matrix: (Units=GPa)
#
#
# Indices 1 2 3 4 5 6 
#
# 1 188.9671 32.5918 22.5696 0.0000 0.0000 0.0000
# 2 32.5918 88.0078 27.2489 0.0000 0.0000 0.0000
# 3 22.5696 27.2489 100.2271 0.0000 0.0000 0.0000
# 4 0.0000 0.0000 0.0000 33.4212 0.0000 0.0000
# 5 0.0000 0.0000 0.0000 0.0000 42.1282 0.0000
# 6 0.0000 0.0000 0.0000 0.0000 0.0000 33.9907
#
#
#
# Elastic Compliance Matrix: (Units=1/GPa)
#
#
# Indices 1 2 3 4 5 6 
#
# 1 0.005708 -0.001873 -0.000776 0.000000 0.000000 0.000000
# 2 -0.001873 0.013022 -0.003118 0.000000 0.000000 0.000000
# 3 -0.000776 -0.003118 0.011000 0.000000 0.000000 0.000000
# 4 0.000000 0.000000 0.000000 0.029921 0.000000 0.000000
# 5 0.000000 0.000000 0.000000 0.000000 0.023737 0.000000
# 6 0.000000 0.000000 0.000000 0.000000 0.000000 0.029420
#
#
# Mechanical properties :
#
#
# Convention : Reuss Voigt Hill
#
# Bulk Modulus (GPa) = 54.96357 60.22472 57.59414
# Shear Modulus (GPa) = 38.34123 41.56080 39.95101
#
# Velocity S-wave (km/s) = 3.94175 4.10392 4.02365
# Velocity P-wave (km/s) = 6.55668 6.84556 6.70268
#
# Compressibility (1/GPa) = 0.01819387
#
# Stress axis : x y z
#
# Youngs Moduli (GPa) = 175.20099 76.79333 90.91007
#
# Poissons Ratio (x) = 0.14387 0.07054
# Poissons Ratio (y) = 0.32824 0.28350
# Poissons Ratio (z) = 0.13595 0.23947
#
# Static dielectric constant tensor:
#      x y z
#    x 2.020730 0.000000 0.000000 
#    y 0.000000 2.108790 0.000000 
#    z 0.000000 0.000000 2.130310 
# 
# From -- ./inp_files/3603.got.cif
#   From: 2010.05.17/outbox.cif.g08.bks.cpg/sg29_2_cif.got.tgz:3603.got - 2010.06.04 01:19:37.
