data_PCOD9341410
_publ_section_title
;
Structure prediction by ZEFSAII (Michael W. Deem and Ramdas Pophale) SiO2 
 PCOD9341410
Probable space group: P C A 21
;
_chemical_formula_sum "Si O2"
_cell_formula_units_Z 32
_cell_length_a 12.647608
_cell_length_b 13.132971
_cell_length_c 8.434982
_cell_angle_alpha 90.000000
_cell_angle_beta 90.000000
_cell_angle_gamma 90.000000
_cell_volume 1401.056154
_symmetry_space_group_name_H-M "P C A 21"
_symmetry_group_IT_number 29
_symmetry_cell_setting 'orthorhombic'
loop_
_space_group_symop_operation_xyz
x,y,z
-x,-y,1/2+z
1/2-x,y,1/2+z
1/2+x,-y,z
loop_
_atom_site_type_symbol
_atom_site_label
_atom_site_fract_x
_atom_site_fract_y
_atom_site_fract_z
Si Si1 0.568999 0.209500 0.885140
Si Si2 0.201604 0.557190 0.700668
Si Si3 0.687022 0.591503 0.952768
Si Si4 0.237864 0.060372 0.732053
Si Si5 0.152885 0.277009 0.240528
Si Si6 0.214625 0.700917 0.444518
Si Si7 0.382280 0.894714 0.058206
Si Si8 0.094334 0.002152 0.028747
O O1 0.456009 0.252813 0.832155
O O2 0.622427 0.162424 0.727312
O O3 0.555466 0.111272 0.996135
O O4 0.657236 0.283615 0.961130
O O5 0.256880 0.482743 0.577360
O O6 0.136276 0.486243 0.822936
O O7 0.153437 0.643126 0.586477
O O8 0.287721 0.623244 0.798552
O O9 0.775765 0.651146 0.852320
O O10 0.629240 0.671014 0.069303
O O11 0.273086 0.177249 0.714048
O O12 0.175769 0.037195 0.892189
O O13 0.350248 0.005263 0.700379
O O14 0.166586 0.005220 0.597860
O O15 0.172383 0.816049 0.438796
O O16 0.502450 0.916157 0.020113
#
# Coordination Sequence:
#
# PCOD9341410 Si02
#       8
#     4   4   4   4   4   4   4   4
#     4  11  24  40  66 102 139 181 233 280 340 422
#     4   9  20  41  71  96 126 184 224 287 362 400
#     4   9  21  42  69  95 134 175 225 297 348 419
#     4  11  24  42  68  97 141 186 224 279 339 411
#     4  11  22  41  70 100 135 181 232 282 356 416
#     4  11  20  42  72  95 137 184 226 288 348 413
#     4  11  24  42  65 103 139 182 231 275 338 421
#     4  11  25  42  65  98 147 183 229 280 331 412
#
# _framework density 22.839912000000002
#
# number of rings (size 3 to 8) (size 9 to 14) (size 15 to 20)
#    0.000    1.500    3.750    0.750    3.500    0.000 
#    4.500    3.750    0.000    0.000    0.000    0.000 
#    0.000    0.000    0.000    0.000    0.000    0.000 
#
# Total GULP energy -178315.686865 kJ/mol
# GULP energy per Si atom -5572.365215 kJ/mol
# Density = 2.278793 g / cm^3
# Si number density = 22.839912 Si / 1000 Ang^3
#
#
#
# Elastic Constant Matrix: (Units=GPa)
#
#
# Indices 1 2 3 4 5 6 
#
# 1 90.5433 42.2206 29.6384 0.0000 0.0000 0.0000
# 2 42.2206 138.6485 51.4857 0.0000 0.0000 0.0000
# 3 29.6384 51.4857 90.0459 0.0000 0.0000 0.0000
# 4 0.0000 0.0000 0.0000 44.8969 0.0000 0.0000
# 5 0.0000 0.0000 0.0000 0.0000 21.0462 0.0000
# 6 0.0000 0.0000 0.0000 0.0000 0.0000 34.3095
#
#
#
# Elastic Compliance Matrix: (Units=1/GPa)
#
#
# Indices 1 2 3 4 5 6 
#
# 1 0.013344 -0.003088 -0.002626 0.000000 0.000000 0.000000
# 2 -0.003088 0.009871 -0.004628 0.000000 0.000000 0.000000
# 3 -0.002626 -0.004628 0.014616 0.000000 0.000000 0.000000
# 4 0.000000 0.000000 0.000000 0.022273 0.000000 0.000000
# 5 0.000000 0.000000 0.000000 0.000000 0.047514 0.000000
# 6 0.000000 0.000000 0.000000 0.000000 0.000000 0.029146
#
#
# Mechanical properties :
#
#
# Convention : Reuss Voigt Hill
#
# Bulk Modulus (GPa) = 58.32004 62.88080 60.60042
# Shear Modulus (GPa) = 30.64366 33.11006 31.87686
#
# Velocity S-wave (km/s) = 3.66686 3.81157 3.73991
# Velocity P-wave (km/s) = 6.59678 6.85285 6.72604
#
# Compressibility (1/GPa) = 0.01714677
#
# Stress axis : x y z
#
# Youngs Moduli (GPa) = 74.93874 101.30349 68.41862
#
# Poissons Ratio (x) = 0.31285 0.17970
# Poissons Ratio (y) = 0.23143 0.31662
# Poissons Ratio (z) = 0.19682 0.46880
#
# Static dielectric constant tensor:
#      x y z
#    x 1.847780 0.000000 0.000000 
#    y 0.000000 1.920960 0.000000 
#    z 0.000000 0.000000 1.928530 
# 
# From -- ./inp_files/1596.got.cif
#   From: 2010.05.17/outbox.cif.g08.bks.cpg/sg29_1_cif.got.tgz:1596.got - 2010.06.04 01:19:37.
