data_PCOD9341913
_publ_section_title
;
Structure prediction by ZEFSAII (Michael W. Deem and Ramdas Pophale) SiO2 
 PCOD9341913
Probable space group: P N C 2
;
_chemical_formula_sum "Si O2"
_cell_formula_units_Z 28
_cell_length_a 10.176816
_cell_length_b 15.510125
_cell_length_c 8.537646
_cell_angle_alpha 90.000000
_cell_angle_beta 90.000000
_cell_angle_gamma 90.000000
_cell_volume 1347.613534
_symmetry_space_group_name_H-M "P N C 2"
_symmetry_group_IT_number 30
_symmetry_cell_setting 'orthorhombic'
loop_
_space_group_symop_operation_xyz
x,y,z
-x,-y,z
-x,1/2+y,1/2+z
x,1/2-y,1/2+z
loop_
_atom_site_type_symbol
_atom_site_label
_atom_site_fract_x
_atom_site_fract_y
_atom_site_fract_z
Si Si1 0.500000 0.000000 0.589340
Si Si2 0.642239 0.868270 0.786214
Si Si3 0.983823 0.316743 0.947251
Si Si4 0.953039 0.140425 0.090903
Si Si5 0.707954 0.966858 0.343115
Si Si6 0.203513 0.472428 0.517170
Si Si7 0.286457 0.284756 0.968855
Si Si8 0.000000 0.000000 0.476481
O O1 0.525180 0.918063 0.700970
O O2 0.622195 0.016240 0.472038
O O3 0.707286 0.811169 0.649933
O O4 0.734003 0.943583 0.854730
O O5 0.631909 0.800015 0.926888
O O6 0.934785 0.346755 0.777070
O O7 0.980566 0.404778 0.051611
O O8 0.132781 0.282290 0.927178
O O9 0.917611 0.232305 0.016754
O O10 0.101938 0.104318 0.065670
O O11 0.870274 0.063055 0.016673
O O12 0.693470 0.982930 0.159658
O O13 0.665925 0.868398 0.374750
O O14 0.862921 0.981445 0.383585
#
# Coordination Sequence:
#
# PCOD9341913 Si02
#       8
#     2   4   4   4   4   4   4   2
#     4  10  26  42  66  96 128 176 232 284 338 422
#     4  11  22  40  64  97 129 166 236 283 337 396
#     4  11  19  36  58  97 133 175 221 269 333 403
#     4  11  21  35  57  97 134 174 215 271 339 412
#     4  10  19  41  69  94 128 177 224 276 348 402
#     4  11  20  38  63  91 134 175 220 281 344 403
#     4  10  19  34  64  97 123 171 222 290 312 397
#     4  10  18  38  70  92 132 174 216 280 338 406
#
# _framework density 20.777467999999999
#
# number of rings (size 3 to 8) (size 9 to 14) (size 15 to 20)
#    0.000    1.429    5.714    1.714    0.000    0.571 
#    7.714    0.000   12.571    0.000    0.000    0.000 
#    0.000    0.000    0.000    0.000    0.000    0.000 
#
# Total GULP energy -155922.573217 kJ/mol
# GULP energy per Si atom -5568.663329 kJ/mol
# Density = 2.073018 g / cm^3
# Si number density = 20.777468 Si / 1000 Ang^3
#
#
#
# Elastic Constant Matrix: (Units=GPa)
#
#
# Indices 1 2 3 4 5 6 
#
# 1 45.8915 24.7889 30.5900 0.0000 0.0000 0.0000
# 2 24.7889 170.7227 44.0639 0.0000 0.0000 0.0000
# 3 30.5900 44.0639 80.6930 0.0000 0.0000 0.0000
# 4 0.0000 0.0000 0.0000 34.5606 0.0000 0.0000
# 5 0.0000 0.0000 0.0000 0.0000 21.2877 0.0000
# 6 0.0000 0.0000 0.0000 0.0000 0.0000 18.7691
#
#
#
# Elastic Compliance Matrix: (Units=1/GPa)
#
#
# Indices 1 2 3 4 5 6 
#
# 1 0.029543 -0.001629 -0.010310 0.000000 0.000000 0.000000
# 2 -0.001629 0.006908 -0.003155 0.000000 0.000000 0.000000
# 3 -0.010310 -0.003155 0.018024 0.000000 0.000000 0.000000
# 4 0.000000 0.000000 0.000000 0.028935 0.000000 0.000000
# 5 0.000000 0.000000 0.000000 0.000000 0.046975 0.000000
# 6 0.000000 0.000000 0.000000 0.000000 0.000000 0.053279
#
#
# Mechanical properties :
#
#
# Convention : Reuss Voigt Hill
#
# Bulk Modulus (GPa) = 41.17328 55.13255 48.15291
# Shear Modulus (GPa) = 22.52788 28.11443 25.32116
#
# Velocity S-wave (km/s) = 3.29636 3.68247 3.49475
# Velocity P-wave (km/s) = 5.86066 6.68380 6.28572
#
# Compressibility (1/GPa) = 0.02428760
#
# Stress axis : x y z
#
# Youngs Moduli (GPa) = 33.84938 144.75493 55.48166
#
# Poissons Ratio (x) = 0.23574 0.57202
# Poissons Ratio (y) = 0.05512 0.17504
# Poissons Ratio (z) = 0.34899 0.45670
#
# Static dielectric constant tensor:
#      x y z
#    x 1.770260 0.000000 0.000000 
#    y 0.000000 1.811950 0.000000 
#    z 0.000000 0.000000 1.807760 
# 
# From -- ./inp_files/2439.got.cif
#   From: 2010.05.17/outbox.cif.g08.bks.cpg/sg30_2_cif.got.tgz:2439.got - 2010.06.03 17:03:02.
