data_PCOD9341593
_publ_section_title
;
Structure prediction by ZEFSAII (Michael W. Deem and Ramdas Pophale) SiO2 
 PCOD9341593
Probable space group: P C A 21
;
_chemical_formula_sum "Si O2"
_cell_formula_units_Z 24
_cell_length_a 17.673924
_cell_length_b 6.442793
_cell_length_c 9.921673
_cell_angle_alpha 90.000000
_cell_angle_beta 90.000000
_cell_angle_gamma 90.000000
_cell_volume 1129.775287
_symmetry_space_group_name_H-M "P C A 21"
_symmetry_group_IT_number 29
_symmetry_cell_setting 'orthorhombic'
loop_
_space_group_symop_operation_xyz
x,y,z
-x,-y,1/2+z
1/2-x,y,1/2+z
1/2+x,-y,z
loop_
_atom_site_type_symbol
_atom_site_label
_atom_site_fract_x
_atom_site_fract_y
_atom_site_fract_z
Si Si1 0.303221 0.182561 0.429270
Si Si2 0.979808 0.827370 0.486773
Si Si3 0.716590 0.561478 0.658812
Si Si4 0.600417 0.501306 0.445970
Si Si5 0.571683 0.901911 0.275364
Si Si6 0.789162 0.182910 0.800060
O O1 0.392676 0.165878 0.446047
O O2 0.286408 0.325357 0.300790
O O3 0.268398 0.304870 0.556799
O O4 0.264742 0.962571 0.390927
O O5 0.980701 0.879312 0.645035
O O6 0.019490 0.606130 0.462517
O O7 0.027384 0.984578 0.395494
O O8 0.634292 0.568598 0.589047
O O9 0.746139 0.328734 0.692377
O O10 0.596821 0.682966 0.336872
O O11 0.661890 0.335901 0.393594
O O12 0.646316 0.034065 0.237282
#
# Coordination Sequence:
#
# PCOD9341593 Si02
#       6
#     4   4   4   4   4   4
#     4  12  27  45  74 111 141 191 247 302 369 439
#     4  11  29  43  75 105 146 195 234 307 367 439
#     4  12  26  45  74 106 140 189 244 303 365 444
#     4  11  26  47  70 102 146 187 237 301 364 438
#     4  11  26  50  70 108 149 189 246 301 370 441
#     4  11  24  46  75 102 142 187 242 302 365 435
#
# _framework density 21.243164
#
# number of rings (size 3 to 8) (size 9 to 14) (size 15 to 20)
#    0.000    0.667    3.333    2.000   11.667    2.667 
#    0.000    0.000    0.000    0.000    0.000    0.000 
#    0.000    0.000    0.000    0.000    0.000    0.000 
#
# Total GULP energy -134251.525821 kJ/mol
# GULP energy per Si atom -5593.813576 kJ/mol
# Density = 2.119481 g / cm^3
# Si number density = 21.243164 Si / 1000 Ang^3
#
#
#
# Elastic Constant Matrix: (Units=GPa)
#
#
# Indices 1 2 3 4 5 6 
#
# 1 114.7033 54.0510 33.4954 0.0000 0.0000 0.0000
# 2 54.0510 129.5432 59.4044 0.0000 0.0000 0.0000
# 3 33.4954 59.4044 138.5161 0.0000 0.0000 0.0000
# 4 0.0000 0.0000 0.0000 40.2134 0.0000 0.0000
# 5 0.0000 0.0000 0.0000 0.0000 40.5335 0.0000
# 6 0.0000 0.0000 0.0000 0.0000 0.0000 33.7240
#
#
#
# Elastic Compliance Matrix: (Units=1/GPa)
#
#
# Indices 1 2 3 4 5 6 
#
# 1 0.010933 -0.004169 -0.000856 0.000000 0.000000 0.000000
# 2 -0.004169 0.011199 -0.003795 0.000000 0.000000 0.000000
# 3 -0.000856 -0.003795 0.009054 0.000000 0.000000 0.000000
# 4 0.000000 0.000000 0.000000 0.024867 0.000000 0.000000
# 5 0.000000 0.000000 0.000000 0.000000 0.024671 0.000000
# 6 0.000000 0.000000 0.000000 0.000000 0.000000 0.029653
#
#
# Mechanical properties :
#
#
# Convention : Reuss Voigt Hill
#
# Bulk Modulus (GPa) = 73.82078 75.18493 74.50285
# Shear Modulus (GPa) = 37.72708 38.61497 38.17102
#
# Velocity S-wave (km/s) = 4.21879 4.26815 4.24354
# Velocity P-wave (km/s) = 7.65224 7.73038 7.69141
#
# Compressibility (1/GPa) = 0.01354632
#
# Stress axis : x y z
#
# Youngs Moduli (GPa) = 91.46923 89.29269 110.45199
#
# Poissons Ratio (x) = 0.37228 0.09451
# Poissons Ratio (y) = 0.38135 0.41913
# Poissons Ratio (z) = 0.07827 0.33884
#
# Static dielectric constant tensor:
#      x y z
#    x 1.751160 0.000000 0.000000 
#    y 0.000000 1.799510 0.000000 
#    z 0.000000 0.000000 1.767880 
# 
# From -- ./inp_files/2003.got.cif
#   From: 2010.05.17/outbox.cif.g08.bks.cpg/sg29_2_cif.got.tgz:2003.got - 2010.06.04 01:19:37.
