data_PCOD9341877
_publ_section_title
;
Structure prediction by ZEFSAII (Michael W. Deem and Ramdas Pophale) SiO2 
 PCOD9341877
Probable space group: P N C 2
;
_chemical_formula_sum "Si O2"
_cell_formula_units_Z 28
_cell_length_a 17.200979
_cell_length_b 9.055454
_cell_length_c 9.055589
_cell_angle_alpha 90.000000
_cell_angle_beta 90.000000
_cell_angle_gamma 90.000000
_cell_volume 1410.522758
_symmetry_space_group_name_H-M "P N C 2"
_symmetry_group_IT_number 30
_symmetry_cell_setting 'orthorhombic'
loop_
_space_group_symop_operation_xyz
x,y,z
-x,-y,z
-x,1/2+y,1/2+z
x,1/2-y,1/2+z
loop_
_atom_site_type_symbol
_atom_site_label
_atom_site_fract_x
_atom_site_fract_y
_atom_site_fract_z
Si Si1 0.771869 0.067985 0.716880
Si Si2 0.500000 0.500000 0.898972
Si Si3 0.500000 0.500000 0.404796
Si Si4 0.766201 0.385555 0.569707
Si Si5 0.609908 0.982337 0.651994
Si Si6 0.404797 0.838894 0.150808
Si Si7 0.920173 0.580761 0.602180
Si Si8 0.072349 0.398034 0.249795
O O1 0.779058 0.217883 0.623328
O O2 0.701456 0.963950 0.662360
O O3 0.851127 0.982809 0.702274
O O4 0.759163 0.105276 0.891194
O O5 0.548845 0.393254 0.793517
O O6 0.436394 0.428254 0.009046
O O7 0.436573 0.428381 0.295298
O O8 0.545512 0.388672 0.510074
O O9 0.680210 0.415693 0.637307
O O10 0.839750 0.486420 0.619478
O O11 0.603500 0.162380 0.653012
O O12 0.927969 0.609296 0.427230
O O13 0.922209 0.735460 0.685054
O O14 0.000000 0.500000 0.648844
O O15 0.000000 0.500000 0.202733
#
# Coordination Sequence:
#
# PCOD9341877 Si02
#       8
#     4   2   2   4   4   4   4   4
#     4  10  21  37  62  90 119 157 200 247 297 354
#     4  10  22  34  56  84 110 146 202 238 298 348
#     4  10  18  34  56  76 114 146 186 250 290 340
#     4  10  21  37  62  90 119 157 200 247 297 354
#     4  10  20  36  56  81 111 151 196 245 293 358
#     4  10  20  36  56  81 111 151 196 245 293 358
#     4  10  22  41  63  92 127 158 198 242 292 352
#     4  10  22  41  63  92 127 158 198 242 292 352
#
# _framework density 19.850798000000001
#
# number of rings (size 3 to 8) (size 9 to 14) (size 15 to 20)
#    0.000    2.000    1.429    1.714    6.000    1.714 
#    0.000    8.571    0.000    0.000    0.000    0.000 
#    0.000    0.000    0.000    0.000    0.000    0.000 
#
# Total GULP energy -156287.151040 kJ/mol
# GULP energy per Si atom -5581.683966 kJ/mol
# Density = 1.980562 g / cm^3
# Si number density = 19.850798 Si / 1000 Ang^3
#
#
#
# Elastic Constant Matrix: (Units=GPa)
#
#
# Indices 1 2 3 4 5 6 
#
# 1 199.3722 63.4665 62.0386 0.0000 0.0000 0.0000
# 2 63.4665 61.6954 28.6194 0.0000 0.0000 0.0000
# 3 62.0386 28.6194 77.3447 0.0000 0.0000 0.0000
# 4 0.0000 0.0000 0.0000 27.0685 0.0000 0.0000
# 5 0.0000 0.0000 0.0000 0.0000 24.9434 0.0000
# 6 0.0000 0.0000 0.0000 0.0000 0.0000 28.3006
#
#
#
# Elastic Compliance Matrix: (Units=1/GPa)
#
#
# Indices 1 2 3 4 5 6 
#
# 1 0.008511 -0.006746 -0.004330 0.000000 0.000000 0.000000
# 2 -0.006746 0.024915 -0.003808 0.000000 0.000000 0.000000
# 3 -0.004330 -0.003808 0.017811 0.000000 0.000000 0.000000
# 4 0.000000 0.000000 0.000000 0.036943 0.000000 0.000000
# 5 0.000000 0.000000 0.000000 0.000000 0.040091 0.000000
# 6 0.000000 0.000000 0.000000 0.000000 0.000000 0.035335
#
#
# Mechanical properties :
#
#
# Convention : Reuss Voigt Hill
#
# Bulk Modulus (GPa) = 46.58015 71.85125 59.21570
# Shear Modulus (GPa) = 24.93374 28.34835 26.64104
#
# Velocity S-wave (km/s) = 3.54793 3.78308 3.66739
# Velocity P-wave (km/s) = 6.34822 7.44020 6.91579
#
# Compressibility (1/GPa) = 0.02146837
#
# Stress axis : x y z
#
# Youngs Moduli (GPa) = 117.49827 40.13621 56.14370
#
# Poissons Ratio (x) = 0.27077 0.24311
# Poissons Ratio (y) = 0.79269 0.21379
# Poissons Ratio (z) = 0.50879 0.15283
#
# Static dielectric constant tensor:
#      x y z
#    x 1.728230 0.000000 0.000000 
#    y 0.000000 2.196950 0.000000 
#    z 0.000000 0.000000 1.701630 
# 
# From -- ./inp_files/2783.got.cif
#   From: 2010.05.17/outbox.cif.g08.bks.cpg/sg30_2_cif.got.tgz:2783.got - 2010.06.03 17:03:02.
