data_PCOD9341378
_publ_section_title
;
Structure prediction by ZEFSAII (Michael W. Deem and Ramdas Pophale) SiO2 
 PCOD9341378
Probable space group: P C A 21
;
_chemical_formula_sum "Si O2"
_cell_formula_units_Z 24
_cell_length_a 14.254828
_cell_length_b 5.476241
_cell_length_c 13.229725
_cell_angle_alpha 90.000000
_cell_angle_beta 90.000000
_cell_angle_gamma 90.000000
_cell_volume 1032.750350
_symmetry_space_group_name_H-M "P C A 21"
_symmetry_group_IT_number 29
_symmetry_cell_setting 'orthorhombic'
loop_
_space_group_symop_operation_xyz
x,y,z
-x,-y,1/2+z
1/2-x,y,1/2+z
1/2+x,-y,z
loop_
_atom_site_type_symbol
_atom_site_label
_atom_site_fract_x
_atom_site_fract_y
_atom_site_fract_z
Si Si1 0.054485 0.196524 0.673410
Si Si2 0.077154 0.864029 0.489548
Si Si3 0.065963 0.419334 0.102431
Si Si4 0.890284 0.936505 0.772491
Si Si5 0.225290 0.602367 0.963805
Si Si6 0.806328 0.906328 0.347709
O O1 0.110802 0.176720 0.775450
O O2 0.034022 0.451574 0.622549
O O3 0.097716 0.024011 0.588707
O O4 0.949117 0.119987 0.703780
O O5 0.166068 0.683379 0.476033
O O6 0.972463 0.761496 0.513240
O O7 0.076145 0.028739 0.387905
O O8 0.090782 0.310758 0.211876
O O9 0.157251 0.552826 0.059024
O O10 0.780411 0.977456 0.775177
O O11 0.224255 0.338679 0.907754
O O12 0.179476 0.842095 0.909403
#
# Coordination Sequence:
#
# PCOD9341378 Si02
#       6
#     4   4   4   4   4   4
#     4  11  27  44  76 108 150 195 254 310 372 455
#     4  10  26  48  74 109 152 197 247 315 379 447
#     4  11  27  44  80 107 150 199 254 314 373 458
#     4  10  26  46  72 107 148 196 246 309 372 443
#     4  11  28  47  78 109 151 197 248 310 375 450
#     4  11  28  47  76 110 151 196 249 308 375 449
#
# _framework density 23.238918999999999
#
# number of rings (size 3 to 8) (size 9 to 14) (size 15 to 20)
#    0.000    1.333    0.000    1.000   25.667    0.000 
#    0.000    0.000    0.000    0.000    0.000    0.000 
#    0.000    0.000    0.000    0.000    0.000    0.000 
#
# Total GULP energy -133839.317110 kJ/mol
# GULP energy per Si atom -5576.638213 kJ/mol
# Density = 2.318603 g / cm^3
# Si number density = 23.238919 Si / 1000 Ang^3
#
#
#
# Elastic Constant Matrix: (Units=GPa)
#
#
# Indices 1 2 3 4 5 6 
#
# 1 85.2991 13.1143 47.3207 0.0000 0.0000 0.0000
# 2 13.1143 75.3154 57.8550 0.0000 0.0000 0.0000
# 3 47.3207 57.8550 121.0048 0.0000 0.0000 0.0000
# 4 0.0000 0.0000 0.0000 26.7881 0.0000 0.0000
# 5 0.0000 0.0000 0.0000 0.0000 49.2352 0.0000
# 6 0.0000 0.0000 0.0000 0.0000 0.0000 12.4417
#
#
#
# Elastic Compliance Matrix: (Units=1/GPa)
#
#
# Indices 1 2 3 4 5 6 
#
# 1 0.015409 0.003075 -0.007496 0.000000 0.000000 0.000000
# 2 0.003075 0.021599 -0.011529 0.000000 0.000000 0.000000
# 3 -0.007496 -0.011529 0.016708 0.000000 0.000000 0.000000
# 4 0.000000 0.000000 0.000000 0.037330 0.000000 0.000000
# 5 0.000000 0.000000 0.000000 0.000000 0.020311 0.000000
# 6 0.000000 0.000000 0.000000 0.000000 0.000000 0.080375
#
#
# Mechanical properties :
#
#
# Convention : Reuss Voigt Hill
#
# Bulk Modulus (GPa) = 45.83967 57.57769 51.70868
# Shear Modulus (GPa) = 21.65398 28.58163 25.11780
#
# Velocity S-wave (km/s) = 3.05585 3.51080 3.29120
# Velocity P-wave (km/s) = 5.67619 6.42375 6.06150
#
# Compressibility (1/GPa) = 0.02181516
#
# Stress axis : x y z
#
# Youngs Moduli (GPa) = 64.89552 46.29940 59.85079
#
# Poissons Ratio (x) = -0.14239 0.44867
# Poissons Ratio (y) = -0.19958 0.69005
# Poissons Ratio (z) = 0.48649 0.53381
#
# Static dielectric constant tensor:
#      x y z
#    x 1.544210 0.000000 0.000000 
#    y 0.000000 2.144070 0.000000 
#    z 0.000000 0.000000 1.847460 
# 
# From -- ./inp_files/3380.got.cif
#   From: 2010.05.17/outbox.cif.g08.bks.cpg/sg29_2_cif.got.tgz:3380.got - 2010.06.04 01:19:37.
