data_PCOD9341274
_publ_section_title
;
Structure prediction by ZEFSAII (Michael W. Deem and Ramdas Pophale) SiO2 
 PCOD9341274
Probable space group: P C A 21
;
_chemical_formula_sum "Si O2"
_cell_formula_units_Z 28
_cell_length_a 8.921591
_cell_length_b 11.507128
_cell_length_c 12.274290
_cell_angle_alpha 90.000000
_cell_angle_beta 90.000000
_cell_angle_gamma 90.000000
_cell_volume 1260.101805
_symmetry_space_group_name_H-M "P C A 21"
_symmetry_group_IT_number 29
_symmetry_cell_setting 'orthorhombic'
loop_
_space_group_symop_operation_xyz
x,y,z
-x,-y,1/2+z
1/2-x,y,1/2+z
1/2+x,-y,z
loop_
_atom_site_type_symbol
_atom_site_label
_atom_site_fract_x
_atom_site_fract_y
_atom_site_fract_z
Si Si1 0.045168 0.079926 0.489140
Si Si2 0.591734 0.368826 0.470115
Si Si3 0.493863 0.450981 0.148295
Si Si4 0.013510 0.815384 0.211668
Si Si5 0.770741 0.521523 0.786862
Si Si6 0.722272 0.145314 0.414256
Si Si7 0.288410 0.248118 0.390786
O O1 0.996763 0.092313 0.615096
O O2 0.178981 0.170433 0.462039
O O3 0.895384 0.108269 0.419859
O O4 0.115478 0.956315 0.459455
O O5 0.571580 0.478364 0.548251
O O6 0.672579 0.421714 0.364564
O O7 0.696355 0.257356 0.492806
O O8 0.428245 0.310893 0.451071
O O9 0.502617 0.311787 0.153198
O O10 0.403474 0.484651 0.258420
O O11 0.655127 0.504961 0.169809
O O12 0.870051 0.821245 0.292754
O O13 0.155845 0.826927 0.293144
O O14 0.803075 0.646553 0.836967
#
# Coordination Sequence:
#
# PCOD9341274 Si02
#       7
#     4   4   4   4   4   4   4
#     4  12  27  48  77 100 136 193 236 294 362 410
#     4  11  24  43  66  99 147 176 232 283 346 418
#     4  11  25  39  70 101 139 187 225 277 357 414
#     4  10  24  51  69 104 147 179 235 293 348 425
#     4  11  22  41  63 101 140 178 222 281 340 414
#     4  11  26  48  71 103 140 182 242 295 344 422
#     4  10  24  44  68 102 141 181 230 293 339 425
#
# _framework density 22.220427000000001
#
# number of rings (size 3 to 8) (size 9 to 14) (size 15 to 20)
#    0.000    1.143    4.286    2.571   10.000    2.286 
#    2.571    0.000    0.000    0.000    0.000    0.000 
#    0.000    0.000    0.000    0.000    0.000    0.000 
#
# Total GULP energy -156281.429213 kJ/mol
# GULP energy per Si atom -5581.479615 kJ/mol
# Density = 2.216985 g / cm^3
# Si number density = 22.220427 Si / 1000 Ang^3
#
#
#
# Elastic Constant Matrix: (Units=GPa)
#
#
# Indices 1 2 3 4 5 6 
#
# 1 94.6483 30.4510 31.5627 0.0000 0.0000 0.0000
# 2 30.4510 62.7465 45.5708 0.0000 0.0000 0.0000
# 3 31.5627 45.5708 79.5502 0.0000 0.0000 0.0000
# 4 0.0000 0.0000 0.0000 32.8692 0.0000 0.0000
# 5 0.0000 0.0000 0.0000 0.0000 -13.8326 0.0000
# 6 0.0000 0.0000 0.0000 0.0000 0.0000 27.4609
#
#
#
# Elastic Compliance Matrix: (Units=1/GPa)
#
#
# Indices 1 2 3 4 5 6 
#
# 1 0.012829 -0.004331 -0.002609 0.000000 0.000000 0.000000
# 2 -0.004331 0.028754 -0.014753 0.000000 0.000000 0.000000
# 3 -0.002609 -0.014753 0.022057 0.000000 0.000000 0.000000
# 4 0.000000 0.000000 0.000000 0.030424 0.000000 0.000000
# 5 0.000000 0.000000 0.000000 0.000000 -0.072293 0.000000
# 6 0.000000 0.000000 0.000000 0.000000 0.000000 0.036415
#
#
# Mechanical properties :
#
#
# Convention : Reuss Voigt Hill
#
# Bulk Modulus (GPa) = 49.37470 50.23488 49.80479
# Shear Modulus (GPa) = 46.15767 17.92355 32.04061
#
# Velocity S-wave (km/s) = 4.56264 2.84320 3.80141
# Velocity P-wave (km/s) = 7.07288 5.78230 6.45990
#
# Compressibility (1/GPa) = 0.02025329
#
# Stress axis : x y z
#
# Youngs Moduli (GPa) = 77.94920 34.77779 45.33618
#
# Poissons Ratio (x) = 0.15062 0.11828
# Poissons Ratio (y) = 0.33760 0.66887
# Poissons Ratio (z) = 0.20337 0.51309
#
# Static dielectric constant tensor:
#      x y z
#    x 2.047580 0.000000 0.000000 
#    y 0.000000 1.849910 0.000000 
#    z 0.000000 0.000000 1.854720 
# 
# From -- ./inp_files/2882.got.cif
#   From: 2010.05.17/outbox.cif.g08.bks.cpg/sg29_2_cif.got.tgz:2882.got - 2010.06.04 01:19:37.
