data_PCOD9341618
_publ_section_title
;
Structure prediction by ZEFSAII (Michael W. Deem and Ramdas Pophale) SiO2 
 PCOD9341618
Probable space group: P C A 21
;
_chemical_formula_sum "Si O2"
_cell_formula_units_Z 20
_cell_length_a 14.931548
_cell_length_b 5.196355
_cell_length_c 9.556841
_cell_angle_alpha 90.000000
_cell_angle_beta 90.000000
_cell_angle_gamma 90.000000
_cell_volume 741.511701
_symmetry_space_group_name_H-M "P C A 21"
_symmetry_group_IT_number 29
_symmetry_cell_setting 'orthorhombic'
loop_
_space_group_symop_operation_xyz
x,y,z
-x,-y,1/2+z
1/2-x,y,1/2+z
1/2+x,-y,z
loop_
_atom_site_type_symbol
_atom_site_label
_atom_site_fract_x
_atom_site_fract_y
_atom_site_fract_z
Si Si1 0.423266 0.235964 0.484160
Si Si2 0.151369 0.683402 0.642071
Si Si3 0.428329 0.491257 0.784856
Si Si4 0.731224 0.444272 0.909168
Si Si5 0.547017 0.825843 0.534381
O O1 0.433081 0.426370 0.620200
O O2 0.496220 0.326863 0.363506
O O3 0.322649 0.288011 0.430543
O O4 0.448105 0.954658 0.542715
O O5 0.243995 0.663829 0.559059
O O6 0.165940 0.704506 0.805928
O O7 0.098252 0.419457 0.603717
O O8 0.102650 0.931984 0.587163
O O9 0.327353 0.556543 0.831616
O O10 0.444059 0.227577 0.869552
#
# Coordination Sequence:
#
# PCOD9341618 Si02
#       5
#     4   4   4   4   4
#     4  12  25  48  81 111 158 205 260 328 387 471
#     4  11  25  50  76 106 159 191 263 311 384 466
#     4  11  27  49  76 117 157 202 268 319 393 468
#     4  11  24  50  75 116 148 212 250 324 392 462
#     4  11  25  49  74 110 150 196 255 318 378 461
#
# _framework density 26.971926
#
# number of rings (size 3 to 8) (size 9 to 14) (size 15 to 20)
#    0.000    0.800    6.000    1.200    2.800    3.200 
#    7.200    0.000    0.000    0.000    0.000    0.000 
#    0.000    0.000    0.000    0.000    0.000    0.000 
#
# Total GULP energy -111612.783211 kJ/mol
# GULP energy per Si atom -5580.639161 kJ/mol
# Density = 2.691054 g / cm^3
# Si number density = 26.971926 Si / 1000 Ang^3
#
#
#
# Elastic Constant Matrix: (Units=GPa)
#
#
# Indices 1 2 3 4 5 6 
#
# 1 142.2766 36.3376 26.3038 0.0000 0.0000 0.0000
# 2 36.3376 161.2939 21.3598 0.0000 0.0000 0.0000
# 3 26.3038 21.3598 111.1862 0.0000 0.0000 0.0000
# 4 0.0000 0.0000 0.0000 29.9141 0.0000 0.0000
# 5 0.0000 0.0000 0.0000 0.0000 48.3786 0.0000
# 6 0.0000 0.0000 0.0000 0.0000 0.0000 32.5394
#
#
#
# Elastic Compliance Matrix: (Units=1/GPa)
#
#
# Indices 1 2 3 4 5 6 
#
# 1 0.007703 -0.001533 -0.001528 0.000000 0.000000 0.000000
# 2 -0.001533 0.006667 -0.000918 0.000000 0.000000 0.000000
# 3 -0.001528 -0.000918 0.009532 0.000000 0.000000 0.000000
# 4 0.000000 0.000000 0.000000 0.033429 0.000000 0.000000
# 5 0.000000 0.000000 0.000000 0.000000 0.020670 0.000000
# 6 0.000000 0.000000 0.000000 0.000000 0.000000 0.030732
#
#
# Mechanical properties :
#
#
# Convention : Reuss Voigt Hill
#
# Bulk Modulus (GPa) = 62.72158 64.75102 63.73630
# Shear Modulus (GPa) = 40.98214 44.21679 42.59947
#
# Velocity S-wave (km/s) = 3.90222 4.05330 3.97848
# Velocity P-wave (km/s) = 6.60364 6.77972 6.69226
#
# Compressibility (1/GPa) = 0.01594348
#
# Stress axis : x y z
#
# Youngs Moduli (GPa) = 129.82744 149.99685 104.91288
#
# Poissons Ratio (x) = 0.22994 0.16028
# Poissons Ratio (y) = 0.19902 0.09632
# Poissons Ratio (z) = 0.19834 0.13771
#
# Static dielectric constant tensor:
#      x y z
#    x 2.211040 0.000000 0.000000 
#    y 0.000000 2.100660 0.000000 
#    z 0.000000 0.000000 2.185210 
# 
# From -- ./inp_files/3377.got.cif
#   From: 2010.05.17/outbox.cif.g08.bks.cpg/sg29_2_cif.got.tgz:3377.got - 2010.06.04 01:19:37.
