data_PCOD9341014
_publ_section_title
;
Structure prediction by ZEFSAII (Michael W. Deem and Ramdas Pophale) SiO2 
 PCOD9341014
Probable space group: P C A 21
;
_chemical_formula_sum "Si O2"
_cell_formula_units_Z 20
_cell_length_a 5.627460
_cell_length_b 14.562540
_cell_length_c 9.116217
_cell_angle_alpha 90.000000
_cell_angle_beta 90.000000
_cell_angle_gamma 90.000000
_cell_volume 747.074998
_symmetry_space_group_name_H-M "P C A 21"
_symmetry_group_IT_number 29
_symmetry_cell_setting 'orthorhombic'
loop_
_space_group_symop_operation_xyz
x,y,z
-x,-y,1/2+z
1/2-x,y,1/2+z
1/2+x,-y,z
loop_
_atom_site_type_symbol
_atom_site_label
_atom_site_fract_x
_atom_site_fract_y
_atom_site_fract_z
Si Si1 0.830718 0.284185 0.359600
Si Si2 0.935653 0.944474 0.377291
Si Si3 0.538126 0.483900 0.826283
Si Si4 0.537121 0.666500 0.656429
Si Si5 0.654486 0.827425 0.163603
O O1 0.951023 0.376728 0.291571
O O2 0.562335 0.291967 0.307495
O O3 0.853409 0.303538 0.530747
O O4 0.966199 0.196807 0.292999
O O5 0.876446 0.882358 0.234708
O O6 0.937302 0.885408 0.527079
O O7 0.692706 0.006387 0.375029
O O8 0.288174 0.498699 0.905303
O O9 0.547306 0.558794 0.694884
O O10 0.757806 0.727885 0.609608
#
# Coordination Sequence:
#
# PCOD9341014 Si02
#       5
#     4   4   4   4   4
#     4  11  26  46  74 112 157 208 262 316 376 459
#     4  12  30  52  80 114 150 194 256 330 404 476
#     4  10  22  44  68 108 152 204 250 306 366 430
#     4  11  26  46  74 112 157 208 262 316 376 459
#     4  12  26  48  80 110 154 204 256 318 396 466
#
# _framework density 26.771070999999999
#
# number of rings (size 3 to 8) (size 9 to 14) (size 15 to 20)
#    0.000    0.800    4.000    1.200    8.400    6.400 
#    0.000    0.000    0.000    0.000    0.000    0.000 
#    0.000    0.000    0.000    0.000    0.000    0.000 
#
# Total GULP energy -111749.972822 kJ/mol
# GULP energy per Si atom -5587.498641 kJ/mol
# Density = 2.671014 g / cm^3
# Si number density = 26.771071 Si / 1000 Ang^3
#
#
#
# Elastic Constant Matrix: (Units=GPa)
#
#
# Indices 1 2 3 4 5 6 
#
# 1 131.6569 39.6609 10.1002 0.0000 0.0000 0.0000
# 2 39.6609 98.1418 16.4873 0.0000 0.0000 0.0000
# 3 10.1002 16.4873 107.5800 0.0000 0.0000 0.0000
# 4 0.0000 0.0000 0.0000 40.5071 0.0000 0.0000
# 5 0.0000 0.0000 0.0000 0.0000 27.8754 0.0000
# 6 0.0000 0.0000 0.0000 0.0000 0.0000 62.2971
#
#
#
# Elastic Compliance Matrix: (Units=1/GPa)
#
#
# Indices 1 2 3 4 5 6 
#
# 1 0.008657 -0.003451 -0.000284 0.000000 0.000000 0.000000
# 2 -0.003451 0.011834 -0.001490 0.000000 0.000000 0.000000
# 3 -0.000284 -0.001490 0.009550 0.000000 0.000000 0.000000
# 4 0.000000 0.000000 0.000000 0.024687 0.000000 0.000000
# 5 0.000000 0.000000 0.000000 0.000000 0.035874 0.000000
# 6 0.000000 0.000000 0.000000 0.000000 0.000000 0.016052
#
#
# Mechanical properties :
#
#
# Convention : Reuss Voigt Hill
#
# Bulk Modulus (GPa) = 51.03940 52.20840 51.62390
# Shear Modulus (GPa) = 40.44203 44.21127 42.32665
#
# Velocity S-wave (km/s) = 3.89094 4.06822 3.98057
# Velocity P-wave (km/s) = 6.26837 6.45069 6.36018
#
# Compressibility (1/GPa) = 0.01959271
#
# Stress axis : x y z
#
# Youngs Moduli (GPa) = 115.51647 84.50175 104.70800
#
# Poissons Ratio (x) = 0.29159 0.02973
# Poissons Ratio (y) = 0.39861 0.15598
# Poissons Ratio (z) = 0.03280 0.12588
#
# Static dielectric constant tensor:
#      x y z
#    x 2.236860 0.000000 0.000000 
#    y 0.000000 2.193990 0.000000 
#    z 0.000000 0.000000 2.021860 
# 
# From -- ./inp_files/982.got.cif
#   From: 2010.05.17/outbox.cif.g08.bks.cpg/sg29_1_cif.got.tgz:982.got - 2010.06.04 01:19:37.
