data_PCOD9341404
_publ_section_title
;
Structure prediction by ZEFSAII (Michael W. Deem and Ramdas Pophale) SiO2 
 PCOD9341404
Probable space group: P C A 21
;
_chemical_formula_sum "Si O2"
_cell_formula_units_Z 28
_cell_length_a 4.906839
_cell_length_b 16.338295
_cell_length_c 14.397963
_cell_angle_alpha 90.000000
_cell_angle_beta 90.000000
_cell_angle_gamma 90.000000
_cell_volume 1154.275812
_symmetry_space_group_name_H-M "P C A 21"
_symmetry_group_IT_number 29
_symmetry_cell_setting 'orthorhombic'
loop_
_space_group_symop_operation_xyz
x,y,z
-x,-y,1/2+z
1/2-x,y,1/2+z
1/2+x,-y,z
loop_
_atom_site_type_symbol
_atom_site_label
_atom_site_fract_x
_atom_site_fract_y
_atom_site_fract_z
Si Si1 0.836584 0.175857 0.292520
Si Si2 0.086515 0.548814 0.329942
Si Si3 0.586515 0.451186 0.556793
Si Si4 0.676376 0.717750 0.050999
Si Si5 0.163414 0.824144 0.094215
Si Si6 0.062201 0.053632 0.443367
Si Si7 0.176378 0.282250 0.835735
O O1 0.750000 0.141953 0.193367
O O2 0.976173 0.107969 0.355793
O O3 0.566021 0.215925 0.335117
O O4 0.062085 0.247466 0.282808
O O5 0.890064 0.474122 0.301529
O O6 0.089567 0.552395 0.443367
O O7 0.956426 0.633996 0.300027
O O8 0.890065 0.474122 0.585206
O O9 0.456427 0.366004 0.586707
O O10 0.433975 0.784075 0.051617
O O11 0.937911 0.752535 0.103927
O O12 0.766807 0.705300 0.943367
O O13 0.023826 0.892031 0.030942
O O14 0.874984 0.972671 0.443367
#
# Coordination Sequence:
#
# PCOD9341404 Si02
#       7
#     4   4   4   4   4   4   4
#     4  12  25  43  68  99 131 168 213 261 318 382
#     4   9  17  29  52  89 124 164 219 269 312 363
#     4   9  17  29  52  89 124 164 219 269 312 363
#     4  11  20  39  66  92 131 176 220 266 317 375
#     4  12  25  43  68  99 131 168 213 261 318 382
#     4  12  26  46  72  98 130 162 206 258 322 390
#     4  11  20  39  66  92 131 176 220 266 317 375
#
# _framework density 24.257632000000001
#
# number of rings (size 3 to 8) (size 9 to 14) (size 15 to 20)
#    0.000    1.143    2.857    4.286    0.000    5.714 
#    0.000    0.000    0.000   17.143    0.000    0.000 
#    0.000    0.000    0.000    0.000    0.000    0.000 
#
# Total GULP energy -156915.111544 kJ/mol
# GULP energy per Si atom -5604.111127 kJ/mol
# Density = 2.420242 g / cm^3
# Si number density = 24.257632 Si / 1000 Ang^3
#
#
#
# Elastic Constant Matrix: (Units=GPa)
#
#
# Indices 1 2 3 4 5 6 
#
# 1 99.9745 -1.5175 -11.2615 0.0000 0.0000 0.0000
# 2 -1.5175 74.4263 10.3896 0.0000 0.0000 0.0000
# 3 -11.2615 10.3896 73.0659 0.0000 0.0000 0.0000
# 4 0.0000 0.0000 0.0000 1.7864 0.0000 0.0000
# 5 0.0000 0.0000 0.0000 0.0000 19.6221 0.0000
# 6 0.0000 0.0000 0.0000 0.0000 0.0000 42.3977
#
#
#
# Elastic Compliance Matrix: (Units=1/GPa)
#
#
# Indices 1 2 3 4 5 6 
#
# 1 0.010179 -0.000012 0.001571 0.000000 0.000000 0.000000
# 2 -0.000012 0.013708 -0.001951 0.000000 0.000000 0.000000
# 3 0.001571 -0.001951 0.014206 0.000000 0.000000 0.000000
# 4 0.000000 0.000000 0.000000 0.559780 0.000000 0.000000
# 5 0.000000 0.000000 0.000000 0.000000 0.050963 0.000000
# 6 0.000000 0.000000 0.000000 0.000000 0.000000 0.023586
#
#
# Mechanical properties :
#
#
# Convention : Reuss Voigt Hill
#
# Bulk Modulus (GPa) = 26.80318 26.96530 26.88424
# Shear Modulus (GPa) = 7.29243 29.41833 18.35538
#
# Velocity S-wave (km/s) = 1.73573 3.48623 2.75377
# Velocity P-wave (km/s) = 3.88464 5.22928 4.60629
#
# Compressibility (1/GPa) = 0.03730900
#
# Stress axis : x y z
#
# Youngs Moduli (GPa) = 98.23865 72.94888 70.39391
#
# Poissons Ratio (x) = 0.00085 -0.11056
# Poissons Ratio (y) = 0.00115 0.13734
# Poissons Ratio (z) = -0.15429 0.14233
#
# Static dielectric constant tensor:
#      x y z
#    x 1.848790 0.000000 0.000000 
#    y 0.000000 1.915210 0.000000 
#    z 0.000000 0.000000 1.998490 
# 
# From -- ./inp_files/4078.got.cif
#   From: 2010.05.17/outbox.cif.g08.bks.cpg/sg29_3_cif.got.tgz:4078.got - 2010.06.04 01:19:37.
