data_PCOD9341237
_publ_section_title
;
Structure prediction by ZEFSAII (Michael W. Deem and Ramdas Pophale) SiO2 
 PCOD9341237
Probable space group: P C A 21
;
_chemical_formula_sum "Si O2"
_cell_formula_units_Z 28
_cell_length_a 8.609176
_cell_length_b 12.471545
_cell_length_c 12.839997
_cell_angle_alpha 90.000000
_cell_angle_beta 90.000000
_cell_angle_gamma 90.000000
_cell_volume 1378.626958
_symmetry_space_group_name_H-M "P C A 21"
_symmetry_group_IT_number 29
_symmetry_cell_setting 'orthorhombic'
loop_
_space_group_symop_operation_xyz
x,y,z
-x,-y,1/2+z
1/2-x,y,1/2+z
1/2+x,-y,z
loop_
_atom_site_type_symbol
_atom_site_label
_atom_site_fract_x
_atom_site_fract_y
_atom_site_fract_z
Si Si1 0.036255 0.085131 0.835150
Si Si2 0.534058 0.621702 0.335751
Si Si3 0.786277 0.500001 0.467544
Si Si4 0.534060 0.378298 0.599337
Si Si5 0.391972 0.137940 0.889518
Si Si6 0.963745 0.085131 0.599937
Si Si7 0.891972 0.137941 0.045569
O O1 0.214032 0.108823 0.864637
O O2 1.000000 0.119221 0.717544
O O3 0.998669 0.958537 0.846143
O O4 0.925907 0.139539 0.921639
O O5 0.680511 0.558918 0.382700
O O6 0.392345 0.586921 0.409546
O O7 0.500000 0.590371 0.217544
O O8 0.564763 0.748025 0.342883
O O9 0.680513 0.441084 0.552389
O O10 0.892347 0.586922 0.525541
O O11 0.564766 0.251976 0.592205
O O12 0.425906 0.139539 0.013449
O O13 0.785968 0.108822 0.570450
O O14 0.001331 0.958536 0.588945
#
# Coordination Sequence:
#
# PCOD9341237 Si02
#       7
#     4   4   4   4   4   4   4
#     4  11  23  40  61  91 131 165 199 249 298 359
#     4  11  23  43  66  90 123 162 202 257 311 357
#     4  10  24  42  64  94 120 154 212 258 304 370
#     4  11  23  43  66  90 123 162 202 257 311 357
#     4  11  23  39  62  93 124 164 208 243 298 373
#     4  11  23  40  61  91 131 165 199 249 298 359
#     4  11  23  39  62  93 124 164 208 243 298 373
#
# _framework density 20.310063
#
# number of rings (size 3 to 8) (size 9 to 14) (size 15 to 20)
#    0.000    1.143    0.000    7.714    0.000    4.571 
#    0.000    7.143    0.000    0.000    0.000    0.000 
#    0.000    0.000    0.000    0.000    0.000    0.000 
#
# Total GULP energy -156675.353174 kJ/mol
# GULP energy per Si atom -5595.548328 kJ/mol
# Density = 2.026384 g / cm^3
# Si number density = 20.310063 Si / 1000 Ang^3
#
#
#
# Elastic Constant Matrix: (Units=GPa)
#
#
# Indices 1 2 3 4 5 6 
#
# 1 176.4709 68.4740 89.5715 0.0000 0.0000 0.0000
# 2 68.4740 64.9949 12.6318 0.0000 0.0000 0.0000
# 3 89.5715 12.6318 167.2374 0.0000 0.0000 0.0000
# 4 0.0000 0.0000 0.0000 16.3773 0.0000 0.0000
# 5 0.0000 0.0000 0.0000 0.0000 56.9168 0.0000
# 6 0.0000 0.0000 0.0000 0.0000 0.0000 6.1599
#
#
#
# Elastic Compliance Matrix: (Units=1/GPa)
#
#
# Indices 1 2 3 4 5 6 
#
# 1 0.014485 -0.013958 -0.006704 0.000000 0.000000 0.000000
# 2 -0.013958 0.029064 0.005280 0.000000 0.000000 0.000000
# 3 -0.006704 0.005280 0.009171 0.000000 0.000000 0.000000
# 4 0.000000 0.000000 0.000000 0.061060 0.000000 0.000000
# 5 0.000000 0.000000 0.000000 0.000000 0.017570 0.000000
# 6 0.000000 0.000000 0.000000 0.000000 0.000000 0.162339
#
#
# Mechanical properties :
#
#
# Convention : Reuss Voigt Hill
#
# Bulk Modulus (GPa) = 45.54073 83.33975 64.44024
# Shear Modulus (GPa) = 15.07061 31.75921 23.41491
#
# Velocity S-wave (km/s) = 2.72697 3.95868 3.39908
# Velocity P-wave (km/s) = 5.69092 7.87513 6.87038
#
# Compressibility (1/GPa) = 0.02195837
#
# Stress axis : x y z
#
# Youngs Moduli (GPa) = 69.03579 34.40635 109.03589
#
# Poissons Ratio (x) = 0.48023 0.73097
# Poissons Ratio (y) = 0.96358 -0.57575
# Poissons Ratio (z) = 0.46281 -0.18168
#
# Static dielectric constant tensor:
#      x y z
#    x 1.702190 0.000000 0.000000 
#    y 0.000000 1.684880 0.000000 
#    z 0.000000 0.000000 1.725050 
# 
# From -- ./inp_files/2895.got.cif
#   From: 2010.05.17/outbox.cif.g08.bks.cpg/sg29_2_cif.got.tgz:2895.got - 2010.06.04 01:19:37.
