data_PCOD9341367
_publ_section_title
;
Structure prediction by ZEFSAII (Michael W. Deem and Ramdas Pophale) SiO2 
 PCOD9341367
Probable space group: P C A 21
;
_chemical_formula_sum "Si O2"
_cell_formula_units_Z 24
_cell_length_a 9.816962
_cell_length_b 4.772656
_cell_length_c 18.409607
_cell_angle_alpha 90.000000
_cell_angle_beta 90.000000
_cell_angle_gamma 90.000000
_cell_volume 862.544996
_symmetry_space_group_name_H-M "P C A 21"
_symmetry_group_IT_number 29
_symmetry_cell_setting 'orthorhombic'
loop_
_space_group_symop_operation_xyz
x,y,z
-x,-y,1/2+z
1/2-x,y,1/2+z
1/2+x,-y,z
loop_
_atom_site_type_symbol
_atom_site_label
_atom_site_fract_x
_atom_site_fract_y
_atom_site_fract_z
Si Si1 0.428192 0.656472 0.048690
Si Si2 0.643807 0.194160 0.828529
Si Si3 0.666621 0.911623 0.214958
Si Si4 0.873610 0.683854 0.427708
Si Si5 0.320129 0.971155 0.553731
Si Si6 0.996523 0.428661 0.706898
O O1 0.266949 0.693114 0.041882
O O2 0.459018 0.505926 0.125260
O O3 0.518456 0.950337 0.055115
O O4 0.503513 0.550731 0.976067
O O5 0.752926 0.021143 0.783025
O O6 0.693839 0.430903 0.884466
O O7 0.569137 0.400798 0.770876
O O8 0.574986 0.942485 0.876158
O O9 0.727193 0.964744 0.135562
O O10 0.528298 0.100411 0.215713
O O11 0.650437 0.578989 0.214736
O O12 0.777217 0.841724 0.485294
#
# Coordination Sequence:
#
# PCOD9341367 Si02
#       6
#     4   4   4   4   4   4
#     4   9  21  45  72 106 139 191 239 293 353 436
#     4  12  24  48  66 112 143 186 238 308 362 425
#     4  11  24  43  73 103 139 192 245 292 360 435
#     4  10  26  40  72 104 149 187 235 304 366 423
#     4   9  21  45  72 106 137 192 239 297 349 442
#     4  11  24  43  73 103 141 194 240 298 352 443
#
# _framework density 27.824638
#
# number of rings (size 3 to 8) (size 9 to 14) (size 15 to 20)
#    1.000    0.667    1.667    2.000    2.333    4.000 
#    3.000    6.667    0.000    0.000    0.000    0.000 
#    0.000    0.000    0.000    0.000    0.000    0.000 
#
# Total GULP energy -133885.505310 kJ/mol
# GULP energy per Si atom -5578.562721 kJ/mol
# Density = 2.776131 g / cm^3
# Si number density = 27.824638 Si / 1000 Ang^3
#
#
#
# Elastic Constant Matrix: (Units=GPa)
#
#
# Indices 1 2 3 4 5 6 
#
# 1 63.8248 22.9482 26.4403 0.0000 0.0000 0.0000
# 2 22.9482 118.0122 52.5376 0.0000 0.0000 0.0000
# 3 26.4403 52.5376 184.5881 0.0000 0.0000 0.0000
# 4 0.0000 0.0000 0.0000 49.0044 0.0000 0.0000
# 5 0.0000 0.0000 0.0000 0.0000 34.4399 0.0000
# 6 0.0000 0.0000 0.0000 0.0000 0.0000 31.8383
#
#
#
# Elastic Compliance Matrix: (Units=1/GPa)
#
#
# Indices 1 2 3 4 5 6 
#
# 1 0.017322 -0.002592 -0.001743 0.000000 0.000000 0.000000
# 2 -0.002592 0.010091 -0.002501 0.000000 0.000000 0.000000
# 3 -0.001743 -0.002501 0.006379 0.000000 0.000000 0.000000
# 4 0.000000 0.000000 0.000000 0.020406 0.000000 0.000000
# 5 0.000000 0.000000 0.000000 0.000000 0.029036 0.000000
# 6 0.000000 0.000000 0.000000 0.000000 0.000000 0.031409
#
#
# Mechanical properties :
#
#
# Convention : Reuss Voigt Hill
#
# Bulk Modulus (GPa) = 49.70355 63.36413 56.53384
# Shear Modulus (GPa) = 37.03078 40.68979 38.86028
#
# Velocity S-wave (km/s) = 3.65206 3.82824 3.74118
# Velocity P-wave (km/s) = 5.97372 6.50866 6.24692
#
# Compressibility (1/GPa) = 0.02011929
#
# Stress axis : x y z
#
# Youngs Moduli (GPa) = 57.72945 99.09704 156.76491
#
# Poissons Ratio (x) = 0.25689 0.27330
# Poissons Ratio (y) = 0.14965 0.39204
# Poissons Ratio (z) = 0.10065 0.24782
#
# Static dielectric constant tensor:
#      x y z
#    x 2.261790 0.000000 0.000000 
#    y 0.000000 2.138370 0.000000 
#    z 0.000000 0.000000 2.197990 
# 
# From -- ./inp_files/5074.got.cif
#   From: 2010.05.17/outbox.cif.g08.bks.cpg/sg29_3_cif.got.tgz:5074.got - 2010.06.04 01:19:37.
