data_PCOD9341963
_publ_section_title
;
Structure prediction by ZEFSAII (Michael W. Deem and Ramdas Pophale) SiO2 
 PCOD9341963
Probable space group: P N C 2
;
_chemical_formula_sum "Si O2"
_cell_formula_units_Z 24
_cell_length_a 12.017025
_cell_length_b 12.493471
_cell_length_c 8.533007
_cell_angle_alpha 90.000000
_cell_angle_beta 90.000000
_cell_angle_gamma 90.000000
_cell_volume 1281.097488
_symmetry_space_group_name_H-M "P N C 2"
_symmetry_group_IT_number 30
_symmetry_cell_setting 'orthorhombic'
loop_
_space_group_symop_operation_xyz
x,y,z
-x,-y,z
-x,1/2+y,1/2+z
x,1/2-y,1/2+z
loop_
_atom_site_type_symbol
_atom_site_label
_atom_site_fract_x
_atom_site_fract_y
_atom_site_fract_z
Si Si1 0.004876 0.123286 0.895000
Si Si2 0.749447 0.860603 0.008991
Si Si3 0.811704 0.529411 0.807209
Si Si4 0.039301 0.657239 0.754222
Si Si5 0.576749 0.902948 0.420562
Si Si6 0.617314 0.797672 0.722924
O O1 0.132988 0.153129 0.925834
O O2 0.955834 0.216886 0.787529
O O3 0.000000 0.000000 0.839227
O O4 0.953322 0.131071 0.069429
O O5 0.662514 0.866522 0.867801
O O6 0.762505 0.957389 0.130761
O O7 0.714539 0.760350 0.119143
O O8 0.864339 0.413146 0.834681
O O9 0.707335 0.563038 0.912645
O O10 0.919002 0.609208 0.809603
O O11 0.550629 0.864550 0.596176
O O12 0.559282 0.803597 0.304023
O O13 0.500000 0.000000 0.372788
#
# Coordination Sequence:
#
# PCOD9341963 Si02
#       6
#     4   4   4   4   4   4
#     4  11  19  33  53  80 116 153 186 228 273 332
#     4   9  15  31  54  78 105 140 187 228 266 316
#     4   9  18  36  57  80 115 149 181 235 283 320
#     4  10  19  36  54  81 121 149 187 229 274 336
#     4  10  20  37  60  84 109 143 190 231 286 329
#     4   9  18  33  59  82 103 139 192 233 264 333
#
# _framework density 18.733937000000001
#
# number of rings (size 3 to 8) (size 9 to 14) (size 15 to 20)
#    0.000    2.333    3.333    4.000    0.000    0.000 
#    6.000    9.167    0.000    0.000    0.000    0.000 
#    0.000    0.000    0.000    0.000    0.000    0.000 
#
# Total GULP energy -133629.838906 kJ/mol
# GULP energy per Si atom -5567.909954 kJ/mol
# Density = 1.869130 g / cm^3
# Si number density = 18.733937 Si / 1000 Ang^3
#
#
#
# Elastic Constant Matrix: (Units=GPa)
#
#
# Indices 1 2 3 4 5 6 
#
# 1 24.3870 14.9075 15.6674 0.0000 0.0000 0.0000
# 2 14.9075 121.4276 33.2822 0.0000 0.0000 0.0000
# 3 15.6674 33.2822 60.9099 0.0000 0.0000 0.0000
# 4 0.0000 0.0000 0.0000 12.3920 0.0000 0.0000
# 5 0.0000 0.0000 0.0000 0.0000 6.3702 0.0000
# 6 0.0000 0.0000 0.0000 0.0000 0.0000 19.4543
#
#
#
# Elastic Compliance Matrix: (Units=1/GPa)
#
#
# Indices 1 2 3 4 5 6 
#
# 1 0.050083 -0.003079 -0.011200 0.000000 0.000000 0.000000
# 2 -0.003079 0.009875 -0.004604 0.000000 0.000000 0.000000
# 3 -0.011200 -0.004604 0.021814 0.000000 0.000000 0.000000
# 4 0.000000 0.000000 0.000000 0.080697 0.000000 0.000000
# 5 0.000000 0.000000 0.000000 0.000000 0.156981 0.000000
# 6 0.000000 0.000000 0.000000 0.000000 0.000000 0.051403
#
#
# Mechanical properties :
#
#
# Convention : Reuss Voigt Hill
#
# Bulk Modulus (GPa) = 22.72385 37.15985 29.94185
# Shear Modulus (GPa) = 11.81227 17.16779 14.49003
#
# Velocity S-wave (km/s) = 2.51376 3.03049 2.78414
# Velocity P-wave (km/s) = 4.53667 5.66779 5.13348
#
# Compressibility (1/GPa) = 0.04400663
#
# Stress axis : x y z
#
# Youngs Moduli (GPa) = 19.96683 101.26300 45.84130
#
# Poissons Ratio (x) = 0.31176 0.51343
# Poissons Ratio (y) = 0.06147 0.21106
# Poissons Ratio (z) = 0.22363 0.46622
#
# Static dielectric constant tensor:
#      x y z
#    x 1.659000 0.000000 0.000000 
#    y 0.000000 1.679880 0.000000 
#    z 0.000000 0.000000 1.684890 
# 
# From -- ./inp_files/2343.got.cif
#   From: 2010.05.17/outbox.cif.g08.bks.cpg/sg30_2_cif.got.tgz:2343.got - 2010.06.03 17:03:02.
