data_PCOD9341626
_publ_section_title
;
Structure prediction by ZEFSAII (Michael W. Deem and Ramdas Pophale) SiO2 
 PCOD9341626
Probable space group: P C A 21
;
_chemical_formula_sum "Si O2"
_cell_formula_units_Z 20
_cell_length_a 14.161943
_cell_length_b 5.547780
_cell_length_c 9.856407
_cell_angle_alpha 90.000000
_cell_angle_beta 90.000000
_cell_angle_gamma 90.000000
_cell_volume 774.391721
_symmetry_space_group_name_H-M "P C A 21"
_symmetry_group_IT_number 29
_symmetry_cell_setting 'orthorhombic'
loop_
_space_group_symop_operation_xyz
x,y,z
-x,-y,1/2+z
1/2-x,y,1/2+z
1/2+x,-y,z
loop_
_atom_site_type_symbol
_atom_site_label
_atom_site_fract_x
_atom_site_fract_y
_atom_site_fract_z
Si Si1 0.968635 0.601003 0.800320
Si Si2 0.540226 0.256248 0.062176
Si Si3 0.769544 0.385044 0.468820
Si Si4 0.730984 0.719507 0.222447
Si Si5 0.618165 0.106581 0.630502
O O1 0.874445 0.763691 0.780230
O O2 0.058073 0.730205 0.732544
O O3 0.951679 0.364182 0.711585
O O4 0.996803 0.553364 0.954740
O O5 0.644077 0.208486 0.005666
O O6 0.463436 0.050651 0.061583
O O7 0.766089 0.503170 0.321132
O O8 0.780385 0.609675 0.572443
O O9 0.676267 0.250292 0.517430
O O10 0.806360 0.934131 0.209495
#
# Coordination Sequence:
#
# PCOD9341626 Si02
#       5
#     4   4   4   4   4
#     4  11  25  44  68  98 133 177 227 283 342 410
#     4  11  25  44  68  98 133 177 227 283 342 410
#     4  11  25  45  68  99 140 181 227 287 347 410
#     4  11  25  45  68  99 140 181 227 287 347 410
#     4  12  24  42  70 102 136 180 232 280 348 420
#
# _framework density 25.826720000000002
#
# number of rings (size 3 to 8) (size 9 to 14) (size 15 to 20)
#    0.000    0.800    0.000    7.200    0.000   14.400 
#    0.000    0.000    0.000    0.000    0.000    0.000 
#    0.000    0.000    0.000    0.000    0.000    0.000 
#
# Total GULP energy -112070.608220 kJ/mol
# GULP energy per Si atom -5603.530411 kJ/mol
# Density = 2.576794 g / cm^3
# Si number density = 25.826720 Si / 1000 Ang^3
#
#
#
# Elastic Constant Matrix: (Units=GPa)
#
#
# Indices 1 2 3 4 5 6 
#
# 1 196.0881 34.4228 2.9482 0.0000 0.0000 0.0000
# 2 34.4228 45.9580 -5.6734 0.0000 0.0000 0.0000
# 3 2.9482 -5.6734 74.9824 0.0000 0.0000 0.0000
# 4 0.0000 0.0000 0.0000 30.2059 0.0000 0.0000
# 5 0.0000 0.0000 0.0000 0.0000 37.4191 0.0000
# 6 0.0000 0.0000 0.0000 0.0000 0.0000 49.3309
#
#
#
# Elastic Compliance Matrix: (Units=1/GPa)
#
#
# Indices 1 2 3 4 5 6 
#
# 1 0.005896 -0.004487 -0.000571 0.000000 0.000000 0.000000
# 2 -0.004487 0.025378 0.002097 0.000000 0.000000 0.000000
# 3 -0.000571 0.002097 0.013518 0.000000 0.000000 0.000000
# 4 0.000000 0.000000 0.000000 0.033106 0.000000 0.000000
# 5 0.000000 0.000000 0.000000 0.000000 0.026724 0.000000
# 6 0.000000 0.000000 0.000000 0.000000 0.000000 0.020271
#
#
# Mechanical properties :
#
#
# Convention : Reuss Voigt Hill
#
# Bulk Modulus (GPa) = 25.72730 42.26931 33.99831
# Shear Modulus (GPa) = 34.77715 42.41324 38.59520
#
# Velocity S-wave (km/s) = 3.67353 4.05683 3.86993
# Velocity P-wave (km/s) = 5.28925 6.19240 5.75856
#
# Compressibility (1/GPa) = 0.03886921
#
# Stress axis : x y z
#
# Youngs Moduli (GPa) = 169.60782 39.40374 73.97784
#
# Poissons Ratio (x) = 0.17679 0.04226
# Poissons Ratio (y) = 0.76097 -0.15510
# Poissons Ratio (z) = 0.09690 -0.08261
#
# Static dielectric constant tensor:
#      x y z
#    x 2.045860 0.000000 0.000000 
#    y 0.000000 2.041000 0.000000 
#    z 0.000000 0.000000 2.003610 
# 
# From -- ./inp_files/3350.got.cif
#   From: 2010.05.17/outbox.cif.g08.bks.cpg/sg29_2_cif.got.tgz:3350.got - 2010.06.04 01:19:37.
