data_PCOD9341159
_publ_section_title
;
Structure prediction by ZEFSAII (Michael W. Deem and Ramdas Pophale) SiO2 
 PCOD9341159
Probable space group: P C A 21
;
_chemical_formula_sum "Si O2"
_cell_formula_units_Z 32
_cell_length_a 18.335428
_cell_length_b 8.423284
_cell_length_c 8.448376
_cell_angle_alpha 90.000000
_cell_angle_beta 90.000000
_cell_angle_gamma 90.000000
_cell_volume 1304.805353
_symmetry_space_group_name_H-M "P C A 21"
_symmetry_group_IT_number 29
_symmetry_cell_setting 'orthorhombic'
loop_
_space_group_symop_operation_xyz
x,y,z
-x,-y,1/2+z
1/2-x,y,1/2+z
1/2+x,-y,z
loop_
_atom_site_type_symbol
_atom_site_label
_atom_site_fract_x
_atom_site_fract_y
_atom_site_fract_z
Si Si1 0.391315 0.145296 0.732340
Si Si2 0.098540 0.813135 0.103694
Si Si3 0.835929 0.813847 0.383168
Si Si4 0.237083 0.613342 0.162403
Si Si5 0.348574 0.856846 0.276153
Si Si6 0.038081 0.687024 0.615586
Si Si7 0.977804 0.632545 0.278109
Si Si8 0.803286 0.612914 0.903198
O O1 0.341710 0.162197 0.572879
O O2 0.465348 0.232784 0.683203
O O3 0.357078 0.236626 0.883846
O O4 0.404476 0.956473 0.730416
O O5 0.179722 0.740864 0.097086
O O6 0.033812 0.694721 0.146431
O O7 0.093249 0.866962 0.921134
O O8 0.912157 0.753772 0.312521
O O9 0.776146 0.680612 0.363507
O O10 0.811831 0.972236 0.291116
O O11 0.289797 0.716161 0.273860
O O12 0.181044 0.500004 0.255573
O O13 0.288021 0.504500 0.049844
O O14 0.397428 0.815137 0.124323
O O15 0.054266 0.536197 0.726565
O O16 0.022990 0.624106 0.440620
#
# Coordination Sequence:
#
# PCOD9341159 Si02
#       8
#     4   4   4   4   4   4   4   4
#     4  10  23  44  68  96 134 179 222 283 340 409
#     4  11  24  45  67  95 137 178 224 281 345 403
#     4  10  23  45  66  95 137 176 226 278 343 407
#     4  12  25  41  70  96 134 174 227 277 337 409
#     4  11  24  44  67  98 135 177 224 286 341 407
#     4  11  24  41  68  99 133 176 231 278 344 403
#     4  11  24  42  70  97 133 179 224 283 337 410
#     4  12  23  44  68  98 133 177 226 278 337 404
#
# _framework density 24.524730000000002
#
# number of rings (size 3 to 8) (size 9 to 14) (size 15 to 20)
#    0.000    1.000    2.500    3.750    5.250    0.000 
#    4.500    0.000    0.000    0.000    0.000    0.000 
#    0.000    0.000    0.000    0.000    0.000    0.000 
#
# Total GULP energy -178820.191713 kJ/mol
# GULP energy per Si atom -5588.130991 kJ/mol
# Density = 2.446891 g / cm^3
# Si number density = 24.524730 Si / 1000 Ang^3
#
#
#
# Elastic Constant Matrix: (Units=GPa)
#
#
# Indices 1 2 3 4 5 6 
#
# 1 55.2033 11.8642 6.0445 0.0000 0.0000 0.0000
# 2 11.8642 132.0594 35.6479 0.0000 0.0000 0.0000
# 3 6.0445 35.6479 50.8714 0.0000 0.0000 0.0000
# 4 0.0000 0.0000 0.0000 34.6750 0.0000 0.0000
# 5 0.0000 0.0000 0.0000 0.0000 24.2305 0.0000
# 6 0.0000 0.0000 0.0000 0.0000 0.0000 35.1907
#
#
#
# Elastic Compliance Matrix: (Units=1/GPa)
#
#
# Indices 1 2 3 4 5 6 
#
# 1 0.018539 -0.001321 -0.001277 0.000000 0.000000 0.000000
# 2 -0.001321 0.009433 -0.006453 0.000000 0.000000 0.000000
# 3 -0.001277 -0.006453 0.024331 0.000000 0.000000 0.000000
# 4 0.000000 0.000000 0.000000 0.028839 0.000000 0.000000
# 5 0.000000 0.000000 0.000000 0.000000 0.041270 0.000000
# 6 0.000000 0.000000 0.000000 0.000000 0.000000 0.028417
#
#
# Mechanical properties :
#
#
# Convention : Reuss Voigt Hill
#
# Bulk Modulus (GPa) = 29.23936 38.36079 33.80007
# Shear Modulus (GPa) = 27.72675 31.12441 29.42558
#
# Velocity S-wave (km/s) = 3.36603 3.56631 3.46762
# Velocity P-wave (km/s) = 5.20146 5.71259 5.46301
#
# Compressibility (1/GPa) = 0.03420047
#
# Stress axis : x y z
#
# Youngs Moduli (GPa) = 53.94160 106.01126 41.09949
#
# Poissons Ratio (x) = 0.14001 0.05249
# Poissons Ratio (y) = 0.07124 0.26522
# Poissons Ratio (z) = 0.06890 0.68411
#
# Static dielectric constant tensor:
#      x y z
#    x 1.877160 0.000000 0.000000 
#    y 0.000000 1.979960 0.000000 
#    z 0.000000 0.000000 2.001050 
# 
# From -- ./inp_files/2296.got.cif
#   From: 2010.05.17/outbox.cif.g08.bks.cpg/sg29_2_cif.got.tgz:2296.got - 2010.06.04 01:19:37.
