data_PCOD9341944
_publ_section_title
;
Structure prediction by ZEFSAII (Michael W. Deem and Ramdas Pophale) SiO2 
 PCOD9341944
Probable space group: P N C 2
;
_chemical_formula_sum "Si O2"
_cell_formula_units_Z 30
_cell_length_a 12.736339
_cell_length_b 12.081682
_cell_length_c 10.162391
_cell_angle_alpha 90.000000
_cell_angle_beta 90.000000
_cell_angle_gamma 90.000000
_cell_volume 1563.752119
_symmetry_space_group_name_H-M "P N C 2"
_symmetry_group_IT_number 30
_symmetry_cell_setting 'orthorhombic'
loop_
_space_group_symop_operation_xyz
x,y,z
-x,-y,z
-x,1/2+y,1/2+z
x,1/2-y,1/2+z
loop_
_atom_site_type_symbol
_atom_site_label
_atom_site_fract_x
_atom_site_fract_y
_atom_site_fract_z
Si Si1 0.371476 0.789906 0.244450
Si Si2 0.760641 0.426151 0.320712
Si Si3 0.330057 0.443903 0.088455
Si Si4 0.086260 0.851821 0.612522
Si Si5 0.000000 0.000000 0.254719
Si Si6 0.547972 0.159735 0.513161
Si Si7 0.813550 0.116514 0.106534
Si Si8 0.883038 0.908974 0.488352
O O1 0.317762 0.676902 0.297052
O O2 0.453220 0.822553 0.356993
O O3 0.417342 0.763512 0.100788
O O4 0.277598 0.875130 0.215901
O O5 0.715545 0.527513 0.233663
O O6 0.871379 0.386457 0.256158
O O7 0.775173 0.442709 0.474589
O O8 0.363622 0.564800 0.033434
O O9 0.438749 0.379269 0.075728
O O10 0.238448 0.382608 0.007419
O O11 0.150285 0.742803 0.572651
O O12 0.961703 0.844479 0.587132
O O13 0.115205 0.960128 0.527364
O O14 0.085852 0.939994 0.168041
O O15 0.937884 0.911276 0.346599
#
# Coordination Sequence:
#
# PCOD9341944 Si02
#       8
#     4   4   4   4   2   4   4   4
#     4  10  19  33  59  85 106 139 191 243 283 334
#     4   9  18  31  55  84 107 142 186 233 281 339
#     4   9  19  35  58  76 108 149 190 233 286 353
#     4   8  18  29  54  77 107 146 187 220 275 345
#     4  10  22  30  52  80 122 140 186 238 284 340
#     4  10  19  35  60  83 103 143 196 245 281 338
#     4  11  20  31  53  88 116 145 188 243 285 338
#     4   9  18  36  52  78 110 158 182 230 283 356
#
# _framework density 19.184626999999999
#
# number of rings (size 3 to 8) (size 9 to 14) (size 15 to 20)
#    0.000    2.667    1.333    1.600    7.467    2.133 
#    0.000    1.333   11.733    0.000    0.000    0.000 
#    0.000    0.000    0.000    0.000    0.000    0.000 
#
# Total GULP energy -167028.718010 kJ/mol
# GULP energy per Si atom -5567.623934 kJ/mol
# Density = 1.914096 g / cm^3
# Si number density = 19.184627 Si / 1000 Ang^3
#
#
#
# Elastic Constant Matrix: (Units=GPa)
#
#
# Indices 1 2 3 4 5 6 
#
# 1 104.8738 8.8825 37.0159 0.0000 0.0000 0.0000
# 2 8.8825 15.7003 12.1302 0.0000 0.0000 0.0000
# 3 37.0159 12.1302 107.3987 0.0000 0.0000 0.0000
# 4 0.0000 0.0000 0.0000 11.4025 0.0000 0.0000
# 5 0.0000 0.0000 0.0000 0.0000 29.7536 0.0000
# 6 0.0000 0.0000 0.0000 0.0000 0.0000 22.9645
#
#
#
# Elastic Compliance Matrix: (Units=1/GPa)
#
#
# Indices 1 2 3 4 5 6 
#
# 1 0.011041 -0.003622 -0.003396 0.000000 0.000000 0.000000
# 2 -0.003622 0.070971 -0.006767 0.000000 0.000000 0.000000
# 3 -0.003396 -0.006767 0.011246 0.000000 0.000000 0.000000
# 4 0.000000 0.000000 0.000000 0.087700 0.000000 0.000000
# 5 0.000000 0.000000 0.000000 0.000000 0.033609 0.000000
# 6 0.000000 0.000000 0.000000 0.000000 0.000000 0.043545
#
#
# Mechanical properties :
#
#
# Convention : Reuss Voigt Hill
#
# Bulk Modulus (GPa) = 15.22396 38.22554 26.72475
# Shear Modulus (GPa) = 16.25594 24.15375 20.20485
#
# Velocity S-wave (km/s) = 2.91407 3.55211 3.24879
# Velocity P-wave (km/s) = 4.39035 6.06561 5.29466
#
# Compressibility (1/GPa) = 0.06568593
#
# Stress axis : x y z
#
# Youngs Moduli (GPa) = 90.57336 14.09024 88.92091
#
# Poissons Ratio (x) = 0.05104 0.30199
# Poissons Ratio (y) = 0.32810 0.60176
# Poissons Ratio (z) = 0.30760 0.09535
#
# Static dielectric constant tensor:
#      x y z
#    x 1.713560 0.000000 0.000000 
#    y 0.000000 1.696080 0.000000 
#    z 0.000000 0.000000 1.701690 
# 
# From -- ./inp_files/2457.got.cif
#   From: 2010.05.17/outbox.cif.g08.bks.cpg/sg30_2_cif.got.tgz:2457.got - 2010.06.03 17:03:02.
