data_PCOD9341490
_publ_section_title
;
Structure prediction by ZEFSAII (Michael W. Deem and Ramdas Pophale) SiO2 
 PCOD9341490
Probable space group: P C A 21
;
_chemical_formula_sum "Si O2"
_cell_formula_units_Z 24
_cell_length_a 10.858504
_cell_length_b 5.447866
_cell_length_c 17.809625
_cell_angle_alpha 90.000000
_cell_angle_beta 90.000000
_cell_angle_gamma 90.000000
_cell_volume 1053.540384
_symmetry_space_group_name_H-M "P C A 21"
_symmetry_group_IT_number 29
_symmetry_cell_setting 'orthorhombic'
loop_
_space_group_symop_operation_xyz
x,y,z
-x,-y,1/2+z
1/2-x,y,1/2+z
1/2+x,-y,z
loop_
_atom_site_type_symbol
_atom_site_label
_atom_site_fract_x
_atom_site_fract_y
_atom_site_fract_z
Si Si1 0.452885 0.460157 0.991590
Si Si2 0.360119 0.839392 0.399114
Si Si3 0.773638 0.912064 0.030043
Si Si4 0.544648 0.929405 0.276176
Si Si5 0.853696 0.416046 0.839599
Si Si6 0.481971 0.150411 0.602333
O O1 0.535477 0.243557 0.957462
O O2 0.431311 0.620543 0.916953
O O3 0.320143 0.365804 0.018855
O O4 0.517918 0.585211 0.061600
O O5 0.425674 0.964010 0.329046
O O6 0.287433 0.607216 0.365234
O O7 0.263468 0.995390 0.447193
O O8 0.652763 0.950165 0.079870
O O9 0.893868 0.036162 0.066514
O O10 0.612419 0.682122 0.306661
O O11 0.508946 0.871680 0.191117
O O12 0.619330 0.183432 0.286055
#
# Coordination Sequence:
#
# PCOD9341490 Si02
#       6
#     4   4   4   4   4   4
#     4  11  24  46  76 111 145 200 262 321 376 467
#     4  11  22  47  77 107 148 200 266 310 386 457
#     4  12  25  48  78 108 153 198 268 318 384 466
#     4  11  29  45  72 110 159 200 251 321 390 458
#     4  11  24  46  71 106 146 200 253 311 379 458
#     4  12  28  46  74 114 155 204 252 321 397 454
#
# _framework density 22.780331
#
# number of rings (size 3 to 8) (size 9 to 14) (size 15 to 20)
#    0.000    0.667    3.333    4.000    4.667    5.333 
#    0.000    0.000    0.000    0.000    0.000    0.000 
#    0.000    0.000    0.000    0.000    0.000    0.000 
#
# Total GULP energy -134043.348690 kJ/mol
# GULP energy per Si atom -5585.139529 kJ/mol
# Density = 2.272848 g / cm^3
# Si number density = 22.780331 Si / 1000 Ang^3
#
#
#
# Elastic Constant Matrix: (Units=GPa)
#
#
# Indices 1 2 3 4 5 6 
#
# 1 140.5075 23.6328 54.0218 0.0000 0.0000 0.0000
# 2 23.6328 70.0090 35.8387 0.0000 0.0000 0.0000
# 3 54.0218 35.8387 158.8683 0.0000 0.0000 0.0000
# 4 0.0000 0.0000 0.0000 14.7902 0.0000 0.0000
# 5 0.0000 0.0000 0.0000 0.0000 26.4384 0.0000
# 6 0.0000 0.0000 0.0000 0.0000 0.0000 23.2526
#
#
#
# Elastic Compliance Matrix: (Units=1/GPa)
#
#
# Indices 1 2 3 4 5 6 
#
# 1 0.008332 -0.001540 -0.002486 0.000000 0.000000 0.000000
# 2 -0.001540 0.016433 -0.003183 0.000000 0.000000 0.000000
# 3 -0.002486 -0.003183 0.007858 0.000000 0.000000 0.000000
# 4 0.000000 0.000000 0.000000 0.067612 0.000000 0.000000
# 5 0.000000 0.000000 0.000000 0.000000 0.037824 0.000000
# 6 0.000000 0.000000 0.000000 0.000000 0.000000 0.043006
#
#
# Mechanical properties :
#
#
# Convention : Reuss Voigt Hill
#
# Bulk Modulus (GPa) = 54.93125 66.26350 60.59737
# Shear Modulus (GPa) = 24.80751 29.95567 27.38159
#
# Velocity S-wave (km/s) = 3.30356 3.63020 3.47073
# Velocity P-wave (km/s) = 6.22231 6.83537 6.53603
#
# Compressibility (1/GPa) = 0.01820457
#
# Stress axis : x y z
#
# Youngs Moduli (GPa) = 120.02208 60.85157 127.25993
#
# Poissons Ratio (x) = 0.09372 0.31633
# Poissons Ratio (y) = 0.18484 0.40513
# Poissons Ratio (z) = 0.29834 0.19372
#
# Static dielectric constant tensor:
#      x y z
#    x 1.865470 0.000000 0.000000 
#    y 0.000000 1.957900 0.000000 
#    z 0.000000 0.000000 1.811470 
# 
# From -- ./inp_files/5058.got.cif
#   From: 2010.05.17/outbox.cif.g08.bks.cpg/sg29_3_cif.got.tgz:5058.got - 2010.06.04 01:19:37.
