data_PCOD9341230
_publ_section_title
;
Structure prediction by ZEFSAII (Michael W. Deem and Ramdas Pophale) SiO2 
 PCOD9341230
Probable space group: P C A 21
;
_chemical_formula_sum "Si O2"
_cell_formula_units_Z 28
_cell_length_a 4.702185
_cell_length_b 24.733628
_cell_length_c 9.150060
_cell_angle_alpha 90.000000
_cell_angle_beta 90.000000
_cell_angle_gamma 90.000000
_cell_volume 1064.171144
_symmetry_space_group_name_H-M "P C A 21"
_symmetry_group_IT_number 29
_symmetry_cell_setting 'orthorhombic'
loop_
_space_group_symop_operation_xyz
x,y,z
-x,-y,1/2+z
1/2-x,y,1/2+z
1/2+x,-y,z
loop_
_atom_site_type_symbol
_atom_site_label
_atom_site_fract_x
_atom_site_fract_y
_atom_site_fract_z
Si Si1 0.659652 0.037752 0.452390
Si Si2 0.475017 0.325883 0.999610
Si Si3 0.954938 0.536072 0.505088
Si Si4 0.980879 0.253658 0.026028
Si Si5 0.735597 0.112698 0.704655
Si Si6 0.742827 0.396073 0.251957
Si Si7 0.262203 0.184652 0.268407
O O1 0.600861 0.086766 0.561375
O O2 0.630625 0.063000 0.293075
O O3 0.475078 0.984535 0.472492
O O4 0.553907 0.361081 0.140485
O O5 0.147518 0.309593 0.995937
O O6 0.573474 0.356558 0.854795
O O7 0.653733 0.270143 0.016548
O O8 0.125092 0.479027 0.504304
O O9 0.056618 0.567196 0.649326
O O10 0.053209 0.568071 0.361621
O O11 0.080117 0.210879 0.905517
O O12 0.093023 0.230450 0.178602
O O13 0.482353 0.140334 0.796659
O O14 0.984998 0.155641 0.678352
#
# Coordination Sequence:
#
# PCOD9341230 Si02
#       7
#     4   4   4   4   4   4   4
#     4  12  24  42  64  91 124 161 202 250 302 360
#     4  11  24  41  62  91 122 161 202 251 302 361
#     4  11  24  41  64  91 124 161 204 251 304 361
#     4  12  24  42  64  91 124 161 204 250 304 360
#     4  12  24  42  64  92 124 160 204 250 302 360
#     4  10  24  41  64  91 124 161 204 251 304 360
#     4  12  24  41  64  91 122 161 202 251 302 360
#
# _framework density 26.31156
#
# number of rings (size 3 to 8) (size 9 to 14) (size 15 to 20)
#    0.000    0.571    0.000    8.571    0.000    6.857 
#    0.000    0.000    0.000    0.000    0.000    0.000 
#    0.000    0.000    0.000    0.000    0.000    0.000 
#
# Total GULP energy -157323.360258 kJ/mol
# GULP energy per Si atom -5618.691438 kJ/mol
# Density = 2.625167 g / cm^3
# Si number density = 26.311560 Si / 1000 Ang^3
#
#
#
# Elastic Constant Matrix: (Units=GPa)
#
#
# Indices 1 2 3 4 5 6 
#
# 1 82.2650 20.6163 6.5297 0.0000 0.0000 0.0000
# 2 20.6163 100.8329 35.7047 0.0000 0.0000 0.0000
# 3 6.5297 35.7047 109.2586 0.0000 0.0000 0.0000
# 4 0.0000 0.0000 0.0000 42.0469 0.0000 0.0000
# 5 0.0000 0.0000 0.0000 0.0000 22.5925 0.0000
# 6 0.0000 0.0000 0.0000 0.0000 0.0000 47.4856
#
#
#
# Elastic Compliance Matrix: (Units=1/GPa)
#
#
# Indices 1 2 3 4 5 6 
#
# 1 0.012813 -0.002656 0.000102 0.000000 0.000000 0.000000
# 2 -0.002656 0.011766 -0.003686 0.000000 0.000000 0.000000
# 3 0.000102 -0.003686 0.010351 0.000000 0.000000 0.000000
# 4 0.000000 0.000000 0.000000 0.023783 0.000000 0.000000
# 5 0.000000 0.000000 0.000000 0.000000 0.044262 0.000000
# 6 0.000000 0.000000 0.000000 0.000000 0.000000 0.021059
#
#
# Mechanical properties :
#
#
# Convention : Reuss Voigt Hill
#
# Bulk Modulus (GPa) = 44.54315 46.45088 45.49701
# Shear Modulus (GPa) = 34.72274 37.72541 36.22407
#
# Velocity S-wave (km/s) = 3.63668 3.79066 3.71446
# Velocity P-wave (km/s) = 5.88216 6.07053 5.97708
#
# Compressibility (1/GPa) = 0.02245014
#
# Stress axis : x y z
#
# Youngs Moduli (GPa) = 78.04367 84.99276 96.60806
#
# Poissons Ratio (x) = 0.22574 -0.00987
# Poissons Ratio (y) = 0.20728 0.35612
# Poissons Ratio (z) = -0.00797 0.31330
#
# Static dielectric constant tensor:
#      x y z
#    x 1.963200 0.000000 0.000000 
#    y 0.000000 2.021710 0.000000 
#    z 0.000000 0.000000 1.998970 
# 
# From -- ./inp_files/1000.got.cif
#   From: 2010.05.17/outbox.cif.g08.bks.cpg/sg29_1_cif.got.tgz:1000.got - 2010.06.04 01:19:37.
