data_PCOD9341615
_publ_section_title
;
Structure prediction by ZEFSAII (Michael W. Deem and Ramdas Pophale) SiO2 
 PCOD9341615
Probable space group: P C A 21
;
_chemical_formula_sum "Si O2"
_cell_formula_units_Z 20
_cell_length_a 10.818030
_cell_length_b 7.731447
_cell_length_c 9.565799
_cell_angle_alpha 90.000000
_cell_angle_beta 90.000000
_cell_angle_gamma 90.000000
_cell_volume 800.074107
_symmetry_space_group_name_H-M "P C A 21"
_symmetry_group_IT_number 29
_symmetry_cell_setting 'orthorhombic'
loop_
_space_group_symop_operation_xyz
x,y,z
-x,-y,1/2+z
1/2-x,y,1/2+z
1/2+x,-y,z
loop_
_atom_site_type_symbol
_atom_site_label
_atom_site_fract_x
_atom_site_fract_y
_atom_site_fract_z
Si Si1 0.901370 0.957698 0.631780
Si Si2 0.733015 0.806389 0.399001
Si Si3 0.596183 0.335860 0.583701
Si Si4 0.224138 0.586108 0.847684
Si Si5 0.013626 0.690026 0.055721
O O1 0.823574 0.924825 0.489940
O O2 0.819390 0.896078 0.761309
O O3 0.021781 0.837048 0.613131
O O4 0.942427 0.153626 0.650976
O O5 0.791155 0.621257 0.358409
O O6 0.617396 0.752687 0.495142
O O7 0.652331 0.358440 0.429465
O O8 0.711448 0.358614 0.687977
O O9 0.506321 0.498419 0.616002
O O10 0.109121 0.670426 0.928332
#
# Coordination Sequence:
#
# PCOD9341615 Si02
#       5
#     4   4   4   4   4
#     4  12  27  50  75 114 156 196 261 316 378 457
#     4  11  25  50  74 113 156 200 257 316 376 465
#     4  11  26  51  74 115 149 203 255 316 379 463
#     4  11  24  49  79 104 155 203 252 314 392 447
#     4  11  26  46  78 112 150 206 253 318 381 448
#
# _framework density 24.997682999999999
#
# number of rings (size 3 to 8) (size 9 to 14) (size 15 to 20)
#    0.000    0.800    4.000    2.400    2.800    4.800 
#    3.600    0.000    0.000    0.000    0.000    0.000 
#    0.000    0.000    0.000    0.000    0.000    0.000 
#
# Total GULP energy -112236.559676 kJ/mol
# GULP energy per Si atom -5611.827984 kJ/mol
# Density = 2.494079 g / cm^3
# Si number density = 24.997683 Si / 1000 Ang^3
#
#
#
# Elastic Constant Matrix: (Units=GPa)
#
#
# Indices 1 2 3 4 5 6 
#
# 1 56.0150 37.2965 0.1862 0.0000 0.0000 0.0000
# 2 37.2965 136.3142 19.5039 0.0000 0.0000 0.0000
# 3 0.1862 19.5039 82.1565 0.0000 0.0000 0.0000
# 4 0.0000 0.0000 0.0000 27.6280 0.0000 0.0000
# 5 0.0000 0.0000 0.0000 0.0000 33.7424 0.0000
# 6 0.0000 0.0000 0.0000 0.0000 0.0000 14.9083
#
#
#
# Elastic Compliance Matrix: (Units=1/GPa)
#
#
# Indices 1 2 3 4 5 6 
#
# 1 0.021989 -0.006221 0.001427 0.000000 0.000000 0.000000
# 2 -0.006221 0.009354 -0.002206 0.000000 0.000000 0.000000
# 3 0.001427 -0.002206 0.012692 0.000000 0.000000 0.000000
# 4 0.000000 0.000000 0.000000 0.036195 0.000000 0.000000
# 5 0.000000 0.000000 0.000000 0.000000 0.029636 0.000000
# 6 0.000000 0.000000 0.000000 0.000000 0.000000 0.067077
#
#
# Mechanical properties :
#
#
# Convention : Reuss Voigt Hill
#
# Bulk Modulus (GPa) = 33.29410 43.16208 38.22809
# Shear Modulus (GPa) = 24.88106 29.75568 27.31837
#
# Velocity S-wave (km/s) = 3.15832 3.45387 3.30939
# Velocity P-wave (km/s) = 5.16214 5.76277 5.47071
#
# Compressibility (1/GPa) = 0.03003535
#
# Stress axis : x y z
#
# Youngs Moduli (GPa) = 45.47625 106.90948 78.78683
#
# Poissons Ratio (x) = 0.66505 -0.11242
# Poissons Ratio (y) = 0.28289 0.17384
# Poissons Ratio (z) = -0.06489 0.23589
#
# Static dielectric constant tensor:
#      x y z
#    x 1.957220 0.000000 0.000000 
#    y 0.000000 1.934400 0.000000 
#    z 0.000000 0.000000 1.932460 
# 
# From -- ./inp_files/1385.got.cif
#   From: 2010.05.17/outbox.cif.g08.bks.cpg/sg29_1_cif.got.tgz:1385.got - 2010.06.04 01:19:37.
