data_PCOD9341210
_publ_section_title
;
Structure prediction by ZEFSAII (Michael W. Deem and Ramdas Pophale) SiO2 
 PCOD9341210
Probable space group: P C A 21
;
_chemical_formula_sum "Si O2"
_cell_formula_units_Z 20
_cell_length_a 9.695965
_cell_length_b 5.111330
_cell_length_c 15.788382
_cell_angle_alpha 90.000000
_cell_angle_beta 90.000000
_cell_angle_gamma 90.000000
_cell_volume 782.460794
_symmetry_space_group_name_H-M "P C A 21"
_symmetry_group_IT_number 29
_symmetry_cell_setting 'orthorhombic'
loop_
_space_group_symop_operation_xyz
x,y,z
-x,-y,1/2+z
1/2-x,y,1/2+z
1/2+x,-y,z
loop_
_atom_site_type_symbol
_atom_site_label
_atom_site_fract_x
_atom_site_fract_y
_atom_site_fract_z
Si Si1 0.404215 0.192270 0.466450
Si Si2 0.198764 0.511479 0.828916
Si Si3 0.814423 0.429317 0.005116
Si Si4 0.456933 0.343209 0.715910
Si Si5 0.596293 0.170872 0.106576
O O1 0.376888 0.253319 0.368426
O O2 0.259936 0.288008 0.509156
O O3 0.525474 0.391954 0.491847
O O4 0.451113 0.932638 0.513948
O O5 0.328055 0.424037 0.774217
O O6 0.090747 0.672885 0.774641
O O7 0.252420 0.661553 0.913065
O O8 0.750590 0.271537 0.083716
O O9 0.420188 0.079031 0.666713
O O10 0.478044 0.588539 0.652322
#
# Coordination Sequence:
#
# PCOD9341210 Si02
#       5
#     4   4   4   4   4
#     4  10  23  49  76 106 145 203 249 296 361 465
#     4  10  23  52  69 110 143 199 243 301 373 440
#     4  10  23  49  76 106 143 203 247 299 362 461
#     4  12  27  46  73 110 150 186 243 319 366 435
#     4  12  28  44  74 110 147 191 244 305 374 429
#
# _framework density 25.560388
#
# number of rings (size 3 to 8) (size 9 to 14) (size 15 to 20)
#    1.200    0.000    4.000    0.000    5.600    4.800 
#    0.000    0.000    0.000    0.000    0.000    0.000 
#    0.000    0.000    0.000    0.000    0.000    0.000 
#
# Total GULP energy -111710.762115 kJ/mol
# GULP energy per Si atom -5585.538106 kJ/mol
# Density = 2.550221 g / cm^3
# Si number density = 25.560388 Si / 1000 Ang^3
#
#
#
# Elastic Constant Matrix: (Units=GPa)
#
#
# Indices 1 2 3 4 5 6 
#
# 1 100.9077 13.6349 14.6790 0.0000 0.0000 0.0000
# 2 13.6349 121.7312 41.5060 0.0000 0.0000 0.0000
# 3 14.6790 41.5060 130.4474 0.0000 0.0000 0.0000
# 4 0.0000 0.0000 0.0000 39.8599 0.0000 0.0000
# 5 0.0000 0.0000 0.0000 0.0000 51.2696 0.0000
# 6 0.0000 0.0000 0.0000 0.0000 0.0000 19.6892
#
#
#
# Elastic Compliance Matrix: (Units=1/GPa)
#
#
# Indices 1 2 3 4 5 6 
#
# 1 0.010151 -0.000838 -0.000875 0.000000 0.000000 0.000000
# 2 -0.000838 0.009284 -0.002860 0.000000 0.000000 0.000000
# 3 -0.000875 -0.002860 0.008674 0.000000 0.000000 0.000000
# 4 0.000000 0.000000 0.000000 0.025088 0.000000 0.000000
# 5 0.000000 0.000000 0.000000 0.000000 0.019505 0.000000
# 6 0.000000 0.000000 0.000000 0.000000 0.000000 0.050789
#
#
# Mechanical properties :
#
#
# Convention : Reuss Voigt Hill
#
# Bulk Modulus (GPa) = 52.73771 54.74736 53.74253
# Shear Modulus (GPa) = 35.98203 41.04817 38.51510
#
# Velocity S-wave (km/s) = 3.75604 4.01175 3.88600
# Velocity P-wave (km/s) = 6.28393 6.55166 6.41919
#
# Compressibility (1/GPa) = 0.01896176
#
# Stress axis : x y z
#
# Youngs Moduli (GPa) = 98.51548 107.71509 115.28306
#
# Poissons Ratio (x) = 0.09031 0.10093
# Poissons Ratio (y) = 0.08260 0.32966
# Poissons Ratio (z) = 0.08625 0.30802
#
# Static dielectric constant tensor:
#      x y z
#    x 2.012550 0.000000 0.000000 
#    y 0.000000 2.095130 0.000000 
#    z 0.000000 0.000000 2.043000 
# 
# From -- ./inp_files/4412.got.cif
#   From: 2010.05.17/outbox.cif.g08.bks.cpg/sg29_3_cif.got.tgz:4412.got - 2010.06.04 01:19:37.
