data_PCOD9341658
_publ_section_title
;
Structure prediction by ZEFSAII (Michael W. Deem and Ramdas Pophale) SiO2 
 PCOD9341658
Probable space group: P C A 21
;
_chemical_formula_sum "Si O2"
_cell_formula_units_Z 20
_cell_length_a 7.758890
_cell_length_b 10.943556
_cell_length_c 8.916958
_cell_angle_alpha 90.000000
_cell_angle_beta 90.000000
_cell_angle_gamma 90.000000
_cell_volume 757.137541
_symmetry_space_group_name_H-M "P C A 21"
_symmetry_group_IT_number 29
_symmetry_cell_setting 'orthorhombic'
loop_
_space_group_symop_operation_xyz
x,y,z
-x,-y,1/2+z
1/2-x,y,1/2+z
1/2+x,-y,z
loop_
_atom_site_type_symbol
_atom_site_label
_atom_site_fract_x
_atom_site_fract_y
_atom_site_fract_z
Si Si1 0.160224 0.370158 0.395340
Si Si2 0.643585 0.865558 0.200787
Si Si3 0.935458 0.357679 0.911454
Si Si4 0.136469 0.737989 0.099800
Si Si5 0.456531 0.035760 0.013537
O O1 0.134004 0.269451 0.266259
O O2 0.116368 0.507649 0.350968
O O3 0.360499 0.357929 0.440509
O O4 0.024888 0.334439 0.525137
O O5 0.608351 0.950804 0.345261
O O6 0.823539 0.900121 0.126642
O O7 0.508909 0.904045 0.073189
O O8 0.886423 0.266091 0.777223
O O9 0.809286 0.329874 0.048840
O O10 0.122032 0.874488 0.032460
#
# Coordination Sequence:
#
# PCOD9341658 Si02
#       5
#     4   4   4   4   4
#     4  11  26  48  78 115 162 209 267 335 401 492
#     4  11  25  50  76 114 158 207 272 327 410 480
#     4  12  26  48  81 116 160 207 267 335 407 481
#     4  11  28  48  76 118 152 214 265 332 407 474
#     4  11  25  50  77 111 156 211 265 335 399 483
#
# _framework density 26.415279000000002
#
# number of rings (size 3 to 8) (size 9 to 14) (size 15 to 20)
#    0.000    0.800    4.000    1.200    2.800    6.400 
#   10.800    0.000    0.000    0.000    0.000    0.000 
#    0.000    0.000    0.000    0.000    0.000    0.000 
#
# Total GULP energy -112310.932977 kJ/mol
# GULP energy per Si atom -5615.546649 kJ/mol
# Density = 2.635516 g / cm^3
# Si number density = 26.415279 Si / 1000 Ang^3
#
#
#
# Elastic Constant Matrix: (Units=GPa)
#
#
# Indices 1 2 3 4 5 6 
#
# 1 193.6959 41.3071 55.2683 0.0000 0.0000 0.0000
# 2 41.3071 104.7272 23.3191 0.0000 0.0000 0.0000
# 3 55.2683 23.3191 106.9111 0.0000 0.0000 0.0000
# 4 0.0000 0.0000 0.0000 37.3738 0.0000 0.0000
# 5 0.0000 0.0000 0.0000 0.0000 47.8369 0.0000
# 6 0.0000 0.0000 0.0000 0.0000 0.0000 37.8373
#
#
#
# Elastic Compliance Matrix: (Units=1/GPa)
#
#
# Indices 1 2 3 4 5 6 
#
# 1 0.006388 -0.001875 -0.002893 0.000000 0.000000 0.000000
# 2 -0.001875 0.010587 -0.001340 0.000000 0.000000 0.000000
# 3 -0.002893 -0.001340 0.011141 0.000000 0.000000 0.000000
# 4 0.000000 0.000000 0.000000 0.026757 0.000000 0.000000
# 5 0.000000 0.000000 0.000000 0.000000 0.020904 0.000000
# 6 0.000000 0.000000 0.000000 0.000000 0.000000 0.026429
#
#
# Mechanical properties :
#
#
# Convention : Reuss Voigt Hill
#
# Bulk Modulus (GPa) = 62.89489 71.68036 67.28763
# Shear Modulus (GPa) = 41.76303 43.63892 42.70097
#
# Velocity S-wave (km/s) = 3.98052 4.06893 4.02497
# Velocity P-wave (km/s) = 6.70729 7.01924 6.86504
#
# Compressibility (1/GPa) = 0.01589954
#
# Stress axis : x y z
#
# Youngs Moduli (GPa) = 156.53693 94.45882 89.75452
#
# Poissons Ratio (x) = 0.17715 0.25969
# Poissons Ratio (y) = 0.29358 0.12023
# Poissons Ratio (z) = 0.45292 0.12654
#
# Static dielectric constant tensor:
#      x y z
#    x 2.087620 0.000000 0.000000 
#    y 0.000000 2.125160 0.000000 
#    z 0.000000 0.000000 1.973100 
# 
# From -- ./inp_files/1097.got.cif
#   From: 2010.05.17/outbox.cif.g08.bks.cpg/sg29_1_cif.got.tgz:1097.got - 2010.06.04 01:19:37.
