data_PCOD9341374
_publ_section_title
;
Structure prediction by ZEFSAII (Michael W. Deem and Ramdas Pophale) SiO2 
 PCOD9341374
Probable space group: P C A 21
;
_chemical_formula_sum "Si O2"
_cell_formula_units_Z 32
_cell_length_a 11.615825
_cell_length_b 6.954541
_cell_length_c 17.584345
_cell_angle_alpha 90.000000
_cell_angle_beta 90.000000
_cell_angle_gamma 90.000000
_cell_volume 1420.511416
_symmetry_space_group_name_H-M "P C A 21"
_symmetry_group_IT_number 29
_symmetry_cell_setting 'orthorhombic'
loop_
_space_group_symop_operation_xyz
x,y,z
-x,-y,1/2+z
1/2-x,y,1/2+z
1/2+x,-y,z
loop_
_atom_site_type_symbol
_atom_site_label
_atom_site_fract_x
_atom_site_fract_y
_atom_site_fract_z
Si Si1 0.416735 0.030966 0.895950
Si Si2 0.213695 0.229524 0.645441
Si Si3 0.453366 0.209925 0.285170
Si Si4 0.494207 0.299445 0.027425
Si Si5 0.863014 0.353094 0.985102
Si Si6 0.222250 0.821745 0.113477
Si Si7 0.831582 0.437359 0.733583
Si Si8 0.734094 0.631153 0.883116
O O1 0.310220 0.175485 0.886810
O O2 0.480189 0.976842 0.817212
O O3 0.377366 0.826126 0.929035
O O4 0.492433 0.142972 0.959313
O O5 0.141634 0.170109 0.720917
O O6 0.117428 0.278704 0.582448
O O7 0.299592 0.397484 0.672445
O O8 0.282202 0.049632 0.612755
O O9 0.539144 0.367640 0.248974
O O10 0.391532 0.303207 0.358380
O O11 0.606505 0.264208 0.077188
O O12 0.474140 0.511010 0.993030
O O13 0.762515 0.496616 0.954717
O O14 0.827314 0.259040 0.064643
O O15 0.230885 0.748545 0.199334
O O16 0.781373 0.508022 0.812489
#
# Coordination Sequence:
#
# PCOD9341374 Si02
#       8
#     4   4   4   4   4   4   4   4
#     4  11  25  47  68 105 139 186 240 291 357 425
#     4  11  25  47  66 107 143 179 243 298 349 438
#     4  11  25  46  70 100 140 192 231 292 364 416
#     4  11  25  45  69 108 137 184 235 290 360 424
#     4  11  24  45  71 100 143 179 236 291 352 419
#     4  12  26  45  73 101 141 190 232 295 363 419
#     4  11  24  46  67 100 142 180 240 292 355 424
#     4  10  26  45  68 101 141 176 241 291 342 429
#
# _framework density 22.527097000000001
#
# number of rings (size 3 to 8) (size 9 to 14) (size 15 to 20)
#    0.000    1.000    5.000    0.000    7.000    1.000 
#   11.250    0.000    0.000    0.000    0.000    0.000 
#    0.000    0.000    0.000    0.000    0.000    0.000 
#
# Total GULP energy -178856.048897 kJ/mol
# GULP energy per Si atom -5589.251528 kJ/mol
# Density = 2.247582 g / cm^3
# Si number density = 22.527097 Si / 1000 Ang^3
#
#
#
# Elastic Constant Matrix: (Units=GPa)
#
#
# Indices 1 2 3 4 5 6 
#
# 1 59.3206 30.5123 24.5055 0.0000 0.0000 0.0000
# 2 30.5123 85.1759 31.2132 0.0000 0.0000 0.0000
# 3 24.5055 31.2132 74.3257 0.0000 0.0000 0.0000
# 4 0.0000 0.0000 0.0000 44.2638 0.0000 0.0000
# 5 0.0000 0.0000 0.0000 0.0000 38.4665 0.0000
# 6 0.0000 0.0000 0.0000 0.0000 0.0000 8.1321
#
#
#
# Elastic Compliance Matrix: (Units=1/GPa)
#
#
# Indices 1 2 3 4 5 6 
#
# 1 0.021946 -0.006158 -0.004650 0.000000 0.000000 0.000000
# 2 -0.006158 0.015604 -0.004523 0.000000 0.000000 0.000000
# 3 -0.004650 -0.004523 0.016887 0.000000 0.000000 0.000000
# 4 0.000000 0.000000 0.000000 0.022592 0.000000 0.000000
# 5 0.000000 0.000000 0.000000 0.000000 0.025997 0.000000
# 6 0.000000 0.000000 0.000000 0.000000 0.000000 0.122970
#
#
# Mechanical properties :
#
#
# Convention : Reuss Voigt Hill
#
# Bulk Modulus (GPa) = 42.05910 43.47602 42.76756
# Shear Modulus (GPa) = 18.89795 27.01188 22.95491
#
# Velocity S-wave (km/s) = 2.89952 3.46654 3.19563
# Velocity P-wave (km/s) = 5.46997 5.94675 5.71334
#
# Compressibility (1/GPa) = 0.02377607
#
# Stress axis : x y z
#
# Youngs Moduli (GPa) = 45.56731 64.08808 59.21875
#
# Poissons Ratio (x) = 0.39463 0.27535
# Poissons Ratio (y) = 0.28058 0.26782
# Poissons Ratio (z) = 0.21187 0.28984
#
# Static dielectric constant tensor:
#      x y z
#    x 1.835170 0.000000 0.000000 
#    y 0.000000 1.808730 0.000000 
#    z 0.000000 0.000000 1.876450 
# 
# From -- ./inp_files/5521.got.cif
#   From: 2010.05.17/outbox.cif.g08.bks.cpg/sg29_3_cif.got.tgz:5521.got - 2010.06.04 01:19:37.
