data_PCOD9341959
_publ_section_title
;
Structure prediction by ZEFSAII (Michael W. Deem and Ramdas Pophale) SiO2 
 PCOD9341959
Probable space group: P N C 2
;
_chemical_formula_sum "Si O2"
_cell_formula_units_Z 26
_cell_length_a 14.101542
_cell_length_b 4.974975
_cell_length_c 17.709082
_cell_angle_alpha 90.000000
_cell_angle_beta 90.000000
_cell_angle_gamma 90.000000
_cell_volume 1242.377441
_symmetry_space_group_name_H-M "P N C 2"
_symmetry_group_IT_number 30
_symmetry_cell_setting 'orthorhombic'
loop_
_space_group_symop_operation_xyz
x,y,z
-x,-y,z
-x,1/2+y,1/2+z
x,1/2-y,1/2+z
loop_
_atom_site_type_symbol
_atom_site_label
_atom_site_fract_x
_atom_site_fract_y
_atom_site_fract_z
Si Si1 0.396974 0.371146 0.842610
Si Si2 0.000000 0.000000 0.033470
Si Si3 0.500000 0.000000 0.629877
Si Si4 0.000000 0.000000 0.645698
Si Si5 0.801541 0.588546 0.149941
Si Si6 0.793289 0.089185 0.045837
Si Si7 0.597533 0.663144 0.501344
Si Si8 0.639293 0.347131 0.250865
O O1 0.500000 0.500000 0.831328
O O2 0.333820 0.573629 0.793114
O O3 0.392995 0.069348 0.811684
O O4 0.380317 0.358990 0.931645
O O5 0.891791 0.021699 0.999994
O O6 0.999506 0.748612 0.089073
O O7 0.429499 0.168002 0.576252
O O8 0.559416 0.190715 0.686021
O O9 0.097689 0.026573 0.688730
O O10 0.795907 0.890992 0.119183
O O11 0.722108 0.493154 0.206094
O O12 0.795786 0.393682 0.076156
O O13 0.690911 0.020013 0.010647
O O14 0.500000 0.500000 0.484274
#
# Coordination Sequence:
#
# PCOD9341959 Si02
#       8
#     4   2   2   2   4   4   4   4
#     4  12  25  43  55  79 125 168 198 236 305 380
#     4   8  16  32  54  87 118 155 184 254 310 354
#     4  12  24  36  64  90 120 154 206 266 300 352
#     4   8  16  30  54  83 124 143 186 248 322 346
#     4  10  19  35  57  92 116 155 196 260 304 360
#     4  10  20  35  60  89 124 151 205 254 310 357
#     4  12  26  40  60  91 128 169 203 256 311 376
#     4  12  24  39  61  85 119 162 202 249 300 362
#
# _framework density 20.927617999999999
#
# number of rings (size 3 to 8) (size 9 to 14) (size 15 to 20)
#    0.000    1.231    3.846    2.769    2.154    0.000 
#    0.000    0.000    0.000    0.923    0.000    2.154 
#    0.000    0.000    0.000    0.000    0.000    0.000 
#
# Total GULP energy -145065.809152 kJ/mol
# GULP energy per Si atom -5579.454198 kJ/mol
# Density = 2.087999 g / cm^3
# Si number density = 20.927618 Si / 1000 Ang^3
#
#
#
# Elastic Constant Matrix: (Units=GPa)
#
#
# Indices 1 2 3 4 5 6 
#
# 1 124.7998 -12.2393 17.3425 0.0000 0.0000 0.0000
# 2 -12.2393 94.2258 18.6284 0.0000 0.0000 0.0000
# 3 17.3425 18.6284 80.3346 0.0000 0.0000 0.0000
# 4 0.0000 0.0000 0.0000 23.4374 0.0000 0.0000
# 5 0.0000 0.0000 0.0000 0.0000 7.5858 0.0000
# 6 0.0000 0.0000 0.0000 0.0000 0.0000 23.2644
#
#
#
# Elastic Compliance Matrix: (Units=1/GPa)
#
#
# Indices 1 2 3 4 5 6 
#
# 1 0.008466 0.001531 -0.002183 0.000000 0.000000 0.000000
# 2 0.001531 0.011400 -0.002974 0.000000 0.000000 0.000000
# 3 -0.002183 -0.002974 0.013609 0.000000 0.000000 0.000000
# 4 0.000000 0.000000 0.000000 0.042667 0.000000 0.000000
# 5 0.000000 0.000000 0.000000 0.000000 0.131825 0.000000
# 6 0.000000 0.000000 0.000000 0.000000 0.000000 0.042984
#
#
# Mechanical properties :
#
#
# Convention : Reuss Voigt Hill
#
# Bulk Modulus (GPa) = 38.13332 38.53591 38.33462
# Shear Modulus (GPa) = 18.73057 29.23275 23.98166
#
# Velocity S-wave (km/s) = 2.99493 3.74150 3.38884
# Velocity P-wave (km/s) = 5.49732 6.09253 5.80257
#
# Compressibility (1/GPa) = 0.02622378
#
# Stress axis : x y z
#
# Youngs Moduli (GPa) = 118.11489 87.72190 73.48207
#
# Poissons Ratio (x) = -0.13432 0.16039
# Poissons Ratio (y) = -0.18086 0.21853
# Poissons Ratio (z) = 0.25782 0.26088
#
# Static dielectric constant tensor:
#      x y z
#    x 1.897370 0.000000 0.000000 
#    y 0.000000 1.778240 0.000000 
#    z 0.000000 0.000000 1.730680 
# 
# From -- ./inp_files/5622.got.cif
#   From: 2010.05.17/outbox.cif.g08.bks.cpg/sg30_3_cif.got.tgz:5622.got - 2010.06.03 17:03:02.
