data_PCOD9341856
_publ_section_title
;
Structure prediction by ZEFSAII (Michael W. Deem and Ramdas Pophale) SiO2 
 PCOD9341856
Probable space group: P N C 2
;
_chemical_formula_sum "Si O2"
_cell_formula_units_Z 30
_cell_length_a 19.622400
_cell_length_b 13.582490
_cell_length_c 4.877510
_cell_angle_alpha 90.000000
_cell_angle_beta 90.000000
_cell_angle_gamma 90.000000
_cell_volume 1299.959095
_symmetry_space_group_name_H-M "P N C 2"
_symmetry_group_IT_number 30
_symmetry_cell_setting 'orthorhombic'
loop_
_space_group_symop_operation_xyz
x,y,z
-x,-y,z
-x,1/2+y,1/2+z
x,1/2-y,1/2+z
loop_
_atom_site_type_symbol
_atom_site_label
_atom_site_fract_x
_atom_site_fract_y
_atom_site_fract_z
Si Si1 0.734301 0.819875 0.121130
Si Si2 0.170786 0.818189 0.987220
Si Si3 0.500000 0.500000 0.655172
Si Si4 0.684978 0.095159 0.913610
Si Si5 0.355437 0.018068 0.408825
Si Si6 0.121183 0.178358 0.003926
Si Si7 0.023463 0.679807 0.408786
Si Si8 0.453370 0.810042 0.819800
O O1 0.728816 0.724173 0.317723
O O2 0.680549 0.891735 0.257966
O O3 0.809207 0.872304 0.103545
O O4 0.172862 0.720141 0.797819
O O5 0.236614 0.877644 0.893680
O O6 0.097078 0.868671 0.948224
O O7 0.564783 0.520506 0.846929
O O8 0.515770 0.407420 0.456747
O O9 0.628357 0.174364 0.825534
O O10 0.665461 0.001871 0.720916
O O11 0.671169 0.074317 0.231937
O O12 0.123492 0.224979 0.700623
O O13 0.046813 0.128297 0.003109
O O14 0.022794 0.778478 0.599964
O O15 0.473069 0.781449 0.513921
#
# Coordination Sequence:
#
# PCOD9341856 Si02
#       8
#     4   4   2   4   4   4   4   4
#     4  10  20  36  59  85 109 142 193 245 294 356
#     4  10  18  30  52  80 110 144 188 236 275 332
#     4  10  26  44  62  90 124 156 204 264 316 380
#     4  11  22  38  57  83 117 153 194 238 294 369
#     4  11  24  40  59  81 115 155 190 244 315 369
#     4   8  14  26  46  74 106 135 174 228 278 332
#     4   8  14  24  42  73 106 137 174 222 277 322
#     4  11  23  40  64  89 117 158 201 248 311 373
#
# _framework density 23.077649999999998
#
# number of rings (size 3 to 8) (size 9 to 14) (size 15 to 20)
#    0.000    2.133    0.000    4.000    0.000    5.867 
#    0.000    0.000    0.000    0.800    0.000    1.867 
#    0.000    0.000    0.000    0.000    0.000    0.000 
#
# Total GULP energy -167309.060600 kJ/mol
# GULP energy per Si atom -5576.968687 kJ/mol
# Density = 2.302512 g / cm^3
# Si number density = 23.077650 Si / 1000 Ang^3
#
#
#
# Elastic Constant Matrix: (Units=GPa)
#
#
# Indices 1 2 3 4 5 6 
#
# 1 167.9569 40.1738 3.9702 0.0000 0.0000 0.0000
# 2 40.1738 47.4222 9.5155 0.0000 0.0000 0.0000
# 3 3.9702 9.5155 96.1510 0.0000 0.0000 0.0000
# 4 0.0000 0.0000 0.0000 21.9610 0.0000 0.0000
# 5 0.0000 0.0000 0.0000 0.0000 24.2254 0.0000
# 6 0.0000 0.0000 0.0000 0.0000 0.0000 12.0960
#
#
#
# Elastic Compliance Matrix: (Units=1/GPa)
#
#
# Indices 1 2 3 4 5 6 
#
# 1 0.007477 -0.006399 0.000325 0.000000 0.000000 0.000000
# 2 -0.006399 0.026991 -0.002407 0.000000 0.000000 0.000000
# 3 0.000325 -0.002407 0.010625 0.000000 0.000000 0.000000
# 4 0.000000 0.000000 0.000000 0.045535 0.000000 0.000000
# 5 0.000000 0.000000 0.000000 0.000000 0.041279 0.000000
# 6 0.000000 0.000000 0.000000 0.000000 0.000000 0.082672
#
#
# Mechanical properties :
#
#
# Convention : Reuss Voigt Hill
#
# Bulk Modulus (GPa) = 35.54913 46.53879 41.04396
# Shear Modulus (GPa) = 20.75388 28.84786 24.80087
#
# Velocity S-wave (km/s) = 3.00210 3.53942 3.28177
# Velocity P-wave (km/s) = 5.23969 6.07563 5.67308
#
# Compressibility (1/GPa) = 0.02813008
#
# Stress axis : x y z
#
# Youngs Moduli (GPa) = 133.74613 37.04916 94.11668
#
# Poissons Ratio (x) = 0.23708 -0.03055
# Poissons Ratio (y) = 0.85586 0.22653
# Poissons Ratio (z) = -0.04341 0.08918
#
# Static dielectric constant tensor:
#      x y z
#    x 1.955070 0.000000 0.000000 
#    y 0.000000 1.898810 0.000000 
#    z 0.000000 0.000000 1.806860 
# 
# From -- ./inp_files/1007.got.cif
#   From: 2010.05.17/outbox.cif.g08.bks.cpg/sg30_1_cif.got.tgz:1007.got - 2010.06.03 17:03:02.
