data_PCOD9341717
_publ_section_title
;
Structure prediction by ZEFSAII (Michael W. Deem and Ramdas Pophale) SiO2 
 PCOD9341717
Probable space group: P C A 21
;
_chemical_formula_sum "Si O2"
_cell_formula_units_Z 24
_cell_length_a 8.434808
_cell_length_b 13.467380
_cell_length_c 9.544409
_cell_angle_alpha 90.000000
_cell_angle_beta 90.000000
_cell_angle_gamma 90.000000
_cell_volume 1084.194893
_symmetry_space_group_name_H-M "P C A 21"
_symmetry_group_IT_number 29
_symmetry_cell_setting 'orthorhombic'
loop_
_space_group_symop_operation_xyz
x,y,z
-x,-y,1/2+z
1/2-x,y,1/2+z
1/2+x,-y,z
loop_
_atom_site_type_symbol
_atom_site_label
_atom_site_fract_x
_atom_site_fract_y
_atom_site_fract_z
Si Si1 0.553247 0.289310 0.737290
Si Si2 0.603728 0.909511 0.153927
Si Si3 0.578853 0.923811 0.829489
Si Si4 0.432432 0.424464 0.514932
Si Si5 0.569825 0.638626 0.511044
Si Si6 0.923173 0.283567 0.787359
O O1 0.484970 0.196018 0.653618
O O2 0.484805 0.389615 0.669209
O O3 0.485910 0.284321 0.894024
O O4 0.742106 0.290827 0.738649
O O5 0.768550 0.897764 0.235761
O O6 0.503695 0.985652 0.248741
O O7 0.621483 0.944721 0.992448
O O8 0.463406 0.828740 0.828765
O O9 0.462145 0.540382 0.497254
O O10 0.542323 0.360348 0.411730
O O11 0.251175 0.393482 0.491781
O O12 0.539203 0.684594 0.662145
#
# Coordination Sequence:
#
# PCOD9341717 Si02
#       6
#     4   4   4   4   4   4
#     4  12  26  45  71 104 144 188 241 296 362 434
#     4  12  27  48  76 108 148 191 244 301 368 441
#     4  12  27  48  76 108 148 191 244 301 368 441
#     4  12  24  48  65 106 139 190 244 298 366 426
#     4  12  26  42  75  98 145 190 240 302 358 436
#     4  12  26  45  71 104 144 188 241 296 362 434
#
# _framework density 22.136240999999998
#
# number of rings (size 3 to 8) (size 9 to 14) (size 15 to 20)
#    0.000    0.000    1.667    9.000    4.667    0.000 
#    0.000    0.000    0.000    0.000    0.000    0.000 
#    0.000    0.000    0.000    0.000    0.000    0.000 
#
# Total GULP energy -134489.098134 kJ/mol
# GULP energy per Si atom -5603.712422 kJ/mol
# Density = 2.208586 g / cm^3
# Si number density = 22.136241 Si / 1000 Ang^3
#
#
#
# Elastic Constant Matrix: (Units=GPa)
#
#
# Indices 1 2 3 4 5 6 
#
# 1 122.4892 9.2419 -1.8804 0.0000 0.0000 0.0000
# 2 9.2419 60.6204 14.7944 0.0000 0.0000 0.0000
# 3 -1.8804 14.7944 109.6618 0.0000 0.0000 0.0000
# 4 0.0000 0.0000 0.0000 41.9452 0.0000 0.0000
# 5 0.0000 0.0000 0.0000 0.0000 8.5950 0.0000
# 6 0.0000 0.0000 0.0000 0.0000 0.0000 22.0785
#
#
#
# Elastic Compliance Matrix: (Units=1/GPa)
#
#
# Indices 1 2 3 4 5 6 
#
# 1 0.008270 -0.001340 0.000323 0.000000 0.000000 0.000000
# 2 -0.001340 0.017275 -0.002353 0.000000 0.000000 0.000000
# 3 0.000323 -0.002353 0.009442 0.000000 0.000000 0.000000
# 4 0.000000 0.000000 0.000000 0.023841 0.000000 0.000000
# 5 0.000000 0.000000 0.000000 0.000000 0.116346 0.000000
# 6 0.000000 0.000000 0.000000 0.000000 0.000000 0.045293
#
#
# Mechanical properties :
#
#
# Convention : Reuss Voigt Hill
#
# Bulk Modulus (GPa) = 35.40359 37.45367 36.42863
# Shear Modulus (GPa) = 21.13068 32.56478 26.84773
#
# Velocity S-wave (km/s) = 3.09297 3.83966 3.48636
# Velocity P-wave (km/s) = 5.36503 6.05092 5.71827
#
# Compressibility (1/GPa) = 0.02824572
#
# Stress axis : x y z
#
# Youngs Moduli (GPa) = 120.91893 57.88820 105.90992
#
# Poissons Ratio (x) = 0.07754 -0.03416
# Poissons Ratio (y) = 0.16197 0.24926
# Poissons Ratio (z) = -0.03900 0.13624
#
# Static dielectric constant tensor:
#      x y z
#    x 1.789440 0.000000 0.000000 
#    y 0.000000 1.758510 0.000000 
#    z 0.000000 0.000000 1.808800 
# 
# From -- ./inp_files/1133.got.cif
#   From: 2010.05.17/outbox.cif.g08.bks.cpg/sg29_1_cif.got.tgz:1133.got - 2010.06.04 01:19:37.
