data_PCOD9341559
_publ_section_title
;
Structure prediction by ZEFSAII (Michael W. Deem and Ramdas Pophale) SiO2 
 PCOD9341559
Probable space group: P C A 21
;
_chemical_formula_sum "Si O2"
_cell_formula_units_Z 32
_cell_length_a 8.438263
_cell_length_b 11.747751
_cell_length_c 14.994912
_cell_angle_alpha 90.000000
_cell_angle_beta 90.000000
_cell_angle_gamma 90.000000
_cell_volume 1486.454812
_symmetry_space_group_name_H-M "P C A 21"
_symmetry_group_IT_number 29
_symmetry_cell_setting 'orthorhombic'
loop_
_space_group_symop_operation_xyz
x,y,z
-x,-y,1/2+z
1/2-x,y,1/2+z
1/2+x,-y,z
loop_
_atom_site_type_symbol
_atom_site_label
_atom_site_fract_x
_atom_site_fract_y
_atom_site_fract_z
Si Si1 0.421042 0.344307 0.966150
Si Si2 0.161900 0.035874 0.022499
Si Si3 0.602697 0.192542 0.114139
Si Si4 0.972619 0.251254 0.095613
Si Si5 0.426239 0.008881 0.893468
Si Si6 0.499266 0.784166 0.293254
Si Si7 0.880303 0.239591 0.816985
Si Si8 0.556608 0.588123 0.952208
O O1 0.417470 0.273218 0.875928
O O2 0.528255 0.454510 0.946111
O O3 0.239988 0.385016 0.972901
O O4 0.497232 0.267800 0.045423
O O5 0.114650 0.943679 0.096598
O O6 0.077359 0.154091 0.046332
O O7 0.105499 0.983736 0.928052
O O8 0.340341 0.047562 0.986449
O O9 0.788515 0.219457 0.099678
O O10 0.557932 0.224325 0.215561
O O11 0.037803 0.259182 0.195361
O O12 0.974510 0.366773 0.041498
O O13 0.432921 0.087545 0.806300
O O14 0.405116 0.877935 0.869501
O O15 0.311797 0.756521 0.307956
O O16 0.971946 0.339631 0.871609
#
# Coordination Sequence:
#
# PCOD9341559 Si02
#       8
#     4   4   4   4   4   4   4   4
#     4  12  26  46  70  94 126 171 220 277 337 397
#     4  12  21  39  66  96 137 180 219 263 323 384
#     4  11  24  43  67  97 135 176 220 271 329 393
#     4  11  24  42  66  99 135 175 221 273 329 392
#     4  12  21  39  66  96 137 180 219 263 323 384
#     4  11  24  42  66  99 135 175 221 273 329 392
#     4  11  24  43  67  97 135 176 220 271 329 393
#     4  12  26  46  70  94 126 171 220 277 337 397
#
# _framework density 21.527732
#
# number of rings (size 3 to 8) (size 9 to 14) (size 15 to 20)
#    0.000    0.500    5.000    3.750    0.000    2.000 
#    0.000    0.000    0.000    0.000    0.000    0.000 
#    0.000    0.000    0.000    0.000    0.000    0.000 
#
# Total GULP energy -178288.547903 kJ/mol
# GULP energy per Si atom -5571.517122 kJ/mol
# Density = 2.147873 g / cm^3
# Si number density = 21.527732 Si / 1000 Ang^3
#
#
#
# Elastic Constant Matrix: (Units=GPa)
#
#
# Indices 1 2 3 4 5 6 
#
# 1 51.1435 2.6372 -3.3824 0.0000 0.0000 0.0000
# 2 2.6372 75.9013 20.3028 0.0000 0.0000 0.0000
# 3 -3.3824 20.3028 106.7742 0.0000 0.0000 0.0000
# 4 0.0000 0.0000 0.0000 -14.8010 0.0000 0.0000
# 5 0.0000 0.0000 0.0000 0.0000 14.9966 0.0000
# 6 0.0000 0.0000 0.0000 0.0000 0.0000 35.6934
#
#
#
# Elastic Compliance Matrix: (Units=1/GPa)
#
#
# Indices 1 2 3 4 5 6 
#
# 1 0.019651 -0.000895 0.000793 0.000000 0.000000 0.000000
# 2 -0.000895 0.013922 -0.002676 0.000000 0.000000 0.000000
# 3 0.000793 -0.002676 0.009899 0.000000 0.000000 0.000000
# 4 0.000000 0.000000 0.000000 -0.067563 0.000000 0.000000
# 5 0.000000 0.000000 0.000000 0.000000 0.066682 0.000000
# 6 0.000000 0.000000 0.000000 0.000000 0.000000 0.028016
#
#
# Mechanical properties :
#
#
# Convention : Reuss Voigt Hill
#
# Bulk Modulus (GPa) = 26.37326 30.32603 28.34965
# Shear Modulus (GPa) = 56.30510 21.46191 38.88351
#
# Velocity S-wave (km/s) = 5.11971 3.16087 4.25456
# Velocity P-wave (km/s) = 6.87212 5.23822 6.11003
#
# Compressibility (1/GPa) = 0.03791719
#
# Stress axis : x y z
#
# Youngs Moduli (GPa) = 50.88701 71.82999 101.01615
#
# Poissons Ratio (x) = 0.06428 -0.08007
# Poissons Ratio (y) = 0.04554 0.27027
# Poissons Ratio (z) = -0.04034 0.19218
#
# Static dielectric constant tensor:
#      x y z
#    x 1.845170 0.000000 0.000000 
#    y 0.000000 2.105210 0.000000 
#    z 0.000000 0.000000 1.768320 
# 
# From -- ./inp_files/4341.got.cif
#   From: 2010.05.17/outbox.cif.g08.bks.cpg/sg29_3_cif.got.tgz:4341.got - 2010.06.04 01:19:37.
