data_PCOD9341561
_publ_section_title
;
Structure prediction by ZEFSAII (Michael W. Deem and Ramdas Pophale) SiO2 
 PCOD9341561
Probable space group: P C A 21
;
_chemical_formula_sum "Si O2"
_cell_formula_units_Z 32
_cell_length_a 13.659350
_cell_length_b 10.775163
_cell_length_c 8.568225
_cell_angle_alpha 90.000000
_cell_angle_beta 90.000000
_cell_angle_gamma 90.000000
_cell_volume 1261.086116
_symmetry_space_group_name_H-M "P C A 21"
_symmetry_group_IT_number 29
_symmetry_cell_setting 'orthorhombic'
loop_
_space_group_symop_operation_xyz
x,y,z
-x,-y,1/2+z
1/2-x,y,1/2+z
1/2+x,-y,z
loop_
_atom_site_type_symbol
_atom_site_label
_atom_site_fract_x
_atom_site_fract_y
_atom_site_fract_z
Si Si1 0.883607 0.600739 0.776650
Si Si2 0.830937 0.164269 0.926031
Si Si3 0.468489 0.953940 0.696678
Si Si4 0.825214 0.295997 0.256287
Si Si5 0.819690 0.735443 0.226949
Si Si6 0.941163 0.518625 0.114366
Si Si7 0.293390 0.079738 0.501244
Si Si8 0.008191 0.826073 0.892259
O O1 0.770334 0.635829 0.752375
O O2 0.948567 0.532495 0.643332
O O3 0.931408 0.735896 0.810891
O O4 0.908927 0.525201 0.934154
O O5 0.781797 0.271544 0.820451
O O6 0.929503 0.129085 0.837811
O O7 0.766188 0.037155 0.929525
O O8 0.838193 0.213631 0.100787
O O9 0.375140 0.019452 0.612811
O O10 0.529723 0.060683 0.777202
O O11 0.519424 0.882856 0.556787
O O12 0.869545 0.425558 0.205735
O O13 0.892467 0.251096 0.400710
O O14 0.913567 0.653463 0.181656
O O15 0.836521 0.825854 0.373237
O O16 0.776969 0.828855 0.097583
#
# Coordination Sequence:
#
# PCOD9341561 Si02
#       8
#     4   4   4   4   4   4   4   4
#     4  11  26  49  67 103 143 185 247 294 355 423
#     4  12  22  43  68 102 137 179 225 288 350 428
#     4  12  24  41  68 103 141 181 227 289 360 433
#     4  11  24  42  67  97 139 175 232 281 350 416
#     4  12  25  45  76 104 142 190 243 298 358 428
#     4  11  29  46  73 102 139 192 241 301 351 424
#     4  12  22  41  73 104 137 182 236 290 359 425
#     4  11  24  43  64 101 140 180 225 291 351 425
#
# _framework density 25.374952
#
# number of rings (size 3 to 8) (size 9 to 14) (size 15 to 20)
#    0.000    0.500    6.250    0.750    3.500    2.000 
#    2.250    0.000    0.000    0.000    0.000    0.000 
#    0.000    0.000    0.000    0.000    0.000    0.000 
#
# Total GULP energy -179228.984525 kJ/mol
# GULP energy per Si atom -5600.905766 kJ/mol
# Density = 2.531720 g / cm^3
# Si number density = 25.374952 Si / 1000 Ang^3
#
#
#
# Elastic Constant Matrix: (Units=GPa)
#
#
# Indices 1 2 3 4 5 6 
#
# 1 79.6490 33.6532 2.8404 0.0000 0.0000 0.0000
# 2 33.6532 81.6073 18.4600 0.0000 0.0000 0.0000
# 3 2.8404 18.4600 79.9679 0.0000 0.0000 0.0000
# 4 0.0000 0.0000 0.0000 47.5109 0.0000 0.0000
# 5 0.0000 0.0000 0.0000 0.0000 27.2894 0.0000
# 6 0.0000 0.0000 0.0000 0.0000 0.0000 35.5823
#
#
#
# Elastic Compliance Matrix: (Units=1/GPa)
#
#
# Indices 1 2 3 4 5 6 
#
# 1 0.015274 -0.006516 0.000962 0.000000 0.000000 0.000000
# 2 -0.006516 0.015709 -0.003395 0.000000 0.000000 0.000000
# 3 0.000962 -0.003395 0.013255 0.000000 0.000000 0.000000
# 4 0.000000 0.000000 0.000000 0.021048 0.000000 0.000000
# 5 0.000000 0.000000 0.000000 0.000000 0.036644 0.000000
# 6 0.000000 0.000000 0.000000 0.000000 0.000000 0.028104
#
#
# Mechanical properties :
#
#
# Convention : Reuss Voigt Hill
#
# Bulk Modulus (GPa) = 37.96692 39.01460 38.49076
# Shear Modulus (GPa) = 31.90574 34.49458 33.20016
#
# Velocity S-wave (km/s) = 3.54979 3.69100 3.62108
# Velocity P-wave (km/s) = 5.63881 5.79424 5.71705
#
# Compressibility (1/GPa) = 0.02633872
#
# Stress axis : x y z
#
# Youngs Moduli (GPa) = 65.47067 63.65816 75.44590
#
# Poissons Ratio (x) = 0.41481 -0.07256
# Poissons Ratio (y) = 0.42662 0.25613
# Poissons Ratio (z) = -0.06296 0.21611
#
# Static dielectric constant tensor:
#      x y z
#    x 2.013500 0.000000 0.000000 
#    y 0.000000 2.004690 0.000000 
#    z 0.000000 0.000000 2.027700 
# 
# From -- ./inp_files/1845.got.cif
#   From: 2010.05.17/outbox.cif.g08.bks.cpg/sg29_1_cif.got.tgz:1845.got - 2010.06.04 01:19:37.
