data_PCOD9341169
_publ_section_title
;
Structure prediction by ZEFSAII (Michael W. Deem and Ramdas Pophale) SiO2 
 PCOD9341169
Probable space group: P C A 21
;
_chemical_formula_sum "Si O2"
_cell_formula_units_Z 32
_cell_length_a 9.682931
_cell_length_b 13.486740
_cell_length_c 12.847507
_cell_angle_alpha 90.000000
_cell_angle_beta 90.000000
_cell_angle_gamma 90.000000
_cell_volume 1677.771007
_symmetry_space_group_name_H-M "P C A 21"
_symmetry_group_IT_number 29
_symmetry_cell_setting 'orthorhombic'
loop_
_space_group_symop_operation_xyz
x,y,z
-x,-y,1/2+z
1/2-x,y,1/2+z
1/2+x,-y,z
loop_
_atom_site_type_symbol
_atom_site_label
_atom_site_fract_x
_atom_site_fract_y
_atom_site_fract_z
Si Si1 0.276308 0.705405 0.265030
Si Si2 0.877755 0.487052 0.683878
Si Si3 0.223693 0.205405 0.190308
Si Si4 0.064903 0.838974 0.607710
Si Si5 0.355777 0.888045 0.873993
Si Si6 0.122244 0.012948 0.771460
Si Si7 0.644223 0.611955 0.581346
Si Si8 0.435096 0.338974 0.847628
O O1 0.203954 0.602894 0.237585
O O2 0.346262 0.751743 0.161446
O O3 0.172100 0.785871 0.312217
O O4 0.404134 0.691183 0.344372
O O5 0.777257 0.543375 0.603389
O O6 0.919184 0.567271 0.770901
O O7 0.012174 0.443819 0.628285
O O8 0.296047 0.102894 0.217754
O O9 0.327901 0.285871 0.143121
O O10 0.153739 0.251743 0.293892
O O11 0.095867 0.191183 0.110967
O O12 0.118558 0.864635 0.494120
O O13 0.080817 0.932728 0.684438
O O14 0.487825 0.943820 0.827053
O O15 0.222742 0.956625 0.851950
O O16 0.618558 0.635365 0.461218
#
# Coordination Sequence:
#
# PCOD9341169 Si02
#       8
#     4   4   4   4   4   4   4   4
#     4  10  23  45  62  95 134 163 213 269 313 379
#     4  11  23  45  64  99 128 165 216 265 317 380
#     4  10  23  45  62  95 134 163 213 269 313 379
#     4  10  24  43  65  94 134 165 210 272 314 381
#     4  11  25  39  70  96 124 177 211 257 328 380
#     4  11  23  45  64  99 128 165 216 265 317 380
#     4  11  25  39  70  96 124 177 211 257 328 380
#     4  10  24  43  65  94 134 165 210 272 314 381
#
# _framework density 19.072925999999999
#
# number of rings (size 3 to 8) (size 9 to 14) (size 15 to 20)
#    0.000    1.500    2.500    0.750    7.000    0.000 
#    0.000    0.000    0.000    0.000    0.000    0.000 
#    0.000    0.000    0.000    0.000    0.000    0.000 
#
# Total GULP energy -178910.332905 kJ/mol
# GULP energy per Si atom -5590.947903 kJ/mol
# Density = 1.902952 g / cm^3
# Si number density = 19.072926 Si / 1000 Ang^3
#
#
#
# Elastic Constant Matrix: (Units=GPa)
#
#
# Indices 1 2 3 4 5 6 
#
# 1 55.3689 5.8345 7.5296 0.0000 0.0000 0.0000
# 2 5.8345 74.4731 -13.3432 0.0000 0.0000 0.0000
# 3 7.5296 -13.3432 45.6567 0.0000 0.0000 0.0000
# 4 0.0000 0.0000 0.0000 16.2118 0.0000 0.0000
# 5 0.0000 0.0000 0.0000 0.0000 -99.0927 0.0000
# 6 0.0000 0.0000 0.0000 0.0000 0.0000 35.2459
#
#
#
# Elastic Compliance Matrix: (Units=1/GPa)
#
#
# Indices 1 2 3 4 5 6 
#
# 1 0.018793 -0.002140 -0.003725 0.000000 0.000000 0.000000
# 2 -0.002140 0.014413 0.004565 0.000000 0.000000 0.000000
# 3 -0.003725 0.004565 0.023851 0.000000 0.000000 0.000000
# 4 0.000000 0.000000 0.000000 0.061684 0.000000 0.000000
# 5 0.000000 0.000000 0.000000 0.000000 -0.010092 0.000000
# 6 0.000000 0.000000 0.000000 0.000000 0.000000 0.028372
#
#
# Mechanical properties :
#
#
# Convention : Reuss Voigt Hill
#
# Bulk Modulus (GPa) = 18.36249 19.50449 18.93349
# Shear Modulus (GPa) = 31.69128 2.17150 16.93139
#
# Velocity S-wave (km/s) = 4.08068 1.06817 2.98269
# Velocity P-wave (km/s) = 5.64367 3.43071 4.67016
#
# Compressibility (1/GPa) = 0.05445886
#
# Stress axis : x y z
#
# Youngs Moduli (GPa) = 53.21228 69.38068 41.92695
#
# Poissons Ratio (x) = 0.14845 0.15616
# Poissons Ratio (y) = 0.11385 -0.19140
# Poissons Ratio (z) = 0.19819 -0.31673
#
# Static dielectric constant tensor:
#      x y z
#    x 1.658240 0.000000 0.000000 
#    y 0.000000 1.645660 0.000000 
#    z 0.000000 0.000000 1.613540 
# 
# From -- ./inp_files/1819.got.cif
#   From: 2010.05.17/outbox.cif.g08.bks.cpg/sg29_1_cif.got.tgz:1819.got - 2010.06.04 01:19:37.
