data_PCOD9341073
_publ_section_title
;
Structure prediction by ZEFSAII (Michael W. Deem and Ramdas Pophale) SiO2 
 PCOD9341073
Probable space group: P C A 21
;
_chemical_formula_sum "Si O2"
_cell_formula_units_Z 32
_cell_length_a 8.889997
_cell_length_b 11.599307
_cell_length_c 14.614311
_cell_angle_alpha 90.000000
_cell_angle_beta 90.000000
_cell_angle_gamma 90.000000
_cell_volume 1506.995664
_symmetry_space_group_name_H-M "P C A 21"
_symmetry_group_IT_number 29
_symmetry_cell_setting 'orthorhombic'
loop_
_space_group_symop_operation_xyz
x,y,z
-x,-y,1/2+z
1/2-x,y,1/2+z
1/2+x,-y,z
loop_
_atom_site_type_symbol
_atom_site_label
_atom_site_fract_x
_atom_site_fract_y
_atom_site_fract_z
Si Si1 0.669567 0.161347 0.631700
Si Si2 0.494155 0.792631 0.841258
Si Si3 0.484088 0.733328 0.654222
Si Si4 0.269125 0.082625 0.100144
Si Si5 0.826604 0.582070 0.024850
Si Si6 0.022135 0.658108 0.523257
Si Si7 0.687483 0.790114 0.411512
Si Si8 0.469837 0.053641 0.769078
O O1 0.828460 0.222512 0.612307
O O2 0.550127 0.260335 0.609984
O O3 0.627205 0.104879 0.730178
O O4 0.671704 0.043942 0.573347
O O5 0.438131 0.713762 0.758693
O O6 0.444043 0.743801 0.938404
O O7 0.672773 0.772794 0.845272
O O8 0.468256 0.924719 0.810918
O O9 0.599038 0.841157 0.645014
O O10 0.575650 0.629446 0.610002
O O11 0.139392 0.065362 0.178052
O O12 0.244892 0.147992 0.003420
O O13 0.866490 0.449580 0.014922
O O14 0.647718 0.607822 0.028152
O O15 0.878925 0.668606 0.943970
O O16 0.576343 0.868388 0.354629
#
# Coordination Sequence:
#
# PCOD9341073 Si02
#       8
#     4   4   4   4   4   4   4   4
#     4  12  22  38  65  99 138 177 218 275 340 411
#     4  11  22  40  66 100 136 172 222 289 335 408
#     4  11  22  41  66  96 138 177 218 277 339 401
#     4  11  21  41  66  96 139 181 221 275 340 408
#     4  10  24  48  67  92 128 177 229 286 331 404
#     4  11  25  47  70  96 132 178 236 283 345 405
#     4  10  23  39  68  95 130 185 221 278 348 399
#     4  12  21  40  66 102 143 177 223 279 340 416
#
# _framework density 21.234300999999999
#
# number of rings (size 3 to 8) (size 9 to 14) (size 15 to 20)
#    0.000    1.000    3.750    3.750    0.000    2.000 
#    9.000    1.250    0.000    0.000    0.000    0.000 
#    0.000    0.000    0.000    0.000    0.000    0.000 
#
# Total GULP energy -178301.167671 kJ/mol
# GULP energy per Si atom -5571.911490 kJ/mol
# Density = 2.118597 g / cm^3
# Si number density = 21.234301 Si / 1000 Ang^3
#
#
#
# Elastic Constant Matrix: (Units=GPa)
#
#
# Indices 1 2 3 4 5 6 
#
# 1 50.1042 26.8746 10.7721 0.0000 0.0000 0.0000
# 2 26.8746 141.9370 50.1529 0.0000 0.0000 0.0000
# 3 10.7721 50.1529 48.7442 0.0000 0.0000 0.0000
# 4 0.0000 0.0000 0.0000 21.9989 0.0000 0.0000
# 5 0.0000 0.0000 0.0000 0.0000 27.2687 0.0000
# 6 0.0000 0.0000 0.0000 0.0000 0.0000 37.3591
#
#
#
# Elastic Compliance Matrix: (Units=1/GPa)
#
#
# Indices 1 2 3 4 5 6 
#
# 1 0.022240 -0.003888 -0.000915 0.000000 0.000000 0.000000
# 2 -0.003888 0.011750 -0.011230 0.000000 0.000000 0.000000
# 3 -0.000915 -0.011230 0.032272 0.000000 0.000000 0.000000
# 4 0.000000 0.000000 0.000000 0.045457 0.000000 0.000000
# 5 0.000000 0.000000 0.000000 0.000000 0.036672 0.000000
# 6 0.000000 0.000000 0.000000 0.000000 0.000000 0.026767
#
#
# Mechanical properties :
#
#
# Convention : Reuss Voigt Hill
#
# Bulk Modulus (GPa) = 29.24250 46.26497 37.75373
# Shear Modulus (GPa) = 22.87051 27.52440 25.19746
#
# Velocity S-wave (km/s) = 3.28541 3.60422 3.44850
# Velocity P-wave (km/s) = 5.30972 6.25745 5.80296
#
# Compressibility (1/GPa) = 0.03419680
#
# Stress axis : x y z
#
# Youngs Moduli (GPa) = 44.96318 85.10949 30.98664
#
# Poissons Ratio (x) = 0.33089 0.02835
# Poissons Ratio (y) = 0.17481 0.34798
# Poissons Ratio (z) = 0.04113 0.95578
#
# Static dielectric constant tensor:
#      x y z
#    x 1.858450 0.000000 0.000000 
#    y 0.000000 1.777700 0.000000 
#    z 0.000000 0.000000 1.832760 
# 
# From -- ./inp_files/4303.got.cif
#   From: 2010.05.17/outbox.cif.g08.bks.cpg/sg29_3_cif.got.tgz:4303.got - 2010.06.04 01:19:37.
