data_PCOD9341329
_publ_section_title
;
Structure prediction by ZEFSAII (Michael W. Deem and Ramdas Pophale) SiO2 
 PCOD9341329
Probable space group: P C A 21
;
_chemical_formula_sum "Si O2"
_cell_formula_units_Z 20
_cell_length_a 9.336039
_cell_length_b 9.208099
_cell_length_c 8.232728
_cell_angle_alpha 90.000000
_cell_angle_beta 90.000000
_cell_angle_gamma 90.000000
_cell_volume 707.744339
_symmetry_space_group_name_H-M "P C A 21"
_symmetry_group_IT_number 29
_symmetry_cell_setting 'orthorhombic'
loop_
_space_group_symop_operation_xyz
x,y,z
-x,-y,1/2+z
1/2-x,y,1/2+z
1/2+x,-y,z
loop_
_atom_site_type_symbol
_atom_site_label
_atom_site_fract_x
_atom_site_fract_y
_atom_site_fract_z
Si Si1 0.211572 0.571540 0.716410
Si Si2 0.279060 0.945836 0.107391
Si Si3 0.058888 0.789436 0.905834
Si Si4 0.064492 0.728239 0.413201
Si Si5 0.754612 0.754575 0.282651
O O1 0.121839 0.626259 0.875999
O O2 0.119109 0.631005 0.565250
O O3 0.362980 0.648529 0.759332
O O4 0.241340 0.403084 0.700537
O O5 0.391719 0.225212 0.881097
O O6 0.123922 0.877597 0.057980
O O7 0.369661 0.888105 0.951526
O O8 0.263151 0.109492 0.162017
O O9 0.129249 0.873924 0.752703
O O10 0.898297 0.749261 0.389299
#
# Coordination Sequence:
#
# PCOD9341329 Si02
#       5
#     4   4   4   4   4
#     4  10  24  51  84 122 164 210 276 355 432 514
#     4  10  26  51  75 113 165 214 272 348 424 504
#     4  10  25  52  80 113 162 212 272 347 421 499
#     4  10  25  52  81 118 169 220 278 354 432 510
#     4  12  26  50  88 122 160 226 290 346 429 517
#
# _framework density 28.258789
#
# number of rings (size 3 to 8) (size 9 to 14) (size 15 to 20)
#    0.000    1.600    0.000    1.200    0.000   16.000 
#    0.000   46.000    0.000    0.000    0.000    0.000 
#    0.000    0.000    0.000    0.000    0.000    0.000 
#
# Total GULP energy -112069.748440 kJ/mol
# GULP energy per Si atom -5603.487422 kJ/mol
# Density = 2.819447 g / cm^3
# Si number density = 28.258789 Si / 1000 Ang^3
#
#
#
# Elastic Constant Matrix: (Units=GPa)
#
#
# Indices 1 2 3 4 5 6 
#
# 1 303.1804 108.5896 85.3025 0.0000 0.0000 0.0000
# 2 108.5896 283.5024 96.0024 0.0000 0.0000 0.0000
# 3 85.3025 96.0024 132.0441 0.0000 0.0000 0.0000
# 4 0.0000 0.0000 0.0000 51.4971 0.0000 0.0000
# 5 0.0000 0.0000 0.0000 0.0000 48.5725 0.0000
# 6 0.0000 0.0000 0.0000 0.0000 0.0000 29.3224
#
#
#
# Elastic Compliance Matrix: (Units=1/GPa)
#
#
# Indices 1 2 3 4 5 6 
#
# 1 0.004203 -0.000916 -0.002049 0.000000 0.000000 0.000000
# 2 -0.000916 0.004879 -0.002956 0.000000 0.000000 0.000000
# 3 -0.002049 -0.002956 0.011046 0.000000 0.000000 0.000000
# 4 0.000000 0.000000 0.000000 0.019419 0.000000 0.000000
# 5 0.000000 0.000000 0.000000 0.000000 0.020588 0.000000
# 6 0.000000 0.000000 0.000000 0.000000 0.000000 0.034104
#
#
# Mechanical properties :
#
#
# Convention : Reuss Voigt Hill
#
# Bulk Modulus (GPa) = 120.67981 144.27953 132.47967
# Shear Modulus (GPa) = 45.93835 54.46723 50.20279
#
# Velocity S-wave (km/s) = 4.03628 4.39503 4.21947
# Velocity P-wave (km/s) = 8.03244 8.77054 8.40959
#
# Compressibility (1/GPa) = 0.00828639
#
# Stress axis : x y z
#
# Youngs Moduli (GPa) = 237.92493 204.96150 90.53114
#
# Poissons Ratio (x) = 0.18773 0.18552
# Poissons Ratio (y) = 0.21792 0.26757
# Poissons Ratio (z) = 0.48758 0.60577
#
# Static dielectric constant tensor:
#      x y z
#    x 2.198700 0.000000 0.000000 
#    y 0.000000 2.268610 0.000000 
#    z 0.000000 0.000000 2.331040 
# 
# From -- ./inp_files/1332.got.cif
#   From: 2010.05.17/outbox.cif.g08.bks.cpg/sg29_1_cif.got.tgz:1332.got - 2010.06.04 01:19:37.
