data_PCOD9341651
_publ_section_title
;
Structure prediction by ZEFSAII (Michael W. Deem and Ramdas Pophale) SiO2 
 PCOD9341651
Probable space group: P C A 21
;
_chemical_formula_sum "Si O2"
_cell_formula_units_Z 24
_cell_length_a 10.715241
_cell_length_b 6.710858
_cell_length_c 13.455046
_cell_angle_alpha 90.000000
_cell_angle_beta 90.000000
_cell_angle_gamma 90.000000
_cell_volume 967.531648
_symmetry_space_group_name_H-M "P C A 21"
_symmetry_group_IT_number 29
_symmetry_cell_setting 'orthorhombic'
loop_
_space_group_symop_operation_xyz
x,y,z
-x,-y,1/2+z
1/2-x,y,1/2+z
1/2+x,-y,z
loop_
_atom_site_type_symbol
_atom_site_label
_atom_site_fract_x
_atom_site_fract_y
_atom_site_fract_z
Si Si1 0.620293 0.950771 0.797520
Si Si2 0.563564 0.607423 0.556467
Si Si3 0.039183 0.269517 0.181951
Si Si4 0.761689 0.944705 0.114908
Si Si5 0.673943 0.224039 0.960749
Si Si6 0.781069 0.575812 0.850805
O O1 0.738585 0.017321 0.728580
O O2 0.665762 0.725820 0.826404
O O3 0.515659 0.074324 0.736079
O O4 0.603087 0.048906 0.904632
O O5 0.558657 0.414429 0.627081
O O6 0.622551 0.793164 0.614274
O O7 0.421361 0.650480 0.526475
O O8 0.645024 0.608395 0.455286
O O9 0.137715 0.185346 0.102052
O O10 0.119316 0.395741 0.262504
O O11 0.770306 0.113198 0.032704
O O12 0.727236 0.358901 0.872900
#
# Coordination Sequence:
#
# PCOD9341651 Si02
#       6
#     4   4   4   4   4   4
#     4  11  25  48  74 109 150 198 256 317 390 464
#     4  12  25  48  76 111 151 202 260 319 398 468
#     4  11  26  48  78 113 155 203 259 328 390 475
#     4  11  26  49  74 110 154 200 263 323 395 466
#     4  12  26  47  77 110 151 202 249 325 389 476
#     4  11  26  48  75 113 151 199 261 316 396 473
#
# _framework density 24.805388000000001
#
# number of rings (size 3 to 8) (size 9 to 14) (size 15 to 20)
#    0.000    0.667    3.333    3.000    7.000    0.000 
#    9.000    0.000    0.000    0.000    0.000    0.000 
#    0.000    0.000    0.000    0.000    0.000    0.000 
#
# Total GULP energy -133847.082640 kJ/mol
# GULP energy per Si atom -5576.961777 kJ/mol
# Density = 2.474893 g / cm^3
# Si number density = 24.805388 Si / 1000 Ang^3
#
#
#
# Elastic Constant Matrix: (Units=GPa)
#
#
# Indices 1 2 3 4 5 6 
#
# 1 77.8312 58.0458 22.8510 0.0000 0.0000 0.0000
# 2 58.0458 124.9113 75.3088 0.0000 0.0000 0.0000
# 3 22.8510 75.3088 115.9323 0.0000 0.0000 0.0000
# 4 0.0000 0.0000 0.0000 55.4638 0.0000 0.0000
# 5 0.0000 0.0000 0.0000 0.0000 37.3057 0.0000
# 6 0.0000 0.0000 0.0000 0.0000 0.0000 27.5062
#
#
#
# Elastic Compliance Matrix: (Units=1/GPa)
#
#
# Indices 1 2 3 4 5 6 
#
# 1 0.020506 -0.011658 0.003531 0.000000 0.000000 0.000000
# 2 -0.011658 0.019787 -0.010556 0.000000 0.000000 0.000000
# 3 0.003531 -0.010556 0.014787 0.000000 0.000000 0.000000
# 4 0.000000 0.000000 0.000000 0.018030 0.000000 0.000000
# 5 0.000000 0.000000 0.000000 0.000000 0.026806 0.000000
# 6 0.000000 0.000000 0.000000 0.000000 0.000000 0.036355
#
#
# Mechanical properties :
#
#
# Convention : Reuss Voigt Hill
#
# Bulk Modulus (GPa) = 56.45077 70.12069 63.28573
# Shear Modulus (GPa) = 27.84886 34.88641 31.36764
#
# Velocity S-wave (km/s) = 3.35430 3.75427 3.55991
# Velocity P-wave (km/s) = 6.14887 6.86458 6.51656
#
# Compressibility (1/GPa) = 0.01771455
#
# Stress axis : x y z
#
# Youngs Moduli (GPa) = 48.76626 50.53799 67.62857
#
# Poissons Ratio (x) = 0.58917 -0.23880
# Poissons Ratio (y) = 0.56851 0.71387
# Poissons Ratio (z) = -0.17220 0.53346
#
# Static dielectric constant tensor:
#      x y z
#    x 2.030070 0.000000 0.000000 
#    y 0.000000 2.045940 0.000000 
#    z 0.000000 0.000000 2.054130 
# 
# From -- ./inp_files/4465.got.cif
#   From: 2010.05.17/outbox.cif.g08.bks.cpg/sg29_3_cif.got.tgz:4465.got - 2010.06.04 01:19:37.
