data_PCOD9341996
_publ_section_title
;
Structure prediction by ZEFSAII (Michael W. Deem and Ramdas Pophale) SiO2 
 PCOD9341996
Probable space group: P N C 2
;
_chemical_formula_sum "Si O2"
_cell_formula_units_Z 24
_cell_length_a 13.799571
_cell_length_b 10.628853
_cell_length_c 7.982775
_cell_angle_alpha 90.000000
_cell_angle_beta 90.000000
_cell_angle_gamma 90.000000
_cell_volume 1170.862440
_symmetry_space_group_name_H-M "P N C 2"
_symmetry_group_IT_number 30
_symmetry_cell_setting 'orthorhombic'
loop_
_space_group_symop_operation_xyz
x,y,z
-x,-y,z
-x,1/2+y,1/2+z
x,1/2-y,1/2+z
loop_
_atom_site_type_symbol
_atom_site_label
_atom_site_fract_x
_atom_site_fract_y
_atom_site_fract_z
Si Si1 0.287554 0.925833 0.935960
Si Si2 0.898503 0.931700 0.060105
Si Si3 0.181189 0.181019 0.386236
Si Si4 0.372709 0.747348 0.195392
Si Si5 0.685852 0.858502 0.677938
Si Si6 0.499944 0.863096 0.446682
O O1 0.287929 0.806512 0.810483
O O2 0.331270 0.039293 0.824280
O O3 0.346885 0.873404 0.095188
O O4 0.185515 0.974719 0.998727
O O5 0.881025 0.898880 0.255659
O O6 0.878399 0.801279 0.958263
O O7 0.000000 0.000000 0.031889
O O8 0.227461 0.109620 0.545671
O O9 0.270957 0.236652 0.274495
O O10 0.468781 0.764542 0.307814
O O11 0.405057 0.641740 0.064681
O O12 0.593705 0.838420 0.558241
O O13 0.500000 0.000000 0.368347
#
# Coordination Sequence:
#
# PCOD9341996 Si02
#       6
#     4   4   4   4   4   4
#     4  10  22  39  61  82 124 157 197 250 306 353
#     4  10  22  41  64  93 117 155 199 247 302 364
#     4   9  21  39  64  89 123 152 201 243 301 357
#     4  10  23  40  54  89 121 159 202 247 298 352
#     4  10  19  39  60  88 118 162 197 248 292 348
#     4  11  21  37  58  85 120 159 207 242 287 353
#
# _framework density 20.497712
#
# number of rings (size 3 to 8) (size 9 to 14) (size 15 to 20)
#    0.000    2.000    1.667    1.000    2.333    1.333 
#    9.000    7.500    0.000    0.000    0.000    0.000 
#    0.000    0.000    0.000    0.000    0.000    0.000 
#
# Total GULP energy -133691.289367 kJ/mol
# GULP energy per Si atom -5570.470390 kJ/mol
# Density = 2.045106 g / cm^3
# Si number density = 20.497712 Si / 1000 Ang^3
#
#
#
# Elastic Constant Matrix: (Units=GPa)
#
#
# Indices 1 2 3 4 5 6 
#
# 1 94.2179 36.6918 42.6331 0.0000 0.0000 0.0000
# 2 36.6918 59.2920 32.4604 0.0000 0.0000 0.0000
# 3 42.6331 32.4604 98.8677 0.0000 0.0000 0.0000
# 4 0.0000 0.0000 0.0000 13.8937 0.0000 0.0000
# 5 0.0000 0.0000 0.0000 0.0000 26.4912 0.0000
# 6 0.0000 0.0000 0.0000 0.0000 0.0000 15.4265
#
#
#
# Elastic Compliance Matrix: (Units=1/GPa)
#
#
# Indices 1 2 3 4 5 6 
#
# 1 0.015327 -0.007152 -0.004261 0.000000 0.000000 0.000000
# 2 -0.007152 0.023899 -0.004762 0.000000 0.000000 0.000000
# 3 -0.004261 -0.004762 0.013516 0.000000 0.000000 0.000000
# 4 0.000000 0.000000 0.000000 0.071975 0.000000 0.000000
# 5 0.000000 0.000000 0.000000 0.000000 0.037748 0.000000
# 6 0.000000 0.000000 0.000000 0.000000 0.000000 0.064824
#
#
# Mechanical properties :
#
#
# Convention : Reuss Voigt Hill
#
# Bulk Modulus (GPa) = 49.04277 52.88311 50.96294
# Shear Modulus (GPa) = 18.76619 20.53509 19.65064
#
# Velocity S-wave (km/s) = 3.02905 3.16859 3.09961
# Velocity P-wave (km/s) = 6.01759 6.26436 6.14221
#
# Compressibility (1/GPa) = 0.02039036
#
# Stress axis : x y z
#
# Youngs Moduli (GPa) = 65.24397 41.84290 73.98877
#
# Poissons Ratio (x) = 0.29926 0.31527
# Poissons Ratio (y) = 0.46663 0.35237
# Poissons Ratio (z) = 0.27801 0.19927
#
# Static dielectric constant tensor:
#      x y z
#    x 1.717700 0.000000 0.000000 
#    y 0.000000 1.759280 0.000000 
#    z 0.000000 0.000000 1.795300 
# 
# From -- ./inp_files/2356.got.cif
#   From: 2010.05.17/outbox.cif.g08.bks.cpg/sg30_2_cif.got.tgz:2356.got - 2010.06.03 17:03:02.
