data_PCOD9341253
_publ_section_title
;
Structure prediction by ZEFSAII (Michael W. Deem and Ramdas Pophale) SiO2 
 PCOD9341253
Probable space group: P C A 21
;
_chemical_formula_sum "Si O2"
_cell_formula_units_Z 28
_cell_length_a 9.184664
_cell_length_b 14.591922
_cell_length_c 8.520329
_cell_angle_alpha 90.000000
_cell_angle_beta 90.000000
_cell_angle_gamma 90.000000
_cell_volume 1141.910687
_symmetry_space_group_name_H-M "P C A 21"
_symmetry_group_IT_number 29
_symmetry_cell_setting 'orthorhombic'
loop_
_space_group_symop_operation_xyz
x,y,z
-x,-y,1/2+z
1/2-x,y,1/2+z
1/2+x,-y,z
loop_
_atom_site_type_symbol
_atom_site_label
_atom_site_fract_x
_atom_site_fract_y
_atom_site_fract_z
Si Si1 0.536955 0.200880 0.202620
Si Si2 0.338805 0.045599 0.063746
Si Si3 0.463045 0.700880 0.235829
Si Si4 0.281665 0.750000 0.969225
Si Si5 0.548296 0.586829 0.720999
Si Si6 0.661195 0.545599 0.374703
Si Si7 0.451704 0.086829 0.717451
O O1 0.414535 0.131855 0.150553
O O2 0.612527 0.185419 0.369676
O O3 0.475772 0.304473 0.204686
O O4 0.671431 0.197056 0.081996
O O5 0.167691 0.059153 0.087322
O O6 0.399754 0.959754 0.160997
O O7 0.391860 0.049735 0.884057
O O8 0.328569 0.697056 0.356453
O O9 0.585465 0.631856 0.287897
O O10 0.524228 0.804473 0.233763
O O11 0.387473 0.685419 0.068773
O O12 0.608140 0.549735 0.554392
O O13 0.399754 0.540246 0.777453
O O14 0.667691 0.559153 0.851128
#
# Coordination Sequence:
#
# PCOD9341253 Si02
#       7
#     4   4   4   4   4   4   4
#     4  11  25  46  73 100 145 181 234 281 354 404
#     4  12  28  47  72 104 141 184 234 288 348 414
#     4  11  25  46  73 100 145 181 234 281 354 404
#     4  10  24  42  78 104 132 184 236 286 344 414
#     4  12  28  47  72 104 141 184 234 288 348 414
#     4  12  28  47  72 104 141 184 234 288 348 414
#     4  12  28  47  72 104 141 184 234 288 348 414
#
# _framework density 24.520309000000001
#
# number of rings (size 3 to 8) (size 9 to 14) (size 15 to 20)
#    0.000    0.571    2.857    2.571   16.000    0.000 
#    0.000    0.000    0.000    0.000    0.000    0.000 
#    0.000    0.000    0.000    0.000    0.000    0.000 
#
# Total GULP energy -157038.738412 kJ/mol
# GULP energy per Si atom -5608.526372 kJ/mol
# Density = 2.446450 g / cm^3
# Si number density = 24.520309 Si / 1000 Ang^3
#
#
#
# Elastic Constant Matrix: (Units=GPa)
#
#
# Indices 1 2 3 4 5 6 
#
# 1 100.6115 14.1472 11.5719 0.0000 0.0000 0.0000
# 2 14.1472 109.5220 2.3066 0.0000 0.0000 0.0000
# 3 11.5719 2.3066 107.4291 0.0000 0.0000 0.0000
# 4 0.0000 0.0000 0.0000 21.7049 0.0000 0.0000
# 5 0.0000 0.0000 0.0000 0.0000 27.4534 0.0000
# 6 0.0000 0.0000 0.0000 0.0000 0.0000 29.2556
#
#
#
# Elastic Compliance Matrix: (Units=1/GPa)
#
#
# Indices 1 2 3 4 5 6 
#
# 1 0.010246 -0.001301 -0.001076 0.000000 0.000000 0.000000
# 2 -0.001301 0.009300 -0.000060 0.000000 0.000000 0.000000
# 3 -0.001076 -0.000060 0.009426 0.000000 0.000000 0.000000
# 4 0.000000 0.000000 0.000000 0.046072 0.000000 0.000000
# 5 0.000000 0.000000 0.000000 0.000000 0.036425 0.000000
# 6 0.000000 0.000000 0.000000 0.000000 0.000000 0.034181
#
#
# Mechanical properties :
#
#
# Convention : Reuss Voigt Hill
#
# Bulk Modulus (GPa) = 41.49525 41.51267 41.50396
# Shear Modulus (GPa) = 31.53462 34.98524 33.25993
#
# Velocity S-wave (km/s) = 3.59006 3.78138 3.68696
# Velocity P-wave (km/s) = 5.84331 6.00265 5.92351
#
# Compressibility (1/GPa) = 0.02409914
#
# Stress axis : x y z
#
# Youngs Moduli (GPa) = 97.60039 107.52837 106.09384
#
# Poissons Ratio (x) = 0.13988 0.11413
# Poissons Ratio (y) = 0.12696 0.00632
# Poissons Ratio (z) = 0.10499 0.00640
#
# Static dielectric constant tensor:
#      x y z
#    x 1.866330 0.000000 0.000000 
#    y 0.000000 1.936620 0.000000 
#    z 0.000000 0.000000 1.975710 
# 
# From -- ./inp_files/1196.got.cif
#   From: 2010.05.17/outbox.cif.g08.bks.cpg/sg29_1_cif.got.tgz:1196.got - 2010.06.04 01:19:37.
