data_PCOD9341447
_publ_section_title
;
Structure prediction by ZEFSAII (Michael W. Deem and Ramdas Pophale) SiO2 
 PCOD9341447
Probable space group: P C A 21
;
_chemical_formula_sum "Si O2"
_cell_formula_units_Z 32
_cell_length_a 34.416010
_cell_length_b 7.144266
_cell_length_c 4.996473
_cell_angle_alpha 90.000000
_cell_angle_beta 90.000000
_cell_angle_gamma 90.000000
_cell_volume 1228.518442
_symmetry_space_group_name_H-M "P C A 21"
_symmetry_group_IT_number 29
_symmetry_cell_setting 'orthorhombic'
loop_
_space_group_symop_operation_xyz
x,y,z
-x,-y,1/2+z
1/2-x,y,1/2+z
1/2+x,-y,z
loop_
_atom_site_type_symbol
_atom_site_label
_atom_site_fract_x
_atom_site_fract_y
_atom_site_fract_z
Si Si1 0.642314 0.554594 0.139170
Si Si2 0.771819 0.132615 0.881983
Si Si3 0.596093 0.528398 0.642138
Si Si4 0.895895 0.074757 0.106471
Si Si5 0.977310 0.460751 0.471024
Si Si6 0.149296 0.898974 0.110352
Si Si7 0.774133 0.586772 0.852339
Si Si8 0.476046 0.957429 0.329580
O O1 0.607619 0.595509 0.347842
O O2 0.646990 0.327930 0.124157
O O3 0.682875 0.633281 0.248377
O O4 0.629987 0.601510 0.839143
O O5 0.736211 0.082651 0.686744
O O6 0.809972 0.053578 0.743966
O O7 0.774538 0.358997 0.869749
O O8 0.597524 0.300532 0.616674
O O9 0.556655 0.562185 0.806312
O O10 0.860661 0.042126 0.311583
O O11 0.934894 0.978490 0.211592
O O12 0.884245 0.027305 0.806727
O O13 0.968472 0.240962 0.471112
O O14 0.985628 0.515711 0.774617
O O15 0.741289 0.646919 0.640382
O O16 0.496957 0.071253 0.566072
#
# Coordination Sequence:
#
# PCOD9341447 Si02
#       8
#     4   4   4   4   4   4   4   4
#     4   9  15  24  37  54  79 113 155 199 238 281
#     4   9  15  21  30  47  73 107 149 193 232 275
#     4   9  17  28  43  62  85 117 159 203 242 291
#     4   9  17  28  43  62  85 117 159 203 242 291
#     4  11  22  37  56  79 106 137 177 221 266 315
#     4   9  15  24  37  54  79 113 155 199 238 281
#     4   9  15  21  30  47  73 107 149 193 232 275
#     4  11  22  37  56  79 106 137 177 221 266 315
#
# _framework density 26.047636000000001
#
# number of rings (size 3 to 8) (size 9 to 14) (size 15 to 20)
#    0.000    2.500    0.000    3.750    0.000   10.000 
#    0.000    0.000    0.000    0.000    0.000    0.000 
#    0.000    0.000    0.000    0.000    0.000  315.000 
#
# Total GULP energy -179041.337277 kJ/mol
# GULP energy per Si atom -5595.041790 kJ/mol
# Density = 2.598835 g / cm^3
# Si number density = 26.047636 Si / 1000 Ang^3
#
#
#
# Elastic Constant Matrix: (Units=GPa)
#
#
# Indices 1 2 3 4 5 6 
#
# 1 64.3137 -23.2849 -14.8313 0.0000 0.0000 0.0000
# 2 -23.2849 78.4320 -16.3899 0.0000 0.0000 0.0000
# 3 -14.8313 -16.3899 110.6727 0.0000 0.0000 0.0000
# 4 0.0000 0.0000 0.0000 -42.0904 0.0000 0.0000
# 5 0.0000 0.0000 0.0000 0.0000 34.8472 0.0000
# 6 0.0000 0.0000 0.0000 0.0000 0.0000 -11.5709
#
#
#
# Elastic Compliance Matrix: (Units=1/GPa)
#
#
# Indices 1 2 3 4 5 6 
#
# 1 0.018593 0.006234 0.003415 0.000000 0.000000 0.000000
# 2 0.006234 0.015247 0.003093 0.000000 0.000000 0.000000
# 3 0.003415 0.003093 0.009951 0.000000 0.000000 0.000000
# 4 0.000000 0.000000 0.000000 -0.023758 0.000000 0.000000
# 5 0.000000 0.000000 0.000000 0.000000 0.028697 0.000000
# 6 0.000000 0.000000 0.000000 0.000000 0.000000 -0.086424
#
#
# Mechanical properties :
#
#
# Convention : Reuss Voigt Hill
#
# Bulk Modulus (GPa) = 14.43527 16.04513 15.24020
# Shear Modulus (GPa) = -124.73196 16.76549 -53.98323
#
# Velocity S-wave (km/s) = -6.92749 2.53977 -4.55739
# Velocity P-wave (km/s) = 7.64414 3.84368 4.67220
#
# Compressibility (1/GPa) = 0.06927478
#
# Stress axis : x y z
#
# Youngs Moduli (GPa) = 53.78328 65.58702 100.48863
#
# Poissons Ratio (x) = -0.40884 -0.34315
# Poissons Ratio (y) = -0.33526 -0.31084
# Poissons Ratio (z) = -0.18366 -0.20288
#
# Static dielectric constant tensor:
#      x y z
#    x 2.060810 0.000000 0.000000 
#    y 0.000000 2.086870 0.000000 
#    z 0.000000 0.000000 1.914200 
# 
# From -- ./inp_files/930.got.cif
#   From: 2010.05.17/outbox.cif.g08.bks.cpg/sg29_1_cif.got.tgz:930.got - 2010.06.04 01:19:37.
