data_PCOD9341799
_publ_section_title
;
Structure prediction by ZEFSAII (Michael W. Deem and Ramdas Pophale) SiO2 
 PCOD9341799
Probable space group: P N C 2
;
_chemical_formula_sum "Si O2"
_cell_formula_units_Z 32
_cell_length_a 17.217683
_cell_length_b 16.993883
_cell_length_c 5.328376
_cell_angle_alpha 90.000000
_cell_angle_beta 90.000000
_cell_angle_gamma 90.000000
_cell_volume 1559.057723
_symmetry_space_group_name_H-M "P N C 2"
_symmetry_group_IT_number 30
_symmetry_cell_setting 'orthorhombic'
loop_
_space_group_symop_operation_xyz
x,y,z
-x,-y,z
-x,1/2+y,1/2+z
x,1/2-y,1/2+z
loop_
_atom_site_type_symbol
_atom_site_label
_atom_site_fract_x
_atom_site_fract_y
_atom_site_fract_z
Si Si1 0.474000 0.303399 0.551200
Si Si2 0.133502 0.301765 0.580716
Si Si3 0.086824 0.530825 0.949597
Si Si4 0.706624 0.169751 0.623820
Si Si5 0.110735 0.705448 0.102870
Si Si6 0.641866 0.347184 0.622900
Si Si7 0.308444 0.299807 0.639321
Si Si8 0.087255 0.030833 0.950922
O O1 0.477667 0.260483 0.280008
O O2 0.550269 0.356062 0.585460
O O3 0.389490 0.343359 0.583623
O O4 0.121686 0.244271 0.342036
O O5 0.222976 0.333126 0.589129
O O6 0.083704 0.379374 0.538276
O O7 0.079963 0.619992 0.036579
O O8 0.125104 0.482142 0.177732
O O9 0.000000 0.500000 0.906630
O O10 0.125085 0.519018 0.677391
O O11 0.795781 0.194493 0.597959
O O12 0.659189 0.252341 0.635900
O O13 0.675962 0.123219 0.383760
O O14 0.689357 0.125657 0.881348
O O15 0.088278 0.736255 0.376964
O O16 0.310878 0.229978 0.427705
O O17 0.000000 0.000000 0.908781
#
# Coordination Sequence:
#
# PCOD9341799 Si02
#       8
#     4   4   4   4   4   4   4   4
#     4  10  14  20  34  55  94 143 157 186 251 324
#     4  10  19  35  58  85 107 139 178 231 270 312
#     4  10  23  42  57  78 111 143 175 221 267 329
#     4  10  16  25  39  66  97 130 163 208 255 306
#     4  12  21  35  57  81 106 141 179 227 267 314
#     4  10  14  23  36  61 100 135 156 196 263 312
#     4   8  16  25  39  67 101 131 166 209 251 307
#     4  10  21  41  60  79 111 142 174 222 271 334
#
# _framework density 20.525220000000001
#
# number of rings (size 3 to 8) (size 9 to 14) (size 15 to 20)
#    0.000    2.000    5.000    1.500    0.000    0.000 
#    0.000   15.000    0.000    0.000    0.000    0.000 
#    0.000    6.000    0.000    0.000    0.000    0.000 
#
# Total GULP energy -178297.243403 kJ/mol
# GULP energy per Si atom -5571.788856 kJ/mol
# Density = 2.047850 g / cm^3
# Si number density = 20.525220 Si / 1000 Ang^3
#
#
#
# Elastic Constant Matrix: (Units=GPa)
#
#
# Indices 1 2 3 4 5 6 
#
# 1 55.0052 10.6749 -15.7755 0.0000 0.0000 0.0000
# 2 10.6749 23.0108 -14.9988 0.0000 0.0000 0.0000
# 3 -15.7755 -14.9988 116.8427 0.0000 0.0000 0.0000
# 4 0.0000 0.0000 0.0000 19.0265 0.0000 0.0000
# 5 0.0000 0.0000 0.0000 0.0000 -20.9273 0.0000
# 6 0.0000 0.0000 0.0000 0.0000 0.0000 -168.6712
#
#
#
# Elastic Compliance Matrix: (Units=1/GPa)
#
#
# Indices 1 2 3 4 5 6 
#
# 1 0.020273 -0.008316 0.001670 0.000000 0.000000 0.000000
# 2 -0.008316 0.050838 0.005403 0.000000 0.000000 0.000000
# 3 0.001670 0.005403 0.009478 0.000000 0.000000 0.000000
# 4 0.000000 0.000000 0.000000 0.052558 0.000000 0.000000
# 5 0.000000 0.000000 0.000000 0.000000 -0.047784 0.000000
# 6 0.000000 0.000000 0.000000 0.000000 0.000000 -0.005929
#
#
# Mechanical properties :
#
#
# Convention : Reuss Voigt Hill
#
# Bulk Modulus (GPa) = 12.80400 17.18441 14.99421
# Shear Modulus (GPa) = 46.31584 -19.78386 13.26599
#
# Velocity S-wave (km/s) = 4.75545 -3.10801 2.54505
# Velocity P-wave (km/s) = 6.03359 2.11875 3.99469
#
# Compressibility (1/GPa) = 0.07810057
#
# Stress axis : x y z
#
# Youngs Moduli (GPa) = 49.32690 19.67040 105.51291
#
# Poissons Ratio (x) = 0.16359 -0.17616
# Poissons Ratio (y) = 0.41023 -0.57009
# Poissons Ratio (z) = -0.08236 -0.10628
#
# Static dielectric constant tensor:
#      x y z
#    x 1.927020 0.000000 0.000000 
#    y 0.000000 1.724050 0.000000 
#    z 0.000000 0.000000 1.910730 
# 
# From -- ./inp_files/1012.got.cif
#   From: 2010.05.17/outbox.cif.g08.bks.cpg/sg30_1_cif.got.tgz:1012.got - 2010.06.03 17:03:02.
