data_PCOD9341916
_publ_section_title
;
Structure prediction by ZEFSAII (Michael W. Deem and Ramdas Pophale) SiO2 
 PCOD9341916
Probable space group: P N C 2
;
_chemical_formula_sum "Si O2"
_cell_formula_units_Z 18
_cell_length_a 7.904887
_cell_length_b 10.615208
_cell_length_c 9.132645
_cell_angle_alpha 90.000000
_cell_angle_beta 90.000000
_cell_angle_gamma 90.000000
_cell_volume 766.338687
_symmetry_space_group_name_H-M "P N C 2"
_symmetry_group_IT_number 30
_symmetry_cell_setting 'orthorhombic'
loop_
_space_group_symop_operation_xyz
x,y,z
-x,-y,z
-x,1/2+y,1/2+z
x,1/2-y,1/2+z
loop_
_atom_site_type_symbol
_atom_site_label
_atom_site_fract_x
_atom_site_fract_y
_atom_site_fract_z
Si Si1 0.228362 0.424709 0.285740
Si Si2 0.356029 0.316003 0.910502
Si Si3 0.000000 0.000000 0.038177
Si Si4 0.292364 0.919556 0.494290
Si Si5 0.981254 0.727253 0.092695
O O1 0.353676 0.305139 0.305082
O O2 0.169078 0.488931 0.436055
O O3 0.291738 0.514850 0.155894
O O4 0.052530 0.358895 0.232694
O O5 0.543368 0.334310 0.972577
O O6 0.303751 0.462886 0.879859
O O7 0.200352 0.277587 0.014407
O O8 0.981901 0.128808 0.126239
O O9 0.877067 0.161842 0.494036
#
# Coordination Sequence:
#
# PCOD9341916 Si02
#       5
#     4   4   2   4   4
#     4  10  18  39  64  90 132 169 203 271 333 363
#     4   9  20  36  61  92 123 163 215 265 308 385
#     4  10  20  38  62  96 124 166 222 256 320 390
#     4  10  19  40  63  90 127 170 214 256 327 390
#     4  10  20  39  61  90 124 166 216 265 313 392
#
# _framework density 23.488308
#
# number of rings (size 3 to 8) (size 9 to 14) (size 15 to 20)
#    0.000    2.222    2.222    2.000    0.000    0.000 
#   24.000    3.333   14.667    0.000    0.000    0.000 
#    0.000    0.000    0.000    0.000    0.000    0.000 
#
# Total GULP energy -100315.174700 kJ/mol
# GULP energy per Si atom -5573.065261 kJ/mol
# Density = 2.343485 g / cm^3
# Si number density = 23.488308 Si / 1000 Ang^3
#
#
#
# Elastic Constant Matrix: (Units=GPa)
#
#
# Indices 1 2 3 4 5 6 
#
# 1 104.6638 59.2533 33.7730 0.0000 0.0000 0.0000
# 2 59.2533 126.4146 25.7693 0.0000 0.0000 0.0000
# 3 33.7730 25.7693 33.1077 0.0000 0.0000 0.0000
# 4 0.0000 0.0000 0.0000 27.5615 0.0000 0.0000
# 5 0.0000 0.0000 0.0000 0.0000 16.9605 0.0000
# 6 0.0000 0.0000 0.0000 0.0000 0.0000 40.2008
#
#
#
# Elastic Compliance Matrix: (Units=1/GPa)
#
#
# Indices 1 2 3 4 5 6 
#
# 1 0.016668 -0.005166 -0.012982 0.000000 0.000000 0.000000
# 2 -0.005166 0.011004 -0.003294 0.000000 0.000000 0.000000
# 3 -0.012982 -0.003294 0.046011 0.000000 0.000000 0.000000
# 4 0.000000 0.000000 0.000000 0.036282 0.000000 0.000000
# 5 0.000000 0.000000 0.000000 0.000000 0.058961 0.000000
# 6 0.000000 0.000000 0.000000 0.000000 0.000000 0.024875
#
#
# Mechanical properties :
#
#
# Convention : Reuss Voigt Hill
#
# Bulk Modulus (GPa) = 32.46985 55.75304 44.11145
# Shear Modulus (GPa) = 20.24674 26.63725 23.44200
#
# Velocity S-wave (km/s) = 2.93916 3.37124 3.16259
# Velocity P-wave (km/s) = 5.03707 6.24033 5.67070
#
# Compressibility (1/GPa) = 0.03079780
#
# Stress axis : x y z
#
# Youngs Moduli (GPa) = 59.99401 90.87874 21.73371
#
# Poissons Ratio (x) = 0.46952 0.28215
# Poissons Ratio (y) = 0.30996 0.07160
# Poissons Ratio (z) = 0.77884 0.29939
#
# Static dielectric constant tensor:
#      x y z
#    x 1.877780 0.000000 0.000000 
#    y 0.000000 1.958540 0.000000 
#    z 0.000000 0.000000 2.008480 
# 
# From -- ./inp_files/3538.got.cif
#   From: 2010.05.17/outbox.cif.g08.bks.cpg/sg30_2_cif.got.tgz:3538.got - 2010.06.03 17:03:02.
