data_PCOD9341661
_publ_section_title
;
Structure prediction by ZEFSAII (Michael W. Deem and Ramdas Pophale) SiO2 
 PCOD9341661
Probable space group: P C A 21
;
_chemical_formula_sum "Si O2"
_cell_formula_units_Z 20
_cell_length_a 15.111102
_cell_length_b 5.065261
_cell_length_c 9.544739
_cell_angle_alpha 90.000000
_cell_angle_beta 90.000000
_cell_angle_gamma 90.000000
_cell_volume 730.570316
_symmetry_space_group_name_H-M "P C A 21"
_symmetry_group_IT_number 29
_symmetry_cell_setting 'orthorhombic'
loop_
_space_group_symop_operation_xyz
x,y,z
-x,-y,1/2+z
1/2-x,y,1/2+z
1/2+x,-y,z
loop_
_atom_site_type_symbol
_atom_site_label
_atom_site_fract_x
_atom_site_fract_y
_atom_site_fract_z
Si Si1 0.072410 0.980830 0.042300
Si Si2 0.836457 0.473115 0.902907
Si Si3 0.742791 0.755289 0.159726
Si Si4 0.112040 0.868866 0.642380
Si Si5 0.043083 0.494881 0.864656
O O1 0.153901 0.081076 0.132168
O O2 0.980336 0.978252 0.126175
O O3 0.056831 0.202864 0.923047
O O4 0.086536 0.694823 0.977079
O O5 0.781587 0.514804 0.761947
O O6 0.937806 0.550846 0.867268
O O7 0.785112 0.650807 0.016232
O O8 0.849162 0.202203 0.988748
O O9 0.814823 0.958724 0.219583
O O10 0.084269 0.596871 0.719364
#
# Coordination Sequence:
#
# PCOD9341661 Si02
#       5
#     4   4   4   4   4
#     4  11  26  47  79 113 157 216 263 345 404 492
#     4  11  27  47  77 115 155 217 265 338 404 489
#     4  12  26  50  77 116 159 206 281 328 416 484
#     4  11  26  49  78 117 162 212 275 342 412 494
#     4  11  25  51  77 113 161 211 268 333 418 479
#
# _framework density 27.375871
#
# number of rings (size 3 to 8) (size 9 to 14) (size 15 to 20)
#    0.000    0.800    4.000    1.200    8.400    1.600 
#    0.000    0.000    0.000    0.000    0.000    0.000 
#    0.000    0.000    0.000    0.000    0.000    0.000 
#
# Total GULP energy -112284.034035 kJ/mol
# GULP energy per Si atom -5614.201702 kJ/mol
# Density = 2.731356 g / cm^3
# Si number density = 27.375871 Si / 1000 Ang^3
#
#
#
# Elastic Constant Matrix: (Units=GPa)
#
#
# Indices 1 2 3 4 5 6 
#
# 1 189.6443 31.3154 58.0762 0.0000 0.0000 0.0000
# 2 31.3154 64.6366 27.8227 0.0000 0.0000 0.0000
# 3 58.0762 27.8227 111.2841 0.0000 0.0000 0.0000
# 4 0.0000 0.0000 0.0000 43.7966 0.0000 0.0000
# 5 0.0000 0.0000 0.0000 0.0000 36.3919 0.0000
# 6 0.0000 0.0000 0.0000 0.0000 0.0000 38.4421
#
#
#
# Elastic Compliance Matrix: (Units=1/GPa)
#
#
# Indices 1 2 3 4 5 6 
#
# 1 0.006475 -0.001885 -0.002908 0.000000 0.000000 0.000000
# 2 -0.001885 0.017886 -0.003488 0.000000 0.000000 0.000000
# 3 -0.002908 -0.003488 0.011375 0.000000 0.000000 0.000000
# 4 0.000000 0.000000 0.000000 0.022833 0.000000 0.000000
# 5 0.000000 0.000000 0.000000 0.000000 0.027479 0.000000
# 6 0.000000 0.000000 0.000000 0.000000 0.000000 0.026013
#
#
# Mechanical properties :
#
#
# Convention : Reuss Voigt Hill
#
# Bulk Modulus (GPa) = 52.15272 66.66595 59.40934
# Shear Modulus (GPa) = 37.03324 40.28283 38.65803
#
# Velocity S-wave (km/s) = 3.68199 3.84014 3.76190
# Velocity P-wave (km/s) = 6.09656 6.63831 6.37319
#
# Compressibility (1/GPa) = 0.01917445
#
# Stress axis : x y z
#
# Youngs Moduli (GPa) = 154.44539 55.91009 87.90866
#
# Poissons Ratio (x) = 0.10541 0.25561
# Poissons Ratio (y) = 0.29118 0.30661
# Poissons Ratio (z) = 0.44907 0.19500
#
# Static dielectric constant tensor:
#      x y z
#    x 2.069940 0.000000 0.000000 
#    y 0.000000 2.076240 0.000000 
#    z 0.000000 0.000000 2.130720 
# 
# From -- ./inp_files/3367.got.cif
#   From: 2010.05.17/outbox.cif.g08.bks.cpg/sg29_2_cif.got.tgz:3367.got - 2010.06.04 01:19:37.
