data_PCOD9341504
_publ_section_title
;
Structure prediction by ZEFSAII (Michael W. Deem and Ramdas Pophale) SiO2 
 PCOD9341504
Probable space group: P C A 21
;
_chemical_formula_sum "Si O2"
_cell_formula_units_Z 32
_cell_length_a 13.488465
_cell_length_b 12.024212
_cell_length_c 9.399407
_cell_angle_alpha 90.000000
_cell_angle_beta 90.000000
_cell_angle_gamma 90.000000
_cell_volume 1524.472552
_symmetry_space_group_name_H-M "P C A 21"
_symmetry_group_IT_number 29
_symmetry_cell_setting 'orthorhombic'
loop_
_space_group_symop_operation_xyz
x,y,z
-x,-y,1/2+z
1/2-x,y,1/2+z
1/2+x,-y,z
loop_
_atom_site_type_symbol
_atom_site_label
_atom_site_fract_x
_atom_site_fract_y
_atom_site_fract_z
Si Si1 0.081519 0.620120 0.396280
Si Si2 0.807357 0.875154 0.638417
Si Si3 0.984370 0.050990 0.204091
Si Si4 0.581519 0.120120 0.396279
Si Si5 0.984370 0.449010 0.204091
Si Si6 0.296345 0.523298 0.360251
Si Si7 0.203655 0.976702 0.860251
Si Si8 0.307357 0.375154 0.638417
O O1 0.061300 0.750000 0.414872
O O2 0.051268 0.556878 0.541329
O O3 0.197832 0.597673 0.370122
O O4 0.019355 0.567756 0.266727
O O5 0.814421 0.960879 0.508034
O O6 0.728433 0.926557 0.746454
O O7 0.783495 0.750000 0.593304
O O8 0.915210 0.877847 0.712627
O O9 0.892406 0.086670 0.302279
O O10 0.948732 0.056877 0.041328
O O11 0.019355 0.932244 0.266726
O O12 0.697832 0.097673 0.370122
O O13 0.892406 0.413330 0.302280
O O14 0.084790 0.377847 0.212628
O O15 0.314421 0.460879 0.508035
O O16 0.271567 0.426557 0.246454
#
# Coordination Sequence:
#
# PCOD9341504 Si02
#       8
#     4   4   4   4   4   4   4   4
#     4  11  25  45  69  97 136 175 215 277 332 385
#     4  11  23  41  67  95 128 172 217 275 330 380
#     4  11  23  43  66  96 133 171 225 268 321 400
#     4  11  25  45  69  97 136 175 215 277 332 385
#     4  11  23  43  66  96 133 171 225 268 321 400
#     4  11  23  43  64  96 133 168 221 272 321 401
#     4  11  23  43  64  96 133 168 221 272 321 401
#     4  11  23  41  67  95 128 172 217 275 330 380
#
# _framework density 20.990866
#
# number of rings (size 3 to 8) (size 9 to 14) (size 15 to 20)
#    0.000    1.000    5.000    1.500    0.000    3.000 
#    0.000    2.500    0.000    0.000    0.000    0.000 
#    0.000    0.000    0.000    0.000    0.000    0.000 
#
# Total GULP energy -178765.506768 kJ/mol
# GULP energy per Si atom -5586.422086 kJ/mol
# Density = 2.094309 g / cm^3
# Si number density = 20.990866 Si / 1000 Ang^3
#
#
#
# Elastic Constant Matrix: (Units=GPa)
#
#
# Indices 1 2 3 4 5 6 
#
# 1 102.8943 24.4923 33.0300 0.0000 0.0000 0.0000
# 2 24.4923 70.7097 57.1905 0.0000 0.0000 0.0000
# 3 33.0300 57.1905 103.3833 0.0000 0.0000 0.0000
# 4 0.0000 0.0000 0.0000 9.5870 0.0000 0.0000
# 5 0.0000 0.0000 0.0000 0.0000 44.8299 0.0000
# 6 0.0000 0.0000 0.0000 0.0000 0.0000 2.2134
#
#
#
# Elastic Compliance Matrix: (Units=1/GPa)
#
#
# Indices 1 2 3 4 5 6 
#
# 1 0.010947 -0.001743 -0.002533 0.000000 0.000000 0.000000
# 2 -0.001743 0.025871 -0.013755 0.000000 0.000000 0.000000
# 3 -0.002533 -0.013755 0.018091 0.000000 0.000000 0.000000
# 4 0.000000 0.000000 0.000000 0.104308 0.000000 0.000000
# 5 0.000000 0.000000 0.000000 0.000000 0.022307 0.000000
# 6 0.000000 0.000000 0.000000 0.000000 0.000000 0.451794
#
#
# Mechanical properties :
#
#
# Convention : Reuss Voigt Hill
#
# Bulk Modulus (GPa) = 53.05838 56.26811 54.66325
# Shear Modulus (GPa) = 7.40017 22.14437 14.77227
#
# Velocity S-wave (km/s) = 1.87965 3.25153 2.65570
# Velocity P-wave (km/s) = 5.48111 6.40006 5.95833
#
# Compressibility (1/GPa) = 0.01884716
#
# Stress axis : x y z
#
# Youngs Moduli (GPa) = 91.35123 38.65353 55.27593
#
# Poissons Ratio (x) = 0.06736 0.14003
# Poissons Ratio (y) = 0.15920 0.76030
# Poissons Ratio (z) = 0.23142 0.53167
#
# Static dielectric constant tensor:
#      x y z
#    x 1.784820 0.000000 0.000000 
#    y 0.000000 1.728760 0.000000 
#    z 0.000000 0.000000 1.740850 
# 
# From -- ./inp_files/1831.got.cif
#   From: 2010.05.17/outbox.cif.g08.bks.cpg/sg29_1_cif.got.tgz:1831.got - 2010.06.04 01:19:37.
