data_PCOD9341765
_publ_section_title
;
Structure prediction by ZEFSAII (Michael W. Deem and Ramdas Pophale) SiO2 
 PCOD9341765
Probable space group: P C A 21
;
_chemical_formula_sum "Si O2"
_cell_formula_units_Z 16
_cell_length_a 24.787057
_cell_length_b 5.120707
_cell_length_c 4.816946
_cell_angle_alpha 90.000000
_cell_angle_beta 90.000000
_cell_angle_gamma 90.000000
_cell_volume 611.401739
_symmetry_space_group_name_H-M "P C A 21"
_symmetry_group_IT_number 29
_symmetry_cell_setting 'orthorhombic'
loop_
_space_group_symop_operation_xyz
x,y,z
-x,-y,1/2+z
1/2-x,y,1/2+z
1/2+x,-y,z
loop_
_atom_site_type_symbol
_atom_site_label
_atom_site_fract_x
_atom_site_fract_y
_atom_site_fract_z
Si Si1 0.620133 0.112384 0.334730
Si Si2 0.964430 0.442119 0.082420
Si Si3 0.634258 0.609569 0.943977
Si Si4 0.787152 0.970221 0.241855
O O1 0.561533 0.178604 0.460289
O O2 0.661957 0.100377 0.590402
O O3 0.624121 0.854877 0.148285
O O4 0.633748 0.355990 0.135326
O O5 0.992374 0.588159 0.826644
O O6 0.914140 0.588869 0.224329
O O7 0.689942 0.674322 0.783324
O O8 0.763225 0.024245 0.543061
#
# Coordination Sequence:
#
# PCOD9341765 Si02
#       4
#     4   4   4   4
#     4  12  28  58  82 122 166 212 278 340 398 500
#     4  12  28  56  84 124 164 222 268 342 414 480
#     4  12  28  58  82 122 166 212 278 340 398 500
#     4  12  28  52  84 122 162 220 268 338 414 478
#
# _framework density 26.169370000000001
#
# number of rings (size 3 to 8) (size 9 to 14) (size 15 to 20)
#    0.000    0.000    5.000    3.000    0.000    2.000 
#   13.500    0.000    0.000    0.000    0.000    0.000 
#    0.000    0.000    0.000    0.000    0.000    0.000 
#
# Total GULP energy -89687.450121 kJ/mol
# GULP energy per Si atom -5605.465633 kJ/mol
# Density = 2.610981 g / cm^3
# Si number density = 26.169370 Si / 1000 Ang^3
#
#
#
# Elastic Constant Matrix: (Units=GPa)
#
#
# Indices 1 2 3 4 5 6 
#
# 1 104.2282 19.6917 36.4950 0.0000 0.0000 0.0000
# 2 19.6917 144.6147 59.9046 0.0000 0.0000 0.0000
# 3 36.4950 59.9046 176.3455 0.0000 0.0000 0.0000
# 4 0.0000 0.0000 0.0000 51.0449 0.0000 0.0000
# 5 0.0000 0.0000 0.0000 0.0000 69.7132 0.0000
# 6 0.0000 0.0000 0.0000 0.0000 0.0000 36.2792
#
#
#
# Elastic Compliance Matrix: (Units=1/GPa)
#
#
# Indices 1 2 3 4 5 6 
#
# 1 0.010390 -0.000610 -0.001943 0.000000 0.000000 0.000000
# 2 -0.000610 0.008083 -0.002620 0.000000 0.000000 0.000000
# 3 -0.001943 -0.002620 0.006963 0.000000 0.000000 0.000000
# 4 0.000000 0.000000 0.000000 0.019591 0.000000 0.000000
# 5 0.000000 0.000000 0.000000 0.000000 0.014344 0.000000
# 6 0.000000 0.000000 0.000000 0.000000 0.000000 0.027564
#
#
# Mechanical properties :
#
#
# Convention : Reuss Voigt Hill
#
# Bulk Modulus (GPa) = 66.26631 73.04124 69.65377
# Shear Modulus (GPa) = 48.87104 52.01393 50.44249
#
# Velocity S-wave (km/s) = 4.32614 4.46307 4.39514
# Velocity P-wave (km/s) = 7.09443 7.38446 7.24090
#
# Compressibility (1/GPa) = 0.01509062
#
# Stress axis : x y z
#
# Youngs Moduli (GPa) = 96.24736 123.71475 143.62277
#
# Poissons Ratio (x) = 0.07545 0.27906
# Poissons Ratio (y) = 0.05870 0.37624
# Poissons Ratio (z) = 0.18701 0.32409
#
# Static dielectric constant tensor:
#      x y z
#    x 2.081790 0.000000 0.000000 
#    y 0.000000 2.091190 0.000000 
#    z 0.000000 0.000000 2.019200 
# 
# From -- ./inp_files/607.got.cif
#   From: 2010.05.17/outbox.cif.g08.bks.cpg/sg29_1_cif.got.tgz:607.got - 2010.06.04 01:19:37.
