data_PCOD9341396
_publ_section_title
;
Structure prediction by ZEFSAII (Michael W. Deem and Ramdas Pophale) SiO2 
 PCOD9341396
Probable space group: P C A 21
;
_chemical_formula_sum "Si O2"
_cell_formula_units_Z 32
_cell_length_a 13.939052
_cell_length_b 10.425144
_cell_length_c 8.641791
_cell_angle_alpha 90.000000
_cell_angle_beta 90.000000
_cell_angle_gamma 90.000000
_cell_volume 1255.795896
_symmetry_space_group_name_H-M "P C A 21"
_symmetry_group_IT_number 29
_symmetry_cell_setting 'orthorhombic'
loop_
_space_group_symop_operation_xyz
x,y,z
-x,-y,1/2+z
1/2-x,y,1/2+z
1/2+x,-y,z
loop_
_atom_site_type_symbol
_atom_site_label
_atom_site_fract_x
_atom_site_fract_y
_atom_site_fract_z
Si Si1 0.213762 0.637399 0.248830
Si Si2 0.204667 0.449020 0.497287
Si Si3 0.655229 0.086095 0.236844
Si Si4 0.115936 0.258531 0.958419
Si Si5 0.562780 0.851222 0.291753
Si Si6 0.240385 0.053289 0.472573
Si Si7 0.972232 0.590981 0.198599
Si Si8 0.081883 0.653165 0.898037
O O1 0.160949 0.530201 0.354786
O O2 0.161524 0.767220 0.196431
O O3 0.308934 0.672878 0.347629
O O4 0.255845 0.556449 0.110455
O O5 0.295647 0.360842 0.453432
O O6 0.122915 0.380099 0.595544
O O7 0.557966 0.001920 0.240936
O O8 0.701471 0.079780 0.405999
O O9 0.725538 0.990144 0.141553
O O10 0.165615 0.125186 0.908371
O O11 0.034537 0.309138 0.842367
O O12 0.085219 0.231223 0.136362
O O13 0.651290 0.857912 0.415136
O O14 0.473074 0.787152 0.373428
O O15 0.957871 0.452159 0.275518
O O16 0.053261 0.595327 0.066075
#
# Coordination Sequence:
#
# PCOD9341396 Si02
#       8
#     4   4   4   4   4   4   4   4
#     4  11  24  40  64  90 136 173 226 269 340 404
#     4  11  22  37  60  97 125 178 216 270 329 409
#     4   9  20  38  61  89 119 174 223 273 315 387
#     4  11  19  37  58 100 125 166 226 267 332 396
#     4   9  21  35  65  88 127 165 222 276 323 388
#     4   9  19  34  65  90 118 162 220 283 308 374
#     4  11  24  37  62  96 145 172 215 275 345 432
#     4  11  23  40  61  96 135 178 204 281 352 404
#
# _framework density 25.481846000000001
#
# number of rings (size 3 to 8) (size 9 to 14) (size 15 to 20)
#    0.750    1.000    2.500    3.000    3.500    0.000 
#    0.000    0.000    8.250    1.500    0.000    0.000 
#    0.000    0.000    0.000    0.000    0.000    0.000 
#
# Total GULP energy -178453.312615 kJ/mol
# GULP energy per Si atom -5576.666019 kJ/mol
# Density = 2.542385 g / cm^3
# Si number density = 25.481846 Si / 1000 Ang^3
#
#
#
# Elastic Constant Matrix: (Units=GPa)
#
#
# Indices 1 2 3 4 5 6 
#
# 1 84.9720 14.9719 11.1281 0.0000 0.0000 0.0000
# 2 14.9719 110.2520 35.7083 0.0000 0.0000 0.0000
# 3 11.1281 35.7083 86.1486 0.0000 0.0000 0.0000
# 4 0.0000 0.0000 0.0000 31.4540 0.0000 0.0000
# 5 0.0000 0.0000 0.0000 0.0000 32.6720 0.0000
# 6 0.0000 0.0000 0.0000 0.0000 0.0000 30.9695
#
#
#
# Elastic Compliance Matrix: (Units=1/GPa)
#
#
# Indices 1 2 3 4 5 6 
#
# 1 0.012134 -0.001317 -0.001022 0.000000 0.000000 0.000000
# 2 -0.001317 0.010620 -0.004232 0.000000 0.000000 0.000000
# 3 -0.001022 -0.004232 0.013494 0.000000 0.000000 0.000000
# 4 0.000000 0.000000 0.000000 0.031793 0.000000 0.000000
# 5 0.000000 0.000000 0.000000 0.000000 0.030607 0.000000
# 6 0.000000 0.000000 0.000000 0.000000 0.000000 0.032290
#
#
# Mechanical properties :
#
#
# Convention : Reuss Voigt Hill
#
# Bulk Modulus (GPa) = 43.27614 44.99878 44.13746
# Shear Modulus (GPa) = 32.94239 33.65670 33.29955
#
# Velocity S-wave (km/s) = 3.59942 3.63824 3.61888
# Velocity P-wave (km/s) = 5.85615 5.94530 5.90089
#
# Compressibility (1/GPa) = 0.02310742
#
# Stress axis : x y z
#
# Youngs Moduli (GPa) = 82.41026 94.16633 74.10805
#
# Poissons Ratio (x) = 0.12401 0.07571
# Poissons Ratio (y) = 0.10853 0.31360
# Poissons Ratio (z) = 0.08419 0.39848
#
# Static dielectric constant tensor:
#      x y z
#    x 2.067570 0.000000 0.000000 
#    y 0.000000 2.034380 0.000000 
#    z 0.000000 0.000000 2.045670 
# 
# From -- ./inp_files/2180.got.cif
#   From: 2010.05.17/outbox.cif.g08.bks.cpg/sg29_2_cif.got.tgz:2180.got - 2010.06.04 01:19:37.
