data_PCOD9341597
_publ_section_title
;
Structure prediction by ZEFSAII (Michael W. Deem and Ramdas Pophale) SiO2 
 PCOD9341597
Probable space group: P C A 21
;
_chemical_formula_sum "Si O2"
_cell_formula_units_Z 32
_cell_length_a 26.001316
_cell_length_b 5.517796
_cell_length_c 9.194636
_cell_angle_alpha 90.000000
_cell_angle_beta 90.000000
_cell_angle_gamma 90.000000
_cell_volume 1319.154035
_symmetry_space_group_name_H-M "P C A 21"
_symmetry_group_IT_number 29
_symmetry_cell_setting 'orthorhombic'
loop_
_space_group_symop_operation_xyz
x,y,z
-x,-y,1/2+z
1/2-x,y,1/2+z
1/2+x,-y,z
loop_
_atom_site_type_symbol
_atom_site_label
_atom_site_fract_x
_atom_site_fract_y
_atom_site_fract_z
Si Si1 0.633959 0.090627 0.278360
Si Si2 0.920913 0.870153 0.271872
Si Si3 0.828927 0.965374 0.071788
Si Si4 0.019970 0.643559 0.795421
Si Si5 0.747797 0.608912 0.996898
Si Si6 0.943572 0.385673 0.606199
Si Si7 0.746375 0.281514 0.244385
Si Si8 0.636206 0.742554 0.037859
O O1 0.639902 0.117142 0.450952
O O2 0.580223 0.197935 0.220609
O O3 0.687539 0.205070 0.218283
O O4 0.636261 0.827735 0.203564
O O5 0.872114 0.837844 0.167625
O O6 0.951674 0.115832 0.236864
O O7 0.952795 0.620314 0.271857
O O8 0.898176 0.909470 0.434175
O O9 0.789631 0.107420 0.177714
O O10 0.794676 0.787434 0.971601
O O11 0.968868 0.599447 0.702003
O O12 0.018550 0.677604 0.971711
O O13 0.748040 0.354352 0.912149
O O14 0.753407 0.538784 0.165359
O O15 0.693321 0.732935 0.977057
O O16 0.891879 0.485738 0.529007
#
# Coordination Sequence:
#
# PCOD9341597 Si02
#       8
#     4   4   4   4   4   4   4   4
#     4  12  25  46  69 110 146 193 252 314 379 454
#     4  11  28  49  76 110 148 201 256 312 385 454
#     4  12  29  43  71 110 153 201 253 313 374 465
#     4  11  28  51  79 110 147 199 256 324 392 450
#     4  12  25  44  68 106 152 200 248 303 379 453
#     4  11  27  49  77 107 146 194 253 322 388 456
#     4  12  26  42  70 102 151 197 252 302 372 456
#     4  11  24  46  76 103 147 197 246 306 383 458
#
# _framework density 24.25797
#
# number of rings (size 3 to 8) (size 9 to 14) (size 15 to 20)
#    0.000    0.500    5.000    1.500   12.250    1.000 
#    0.000    0.000    0.000    0.000    0.000    0.000 
#    0.000    0.000    0.000    0.000    0.000    0.000 
#
# Total GULP energy -178727.059014 kJ/mol
# GULP energy per Si atom -5585.220594 kJ/mol
# Density = 2.420276 g / cm^3
# Si number density = 24.257970 Si / 1000 Ang^3
#
#
#
# Elastic Constant Matrix: (Units=GPa)
#
#
# Indices 1 2 3 4 5 6 
#
# 1 89.4872 30.4759 31.2428 0.0000 0.0000 0.0000
# 2 30.4759 86.5681 6.0692 0.0000 0.0000 0.0000
# 3 31.2428 6.0692 81.8149 0.0000 0.0000 0.0000
# 4 0.0000 0.0000 0.0000 35.7731 0.0000 0.0000
# 5 0.0000 0.0000 0.0000 0.0000 31.7980 0.0000
# 6 0.0000 0.0000 0.0000 0.0000 0.0000 35.4156
#
#
#
# Elastic Compliance Matrix: (Units=1/GPa)
#
#
# Indices 1 2 3 4 5 6 
#
# 1 0.014631 -0.004784 -0.005232 0.000000 0.000000 0.000000
# 2 -0.004784 0.013176 0.000849 0.000000 0.000000 0.000000
# 3 -0.005232 0.000849 0.014158 0.000000 0.000000 0.000000
# 4 0.000000 0.000000 0.000000 0.027954 0.000000 0.000000
# 5 0.000000 0.000000 0.000000 0.000000 0.031448 0.000000
# 6 0.000000 0.000000 0.000000 0.000000 0.000000 0.028236
#
#
# Mechanical properties :
#
#
# Convention : Reuss Voigt Hill
#
# Bulk Modulus (GPa) = 42.31673 43.71622 43.01648
# Shear Modulus (GPa) = 32.08964 33.26951 32.67958
#
# Velocity S-wave (km/s) = 3.64105 3.70738 3.67436
# Velocity P-wave (km/s) = 5.92947 6.03214 5.98103
#
# Compressibility (1/GPa) = 0.02363132
#
# Stress axis : x y z
#
# Youngs Moduli (GPa) = 68.34946 75.89457 70.63284
#
# Poissons Ratio (x) = 0.36307 0.36956
# Poissons Ratio (y) = 0.32697 -0.05999
# Poissons Ratio (z) = 0.35762 -0.06446
#
# Static dielectric constant tensor:
#      x y z
#    x 1.941090 0.000000 0.000000 
#    y 0.000000 1.949120 0.000000 
#    z 0.000000 0.000000 1.935220 
# 
# From -- ./inp_files/2595.got.cif
#   From: 2010.05.17/outbox.cif.g08.bks.cpg/sg29_2_cif.got.tgz:2595.got - 2010.06.04 01:19:37.
