data_PCOD9341706
_publ_section_title
;
Structure prediction by ZEFSAII (Michael W. Deem and Ramdas Pophale) SiO2 
 PCOD9341706
Probable space group: P C A 21
;
_chemical_formula_sum "Si O2"
_cell_formula_units_Z 28
_cell_length_a 10.778529
_cell_length_b 11.902834
_cell_length_c 9.254956
_cell_angle_alpha 90.000000
_cell_angle_beta 90.000000
_cell_angle_gamma 90.000000
_cell_volume 1187.364964
_symmetry_space_group_name_H-M "P C A 21"
_symmetry_group_IT_number 29
_symmetry_cell_setting 'orthorhombic'
loop_
_space_group_symop_operation_xyz
x,y,z
-x,-y,1/2+z
1/2-x,y,1/2+z
1/2+x,-y,z
loop_
_atom_site_type_symbol
_atom_site_label
_atom_site_fract_x
_atom_site_fract_y
_atom_site_fract_z
Si Si1 0.831592 0.655449 0.425920
Si Si2 0.410649 0.073732 0.044136
Si Si3 0.308962 0.703773 0.218491
Si Si4 0.578283 0.295653 0.031348
Si Si5 0.239578 0.127166 0.294670
Si Si6 0.628637 0.541388 0.630410
Si Si7 0.515136 0.847388 0.084187
O O1 0.748068 0.741400 0.332657
O O2 0.748688 0.592330 0.545825
O O3 0.881343 0.576874 0.298917
O O4 0.928881 0.742032 0.496786
O O5 0.490513 0.186209 0.018692
O O6 0.357327 0.085098 0.206116
O O7 0.483802 0.962288 0.004504
O O8 0.287313 0.070697 0.946419
O O9 0.337114 0.694658 0.388601
O O10 0.166770 0.715776 0.170778
O O11 0.358580 0.591793 0.137946
O O12 0.389105 0.806503 0.158829
O O13 0.489671 0.403723 0.051802
O O14 0.116133 0.116881 0.201737
#
# Coordination Sequence:
#
# PCOD9341706 Si02
#       7
#     4   4   4   4   4   4   4
#     4  12  23  49  76 113 142 203 261 303 383 454
#     4  12  28  49  81 109 154 199 254 320 378 459
#     4  12  31  47  76 114 155 200 255 320 380 447
#     4  12  28  53  71 117 155 198 256 313 385 450
#     4  12  23  49  76 109 141 202 252 308 377 455
#     4  12  27  49  83 106 156 200 260 315 379 456
#     4  12  28  46  77 108 155 198 256 313 384 451
#
# _framework density 23.581630000000001
#
# number of rings (size 3 to 8) (size 9 to 14) (size 15 to 20)
#    0.000    0.000    7.143    0.857   10.000    1.143 
#    0.000    0.000    0.000    0.000    0.000    0.000 
#    0.000    0.000    0.000    0.000    0.000    0.000 
#
# Total GULP energy -156678.739398 kJ/mol
# GULP energy per Si atom -5595.669264 kJ/mol
# Density = 2.352796 g / cm^3
# Si number density = 23.581630 Si / 1000 Ang^3
#
#
#
# Elastic Constant Matrix: (Units=GPa)
#
#
# Indices 1 2 3 4 5 6 
#
# 1 82.2791 25.6299 37.1899 0.0000 0.0000 0.0000
# 2 25.6299 77.1768 27.8339 0.0000 0.0000 0.0000
# 3 37.1899 27.8339 122.8924 0.0000 0.0000 0.0000
# 4 0.0000 0.0000 0.0000 14.9670 0.0000 0.0000
# 5 0.0000 0.0000 0.0000 0.0000 50.9368 0.0000
# 6 0.0000 0.0000 0.0000 0.0000 0.0000 22.7005
#
#
#
# Elastic Compliance Matrix: (Units=1/GPa)
#
#
# Indices 1 2 3 4 5 6 
#
# 1 0.014960 -0.003632 -0.003704 0.000000 0.000000 0.000000
# 2 -0.003632 0.014992 -0.002296 0.000000 0.000000 0.000000
# 3 -0.003704 -0.002296 0.009778 0.000000 0.000000 0.000000
# 4 0.000000 0.000000 0.000000 0.066814 0.000000 0.000000
# 5 0.000000 0.000000 0.000000 0.000000 0.019632 0.000000
# 6 0.000000 0.000000 0.000000 0.000000 0.000000 0.044052
#
#
# Mechanical properties :
#
#
# Convention : Reuss Voigt Hill
#
# Bulk Modulus (GPa) = 48.86643 51.51731 50.19187
# Shear Modulus (GPa) = 25.46939 30.50049 27.98494
#
# Velocity S-wave (km/s) = 3.28998 3.60029 3.44863
# Velocity P-wave (km/s) = 5.93289 6.25912 6.09819
#
# Compressibility (1/GPa) = 0.02046395
#
# Stress axis : x y z
#
# Youngs Moduli (GPa) = 66.84712 66.70407 102.26666
#
# Poissons Ratio (x) = 0.24226 0.37884
# Poissons Ratio (y) = 0.24278 0.23484
# Poissons Ratio (z) = 0.24763 0.15318
#
# Static dielectric constant tensor:
#      x y z
#    x 1.876080 0.000000 0.000000 
#    y 0.000000 1.876470 0.000000 
#    z 0.000000 0.000000 1.898300 
# 
# From -- ./inp_files/1468.got.cif
#   From: 2010.05.17/outbox.cif.g08.bks.cpg/sg29_1_cif.got.tgz:1468.got - 2010.06.04 01:19:37.
