data_PCOD9341064
_publ_section_title
;
Structure prediction by ZEFSAII (Michael W. Deem and Ramdas Pophale) SiO2 
 PCOD9341064
Probable space group: P C A 21
;
_chemical_formula_sum "Si O2"
_cell_formula_units_Z 32
_cell_length_a 31.269084
_cell_length_b 6.319054
_cell_length_c 9.049061
_cell_angle_alpha 90.000000
_cell_angle_beta 90.000000
_cell_angle_gamma 90.000000
_cell_volume 1788.013286
_symmetry_space_group_name_H-M "P C A 21"
_symmetry_group_IT_number 29
_symmetry_cell_setting 'orthorhombic'
loop_
_space_group_symop_operation_xyz
x,y,z
-x,-y,1/2+z
1/2-x,y,1/2+z
1/2+x,-y,z
loop_
_atom_site_type_symbol
_atom_site_label
_atom_site_fract_x
_atom_site_fract_y
_atom_site_fract_z
Si Si1 0.126358 0.885245 0.135190
Si Si2 0.457982 0.120654 0.631853
Si Si3 0.373642 0.114770 0.322378
Si Si4 0.716318 0.805597 0.723450
Si Si5 0.716318 0.194373 0.234118
Si Si6 0.246844 0.500014 0.978784
Si Si7 0.457982 0.879362 0.325715
Si Si8 0.085928 0.500008 0.978789
O O1 0.168137 0.891714 0.234507
O O2 0.113730 0.649573 0.084803
O O3 0.083834 0.000262 0.196632
O O4 0.136261 0.000004 0.978782
O O5 0.500000 0.120066 0.728784
O O6 0.442685 0.351780 0.582552
O O7 0.467158 0.000016 0.478781
O O8 0.331863 0.108316 0.223061
O O9 0.386272 0.350437 0.372772
O O10 0.416166 0.999750 0.260931
O O11 0.726338 0.655067 0.584890
O O12 0.750000 0.999986 0.728785
O O13 0.721120 0.656372 0.869034
O O14 0.726338 0.344906 0.372678
O O15 0.721121 0.343597 0.088533
O O16 0.442684 0.648242 0.375028
#
# Coordination Sequence:
#
# PCOD9341064 Si02
#       8
#     4   4   4   4   4   4   4   4
#     4   9  18  33  55  77 102 140 180 214 262 322
#     4   9  19  35  55  79 104 135 175 216 265 320
#     4   9  18  33  55  77 102 140 180 214 262 322
#     4  11  21  38  57  80 113 146 181 229 273 318
#     4  11  21  38  57  80 113 146 181 229 273 318
#     4  10  23  34  56  85 108 144 190 221 269 332
#     4   9  19  35  55  79 104 135 175 216 265 320
#     4   8  17  32  54  77 102 138 178 215 259 318
#
# _framework density 17.896958000000001
#
# number of rings (size 3 to 8) (size 9 to 14) (size 15 to 20)
#    0.000    3.000    0.000    3.000    0.000   10.000 
#    0.000    5.000    0.000    1.500    0.000    0.000 
#    0.000    0.000    0.000    0.000    0.000    0.000 
#
# Total GULP energy -178353.150153 kJ/mol
# GULP energy per Si atom -5573.535942 kJ/mol
# Density = 1.785622 g / cm^3
# Si number density = 17.896958 Si / 1000 Ang^3
#
#
#
# Elastic Constant Matrix: (Units=GPa)
#
#
# Indices 1 2 3 4 5 6 
#
# 1 176.1691 65.7698 47.0100 0.0000 0.0000 0.0000
# 2 65.7698 123.5071 28.5547 0.0000 0.0000 0.0000
# 3 47.0100 28.5547 58.5639 0.0000 0.0000 0.0000
# 4 0.0000 0.0000 0.0000 14.5307 0.0000 0.0000
# 5 0.0000 0.0000 0.0000 0.0000 17.4517 0.0000
# 6 0.0000 0.0000 0.0000 0.0000 0.0000 -6.2446
#
#
#
# Elastic Compliance Matrix: (Units=1/GPa)
#
#
# Indices 1 2 3 4 5 6 
#
# 1 0.008218 -0.003213 -0.005030 0.000000 0.000000 0.000000
# 2 -0.003213 0.010382 -0.002483 0.000000 0.000000 0.000000
# 3 -0.005030 -0.002483 0.022324 0.000000 0.000000 0.000000
# 4 0.000000 0.000000 0.000000 0.068820 0.000000 0.000000
# 5 0.000000 0.000000 0.000000 0.000000 0.057301 0.000000
# 6 0.000000 0.000000 0.000000 0.000000 0.000000 -0.160138
#
#
# Mechanical properties :
#
#
# Convention : Reuss Voigt Hill
#
# Bulk Modulus (GPa) = 51.35705 71.21213 61.28459
# Shear Modulus (GPa) = 143.47385 19.60793 81.54089
#
# Velocity S-wave (km/s) = 8.96329 3.31358 6.75723
# Velocity P-wave (km/s) = 11.65672 7.38351 9.75693
#
# Compressibility (1/GPa) = 0.01947152
#
# Stress axis : x y z
#
# Youngs Moduli (GPa) = 121.67932 96.32160 44.79569
#
# Poissons Ratio (x) = 0.30952 0.22533
# Poissons Ratio (y) = 0.39101 0.11121
# Poissons Ratio (z) = 0.61206 0.23912
#
# Static dielectric constant tensor:
#      x y z
#    x 1.617120 0.000000 0.000000 
#    y 0.000000 1.680760 0.000000 
#    z 0.000000 0.000000 1.603140 
# 
# From -- ./inp_files/2621.got.cif
#   From: 2010.05.17/outbox.cif.g08.bks.cpg/sg29_2_cif.got.tgz:2621.got - 2010.06.04 01:19:37.
