data_PCOD9341853
_publ_section_title
;
Structure prediction by ZEFSAII (Michael W. Deem and Ramdas Pophale) SiO2 
 PCOD9341853
Probable space group: P N C 2
;
_chemical_formula_sum "Si O2"
_cell_formula_units_Z 28
_cell_length_a 11.894722
_cell_length_b 7.256682
_cell_length_c 13.940712
_cell_angle_alpha 90.000000
_cell_angle_beta 90.000000
_cell_angle_gamma 90.000000
_cell_volume 1203.309495
_symmetry_space_group_name_H-M "P N C 2"
_symmetry_group_IT_number 30
_symmetry_cell_setting 'orthorhombic'
loop_
_space_group_symop_operation_xyz
x,y,z
-x,-y,z
-x,1/2+y,1/2+z
x,1/2-y,1/2+z
loop_
_atom_site_type_symbol
_atom_site_label
_atom_site_fract_x
_atom_site_fract_y
_atom_site_fract_z
Si Si1 0.340998 0.842444 0.495230
Si Si2 0.287194 0.303883 0.713324
Si Si3 0.098454 0.233844 0.855943
Si Si4 0.339141 0.637722 0.211263
Si Si5 0.286688 0.271105 0.497479
Si Si6 0.462973 0.244468 0.851613
Si Si7 0.846385 0.298673 0.353282
O O1 0.355334 0.786067 0.605135
O O2 0.450515 0.803085 0.433308
O O3 0.231355 0.754289 0.444119
O O4 0.330334 0.062593 0.500182
O O5 0.170703 0.325885 0.770587
O O6 0.289441 0.360061 0.602330
O O7 0.384146 0.376274 0.785434
O O8 0.312113 0.081690 0.709051
O O9 0.161600 0.259872 0.956964
O O10 0.969113 0.290876 0.855915
O O11 0.119952 0.013941 0.845624
O O12 0.449860 0.665858 0.273964
O O13 0.234055 0.736234 0.262709
O O14 0.366642 0.363068 0.415462
#
# Coordination Sequence:
#
# PCOD9341853 Si02
#       7
#     4   4   4   4   4   4   4
#     4  10  20  34  54  80 106 135 175 219 260 305
#     4   9  18  33  54  77 102 137 177 212 252 310
#     4   9  19  36  55  76 104 138 176 216 259 310
#     4   9  18  33  54  77 102 137 177 212 252 310
#     4  10  20  34  54  80 106 135 175 219 260 305
#     4  10  18  30  50  76 105 132 163 212 261 298
#     4   9  19  36  55  76 104 138 176 216 259 310
#
# _framework density 23.269159999999999
#
# number of rings (size 3 to 8) (size 9 to 14) (size 15 to 20)
#    0.000    2.571    0.000    1.714    0.000    5.143 
#    0.000   10.000    0.000   17.143    0.000    0.000 
#    0.000    0.000    0.000    0.000    0.000    0.000 
#
# Total GULP energy -156280.010063 kJ/mol
# GULP energy per Si atom -5581.428931 kJ/mol
# Density = 2.321620 g / cm^3
# Si number density = 23.269160 Si / 1000 Ang^3
#
#
#
# Elastic Constant Matrix: (Units=GPa)
#
#
# Indices 1 2 3 4 5 6 
#
# 1 225.0675 13.5845 101.5926 0.0000 0.0000 0.0000
# 2 13.5845 56.9047 6.7391 0.0000 0.0000 0.0000
# 3 101.5926 6.7391 239.9122 0.0000 0.0000 0.0000
# 4 0.0000 0.0000 0.0000 13.9256 0.0000 0.0000
# 5 0.0000 0.0000 0.0000 0.0000 22.9028 0.0000
# 6 0.0000 0.0000 0.0000 0.0000 0.0000 23.6536
#
#
#
# Elastic Compliance Matrix: (Units=1/GPa)
#
#
# Indices 1 2 3 4 5 6 
#
# 1 0.005555 -0.001051 -0.002323 0.000000 0.000000 0.000000
# 2 -0.001051 0.017831 -0.000056 0.000000 0.000000 0.000000
# 3 -0.002323 -0.000056 0.005153 0.000000 0.000000 0.000000
# 4 0.000000 0.000000 0.000000 0.071810 0.000000 0.000000
# 5 0.000000 0.000000 0.000000 0.000000 0.043663 0.000000
# 6 0.000000 0.000000 0.000000 0.000000 0.000000 0.042277
#
#
# Mechanical properties :
#
#
# Convention : Reuss Voigt Hill
#
# Bulk Modulus (GPa) = 46.12570 85.07963 65.60267
# Shear Modulus (GPa) = 24.95323 38.76095 31.85709
#
# Velocity S-wave (km/s) = 3.27826 4.08581 3.70411
# Velocity P-wave (km/s) = 5.84765 7.67470 6.82261
#
# Compressibility (1/GPa) = 0.02167989
#
# Stress axis : x y z
#
# Youngs Moduli (GPa) = 180.01709 56.08293 194.04807
#
# Poissons Ratio (x) = 0.05894 0.45073
# Poissons Ratio (y) = 0.18920 0.01083
# Poissons Ratio (z) = 0.41814 0.00313
#
# Static dielectric constant tensor:
#      x y z
#    x 1.862950 0.000000 0.000000 
#    y 0.000000 2.075190 0.000000 
#    z 0.000000 0.000000 1.874900 
# 
# From -- ./inp_files/4112.got.cif
#   From: 2010.05.17/outbox.cif.g08.bks.cpg/sg30_3_cif.got.tgz:4112.got - 2010.06.03 17:03:02.
