data_PCOD9341055
_publ_section_title
;
Structure prediction by ZEFSAII (Michael W. Deem and Ramdas Pophale) SiO2 
 PCOD9341055
Probable space group: P C A 21
;
_chemical_formula_sum "Si O2"
_cell_formula_units_Z 32
_cell_length_a 7.627845
_cell_length_b 15.438989
_cell_length_c 12.604817
_cell_angle_alpha 90.000000
_cell_angle_beta 90.000000
_cell_angle_gamma 90.000000
_cell_volume 1484.421589
_symmetry_space_group_name_H-M "P C A 21"
_symmetry_group_IT_number 29
_symmetry_cell_setting 'orthorhombic'
loop_
_space_group_symop_operation_xyz
x,y,z
-x,-y,1/2+z
1/2-x,y,1/2+z
1/2+x,-y,z
loop_
_atom_site_type_symbol
_atom_site_label
_atom_site_fract_x
_atom_site_fract_y
_atom_site_fract_z
Si Si1 0.925183 0.203493 0.963240
Si Si2 0.555838 0.815702 0.727037
Si Si3 0.959524 0.560665 0.911605
Si Si4 0.393839 0.897709 0.542901
Si Si5 0.797971 0.476989 0.246444
Si Si6 0.218305 0.095006 0.076799
Si Si7 0.339763 0.364415 0.122722
Si Si8 0.443240 0.609211 0.056181
O O1 0.009985 0.194658 0.848022
O O2 0.744188 0.150994 0.970206
O O3 0.064776 0.159104 0.042824
O O4 0.899997 0.302698 0.996469
O O5 0.392704 0.851304 0.658202
O O6 0.711691 0.882547 0.695159
O O7 0.610856 0.724381 0.676798
O O8 0.828118 0.537335 0.816802
O O9 0.128304 0.582264 0.841888
O O10 0.903932 0.628116 0.000887
O O11 0.977347 0.470513 0.976218
O O12 0.599333 0.890640 0.511801
O O13 0.344619 0.997647 0.558849
O O14 0.913689 0.555068 0.192182
O O15 0.793204 0.416858 0.141532
O O16 0.129782 0.377477 0.114835
#
# Coordination Sequence:
#
# PCOD9341055 Si02
#       8
#     4   4   4   4   4   4   4   4
#     4  12  23  45  69 100 141 181 223 284 352 401
#     4  10  25  42  70 101 131 183 228 274 344 418
#     4  11  23  39  64  88 126 175 219 270 331 389
#     4  10  23  47  69 104 138 175 224 288 332 421
#     4  11  23  39  62  91 122 175 222 267 329 394
#     4  10  22  47  70 100 140 173 228 283 341 419
#     4  11  22  42  62  92 135 170 222 277 325 404
#     4  11  23  39  64  92 131 174 218 279 330 398
#
# _framework density 21.557219
#
# number of rings (size 3 to 8) (size 9 to 14) (size 15 to 20)
#    0.750    0.500    5.000    0.750    0.000    4.000 
#    2.250    0.000    0.000    0.000    0.000    0.000 
#    0.000    0.000    0.000    0.000    0.000    0.000 
#
# Total GULP energy -178355.715225 kJ/mol
# GULP energy per Si atom -5573.616101 kJ/mol
# Density = 2.150815 g / cm^3
# Si number density = 21.557219 Si / 1000 Ang^3
#
#
#
# Elastic Constant Matrix: (Units=GPa)
#
#
# Indices 1 2 3 4 5 6 
#
# 1 48.7704 -4.8243 -2.8184 0.0000 0.0000 0.0000
# 2 -4.8243 72.8889 4.1091 0.0000 0.0000 0.0000
# 3 -2.8184 4.1091 78.1432 0.0000 0.0000 0.0000
# 4 0.0000 0.0000 0.0000 13.6794 0.0000 0.0000
# 5 0.0000 0.0000 0.0000 0.0000 28.0274 0.0000
# 6 0.0000 0.0000 0.0000 0.0000 0.0000 9.7754
#
#
#
# Elastic Compliance Matrix: (Units=1/GPa)
#
#
# Indices 1 2 3 4 5 6 
#
# 1 0.020675 0.001330 0.000676 0.000000 0.000000 0.000000
# 2 0.001330 0.013846 -0.000680 0.000000 0.000000 0.000000
# 3 0.000676 -0.000680 0.012857 0.000000 0.000000 0.000000
# 4 0.000000 0.000000 0.000000 0.073103 0.000000 0.000000
# 5 0.000000 0.000000 0.000000 0.000000 0.035679 0.000000
# 6 0.000000 0.000000 0.000000 0.000000 0.000000 0.102297
#
#
# Mechanical properties :
#
#
# Convention : Reuss Voigt Hill
#
# Bulk Modulus (GPa) = 19.98810 21.41505 20.70157
# Shear Modulus (GPa) = 18.34986 23.85220 21.10103
#
# Velocity S-wave (km/s) = 2.92073 3.32996 3.13203
# Velocity P-wave (km/s) = 4.54603 4.97398 4.76481
#
# Compressibility (1/GPa) = 0.05002978
#
# Stress axis : x y z
#
# Youngs Moduli (GPa) = 48.36791 72.22352 77.77775
#
# Poissons Ratio (x) = -0.09608 -0.05256
# Poissons Ratio (y) = -0.06434 0.05290
# Poissons Ratio (z) = -0.03268 0.04912
#
# Static dielectric constant tensor:
#      x y z
#    x 1.983700 0.000000 0.000000 
#    y 0.000000 1.764280 0.000000 
#    z 0.000000 0.000000 1.771710 
# 
# From -- ./inp_files/2905.got.cif
#   From: 2010.05.17/outbox.cif.g08.bks.cpg/sg29_2_cif.got.tgz:2905.got - 2010.06.04 01:19:37.
