data_PCOD9341994
_publ_section_title
;
Structure prediction by ZEFSAII (Michael W. Deem and Ramdas Pophale) SiO2 
 PCOD9341994
Probable space group: P N C 2
;
_chemical_formula_sum "Si O2"
_cell_formula_units_Z 28
_cell_length_a 8.029129
_cell_length_b 20.243094
_cell_length_c 7.920266
_cell_angle_alpha 90.000000
_cell_angle_beta 90.000000
_cell_angle_gamma 90.000000
_cell_volume 1287.315786
_symmetry_space_group_name_H-M "P N C 2"
_symmetry_group_IT_number 30
_symmetry_cell_setting 'orthorhombic'
loop_
_space_group_symop_operation_xyz
x,y,z
-x,-y,z
-x,1/2+y,1/2+z
x,1/2-y,1/2+z
loop_
_atom_site_type_symbol
_atom_site_label
_atom_site_fract_x
_atom_site_fract_y
_atom_site_fract_z
Si Si1 0.500000 0.000000 0.466370
Si Si2 0.870296 0.636848 0.133316
Si Si3 0.611655 0.863305 0.324006
Si Si4 0.174913 0.118409 0.004985
Si Si5 0.177930 0.940470 0.520046
Si Si6 0.292513 0.696897 0.931594
Si Si7 0.000000 0.000000 0.197632
Si Si8 0.073413 0.725051 0.631075
O O1 0.527749 0.935106 0.352677
O O2 0.326810 0.990387 0.567841
O O3 0.777525 0.621884 0.309132
O O4 0.966939 0.707503 0.148105
O O5 0.754436 0.641326 0.967735
O O6 0.004092 0.576955 0.110431
O O7 0.686208 0.859829 0.138351
O O8 0.473079 0.807653 0.352804
O O9 0.027236 0.171406 0.028469
O O10 0.102955 0.049817 0.079629
O O11 0.271361 0.870353 0.534731
O O12 0.122259 0.961571 0.329448
O O13 0.132291 0.696167 0.808305
O O14 0.250182 0.758718 0.045244
#
# Coordination Sequence:
#
# PCOD9341994 Si02
#       8
#     2   4   4   4   4   4   2   4
#     4  10  20  40  72  88 142 186 220 282 348 404
#     4  11  24  43  72 101 131 182 235 282 334 421
#     4  11  24  43  66 102 137 180 225 285 351 400
#     4  12  24  41  72 103 130 181 235 282 330 418
#     4  10  19  38  66  93 130 180 222 267 344 392
#     4  10  22  40  65  93 131 179 210 282 347 396
#     4  12  20  38  68  98 132 174 230 274 332 406
#     4  11  21  45  66  92 137 177 229 280 343 407
#
# _framework density 21.750684
#
# number of rings (size 3 to 8) (size 9 to 14) (size 15 to 20)
#    0.000    1.143    5.714    0.857    0.000    2.857 
#    2.571    0.714    0.000    0.000    0.000    0.000 
#    0.000    0.000    0.000    0.000    0.000    0.000 
#
# Total GULP energy -156163.049773 kJ/mol
# GULP energy per Si atom -5577.251778 kJ/mol
# Density = 2.170118 g / cm^3
# Si number density = 21.750684 Si / 1000 Ang^3
#
#
#
# Elastic Constant Matrix: (Units=GPa)
#
#
# Indices 1 2 3 4 5 6 
#
# 1 103.5002 11.3795 30.0079 0.0000 0.0000 0.0000
# 2 11.3795 63.5086 1.3994 0.0000 0.0000 0.0000
# 3 30.0079 1.3994 97.1890 0.0000 0.0000 0.0000
# 4 0.0000 0.0000 0.0000 18.9466 0.0000 0.0000
# 5 0.0000 0.0000 0.0000 0.0000 24.2580 0.0000
# 6 0.0000 0.0000 0.0000 0.0000 0.0000 44.8236
#
#
#
# Elastic Compliance Matrix: (Units=1/GPa)
#
#
# Indices 1 2 3 4 5 6 
#
# 1 0.010829 -0.001867 -0.003317 0.000000 0.000000 0.000000
# 2 -0.001867 0.016073 0.000345 0.000000 0.000000 0.000000
# 3 -0.003317 0.000345 0.011308 0.000000 0.000000 0.000000
# 4 0.000000 0.000000 0.000000 0.052780 0.000000 0.000000
# 5 0.000000 0.000000 0.000000 0.000000 0.041223 0.000000
# 6 0.000000 0.000000 0.000000 0.000000 0.000000 0.022310
#
#
# Mechanical properties :
#
#
# Convention : Reuss Voigt Hill
#
# Bulk Modulus (GPa) = 35.04779 38.86348 36.95564
# Shear Modulus (GPa) = 28.78342 32.36638 30.57490
#
# Velocity S-wave (km/s) = 3.64171 3.86173 3.75333
# Velocity P-wave (km/s) = 5.81646 6.14739 5.98421
#
# Compressibility (1/GPa) = 0.02853247
#
# Stress axis : x y z
#
# Youngs Moduli (GPa) = 92.34728 62.21664 88.43076
#
# Poissons Ratio (x) = 0.11617 0.29329
# Poissons Ratio (y) = 0.17243 -0.03052
# Poissons Ratio (z) = 0.30628 -0.02147
#
# Static dielectric constant tensor:
#      x y z
#    x 1.845930 0.000000 0.000000 
#    y 0.000000 1.850350 0.000000 
#    z 0.000000 0.000000 1.835960 
# 
# From -- ./inp_files/3827.got.cif
#   From: 2010.05.17/outbox.cif.g08.bks.cpg/sg30_2_cif.got.tgz:3827.got - 2010.06.03 17:03:02.
