data_PCOD9341346
_publ_section_title
;
Structure prediction by ZEFSAII (Michael W. Deem and Ramdas Pophale) SiO2 
 PCOD9341346
Probable space group: P C A 21
;
_chemical_formula_sum "Si O2"
_cell_formula_units_Z 28
_cell_length_a 9.503846
_cell_length_b 5.770141
_cell_length_c 20.978612
_cell_angle_alpha 90.000000
_cell_angle_beta 90.000000
_cell_angle_gamma 90.000000
_cell_volume 1150.436274
_symmetry_space_group_name_H-M "P C A 21"
_symmetry_group_IT_number 29
_symmetry_cell_setting 'orthorhombic'
loop_
_space_group_symop_operation_xyz
x,y,z
-x,-y,1/2+z
1/2-x,y,1/2+z
1/2+x,-y,z
loop_
_atom_site_type_symbol
_atom_site_label
_atom_site_fract_x
_atom_site_fract_y
_atom_site_fract_z
Si Si1 0.713884 0.642970 0.127580
Si Si2 0.362871 0.461367 0.344688
Si Si3 0.179996 0.035709 0.532808
Si Si4 0.946095 0.466597 0.055381
Si Si5 0.093642 0.304577 0.265525
Si Si6 0.634246 0.163676 0.926426
Si Si7 0.592024 0.065795 0.349355
O O1 0.755782 0.900629 0.102478
O O2 0.855352 0.495278 0.120516
O O3 0.608202 0.540083 0.074369
O O4 0.642007 0.636377 0.195425
O O5 0.213506 0.393355 0.315314
O O6 0.442211 0.615937 0.290910
O O7 0.352008 0.560409 0.417208
O O8 0.479152 0.265628 0.351602
O O9 0.097064 0.285398 0.521720
O O10 0.095976 0.789815 0.529618
O O11 0.309248 0.977497 0.485868
O O12 0.094754 0.030461 0.278180
O O13 0.751167 0.106369 0.872028
O O14 0.480600 0.105117 0.900526
#
# Coordination Sequence:
#
# PCOD9341346 Si02
#       7
#     4   4   4   4   4   4   4
#     4  10  25  45  72 106 145 190 245 300 363 443
#     4  11  23  42  67 104 140 189 235 296 368 424
#     4  10  27  45  74 102 146 187 243 293 368 429
#     4  10  25  45  70 106 136 188 239 289 363 423
#     4  11  23  43  71 102 143 186 234 302 361 436
#     4  11  25  44  68 101 139 186 238 302 356 441
#     4  11  24  42  68 101 135 184 240 292 367 420
#
# _framework density 24.338591999999998
#
# number of rings (size 3 to 8) (size 9 to 14) (size 15 to 20)
#    0.857    0.571    2.857    0.857    6.000    2.286 
#    0.000    0.000    0.000    0.000    0.000    0.000 
#    0.000    0.000    0.000    0.000    0.000    0.000 
#
# Total GULP energy -155942.162539 kJ/mol
# GULP energy per Si atom -5569.362948 kJ/mol
# Density = 2.428320 g / cm^3
# Si number density = 24.338592 Si / 1000 Ang^3
#
#
#
# Elastic Constant Matrix: (Units=GPa)
#
#
# Indices 1 2 3 4 5 6 
#
# 1 94.7132 19.6376 3.2573 0.0000 0.0000 0.0000
# 2 19.6376 107.3911 30.0836 0.0000 0.0000 0.0000
# 3 3.2573 30.0836 59.2245 0.0000 0.0000 0.0000
# 4 0.0000 0.0000 0.0000 27.7720 0.0000 0.0000
# 5 0.0000 0.0000 0.0000 0.0000 25.4367 0.0000
# 6 0.0000 0.0000 0.0000 0.0000 0.0000 34.8142
#
#
#
# Elastic Compliance Matrix: (Units=1/GPa)
#
#
# Indices 1 2 3 4 5 6 
#
# 1 0.010986 -0.002145 0.000485 0.000000 0.000000 0.000000
# 2 -0.002145 0.011275 -0.005609 0.000000 0.000000 0.000000
# 3 0.000485 -0.005609 0.019708 0.000000 0.000000 0.000000
# 4 0.000000 0.000000 0.000000 0.036007 0.000000 0.000000
# 5 0.000000 0.000000 0.000000 0.000000 0.039313 0.000000
# 6 0.000000 0.000000 0.000000 0.000000 0.000000 0.028724
#
#
# Mechanical properties :
#
#
# Convention : Reuss Voigt Hill
#
# Bulk Modulus (GPa) = 36.45505 40.80954 38.63229
# Shear Modulus (GPa) = 29.46451 31.49459 30.47955
#
# Velocity S-wave (km/s) = 3.48316 3.60115 3.54264
# Velocity P-wave (km/s) = 5.58456 5.83908 5.71324
#
# Compressibility (1/GPa) = 0.02743104
#
# Stress axis : x y z
#
# Youngs Moduli (GPa) = 91.02314 88.68896 50.74185
#
# Poissons Ratio (x) = 0.19023 -0.02462
# Poissons Ratio (y) = 0.19523 0.28463
# Poissons Ratio (z) = -0.04417 0.49750
#
# Static dielectric constant tensor:
#      x y z
#    x 1.984080 0.000000 0.000000 
#    y 0.000000 2.362330 0.000000 
#    z 0.000000 0.000000 1.963790 
# 
# From -- ./inp_files/5773.got.cif
#   From: 2010.05.17/outbox.cif.g08.bks.cpg/sg29_3_cif.got.tgz:5773.got - 2010.06.04 01:19:37.
