data_PCOD9341452
_publ_section_title
;
Structure prediction by ZEFSAII (Michael W. Deem and Ramdas Pophale) SiO2 
 PCOD9341452
Probable space group: P C A 21
;
_chemical_formula_sum "Si O2"
_cell_formula_units_Z 24
_cell_length_a 8.569093
_cell_length_b 16.001291
_cell_length_c 7.909933
_cell_angle_alpha 90.000000
_cell_angle_beta 90.000000
_cell_angle_gamma 90.000000
_cell_volume 1084.582729
_symmetry_space_group_name_H-M "P C A 21"
_symmetry_group_IT_number 29
_symmetry_cell_setting 'orthorhombic'
loop_
_space_group_symop_operation_xyz
x,y,z
-x,-y,1/2+z
1/2-x,y,1/2+z
1/2+x,-y,z
loop_
_atom_site_type_symbol
_atom_site_label
_atom_site_fract_x
_atom_site_fract_y
_atom_site_fract_z
Si Si1 0.145964 0.245821 0.248620
Si Si2 0.154532 0.420196 0.069100
Si Si3 0.009071 0.917562 0.619461
Si Si4 0.011100 0.238258 0.626333
Si Si5 0.491161 0.417204 0.195923
Si Si6 0.162661 0.923554 0.252447
O O1 0.108019 0.335603 0.167091
O O2 0.076706 0.238113 0.435844
O O3 0.333710 0.236749 0.243745
O O4 0.077204 0.170078 0.140179
O O5 0.342389 0.420590 0.069770
O O6 0.098307 0.503746 0.161958
O O7 0.081584 0.419546 0.883067
O O8 0.088874 0.925789 0.437883
O O9 0.151169 0.921277 0.752361
O O10 0.893119 0.993437 0.656239
O O11 0.930182 0.327316 0.663898
O O12 0.903426 0.159547 0.663270
#
# Coordination Sequence:
#
# PCOD9341452 Si02
#       6
#     4   4   4   4   4   4
#     4  11  22  40  63  90 121 159 200 246 298 355
#     4  11  22  39  61  89 121 159 201 248 299 355
#     4  12  25  43  64  91 122 158 199 246 297 354
#     4  11  22  40  63  90 121 159 200 246 298 355
#     4  11  22  39  61  89 121 159 201 248 299 355
#     4  12  25  43  64  91 122 158 199 246 297 354
#
# _framework density 22.128328
#
# number of rings (size 3 to 8) (size 9 to 14) (size 15 to 20)
#    0.000    0.667    0.000   12.000    0.000    1.333 
#    0.000    6.667    0.000    0.000    0.000    0.000 
#    0.000    0.000    0.000    0.000    0.000    0.000 
#
# Total GULP energy -134480.828260 kJ/mol
# GULP energy per Si atom -5603.367844 kJ/mol
# Density = 2.207796 g / cm^3
# Si number density = 22.128328 Si / 1000 Ang^3
#
#
#
# Elastic Constant Matrix: (Units=GPa)
#
#
# Indices 1 2 3 4 5 6 
#
# 1 37.7549 43.4287 -16.8904 0.0000 0.0000 0.0000
# 2 43.4287 161.4243 13.2373 0.0000 0.0000 0.0000
# 3 -16.8904 13.2373 73.3507 0.0000 0.0000 0.0000
# 4 0.0000 0.0000 0.0000 26.6927 0.0000 0.0000
# 5 0.0000 0.0000 0.0000 0.0000 91.9973 0.0000
# 6 0.0000 0.0000 0.0000 0.0000 0.0000 36.6563
#
#
#
# Elastic Compliance Matrix: (Units=1/GPa)
#
#
# Indices 1 2 3 4 5 6 
#
# 1 0.049302 -0.014408 0.013953 0.000000 0.000000 0.000000
# 2 -0.014408 0.010499 -0.005212 0.000000 0.000000 0.000000
# 3 0.013953 -0.005212 0.017787 0.000000 0.000000 0.000000
# 4 0.000000 0.000000 0.000000 0.037463 0.000000 0.000000
# 5 0.000000 0.000000 0.000000 0.000000 0.010870 0.000000
# 6 0.000000 0.000000 0.000000 0.000000 0.000000 0.027280
#
#
# Mechanical properties :
#
#
# Convention : Reuss Voigt Hill
#
# Bulk Modulus (GPa) = 15.09379 39.12012 27.10696
# Shear Modulus (GPa) = 26.79231 46.58623 36.68927
#
# Velocity S-wave (km/s) = 3.48339 4.59331 4.07630
# Velocity P-wave (km/s) = 4.79734 6.77115 5.86783
#
# Compressibility (1/GPa) = 0.06625239
#
# Stress axis : x y z
#
# Youngs Moduli (GPa) = 20.28304 95.25078 56.22161
#
# Poissons Ratio (x) = 1.37239 -0.78446
# Poissons Ratio (y) = 0.29224 0.29305
# Poissons Ratio (z) = -0.28301 0.49649
#
# Static dielectric constant tensor:
#      x y z
#    x 1.734330 0.000000 0.000000 
#    y 0.000000 1.794090 0.000000 
#    z 0.000000 0.000000 1.837120 
# 
# From -- ./inp_files/1178.got.cif
#   From: 2010.05.17/outbox.cif.g08.bks.cpg/sg29_1_cif.got.tgz:1178.got - 2010.06.04 01:19:37.
