data_PCOD9341294
_publ_section_title
;
Structure prediction by ZEFSAII (Michael W. Deem and Ramdas Pophale) SiO2 
 PCOD9341294
Probable space group: P C A 21
;
_chemical_formula_sum "Si O2"
_cell_formula_units_Z 28
_cell_length_a 17.999707
_cell_length_b 5.784561
_cell_length_c 11.453060
_cell_angle_alpha 90.000000
_cell_angle_beta 90.000000
_cell_angle_gamma 90.000000
_cell_volume 1192.497224
_symmetry_space_group_name_H-M "P C A 21"
_symmetry_group_IT_number 29
_symmetry_cell_setting 'orthorhombic'
loop_
_space_group_symop_operation_xyz
x,y,z
-x,-y,1/2+z
1/2-x,y,1/2+z
1/2+x,-y,z
loop_
_atom_site_type_symbol
_atom_site_label
_atom_site_fract_x
_atom_site_fract_y
_atom_site_fract_z
Si Si1 0.093965 0.873686 0.768780
Si Si2 0.143133 0.854928 0.131972
Si Si3 0.613839 0.624250 0.894494
Si Si4 0.133147 0.841394 0.405129
Si Si5 0.986127 0.859311 0.556157
Si Si6 0.788182 0.917195 0.103713
Si Si7 0.243483 0.496089 0.513480
O O1 0.101002 0.628900 0.836587
O O2 0.023894 0.842280 0.682803
O O3 0.091803 0.130418 0.830419
O O4 0.166708 0.914628 0.687237
O O5 0.125445 0.832119 0.267403
O O6 0.197190 0.665102 0.075483
O O7 0.069268 0.922256 0.062931
O O8 0.200898 0.066967 0.124490
O O9 0.563864 0.646434 0.012111
O O10 0.700896 0.635157 0.925355
O O11 0.178516 0.615003 0.441583
O O12 0.054112 0.875510 0.466377
O O13 0.185349 0.027970 0.471509
O O14 0.800638 0.645841 0.112982
#
# Coordination Sequence:
#
# PCOD9341294 Si02
#       7
#     4   4   4   4   4   4   4
#     4  11  28  46  77 110 155 210 252 325 406 462
#     4  11  23  45  73 106 148 206 262 323 410 469
#     4  12  26  49  76 111 155 205 264 322 396 472
#     4  10  25  45  73 109 153 207 265 330 410 480
#     4  11  25  50  71 113 160 205 267 333 392 500
#     4  10  24  45  69 109 148 193 262 328 384 485
#     4  11  25  44  75 110 151 200 272 335 392 494
#
# _framework density 23.480139999999999
#
# number of rings (size 3 to 8) (size 9 to 14) (size 15 to 20)
#    0.000    1.143    1.429    2.571   12.000    3.429 
#    7.714    0.000    0.000    0.000    0.000    0.000 
#    0.000    0.000    0.000    0.000    0.000    0.000 
#
# Total GULP energy -156065.681720 kJ/mol
# GULP energy per Si atom -5573.774347 kJ/mol
# Density = 2.342670 g / cm^3
# Si number density = 23.480140 Si / 1000 Ang^3
#
#
#
# Elastic Constant Matrix: (Units=GPa)
#
#
# Indices 1 2 3 4 5 6 
#
# 1 108.0678 45.0484 38.4179 0.0000 0.0000 0.0000
# 2 45.0484 144.9002 70.4702 0.0000 0.0000 0.0000
# 3 38.4179 70.4702 110.1391 0.0000 0.0000 0.0000
# 4 0.0000 0.0000 0.0000 27.7430 0.0000 0.0000
# 5 0.0000 0.0000 0.0000 0.0000 -4.2740 0.0000
# 6 0.0000 0.0000 0.0000 0.0000 0.0000 34.0305
#
#
#
# Elastic Compliance Matrix: (Units=1/GPa)
#
#
# Indices 1 2 3 4 5 6 
#
# 1 0.011053 -0.002267 -0.002405 0.000000 0.000000 0.000000
# 2 -0.002267 0.010484 -0.005917 0.000000 0.000000 0.000000
# 3 -0.002405 -0.005917 0.013704 0.000000 0.000000 0.000000
# 4 0.000000 0.000000 0.000000 0.036045 0.000000 0.000000
# 5 0.000000 0.000000 0.000000 0.000000 -0.233972 0.000000
# 6 0.000000 0.000000 0.000000 0.000000 0.000000 0.029385
#
#
# Mechanical properties :
#
#
# Convention : Reuss Voigt Hill
#
# Bulk Modulus (GPa) = 71.10702 74.55336 72.83019
# Shear Modulus (GPa) = -46.54015 25.44461 -10.54777
#
# Velocity S-wave (km/s) = -4.45692 3.29548 -2.12178
# Velocity P-wave (km/s) = 1.96575 6.80447 5.00824
#
# Compressibility (1/GPa) = 0.01406331
#
# Stress axis : x y z
#
# Youngs Moduli (GPa) = 90.47002 95.38622 72.96938
#
# Poissons Ratio (x) = 0.21621 0.17551
# Poissons Ratio (y) = 0.20506 0.43177
# Poissons Ratio (z) = 0.21761 0.56441
#
# Static dielectric constant tensor:
#      x y z
#    x 1.856800 0.000000 0.000000 
#    y 0.000000 2.029460 0.000000 
#    z 0.000000 0.000000 2.016610 
# 
# From -- ./inp_files/3624.got.cif
#   From: 2010.05.17/outbox.cif.g08.bks.cpg/sg29_2_cif.got.tgz:3624.got - 2010.06.04 01:19:37.
