data_PCOD9341124
_publ_section_title
;
Structure prediction by ZEFSAII (Michael W. Deem and Ramdas Pophale) SiO2 
 PCOD9341124
Probable space group: P C A 21
;
_chemical_formula_sum "Si O2"
_cell_formula_units_Z 28
_cell_length_a 11.023855
_cell_length_b 12.034952
_cell_length_c 8.287496
_cell_angle_alpha 90.000000
_cell_angle_beta 90.000000
_cell_angle_gamma 90.000000
_cell_volume 1099.515071
_symmetry_space_group_name_H-M "P C A 21"
_symmetry_group_IT_number 29
_symmetry_cell_setting 'orthorhombic'
loop_
_space_group_symop_operation_xyz
x,y,z
-x,-y,1/2+z
1/2-x,y,1/2+z
1/2+x,-y,z
loop_
_atom_site_type_symbol
_atom_site_label
_atom_site_fract_x
_atom_site_fract_y
_atom_site_fract_z
Si Si1 0.058967 0.334414 0.466140
Si Si2 0.095388 0.594619 0.452201
Si Si3 0.071291 0.231113 0.125189
Si Si4 0.319001 0.698667 0.623079
Si Si5 0.269665 0.934557 0.778199
Si Si6 0.993409 0.049069 0.356002
Si Si7 0.311072 0.155536 0.089481
O O1 0.063405 0.466122 0.463012
O O2 0.110890 0.287109 0.296289
O O3 0.131586 0.277907 0.615058
O O4 0.920269 0.295125 0.484120
O O5 0.214553 0.621470 0.554730
O O6 0.119779 0.636206 0.272319
O O7 0.998671 0.675986 0.531140
O O8 0.182010 0.190387 0.015519
O O9 0.001503 0.121764 0.190230
O O10 0.267306 0.817231 0.684603
O O11 0.150070 0.941563 0.897321
O O12 0.414350 0.944051 0.825435
O O13 0.235857 0.053534 0.697308
O O14 0.077244 0.104167 0.492113
#
# Coordination Sequence:
#
# PCOD9341124 Si02
#       7
#     4   4   4   4   4   4   4
#     4  11  26  47  77 111 156 203 277 321 415 479
#     4  12  27  46  77 109 159 202 272 330 411 480
#     4  10  23  49  68 111 149 203 260 332 394 482
#     4  12  28  47  78 114 153 217 263 342 405 493
#     4  11  24  45  73 112 158 204 270 324 407 476
#     4  10  23  42  72 106 155 204 257 324 396 484
#     4  10  25  44  75 107 156 209 259 333 404 484
#
# _framework density 25.465771
#
# number of rings (size 3 to 8) (size 9 to 14) (size 15 to 20)
#    0.000    1.143    1.429    2.571    8.000    6.857 
#    0.000    0.000    0.000    0.000    0.000    0.000 
#    0.000    0.000    0.000    0.000    0.000    0.000 
#
# Total GULP energy -156132.039538 kJ/mol
# GULP energy per Si atom -5576.144269 kJ/mol
# Density = 2.540781 g / cm^3
# Si number density = 25.465771 Si / 1000 Ang^3
#
#
#
# Elastic Constant Matrix: (Units=GPa)
#
#
# Indices 1 2 3 4 5 6 
#
# 1 109.4218 64.7834 35.2259 0.0000 0.0000 0.0000
# 2 64.7834 107.3284 35.6227 0.0000 0.0000 0.0000
# 3 35.2259 35.6227 71.8841 0.0000 0.0000 0.0000
# 4 0.0000 0.0000 0.0000 40.7972 0.0000 0.0000
# 5 0.0000 0.0000 0.0000 0.0000 39.5047 0.0000
# 6 0.0000 0.0000 0.0000 0.0000 0.0000 35.7872
#
#
#
# Elastic Compliance Matrix: (Units=1/GPa)
#
#
# Indices 1 2 3 4 5 6 
#
# 1 0.014885 -0.007856 -0.003401 0.000000 0.000000 0.000000
# 2 -0.007856 0.015297 -0.003731 0.000000 0.000000 0.000000
# 3 -0.003401 -0.003731 0.017427 0.000000 0.000000 0.000000
# 4 0.000000 0.000000 0.000000 0.024511 0.000000 0.000000
# 5 0.000000 0.000000 0.000000 0.000000 0.025313 0.000000
# 6 0.000000 0.000000 0.000000 0.000000 0.000000 0.027943
#
#
# Mechanical properties :
#
#
# Convention : Reuss Voigt Hill
#
# Bulk Modulus (GPa) = 56.71132 62.21090 59.46111
# Shear Modulus (GPa) = 31.01152 33.41798 32.21475
#
# Velocity S-wave (km/s) = 3.49345 3.62646 3.56057
# Velocity P-wave (km/s) = 6.21210 6.48207 6.34852
#
# Compressibility (1/GPa) = 0.01763317
#
# Stress axis : x y z
#
# Youngs Moduli (GPa) = 67.18257 65.37148 57.38228
#
# Poissons Ratio (x) = 0.51353 0.19517
# Poissons Ratio (y) = 0.52776 0.21410
# Poissons Ratio (z) = 0.22850 0.24391
#
# Static dielectric constant tensor:
#      x y z
#    x 2.107390 0.000000 0.000000 
#    y 0.000000 2.021340 0.000000 
#    z 0.000000 0.000000 2.167320 
# 
# From -- ./inp_files/1485.got.cif
#   From: 2010.05.17/outbox.cif.g08.bks.cpg/sg29_1_cif.got.tgz:1485.got - 2010.06.04 01:19:37.
