data_PCOD9341565
_publ_section_title
;
Structure prediction by ZEFSAII (Michael W. Deem and Ramdas Pophale) SiO2 
 PCOD9341565
Probable space group: P C A 21
;
_chemical_formula_sum "Si O2"
_cell_formula_units_Z 32
_cell_length_a 14.416285
_cell_length_b 10.193846
_cell_length_c 9.683620
_cell_angle_alpha 90.000000
_cell_angle_beta 90.000000
_cell_angle_gamma 90.000000
_cell_volume 1423.079513
_symmetry_space_group_name_H-M "P C A 21"
_symmetry_group_IT_number 29
_symmetry_cell_setting 'orthorhombic'
loop_
_space_group_symop_operation_xyz
x,y,z
-x,-y,1/2+z
1/2-x,y,1/2+z
1/2+x,-y,z
loop_
_atom_site_type_symbol
_atom_site_label
_atom_site_fract_x
_atom_site_fract_y
_atom_site_fract_z
Si Si1 0.689969 0.274675 0.425250
Si Si2 0.523610 0.110738 0.304693
Si Si3 0.104622 0.494522 0.892528
Si Si4 0.638019 0.717518 0.672283
Si Si5 0.649010 0.233401 0.739741
Si Si6 0.522081 0.908292 0.099993
Si Si7 0.105585 0.454096 0.407460
Si Si8 0.156289 0.322994 0.128472
O O1 0.595966 0.217693 0.359483
O O2 0.693973 0.261576 0.590179
O O3 0.771637 0.195987 0.348602
O O4 0.682846 0.431363 0.401641
O O5 0.434122 0.173011 0.225910
O O6 0.500594 0.037262 0.448535
O O7 0.571132 0.015097 0.194645
O O8 0.148529 0.383455 0.797561
O O9 0.114401 0.633661 0.815370
O O10 0.994036 0.477027 0.898131
O O11 0.146561 0.458967 0.042530
O O12 0.599750 0.631253 0.546033
O O13 0.743468 0.746393 0.626920
O O14 0.565851 0.137672 0.693724
O O15 0.582073 0.779507 0.070883
O O16 0.125772 0.357146 0.282532
#
# Coordination Sequence:
#
# PCOD9341565 Si02
#       8
#     4   4   4   4   4   4   4   4
#     4  11  24  43  67 102 137 177 226 283 344 416
#     4  11  27  48  71  94 136 184 238 284 342 411
#     4  12  22  43  66 101 146 180 217 284 347 413
#     4  12  24  43  69 104 138 184 229 283 351 410
#     4  11  24  43  68 101 138 175 228 283 346 416
#     4  11  26  50  68  97 134 186 236 286 340 411
#     4  12  24  39  69 104 142 180 223 276 354 414
#     4  12  25  43  68 103 143 180 231 287 342 417
#
# _framework density 22.486446000000001
#
# number of rings (size 3 to 8) (size 9 to 14) (size 15 to 20)
#    0.000    0.500    5.000    3.750    3.500    2.000 
#    0.000    2.500    0.000    0.000    0.000    0.000 
#    0.000    0.000    0.000    0.000    0.000    0.000 
#
# Total GULP energy -178645.720810 kJ/mol
# GULP energy per Si atom -5582.678775 kJ/mol
# Density = 2.243527 g / cm^3
# Si number density = 22.486446 Si / 1000 Ang^3
#
#
#
# Elastic Constant Matrix: (Units=GPa)
#
#
# Indices 1 2 3 4 5 6 
#
# 1 81.6365 -7.4103 16.2753 0.0000 0.0000 0.0000
# 2 -7.4103 35.8997 30.6118 0.0000 0.0000 0.0000
# 3 16.2753 30.6118 109.7688 0.0000 0.0000 0.0000
# 4 0.0000 0.0000 0.0000 30.6494 0.0000 0.0000
# 5 0.0000 0.0000 0.0000 0.0000 21.8225 0.0000
# 6 0.0000 0.0000 0.0000 0.0000 0.0000 6.4450
#
#
#
# Elastic Compliance Matrix: (Units=1/GPa)
#
#
# Indices 1 2 3 4 5 6 
#
# 1 0.013513 0.005901 -0.003649 0.000000 0.000000 0.000000
# 2 0.005901 0.039123 -0.011785 0.000000 0.000000 0.000000
# 3 -0.003649 -0.011785 0.012938 0.000000 0.000000 0.000000
# 4 0.000000 0.000000 0.000000 0.032627 0.000000 0.000000
# 5 0.000000 0.000000 0.000000 0.000000 0.045824 0.000000
# 6 0.000000 0.000000 0.000000 0.000000 0.000000 0.155160
#
#
# Mechanical properties :
#
#
# Convention : Reuss Voigt Hill
#
# Bulk Modulus (GPa) = 21.50265 34.02874 27.76569
# Shear Modulus (GPa) = 14.98112 24.30525 19.64318
#
# Velocity S-wave (km/s) = 2.58394 3.29125 2.95881
# Velocity P-wave (km/s) = 4.29949 5.44141 4.90380
#
# Compressibility (1/GPa) = 0.04650590
#
# Stress axis : x y z
#
# Youngs Moduli (GPa) = 74.00539 25.56054 77.29333
#
# Poissons Ratio (x) = -0.15083 0.28205
# Poissons Ratio (y) = -0.43669 0.91092
# Poissons Ratio (z) = 0.27005 0.30124
#
# Static dielectric constant tensor:
#      x y z
#    x 1.912520 0.000000 0.000000 
#    y 0.000000 1.803120 0.000000 
#    z 0.000000 0.000000 1.791790 
# 
# From -- ./inp_files/1853.got.cif
#   From: 2010.05.17/outbox.cif.g08.bks.cpg/sg29_1_cif.got.tgz:1853.got - 2010.06.04 01:19:37.
