data_PCOD9341621
_publ_section_title
;
Structure prediction by ZEFSAII (Michael W. Deem and Ramdas Pophale) SiO2 
 PCOD9341621
Probable space group: P C A 21
;
_chemical_formula_sum "Si O2"
_cell_formula_units_Z 32
_cell_length_a 7.601447
_cell_length_b 10.552473
_cell_length_c 15.091820
_cell_angle_alpha 90.000000
_cell_angle_beta 90.000000
_cell_angle_gamma 90.000000
_cell_volume 1210.576219
_symmetry_space_group_name_H-M "P C A 21"
_symmetry_group_IT_number 29
_symmetry_cell_setting 'orthorhombic'
loop_
_space_group_symop_operation_xyz
x,y,z
-x,-y,1/2+z
1/2-x,y,1/2+z
1/2+x,-y,z
loop_
_atom_site_type_symbol
_atom_site_label
_atom_site_fract_x
_atom_site_fract_y
_atom_site_fract_z
Si Si1 0.794324 0.587717 0.656830
Si Si2 0.832080 0.803840 0.350446
Si Si3 0.902152 0.013847 0.478594
Si Si4 0.771273 0.408974 0.493488
Si Si5 0.159601 0.630405 0.306921
Si Si6 0.470393 0.789720 0.250001
Si Si7 0.878070 0.736600 0.014818
Si Si8 0.894493 0.162177 0.069872
O O1 0.808067 0.516851 0.564021
O O2 0.795086 0.473093 0.730198
O O3 0.655091 0.692826 0.617053
O O4 0.951086 0.672835 0.692759
O O5 0.648999 0.831062 0.298737
O O6 0.772003 0.730077 0.439567
O O7 0.975536 0.709964 0.304594
O O8 0.905507 0.939984 0.384850
O O9 0.723386 0.087498 0.498691
O O10 0.040768 0.122967 0.503201
O O11 0.917747 0.899338 0.549664
O O12 0.678942 0.438569 0.401009
O O13 0.651439 0.303977 0.542659
O O14 0.962072 0.349444 0.480661
O O15 0.314429 0.735289 0.308982
O O16 0.370581 0.867885 0.173095
#
# Coordination Sequence:
#
# PCOD9341621 Si02
#       8
#     4   4   4   4   4   4   4   4
#     4  12  29  50  83 128 177 228 292 359 444 549
#     4  12  27  51  85 122 170 229 298 370 450 532
#     4  11  24  51  88 116 162 231 299 362 446 537
#     4  11  25  47  87 118 172 231 286 363 448 530
#     4  12  28  51  82 125 175 228 291 364 444 542
#     4  12  29  52  77 127 178 221 293 368 450 521
#     4  11  26  51  85 120 165 236 288 356 457 520
#     4  11  24  51  81 116 163 226 289 364 445 531
#
# _framework density 26.433693000000002
#
# number of rings (size 3 to 8) (size 9 to 14) (size 15 to 20)
#    0.000    0.500    5.000    1.500    5.250    0.000 
#    2.250    0.000    0.000    0.000    0.000    0.000 
#    0.000    0.000    0.000    0.000    0.000    0.000 
#
# Total GULP energy -178529.625147 kJ/mol
# GULP energy per Si atom -5579.050786 kJ/mol
# Density = 2.637353 g / cm^3
# Si number density = 26.433693 Si / 1000 Ang^3
#
#
#
# Elastic Constant Matrix: (Units=GPa)
#
#
# Indices 1 2 3 4 5 6 
#
# 1 122.1519 45.7183 49.5253 0.0000 0.0000 0.0000
# 2 45.7183 106.4002 45.1050 0.0000 0.0000 0.0000
# 3 49.5253 45.1050 161.8373 0.0000 0.0000 0.0000
# 4 0.0000 0.0000 0.0000 40.0842 0.0000 0.0000
# 5 0.0000 0.0000 0.0000 0.0000 45.3602 0.0000
# 6 0.0000 0.0000 0.0000 0.0000 0.0000 12.1482
#
#
#
# Elastic Compliance Matrix: (Units=1/GPa)
#
#
# Indices 1 2 3 4 5 6 
#
# 1 0.010401 -0.003538 -0.002197 0.000000 0.000000 0.000000
# 2 -0.003538 0.011861 -0.002223 0.000000 0.000000 0.000000
# 3 -0.002197 -0.002223 0.007471 0.000000 0.000000 0.000000
# 4 0.000000 0.000000 0.000000 0.024948 0.000000 0.000000
# 5 0.000000 0.000000 0.000000 0.000000 0.022046 0.000000
# 6 0.000000 0.000000 0.000000 0.000000 0.000000 0.082317
#
#
# Mechanical properties :
#
#
# Convention : Reuss Voigt Hill
#
# Bulk Modulus (GPa) = 72.37241 74.56518 73.46879
# Shear Modulus (GPa) = 27.84499 36.18789 32.01644
#
# Velocity S-wave (km/s) = 3.24912 3.70402 3.48400
# Velocity P-wave (km/s) = 6.44313 6.82368 6.63614
#
# Compressibility (1/GPa) = 0.01381742
#
# Stress axis : x y z
#
# Youngs Moduli (GPa) = 96.14044 84.30933 133.85189
#
# Poissons Ratio (x) = 0.29828 0.29407
# Poissons Ratio (y) = 0.34014 0.29756
# Poissons Ratio (z) = 0.21122 0.18742
#
# Static dielectric constant tensor:
#      x y z
#    x 2.286410 0.000000 0.000000 
#    y 0.000000 2.226280 0.000000 
#    z 0.000000 0.000000 2.113890 
# 
# From -- ./inp_files/4277.got.cif
#   From: 2010.05.17/outbox.cif.g08.bks.cpg/sg29_3_cif.got.tgz:4277.got - 2010.06.04 01:19:37.
