data_PCOD9341026
_publ_section_title
;
Structure prediction by ZEFSAII (Michael W. Deem and Ramdas Pophale) SiO2 
 PCOD9341026
Probable space group: P C A 21
;
_chemical_formula_sum "Si O2"
_cell_formula_units_Z 32
_cell_length_a 13.487394
_cell_length_b 5.199538
_cell_length_c 19.522662
_cell_angle_alpha 90.000000
_cell_angle_beta 90.000000
_cell_angle_gamma 90.000000
_cell_volume 1369.089489
_symmetry_space_group_name_H-M "P C A 21"
_symmetry_group_IT_number 29
_symmetry_cell_setting 'orthorhombic'
loop_
_space_group_symop_operation_xyz
x,y,z
-x,-y,1/2+z
1/2-x,y,1/2+z
1/2+x,-y,z
loop_
_atom_site_type_symbol
_atom_site_label
_atom_site_fract_x
_atom_site_fract_y
_atom_site_fract_z
Si Si1 0.395592 0.401334 0.315020
Si Si2 0.144574 0.482334 0.674657
Si Si3 0.180518 0.456047 0.093826
Si Si4 0.741370 0.591267 0.942380
Si Si5 0.516099 0.902068 0.299941
Si Si6 0.137837 0.895242 0.427609
Si Si7 0.030139 0.820305 0.568863
Si Si8 0.551612 0.180694 0.166373
O O1 0.322836 0.505278 0.254051
O O2 0.349118 0.406804 0.390322
O O3 0.423664 0.101193 0.304551
O O4 0.483603 0.612088 0.314107
O O5 0.227777 0.322767 0.633436
O O6 0.113139 0.706658 0.621052
O O7 0.035260 0.368488 0.691256
O O8 0.074759 0.321881 0.081484
O O9 0.153643 0.689488 0.145075
O O10 0.216244 0.515166 0.017689
O O11 0.815171 0.380026 0.911840
O O12 0.786314 0.877446 0.949602
O O13 0.587258 0.996473 0.359740
O O14 0.559368 0.959493 0.223800
O O15 0.065345 0.838253 0.491533
O O16 0.000225 0.098180 0.595652
#
# Coordination Sequence:
#
# PCOD9341026 Si02
#       8
#     4   4   4   4   4   4   4   4
#     4  11  24  45  71  98 141 183 236 293 358 425
#     4  10  22  45  65 100 141 179 230 302 351 419
#     4  11  25  41  70 103 138 184 242 290 357 438
#     4  12  27  45  68 107 139 188 238 296 359 424
#     4  11  24  46  70  99 140 188 234 292 357 433
#     4  12  27  44  73  98 149 185 239 296 359 431
#     4  11  23  43  69  99 136 192 228 298 357 421
#     4  10  24  41  70 100 138 185 239 285 370 417
#
# _framework density 23.373197999999999
#
# number of rings (size 3 to 8) (size 9 to 14) (size 15 to 20)
#    0.000    1.000    2.500    3.000    7.000    2.000 
#    0.000    0.000    0.000    0.000    0.000    0.000 
#    0.000    0.000    0.000    0.000    0.000    0.000 
#
# Total GULP energy -178410.563660 kJ/mol
# GULP energy per Si atom -5575.330114 kJ/mol
# Density = 2.332000 g / cm^3
# Si number density = 23.373198 Si / 1000 Ang^3
#
#
#
# Elastic Constant Matrix: (Units=GPa)
#
#
# Indices 1 2 3 4 5 6 
#
# 1 59.3067 11.1512 34.7927 0.0000 0.0000 0.0000
# 2 11.1512 57.7460 -2.9332 0.0000 0.0000 0.0000
# 3 34.7927 -2.9332 79.8043 0.0000 0.0000 0.0000
# 4 0.0000 0.0000 0.0000 30.6306 0.0000 0.0000
# 5 0.0000 0.0000 0.0000 0.0000 30.6758 0.0000
# 6 0.0000 0.0000 0.0000 0.0000 0.0000 29.1516
#
#
#
# Elastic Compliance Matrix: (Units=1/GPa)
#
#
# Indices 1 2 3 4 5 6 
#
# 1 0.024121 -0.005202 -0.010707 0.000000 0.000000 0.000000
# 2 -0.005202 0.018471 0.002947 0.000000 0.000000 0.000000
# 3 -0.010707 0.002947 0.017307 0.000000 0.000000 0.000000
# 4 0.000000 0.000000 0.000000 0.032647 0.000000 0.000000
# 5 0.000000 0.000000 0.000000 0.000000 0.032599 0.000000
# 6 0.000000 0.000000 0.000000 0.000000 0.000000 0.034303
#
#
# Mechanical properties :
#
#
# Convention : Reuss Voigt Hill
#
# Bulk Modulus (GPa) = 29.43363 31.43093 30.43228
# Shear Modulus (GPa) = 25.41951 28.34801 26.88376
#
# Velocity S-wave (km/s) = 3.30138 3.48637 3.39513
# Velocity P-wave (km/s) = 5.21079 5.44821 5.33082
#
# Compressibility (1/GPa) = 0.03397474
#
# Stress axis : x y z
#
# Youngs Moduli (GPa) = 41.45728 54.13768 57.77953
#
# Poissons Ratio (x) = 0.28162 0.61867
# Poissons Ratio (y) = 0.21566 -0.17027
# Poissons Ratio (z) = 0.44390 -0.15953
#
# Static dielectric constant tensor:
#      x y z
#    x 1.998830 0.000000 0.000000 
#    y 0.000000 1.961590 0.000000 
#    z 0.000000 0.000000 1.982870 
# 
# From -- ./inp_files/5573.got.cif
#   From: 2010.05.17/outbox.cif.g08.bks.cpg/sg29_3_cif.got.tgz:5573.got - 2010.06.04 01:19:37.
