data_PCOD9341184
_publ_section_title
;
Structure prediction by ZEFSAII (Michael W. Deem and Ramdas Pophale) SiO2 
 PCOD9341184
Probable space group: P C A 21
;
_chemical_formula_sum "Si O2"
_cell_formula_units_Z 24
_cell_length_a 5.294257
_cell_length_b 13.508850
_cell_length_c 13.296490
_cell_angle_alpha 90.000000
_cell_angle_beta 90.000000
_cell_angle_gamma 90.000000
_cell_volume 950.955972
_symmetry_space_group_name_H-M "P C A 21"
_symmetry_group_IT_number 29
_symmetry_cell_setting 'orthorhombic'
loop_
_space_group_symop_operation_xyz
x,y,z
-x,-y,1/2+z
1/2-x,y,1/2+z
1/2+x,-y,z
loop_
_atom_site_type_symbol
_atom_site_label
_atom_site_fract_x
_atom_site_fract_y
_atom_site_fract_z
Si Si1 0.710830 0.636995 0.402600
Si Si2 0.783782 0.556076 0.603919
Si Si3 0.901559 0.225445 0.553843
Si Si4 0.108954 0.800155 0.362509
Si Si5 0.392788 0.062404 0.201920
Si Si6 0.934321 0.312550 0.222167
O O1 0.794347 0.556119 0.482884
O O2 0.568329 0.712765 0.476665
O O3 0.512660 0.613846 0.314446
O O4 0.951457 0.696925 0.360131
O O5 0.532831 0.502416 0.637943
O O6 0.822327 0.664218 0.652898
O O7 0.690670 0.180650 0.476894
O O8 0.045007 0.141134 0.614632
O O9 0.769403 0.300289 0.632899
O O10 0.941426 0.882556 0.308422
O O11 0.352073 0.782218 0.289407
O O12 0.112911 0.019689 0.194113
#
# Coordination Sequence:
#
# PCOD9341184 Si02
#       6
#     4   4   4   4   4   4
#     4  11  25  45  77 103 145 198 262 298 365 457
#     4  12  28  46  71 109 153 186 240 311 376 427
#     4  10  23  45  74 102 141 199 255 303 369 447
#     4  10  24  43  76 100 139 198 257 299 362 451
#     4  11  28  44  68 109 152 185 241 313 380 434
#     4  10  24  45  72 103 142 196 247 304 362 450
#
# _framework density 25.237760999999999
#
# number of rings (size 3 to 8) (size 9 to 14) (size 15 to 20)
#    0.000    1.333    1.667    1.000   18.667    2.667 
#    0.000    0.000    0.000    0.000    0.000    0.000 
#    0.000    0.000    0.000    0.000    0.000    0.000 
#
# Total GULP energy -133906.328058 kJ/mol
# GULP energy per Si atom -5579.430336 kJ/mol
# Density = 2.518032 g / cm^3
# Si number density = 25.237761 Si / 1000 Ang^3
#
#
#
# Elastic Constant Matrix: (Units=GPa)
#
#
# Indices 1 2 3 4 5 6 
#
# 1 112.2179 44.3425 44.4814 0.0000 0.0000 0.0000
# 2 44.3425 55.0967 37.3298 0.0000 0.0000 0.0000
# 3 44.4814 37.3298 144.7510 0.0000 0.0000 0.0000
# 4 0.0000 0.0000 0.0000 49.3225 0.0000 0.0000
# 5 0.0000 0.0000 0.0000 0.0000 31.6802 0.0000
# 6 0.0000 0.0000 0.0000 0.0000 0.0000 57.1219
#
#
#
# Elastic Compliance Matrix: (Units=1/GPa)
#
#
# Indices 1 2 3 4 5 6 
#
# 1 0.013372 -0.009667 -0.001616 0.000000 0.000000 0.000000
# 2 -0.009667 0.028981 -0.004503 0.000000 0.000000 0.000000
# 3 -0.001616 -0.004503 0.008566 0.000000 0.000000 0.000000
# 4 0.000000 0.000000 0.000000 0.020275 0.000000 0.000000
# 5 0.000000 0.000000 0.000000 0.000000 0.031565 0.000000
# 6 0.000000 0.000000 0.000000 0.000000 0.000000 0.017506
#
#
# Mechanical properties :
#
#
# Convention : Reuss Voigt Hill
#
# Bulk Modulus (GPa) = 51.68843 62.70808 57.19826
# Shear Modulus (GPa) = 31.58829 40.01905 35.80367
#
# Velocity S-wave (km/s) = 3.54167 3.98638 3.77059
# Velocity P-wave (km/s) = 6.10325 6.78890 6.45519
#
# Compressibility (1/GPa) = 0.01934669
#
# Stress axis : x y z
#
# Youngs Moduli (GPa) = 74.78557 34.50551 116.73506
#
# Poissons Ratio (x) = 0.33355 0.18866
# Poissons Ratio (y) = 0.72292 0.52570
# Poissons Ratio (z) = 0.12086 0.15539
#
# Static dielectric constant tensor:
#      x y z
#    x 2.016590 0.000000 0.000000 
#    y 0.000000 2.132380 0.000000 
#    z 0.000000 0.000000 2.020590 
# 
# From -- ./inp_files/2678.got.cif
#   From: 2010.05.17/outbox.cif.g08.bks.cpg/sg29_2_cif.got.tgz:2678.got - 2010.06.04 01:19:37.
