data_PCOD9341435
_publ_section_title
;
Structure prediction by ZEFSAII (Michael W. Deem and Ramdas Pophale) SiO2 
 PCOD9341435
Probable space group: P C A 21
;
_chemical_formula_sum "Si O2"
_cell_formula_units_Z 20
_cell_length_a 15.082327
_cell_length_b 8.749468
_cell_length_c 6.196699
_cell_angle_alpha 90.000000
_cell_angle_beta 90.000000
_cell_angle_gamma 90.000000
_cell_volume 817.730885
_symmetry_space_group_name_H-M "P C A 21"
_symmetry_group_IT_number 29
_symmetry_cell_setting 'orthorhombic'
loop_
_space_group_symop_operation_xyz
x,y,z
-x,-y,1/2+z
1/2-x,y,1/2+z
1/2+x,-y,z
loop_
_atom_site_type_symbol
_atom_site_label
_atom_site_fract_x
_atom_site_fract_y
_atom_site_fract_z
Si Si1 0.640013 0.927398 0.928760
Si Si2 0.068660 0.644483 0.384634
Si Si3 0.976179 0.864383 0.050098
Si Si4 0.769333 0.206038 0.015392
Si Si5 0.595060 0.655274 0.176885
O O1 0.613107 0.906927 0.679753
O O2 0.715611 0.047554 0.990304
O O3 0.658495 0.761071 0.031306
O O4 0.545772 0.999977 0.008864
O O5 0.031785 0.741614 0.186795
O O6 0.126207 0.762832 0.523174
O O7 0.121350 0.492780 0.313076
O O8 0.982887 0.595762 0.520546
O O9 0.945690 0.777731 0.839201
O O10 0.755638 0.264484 0.760433
#
# Coordination Sequence:
#
# PCOD9341435 Si02
#       5
#     4   4   4   4   4
#     4  11  24  40  71 106 143 195 252 313 377 459
#     4  11  24  44  74 108 148 200 257 321 393 462
#     4  11  21  41  71 104 142 186 255 312 366 457
#     4  12  28  47  74 104 155 204 249 312 402 467
#     4  11  23  42  74 112 142 191 267 320 374 465
#
# _framework density 24.457924999999999
#
# number of rings (size 3 to 8) (size 9 to 14) (size 15 to 20)
#    0.000    0.800    6.000    1.200    5.600    0.000 
#    0.000    2.000    0.000    0.000    0.000    0.000 
#    0.000    0.000    0.000    0.000    0.000    0.000 
#
# Total GULP energy -111451.483528 kJ/mol
# GULP energy per Si atom -5572.574176 kJ/mol
# Density = 2.440226 g / cm^3
# Si number density = 24.457925 Si / 1000 Ang^3
#
#
#
# Elastic Constant Matrix: (Units=GPa)
#
#
# Indices 1 2 3 4 5 6 
#
# 1 56.8755 34.9279 -3.6392 0.0000 0.0000 0.0000
# 2 34.9279 125.1022 36.9743 0.0000 0.0000 0.0000
# 3 -3.6392 36.9743 111.6485 0.0000 0.0000 0.0000
# 4 0.0000 0.0000 0.0000 38.1781 0.0000 0.0000
# 5 0.0000 0.0000 0.0000 0.0000 3.3308 0.0000
# 6 0.0000 0.0000 0.0000 0.0000 0.0000 30.4153
#
#
#
# Elastic Compliance Matrix: (Units=1/GPa)
#
#
# Indices 1 2 3 4 5 6 
#
# 1 0.022130 -0.007085 0.003068 0.000000 0.000000 0.000000
# 2 -0.007085 0.011129 -0.003917 0.000000 0.000000 0.000000
# 3 0.003068 -0.003917 0.010354 0.000000 0.000000 0.000000
# 4 0.000000 0.000000 0.000000 0.026193 0.000000 0.000000
# 5 0.000000 0.000000 0.000000 0.000000 0.300229 0.000000
# 6 0.000000 0.000000 0.000000 0.000000 0.000000 0.032878
#
#
# Mechanical properties :
#
#
# Convention : Reuss Voigt Hill
#
# Bulk Modulus (GPa) = 36.04324 47.79468 41.91896
# Shear Modulus (GPa) = 11.68145 29.40904 20.54524
#
# Velocity S-wave (km/s) = 2.18781 3.47137 2.90146
# Velocity P-wave (km/s) = 4.59900 5.97087 5.32926
#
# Compressibility (1/GPa) = 0.02774445
#
# Stress axis : x y z
#
# Youngs Moduli (GPa) = 45.18833 89.85419 96.58380
#
# Poissons Ratio (x) = 0.63663 -0.29629
# Poissons Ratio (y) = 0.32017 0.37827
# Poissons Ratio (z) = -0.13862 0.35192
#
# Static dielectric constant tensor:
#      x y z
#    x 2.008500 0.000000 0.000000 
#    y 0.000000 1.980920 0.000000 
#    z 0.000000 0.000000 2.077880 
# 
# From -- ./inp_files/323.got.cif
#   From: 2010.05.17/outbox.cif.g08.bks.cpg/sg29_1_cif.got.tgz:323.got - 2010.06.04 01:19:37.
