data_PCOD9341551
_publ_section_title
;
Structure prediction by ZEFSAII (Michael W. Deem and Ramdas Pophale) SiO2 
 PCOD9341551
Probable space group: P C A 21
;
_chemical_formula_sum "Si O2"
_cell_formula_units_Z 32
_cell_length_a 18.727397
_cell_length_b 6.714466
_cell_length_c 11.654440
_cell_angle_alpha 90.000000
_cell_angle_beta 90.000000
_cell_angle_gamma 90.000000
_cell_volume 1465.481386
_symmetry_space_group_name_H-M "P C A 21"
_symmetry_group_IT_number 29
_symmetry_cell_setting 'orthorhombic'
loop_
_space_group_symop_operation_xyz
x,y,z
-x,-y,1/2+z
1/2-x,y,1/2+z
1/2+x,-y,z
loop_
_atom_site_type_symbol
_atom_site_label
_atom_site_fract_x
_atom_site_fract_y
_atom_site_fract_z
Si Si1 0.339563 0.164736 0.110540
Si Si2 0.422839 0.184515 0.533653
Si Si3 0.698856 0.959892 0.196788
Si Si4 0.788435 0.616506 0.891509
Si Si5 0.368936 0.438650 0.325928
Si Si6 0.102144 0.702948 0.298587
Si Si7 0.999357 0.639045 0.742645
Si Si8 0.035016 0.058652 0.440615
O O1 0.278289 0.008377 0.147398
O O2 0.362321 0.275942 0.225508
O O3 0.299286 0.311032 0.021146
O O4 0.409468 0.098850 0.042079
O O5 0.350421 0.151316 0.603564
O O6 0.409579 0.342760 0.433980
O O7 0.482405 0.255176 0.623783
O O8 0.454776 0.981389 0.482657
O O9 0.704481 0.811210 0.307335
O O10 0.655847 0.159775 0.225594
O O11 0.711403 0.519870 0.866431
O O12 0.848530 0.456088 0.862766
O O13 0.418090 0.609753 0.272884
O O14 0.041777 0.572310 0.235893
O O15 0.061573 0.857111 0.380048
O O16 0.965703 0.769002 0.845582
#
# Coordination Sequence:
#
# PCOD9341551 Si02
#       8
#     4   4   4   4   4   4   4   4
#     4  11  24  48  74 102 152 183 240 309 348 438
#     4  12  25  46  71 101 150 184 237 300 359 425
#     4  11  24  47  72 103 142 192 235 299 365 427
#     4  11  23  50  71 101 146 187 247 300 357 434
#     4  11  28  44  75 109 139 193 240 299 365 430
#     4  12  22  46  75 101 133 197 241 281 376 433
#     4  12  27  49  71 108 146 188 246 301 361 439
#     4  12  27  46  73 105 142 192 236 301 365 430
#
# _framework density 21.835827999999999
#
# number of rings (size 3 to 8) (size 9 to 14) (size 15 to 20)
#    0.000    0.500    7.500    0.000    7.000    1.000 
#    9.000    0.000    0.000    0.000    0.000    0.000 
#    0.000    0.000    0.000    0.000    0.000    0.000 
#
# Total GULP energy -178932.581659 kJ/mol
# GULP energy per Si atom -5591.643177 kJ/mol
# Density = 2.178613 g / cm^3
# Si number density = 21.835828 Si / 1000 Ang^3
#
#
#
# Elastic Constant Matrix: (Units=GPa)
#
#
# Indices 1 2 3 4 5 6 
#
# 1 93.5640 6.7646 5.5415 0.0000 0.0000 0.0000
# 2 6.7646 49.3159 1.0295 0.0000 0.0000 0.0000
# 3 5.5415 1.0295 79.5905 0.0000 0.0000 0.0000
# 4 0.0000 0.0000 0.0000 21.3116 0.0000 0.0000
# 5 0.0000 0.0000 0.0000 0.0000 14.5374 0.0000
# 6 0.0000 0.0000 0.0000 0.0000 0.0000 52.8526
#
#
#
# Elastic Compliance Matrix: (Units=1/GPa)
#
#
# Indices 1 2 3 4 5 6 
#
# 1 0.010838 -0.001471 -0.000736 0.000000 0.000000 0.000000
# 2 -0.001471 0.020483 -0.000163 0.000000 0.000000 0.000000
# 3 -0.000736 -0.000163 0.012618 0.000000 0.000000 0.000000
# 4 0.000000 0.000000 0.000000 0.046923 0.000000 0.000000
# 5 0.000000 0.000000 0.000000 0.000000 0.068788 0.000000
# 6 0.000000 0.000000 0.000000 0.000000 0.000000 0.018921
#
#
# Mechanical properties :
#
#
# Convention : Reuss Voigt Hill
#
# Bulk Modulus (GPa) = 25.51057 27.68240 26.59649
# Shear Modulus (GPa) = 25.46151 31.68264 28.57207
#
# Velocity S-wave (km/s) = 3.41844 3.81326 3.62124
# Velocity P-wave (km/s) = 5.22391 5.66507 5.44896
#
# Compressibility (1/GPa) = 0.03919944
#
# Stress axis : x y z
#
# Youngs Moduli (GPa) = 92.26962 48.82186 79.25422
#
# Poissons Ratio (x) = 0.07183 0.05830
# Poissons Ratio (y) = 0.13575 0.01288
# Poissons Ratio (z) = 0.06787 0.00793
#
# Static dielectric constant tensor:
#      x y z
#    x 1.836590 0.000000 0.000000 
#    y 0.000000 1.765520 0.000000 
#    z 0.000000 0.000000 1.785870 
# 
# From -- ./inp_files/3903.got.cif
#   From: 2010.05.17/outbox.cif.g08.bks.cpg/sg29_2_cif.got.tgz:3903.got - 2010.06.04 01:19:37.
