data_PCOD9341992
_publ_section_title
;
Structure prediction by ZEFSAII (Michael W. Deem and Ramdas Pophale) SiO2 
 PCOD9341992
Probable space group: P N C 2
;
_chemical_formula_sum "Si O2"
_cell_formula_units_Z 22
_cell_length_a 7.105525
_cell_length_b 23.801543
_cell_length_c 6.019641
_cell_angle_alpha 90.000000
_cell_angle_beta 90.000000
_cell_angle_gamma 90.000000
_cell_volume 1018.056487
_symmetry_space_group_name_H-M "P N C 2"
_symmetry_group_IT_number 30
_symmetry_cell_setting 'orthorhombic'
loop_
_space_group_symop_operation_xyz
x,y,z
-x,-y,z
-x,1/2+y,1/2+z
x,1/2-y,1/2+z
loop_
_atom_site_type_symbol
_atom_site_label
_atom_site_fract_x
_atom_site_fract_y
_atom_site_fract_z
Si Si1 0.000000 0.000000 0.603091
Si Si2 0.423061 0.241073 0.024555
Si Si3 0.302331 0.844433 0.506859
Si Si4 0.566831 0.615788 0.636940
Si Si5 0.990897 0.898823 0.265261
Si Si6 0.730676 0.435100 0.381429
O O1 0.966056 0.945356 0.455098
O O2 0.186567 0.986815 0.744890
O O3 0.331925 0.249131 0.276015
O O4 0.599763 0.284136 0.031813
O O5 0.478464 0.176078 0.027857
O O6 0.457175 0.881286 0.370863
O O7 0.259066 0.880014 0.725195
O O8 0.109890 0.846704 0.364553
O O9 0.787967 0.613924 0.668574
O O10 0.475370 0.567114 0.489303
O O11 0.123211 0.925845 0.079988
#
# Coordination Sequence:
#
# PCOD9341992 Si02
#       6
#     2   4   4   4   4   4
#     4  10  22  42  62  88 128 172 216 282 352 402
#     4  10  19  38  65  93 137 182 220 267 339 406
#     4   9  20  39  62  89 132 174 209 270 333 404
#     4  10  21  39  65  93 131 171 222 279 332 404
#     4  10  22  41  64  94 127 169 228 280 336 408
#     4  10  20  41  64  88 128 168 216 279 334 402
#
# _framework density 21.609804
#
# number of rings (size 3 to 8) (size 9 to 14) (size 15 to 20)
#    0.000    2.182    1.818    0.545    0.000    2.909 
#    0.000   32.727    0.000    0.000    0.000    0.000 
#    0.000    0.000    0.000    0.000    0.000    0.000 
#
# Total GULP energy -122589.843382 kJ/mol
# GULP energy per Si atom -5572.265608 kJ/mol
# Density = 2.156062 g / cm^3
# Si number density = 21.609804 Si / 1000 Ang^3
#
#
#
# Elastic Constant Matrix: (Units=GPa)
#
#
# Indices 1 2 3 4 5 6 
#
# 1 90.7567 -0.8266 6.9394 0.0000 0.0000 0.0000
# 2 -0.8266 54.9245 2.0313 0.0000 0.0000 0.0000
# 3 6.9394 2.0313 93.8982 0.0000 0.0000 0.0000
# 4 0.0000 0.0000 0.0000 36.1857 0.0000 0.0000
# 5 0.0000 0.0000 0.0000 0.0000 12.0278 0.0000
# 6 0.0000 0.0000 0.0000 0.0000 0.0000 16.3155
#
#
#
# Elastic Compliance Matrix: (Units=1/GPa)
#
#
# Indices 1 2 3 4 5 6 
#
# 1 0.011083 0.000197 -0.000823 0.000000 0.000000 0.000000
# 2 0.000197 0.018225 -0.000409 0.000000 0.000000 0.000000
# 3 -0.000823 -0.000409 0.010720 0.000000 0.000000 0.000000
# 4 0.000000 0.000000 0.000000 0.027635 0.000000 0.000000
# 5 0.000000 0.000000 0.000000 0.000000 0.083140 0.000000
# 6 0.000000 0.000000 0.000000 0.000000 0.000000 0.061292
#
#
# Mechanical properties :
#
#
# Convention : Reuss Voigt Hill
#
# Bulk Modulus (GPa) = 26.34509 28.42975 27.38742
# Shear Modulus (GPa) = 22.04417 28.33482 25.18950
#
# Velocity S-wave (km/s) = 3.19737 3.62498 3.41787
# Velocity P-wave (km/s) = 5.08415 5.54122 5.31760
#
# Compressibility (1/GPa) = 0.03795773
#
# Stress axis : x y z
#
# Youngs Moduli (GPa) = 90.22651 54.87002 93.28776
#
# Poissons Ratio (x) = -0.01082 0.07681
# Poissons Ratio (y) = -0.01780 0.03814
# Poissons Ratio (z) = 0.07429 0.02243
#
# Static dielectric constant tensor:
#      x y z
#    x 1.770660 0.000000 0.000000 
#    y 0.000000 1.777730 0.000000 
#    z 0.000000 0.000000 1.890520 
# 
# From -- ./inp_files/238.got.cif
#   From: 2010.05.17/outbox.cif.g08.bks.cpg/sg30_1_cif.got.tgz:238.got - 2010.06.03 17:03:02.
