data_PCOD9341240
_publ_section_title
;
Structure prediction by ZEFSAII (Michael W. Deem and Ramdas Pophale) SiO2 
 PCOD9341240
Probable space group: P C A 21
;
_chemical_formula_sum "Si O2"
_cell_formula_units_Z 16
_cell_length_a 24.002577
_cell_length_b 4.767631
_cell_length_c 5.491991
_cell_angle_alpha 90.000000
_cell_angle_beta 90.000000
_cell_angle_gamma 90.000000
_cell_volume 628.478353
_symmetry_space_group_name_H-M "P C A 21"
_symmetry_group_IT_number 29
_symmetry_cell_setting 'orthorhombic'
loop_
_space_group_symop_operation_xyz
x,y,z
-x,-y,1/2+z
1/2-x,y,1/2+z
1/2+x,-y,z
loop_
_atom_site_type_symbol
_atom_site_label
_atom_site_fract_x
_atom_site_fract_y
_atom_site_fract_z
Si Si1 0.433587 0.329399 0.024980
Si Si2 0.356365 0.624366 0.709311
Si Si3 0.717952 0.876277 0.120373
Si Si4 0.043026 0.295461 0.028111
O O1 0.439732 0.162090 0.273433
O O2 0.376585 0.496666 0.969975
O O3 0.447883 0.144782 0.786189
O O4 0.482957 0.560263 0.026566
O O5 0.303220 0.442220 0.629412
O O6 0.410361 0.543175 0.551434
O O7 0.336255 0.937750 0.681234
O O8 0.758538 0.931832 0.350415
#
# Coordination Sequence:
#
# PCOD9341240 Si02
#       4
#     4   4   4   4
#     4   8  16  32  61  89 125 153 196 236 305 375
#     4  10  24  42  68  88 128 162 200 258 314 352
#     4  12  28  44  64  90 120 164 220 260 300 354
#     4   8  16  32  61  89 125 153 196 236 305 375
#
# _framework density 25.458311999999999
#
# number of rings (size 3 to 8) (size 9 to 14) (size 15 to 20)
#    1.500    1.000    0.000    1.500    7.000    0.000 
#    0.000    2.500    0.000    0.000    0.000    0.000 
#    0.000    0.000    0.000    0.000    0.000    0.000 
#
# Total GULP energy -89270.869994 kJ/mol
# GULP energy per Si atom -5579.429375 kJ/mol
# Density = 2.540037 g / cm^3
# Si number density = 25.458312 Si / 1000 Ang^3
#
#
#
# Elastic Constant Matrix: (Units=GPa)
#
#
# Indices 1 2 3 4 5 6 
#
# 1 71.6134 9.8703 -14.9395 0.0000 0.0000 0.0000
# 2 9.8703 59.2360 17.1665 0.0000 0.0000 0.0000
# 3 -14.9395 17.1665 156.4025 0.0000 0.0000 0.0000
# 4 0.0000 0.0000 0.0000 8.3544 0.0000 0.0000
# 5 0.0000 0.0000 0.0000 0.0000 38.0231 0.0000
# 6 0.0000 0.0000 0.0000 0.0000 0.0000 44.7425
#
#
#
# Elastic Compliance Matrix: (Units=1/GPa)
#
#
# Indices 1 2 3 4 5 6 
#
# 1 0.014733 -0.002957 0.001732 0.000000 0.000000 0.000000
# 2 -0.002957 0.018030 -0.002261 0.000000 0.000000 0.000000
# 3 0.001732 -0.002261 0.006807 0.000000 0.000000 0.000000
# 4 0.000000 0.000000 0.000000 0.119697 0.000000 0.000000
# 5 0.000000 0.000000 0.000000 0.000000 0.026300 0.000000
# 6 0.000000 0.000000 0.000000 0.000000 0.000000 0.022350
#
#
# Mechanical properties :
#
#
# Convention : Reuss Voigt Hill
#
# Bulk Modulus (GPa) = 30.67754 34.60514 32.64134
# Shear Modulus (GPa) = 22.14790 36.56766 29.35778
#
# Velocity S-wave (km/s) = 2.95272 3.79406 3.39952
# Velocity P-wave (km/s) = 4.86837 5.72849 5.31585
#
# Compressibility (1/GPa) = 0.03259714
#
# Stress axis : x y z
#
# Youngs Moduli (GPa) = 67.87644 55.46434 146.89941
#
# Poissons Ratio (x) = 0.16399 -0.25440
# Poissons Ratio (y) = 0.20069 0.33219
# Poissons Ratio (z) = -0.11755 0.12542
#
# Static dielectric constant tensor:
#      x y z
#    x 1.996030 0.000000 0.000000 
#    y 0.000000 1.884290 0.000000 
#    z 0.000000 0.000000 2.189410 
# 
# From -- ./inp_files/482.got.cif
#   From: 2010.05.17/outbox.cif.g08.bks.cpg/sg29_1_cif.got.tgz:482.got - 2010.06.04 01:19:37.
