data_PCOD9341482
_publ_section_title
;
Structure prediction by ZEFSAII (Michael W. Deem and Ramdas Pophale) SiO2 
 PCOD9341482
Probable space group: P C A 21
;
_chemical_formula_sum "Si O2"
_cell_formula_units_Z 32
_cell_length_a 18.509527
_cell_length_b 9.788429
_cell_length_c 8.344299
_cell_angle_alpha 90.000000
_cell_angle_beta 90.000000
_cell_angle_gamma 90.000000
_cell_volume 1511.813341
_symmetry_space_group_name_H-M "P C A 21"
_symmetry_group_IT_number 29
_symmetry_cell_setting 'orthorhombic'
loop_
_space_group_symop_operation_xyz
x,y,z
-x,-y,1/2+z
1/2-x,y,1/2+z
1/2+x,-y,z
loop_
_atom_site_type_symbol
_atom_site_label
_atom_site_fract_x
_atom_site_fract_y
_atom_site_fract_z
Si Si1 0.044346 0.667160 0.941140
Si Si2 0.680828 0.380176 0.759875
Si Si3 0.571450 0.541720 0.215283
Si Si4 0.664189 0.696580 0.693879
Si Si5 0.595764 0.026869 0.367233
Si Si6 0.679706 0.753064 0.314035
Si Si7 0.463837 0.113501 0.160710
Si Si8 0.661380 0.317927 0.392425
O O1 0.125265 0.691720 0.880525
O O2 0.992844 0.627539 0.794011
O O3 0.047337 0.535801 0.057055
O O4 0.009667 0.791617 0.038267
O O5 0.660554 0.540564 0.750603
O O6 0.670336 0.324145 0.582274
O O7 0.763010 0.363214 0.814698
O O8 0.638969 0.644479 0.200637
O O9 0.599828 0.422297 0.333359
O O10 0.669717 0.702580 0.498837
O O11 0.736994 0.758835 0.767168
O O12 0.594112 0.784262 0.739830
O O13 0.519027 0.043935 0.280654
O O14 0.639066 0.166150 0.343393
O O15 0.640409 0.898086 0.302759
O O16 0.579676 0.994824 0.553382
#
# Coordination Sequence:
#
# PCOD9341482 Si02
#       8
#     4   4   4   4   4   4   4   4
#     4  12  25  43  71 103 142 177 236 297 354 415
#     4  12  25  43  72 106 141 184 235 299 354 416
#     4  12  22  44  69 103 136 182 237 297 342 417
#     4  11  22  46  69 102 136 183 232 287 345 419
#     4  11  27  47  70 102 146 186 236 292 351 432
#     4  11  25  44  69 100 140 179 236 285 346 427
#     4  11  25  48  66 102 143 185 236 285 354 430
#     4  12  25  43  70 104 144 184 236 288 356 414
#
# _framework density 21.166634999999999
#
# number of rings (size 3 to 8) (size 9 to 14) (size 15 to 20)
#    0.000    0.500    6.250    2.250    3.500    4.000 
#    0.000    0.000    0.000    0.000    0.000    0.000 
#    0.000    0.000    0.000    0.000    0.000    0.000 
#
# Total GULP energy -179167.204611 kJ/mol
# GULP energy per Si atom -5598.975144 kJ/mol
# Density = 2.111846 g / cm^3
# Si number density = 21.166635 Si / 1000 Ang^3
#
#
#
# Elastic Constant Matrix: (Units=GPa)
#
#
# Indices 1 2 3 4 5 6 
#
# 1 84.8356 19.8345 5.4757 0.0000 0.0000 0.0000
# 2 19.8345 97.0334 0.9172 0.0000 0.0000 0.0000
# 3 5.4757 0.9172 22.3826 0.0000 0.0000 0.0000
# 4 0.0000 0.0000 0.0000 19.0348 0.0000 0.0000
# 5 0.0000 0.0000 0.0000 0.0000 41.9091 0.0000
# 6 0.0000 0.0000 0.0000 0.0000 0.0000 37.9683
#
#
#
# Elastic Compliance Matrix: (Units=1/GPa)
#
#
# Indices 1 2 3 4 5 6 
#
# 1 0.012574 -0.002542 -0.002972 0.000000 0.000000 0.000000
# 2 -0.002542 0.010824 0.000178 0.000000 0.000000 0.000000
# 3 -0.002972 0.000178 0.045397 0.000000 0.000000 0.000000
# 4 0.000000 0.000000 0.000000 0.052535 0.000000 0.000000
# 5 0.000000 0.000000 0.000000 0.000000 0.023861 0.000000
# 6 0.000000 0.000000 0.000000 0.000000 0.000000 0.026338
#
#
# Mechanical properties :
#
#
# Convention : Reuss Voigt Hill
#
# Bulk Modulus (GPa) = 17.20474 28.52293 22.86384
# Shear Modulus (GPa) = 24.80470 31.65072 28.22771
#
# Velocity S-wave (km/s) = 3.42698 3.87112 3.65580
# Velocity P-wave (km/s) = 4.87902 5.78666 5.35212
#
# Compressibility (1/GPa) = 0.05812351
#
# Stress axis : x y z
#
# Youngs Moduli (GPa) = 79.53131 92.39018 22.02770
#
# Poissons Ratio (x) = 0.23486 0.06546
# Poissons Ratio (y) = 0.20217 -0.00393
# Poissons Ratio (z) = 0.23636 -0.01648
#
# Static dielectric constant tensor:
#      x y z
#    x 1.745520 0.000000 0.000000 
#    y 0.000000 1.745690 0.000000 
#    z 0.000000 0.000000 1.761680 
# 
# From -- ./inp_files/2315.got.cif
#   From: 2010.05.17/outbox.cif.g08.bks.cpg/sg29_2_cif.got.tgz:2315.got - 2010.06.04 01:19:37.
