data_PCOD9341170
_publ_section_title
;
Structure prediction by ZEFSAII (Michael W. Deem and Ramdas Pophale) SiO2 
 PCOD9341170
Probable space group: P C A 21
;
_chemical_formula_sum "Si O2"
_cell_formula_units_Z 20
_cell_length_a 8.111059
_cell_length_b 7.801310
_cell_length_c 12.446570
_cell_angle_alpha 90.000000
_cell_angle_beta 90.000000
_cell_angle_gamma 90.000000
_cell_volume 787.580187
_symmetry_space_group_name_H-M "P C A 21"
_symmetry_group_IT_number 29
_symmetry_cell_setting 'orthorhombic'
loop_
_space_group_symop_operation_xyz
x,y,z
-x,-y,1/2+z
1/2-x,y,1/2+z
1/2+x,-y,z
loop_
_atom_site_type_symbol
_atom_site_label
_atom_site_fract_x
_atom_site_fract_y
_atom_site_fract_z
Si Si1 0.222344 0.126713 0.737960
Si Si2 0.753842 0.404411 0.500569
Si Si3 0.385381 0.249007 0.008501
Si Si4 0.030932 0.881676 0.432034
Si Si5 0.065519 0.792483 0.665600
O O1 0.098311 0.134554 0.837839
O O2 0.407489 0.206935 0.743363
O O3 0.141250 0.214475 0.634183
O O4 0.206274 0.923955 0.705825
O O5 0.738999 0.601913 0.471643
O O6 0.937630 0.338226 0.499495
O O7 0.659205 0.273684 0.422120
O O8 0.662069 0.369805 0.615974
O O9 0.386440 0.068899 0.944873
O O10 0.974530 0.862814 0.556460
#
# Coordination Sequence:
#
# PCOD9341170 Si02
#       5
#     4   4   4   4   4
#     4  11  21  39  69  96 132 183 222 276 341 402
#     4  10  23  45  65  99 136 179 220 287 342 395
#     4  11  23  43  72  94 145 175 226 290 337 403
#     4   9  24  41  68  98 137 176 236 271 350 397
#     4   9  21  38  62  95 130 171 222 276 326 395
#
# _framework density 25.394238000000001
#
# number of rings (size 3 to 8) (size 9 to 14) (size 15 to 20)
#    1.200    0.800    0.000    3.600    2.800    0.000 
#    3.600    0.000    0.000    0.000    0.000    0.000 
#    0.000    0.000    0.000    0.000    0.000    0.000 
#
# Total GULP energy -111652.262731 kJ/mol
# GULP energy per Si atom -5582.613137 kJ/mol
# Density = 2.533644 g / cm^3
# Si number density = 25.394238 Si / 1000 Ang^3
#
#
#
# Elastic Constant Matrix: (Units=GPa)
#
#
# Indices 1 2 3 4 5 6 
#
# 1 74.1258 4.9345 -13.4691 0.0000 0.0000 0.0000
# 2 4.9345 151.0679 4.5957 0.0000 0.0000 0.0000
# 3 -13.4691 4.5957 61.6065 0.0000 0.0000 0.0000
# 4 0.0000 0.0000 0.0000 24.6578 0.0000 0.0000
# 5 0.0000 0.0000 0.0000 0.0000 30.5414 0.0000
# 6 0.0000 0.0000 0.0000 0.0000 0.0000 39.3761
#
#
#
# Elastic Compliance Matrix: (Units=1/GPa)
#
#
# Indices 1 2 3 4 5 6 
#
# 1 0.014095 -0.000555 0.003123 0.000000 0.000000 0.000000
# 2 -0.000555 0.006656 -0.000618 0.000000 0.000000 0.000000
# 3 0.003123 -0.000618 0.016961 0.000000 0.000000 0.000000
# 4 0.000000 0.000000 0.000000 0.040555 0.000000 0.000000
# 5 0.000000 0.000000 0.000000 0.000000 0.032742 0.000000
# 6 0.000000 0.000000 0.000000 0.000000 0.000000 0.025396
#
#
# Mechanical properties :
#
#
# Convention : Reuss Voigt Hill
#
# Bulk Modulus (GPa) = 24.03168 30.99137 27.51152
# Shear Modulus (GPa) = 34.15830 38.29769 36.22800
#
# Velocity S-wave (km/s) = 3.67157 3.88767 3.78116
# Velocity P-wave (km/s) = 5.24002 5.69057 5.46994
#
# Compressibility (1/GPa) = 0.04161175
#
# Stress axis : x y z
#
# Youngs Moduli (GPa) = 70.94705 150.22948 58.95896
#
# Poissons Ratio (x) = 0.08344 -0.18413
# Poissons Ratio (y) = 0.03940 0.03644
# Poissons Ratio (z) = -0.22157 0.09284
#
# Static dielectric constant tensor:
#      x y z
#    x 2.062870 0.000000 0.000000 
#    y 0.000000 1.965250 0.000000 
#    z 0.000000 0.000000 2.082490 
# 
# From -- ./inp_files/2789.got.cif
#   From: 2010.05.17/outbox.cif.g08.bks.cpg/sg29_2_cif.got.tgz:2789.got - 2010.06.04 01:19:37.
