data_PCOD9341213
_publ_section_title
;
Structure prediction by ZEFSAII (Michael W. Deem and Ramdas Pophale) SiO2 
 PCOD9341213
Probable space group: P C A 21
;
_chemical_formula_sum "Si O2"
_cell_formula_units_Z 20
_cell_length_a 10.316451
_cell_length_b 4.957125
_cell_length_c 14.164018
_cell_angle_alpha 90.000000
_cell_angle_beta 90.000000
_cell_angle_gamma 90.000000
_cell_volume 724.346991
_symmetry_space_group_name_H-M "P C A 21"
_symmetry_group_IT_number 29
_symmetry_cell_setting 'orthorhombic'
loop_
_space_group_symop_operation_xyz
x,y,z
-x,-y,1/2+z
1/2-x,y,1/2+z
1/2+x,-y,z
loop_
_atom_site_type_symbol
_atom_site_label
_atom_site_fract_x
_atom_site_fract_y
_atom_site_fract_z
Si Si1 0.798475 0.029452 0.675950
Si Si2 0.016353 0.927243 0.348994
Si Si3 0.312049 0.461906 0.266121
Si Si4 0.400766 0.681845 0.493353
Si Si5 0.176240 0.312204 0.448895
O O1 0.721192 0.753834 0.685072
O O2 0.805515 0.572836 0.494653
O O3 0.854900 0.126852 0.577503
O O4 0.916847 0.007387 0.749738
O O5 0.935283 0.659213 0.322606
O O6 0.912013 0.132710 0.397893
O O7 0.133232 0.001625 0.424613
O O8 0.300219 0.746255 0.216370
O O9 0.197032 0.442170 0.344460
O O10 0.548996 0.582926 0.502448
#
# Coordination Sequence:
#
# PCOD9341213 Si02
#       5
#     4   4   4   4   4
#     4  11  26  46  77 124 159 226 284 357 417 527
#     4   9  24  47  76 121 172 227 279 361 440 517
#     4  11  24  47  77 112 165 223 281 344 432 508
#     4  10  23  50  82 126 169 224 295 353 439 517
#     4   9  23  46  80 119 163 226 281 351 436 509
#
# _framework density 27.611073000000001
#
# number of rings (size 3 to 8) (size 9 to 14) (size 15 to 20)
#    1.200    0.800    0.000    1.200    5.600    3.200 
#    0.000    0.000    0.000    4.800    0.000    0.000 
#    0.000    0.000    0.000    0.000    0.000    0.000 
#
# Total GULP energy -111640.041634 kJ/mol
# GULP energy per Si atom -5582.002082 kJ/mol
# Density = 2.754823 g / cm^3
# Si number density = 27.611073 Si / 1000 Ang^3
#
#
#
# Elastic Constant Matrix: (Units=GPa)
#
#
# Indices 1 2 3 4 5 6 
#
# 1 202.0411 56.2098 52.7611 0.0000 0.0000 0.0000
# 2 56.2098 131.2072 66.6263 0.0000 0.0000 0.0000
# 3 52.7611 66.6263 127.9709 0.0000 0.0000 0.0000
# 4 0.0000 0.0000 0.0000 46.3025 0.0000 0.0000
# 5 0.0000 0.0000 0.0000 0.0000 39.5749 0.0000
# 6 0.0000 0.0000 0.0000 0.0000 0.0000 49.2793
#
#
#
# Elastic Compliance Matrix: (Units=1/GPa)
#
#
# Indices 1 2 3 4 5 6 
#
# 1 0.005823 -0.001734 -0.001498 0.000000 0.000000 0.000000
# 2 -0.001734 0.010877 -0.004948 0.000000 0.000000 0.000000
# 3 -0.001498 -0.004948 0.011008 0.000000 0.000000 0.000000
# 4 0.000000 0.000000 0.000000 0.021597 0.000000 0.000000
# 5 0.000000 0.000000 0.000000 0.000000 0.025269 0.000000
# 6 0.000000 0.000000 0.000000 0.000000 0.000000 0.020292
#
#
# Mechanical properties :
#
#
# Convention : Reuss Voigt Hill
#
# Bulk Modulus (GPa) = 88.12121 90.26819 89.19470
# Shear Modulus (GPa) = 43.47488 46.07281 44.77385
#
# Velocity S-wave (km/s) = 3.97236 4.08933 4.03127
# Velocity P-wave (km/s) = 7.28176 7.42028 7.35134
#
# Compressibility (1/GPa) = 0.01134801
#
# Stress axis : x y z
#
# Youngs Moduli (GPa) = 171.73022 91.93753 90.84269
#
# Poissons Ratio (x) = 0.15941 0.13609
# Poissons Ratio (y) = 0.29777 0.44949
# Poissons Ratio (z) = 0.25726 0.45491
#
# Static dielectric constant tensor:
#      x y z
#    x 2.204050 0.000000 0.000000 
#    y 0.000000 2.250680 0.000000 
#    z 0.000000 0.000000 2.151540 
# 
# From -- ./inp_files/3037.got.cif
#   From: 2010.05.17/outbox.cif.g08.bks.cpg/sg29_2_cif.got.tgz:3037.got - 2010.06.04 01:19:37.
