data_PCOD9341976
_publ_section_title
;
Structure prediction by ZEFSAII (Michael W. Deem and Ramdas Pophale) SiO2 
 PCOD9341976
Probable space group: P N C 2
;
_chemical_formula_sum "Si O2"
_cell_formula_units_Z 30
_cell_length_a 12.161025
_cell_length_b 6.973276
_cell_length_c 15.328813
_cell_angle_alpha 90.000000
_cell_angle_beta 90.000000
_cell_angle_gamma 90.000000
_cell_volume 1299.916817
_symmetry_space_group_name_H-M "P N C 2"
_symmetry_group_IT_number 30
_symmetry_cell_setting 'orthorhombic'
loop_
_space_group_symop_operation_xyz
x,y,z
-x,-y,z
-x,1/2+y,1/2+z
x,1/2-y,1/2+z
loop_
_atom_site_type_symbol
_atom_site_label
_atom_site_fract_x
_atom_site_fract_y
_atom_site_fract_z
Si Si1 0.605499 0.361020 0.676410
Si Si2 0.584440 0.230623 0.493667
Si Si3 0.350689 0.333847 0.454081
Si Si4 0.027460 0.772947 0.389742
Si Si5 0.198269 0.209916 0.799977
Si Si6 0.737663 0.350910 0.839498
Si Si7 0.000000 0.500000 0.548421
Si Si8 0.782953 0.824332 0.118243
O O1 0.500000 0.500000 0.688856
O O2 0.585353 0.208177 0.598693
O O3 0.650121 0.279524 0.767734
O O4 0.700824 0.505727 0.645310
O O5 0.460832 0.206638 0.456870
O O6 0.610870 0.456803 0.483858
O O7 0.677750 0.140540 0.432952
O O8 0.290470 0.373708 0.363323
O O9 0.262703 0.256296 0.524725
O O10 0.145722 0.744219 0.344611
O O11 0.924534 0.685626 0.336766
O O12 0.035323 0.670781 0.483334
O O13 0.000000 0.000000 0.399159
O O14 0.226184 0.435499 0.813162
O O15 0.211505 0.173594 0.697255
O O16 0.901285 0.580816 0.605316
#
# Coordination Sequence:
#
# PCOD9341976 Si02
#       8
#     4   4   4   4   4   4   2   4
#     4  10  19  37  58  89 119 162 210 252 301 389
#     4  10  20  36  61  89 121 154 213 254 307 374
#     4  10  19  38  58  86 121 161 198 260 305 367
#     4  10  22  41  62  97 128 157 213 268 307 377
#     4  10  22  38  61  86 125 158 207 260 311 375
#     4  10  23  35  60  89 121 157 202 260 313 363
#     4  12  22  40  78  86 122 180 208 252 336 372
#     4  10  21  35  63  90 113 166 214 244 312 388
#
# _framework density 23.078399999999998
#
# number of rings (size 3 to 8) (size 9 to 14) (size 15 to 20)
#    0.000    1.867    4.000    1.600    8.400    0.000 
#    0.000    1.333    7.333    0.000    0.000    0.000 
#    0.000    0.000    0.000    0.000    0.000    0.000 
#
# Total GULP energy -167541.991821 kJ/mol
# GULP energy per Si atom -5584.733061 kJ/mol
# Density = 2.302587 g / cm^3
# Si number density = 23.078400 Si / 1000 Ang^3
#
#
#
# Elastic Constant Matrix: (Units=GPa)
#
#
# Indices 1 2 3 4 5 6 
#
# 1 160.5416 7.7765 75.4729 0.0000 0.0000 0.0000
# 2 7.7765 34.5747 19.6404 0.0000 0.0000 0.0000
# 3 75.4729 19.6404 138.8956 0.0000 0.0000 0.0000
# 4 0.0000 0.0000 0.0000 111.8289 0.0000 0.0000
# 5 0.0000 0.0000 0.0000 0.0000 -57.7002 0.0000
# 6 0.0000 0.0000 0.0000 0.0000 0.0000 24.7479
#
#
#
# Elastic Compliance Matrix: (Units=1/GPa)
#
#
# Indices 1 2 3 4 5 6 
#
# 1 0.008385 0.000764 -0.004664 0.000000 0.000000 0.000000
# 2 0.000764 0.031519 -0.004872 0.000000 0.000000 0.000000
# 3 -0.004664 -0.004872 0.010423 0.000000 0.000000 0.000000
# 4 0.000000 0.000000 0.000000 0.008942 0.000000 0.000000
# 5 0.000000 0.000000 0.000000 0.000000 -0.017331 0.000000
# 6 0.000000 0.000000 0.000000 0.000000 0.000000 0.040407
#
#
# Mechanical properties :
#
#
# Convention : Reuss Voigt Hill
#
# Bulk Modulus (GPa) = 30.50489 59.97682 45.24086
# Shear Modulus (GPa) = 45.11981 31.18347 38.15164
#
# Velocity S-wave (km/s) = 4.42641 3.67985 4.07028
# Velocity P-wave (km/s) = 6.27461 6.64077 6.46028
#
# Compressibility (1/GPa) = 0.03278163
#
# Stress axis : x y z
#
# Youngs Moduli (GPa) = 119.26752 31.72734 95.94329
#
# Poissons Ratio (x) = -0.02423 0.44747
# Poissons Ratio (y) = -0.09107 0.46741
# Poissons Ratio (z) = 0.55626 0.15457
#
# Static dielectric constant tensor:
#      x y z
#    x 2.022550 0.000000 0.000000 
#    y 0.000000 1.951100 0.000000 
#    z 0.000000 0.000000 1.957210 
# 
# From -- ./inp_files/5469.got.cif
#   From: 2010.05.17/outbox.cif.g08.bks.cpg/sg30_3_cif.got.tgz:5469.got - 2010.06.03 17:03:02.
