data_PCOD9341066
_publ_section_title
;
Structure prediction by ZEFSAII (Michael W. Deem and Ramdas Pophale) SiO2 
 PCOD9341066
Probable space group: P C A 21
;
_chemical_formula_sum "Si O2"
_cell_formula_units_Z 32
_cell_length_a 11.422478
_cell_length_b 8.380254
_cell_length_c 14.548901
_cell_angle_alpha 90.000000
_cell_angle_beta 90.000000
_cell_angle_gamma 90.000000
_cell_volume 1392.668334
_symmetry_space_group_name_H-M "P C A 21"
_symmetry_group_IT_number 29
_symmetry_cell_setting 'orthorhombic'
loop_
_space_group_symop_operation_xyz
x,y,z
-x,-y,1/2+z
1/2-x,y,1/2+z
1/2+x,-y,z
loop_
_atom_site_type_symbol
_atom_site_label
_atom_site_fract_x
_atom_site_fract_y
_atom_site_fract_z
Si Si1 0.133307 0.837085 0.638610
Si Si2 0.532538 0.023230 0.264570
Si Si3 0.390486 0.612057 0.960106
Si Si4 0.773748 0.214500 0.806714
Si Si5 0.024354 0.767516 0.095441
Si Si6 0.625304 0.028518 0.935754
Si Si7 0.228861 0.169326 0.558482
Si Si8 0.646274 0.533730 0.025727
O O1 0.114367 0.743710 0.543665
O O2 0.211835 0.740355 0.712160
O O3 0.020336 0.884712 0.700353
O O4 0.197516 0.006045 0.613874
O O5 0.668779 0.039936 0.287105
O O6 0.514539 0.176065 0.199339
O O7 0.465969 0.030855 0.360832
O O8 0.368282 0.679080 0.858020
O O9 0.526180 0.554813 0.966393
O O10 0.270378 0.508860 0.976936
O O11 0.680029 0.182414 0.886741
O O12 0.894713 0.740592 0.058033
O O13 0.070706 0.912025 0.031370
O O14 0.107459 0.617449 0.085554
O O15 0.721709 0.898915 0.962748
O O16 0.324613 0.304166 0.582226
#
# Coordination Sequence:
#
# PCOD9341066 Si02
#       8
#     4   4   4   4   4   4   4   4
#     4  10  24  43  73 105 134 186 245 313 356 422
#     4  10  23  37  69 104 129 175 244 298 354 416
#     4  12  25  48  72 103 151 196 238 298 371 438
#     4  11  21  41  70  98 138 175 239 303 363 418
#     4  11  23  45  69  98 148 186 233 298 360 445
#     4  11  21  39  71  99 136 178 240 306 357 417
#     4  11  22  40  71 104 134 185 244 292 358 433
#     4  12  25  43  73 103 144 207 233 284 379 451
#
# _framework density 22.977475999999999
#
# number of rings (size 3 to 8) (size 9 to 14) (size 15 to 20)
#    0.000    1.000    3.750    3.000    7.000    0.000 
#    0.000    3.750    8.250    0.000    0.000    0.000 
#    0.000    0.000    0.000    0.000    0.000    0.000 
#
# Total GULP energy -178269.401003 kJ/mol
# GULP energy per Si atom -5570.918781 kJ/mol
# Density = 2.292518 g / cm^3
# Si number density = 22.977476 Si / 1000 Ang^3
#
#
#
# Elastic Constant Matrix: (Units=GPa)
#
#
# Indices 1 2 3 4 5 6 
#
# 1 112.8008 31.0749 22.4851 0.0000 0.0000 0.0000
# 2 31.0749 60.1887 35.7850 0.0000 0.0000 0.0000
# 3 22.4851 35.7850 88.1407 0.0000 0.0000 0.0000
# 4 0.0000 0.0000 0.0000 17.2875 0.0000 0.0000
# 5 0.0000 0.0000 0.0000 0.0000 40.6937 0.0000
# 6 0.0000 0.0000 0.0000 0.0000 0.0000 47.7914
#
#
#
# Elastic Compliance Matrix: (Units=1/GPa)
#
#
# Indices 1 2 3 4 5 6 
#
# 1 0.010361 -0.004980 -0.000621 0.000000 0.000000 0.000000
# 2 -0.004980 0.024294 -0.008593 0.000000 0.000000 0.000000
# 3 -0.000621 -0.008593 0.014993 0.000000 0.000000 0.000000
# 4 0.000000 0.000000 0.000000 0.057845 0.000000 0.000000
# 5 0.000000 0.000000 0.000000 0.000000 0.024574 0.000000
# 6 0.000000 0.000000 0.000000 0.000000 0.000000 0.020924
#
#
# Mechanical properties :
#
#
# Convention : Reuss Voigt Hill
#
# Bulk Modulus (GPa) = 47.03759 48.86892 47.95325
# Shear Modulus (GPa) = 26.52990 32.60686 29.56838
#
# Velocity S-wave (km/s) = 3.40163 3.77115 3.59115
# Velocity P-wave (km/s) = 5.99531 6.34638 6.17334
#
# Compressibility (1/GPa) = 0.02125959
#
# Stress axis : x y z
#
# Youngs Moduli (GPa) = 96.51667 41.16159 66.69868
#
# Poissons Ratio (x) = 0.20498 0.04144
# Poissons Ratio (y) = 0.48064 0.57315
# Poissons Ratio (z) = 0.05997 0.35371
#
# Static dielectric constant tensor:
#      x y z
#    x 1.964240 0.000000 0.000000 
#    y 0.000000 1.961810 0.000000 
#    z 0.000000 0.000000 1.897270 
# 
# From -- ./inp_files/4567.got.cif
#   From: 2010.05.17/outbox.cif.g08.bks.cpg/sg29_3_cif.got.tgz:4567.got - 2010.06.04 01:19:37.
