data_PCOD9341168
_publ_section_title
;
Structure prediction by ZEFSAII (Michael W. Deem and Ramdas Pophale) SiO2 
 PCOD9341168
Probable space group: P C A 21
;
_chemical_formula_sum "Si O2"
_cell_formula_units_Z 32
_cell_length_a 22.565668
_cell_length_b 4.938728
_cell_length_c 10.377376
_cell_angle_alpha 90.000000
_cell_angle_beta 90.000000
_cell_angle_gamma 90.000000
_cell_volume 1156.513895
_symmetry_space_group_name_H-M "P C A 21"
_symmetry_group_IT_number 29
_symmetry_cell_setting 'orthorhombic'
loop_
_space_group_symop_operation_xyz
x,y,z
-x,-y,1/2+z
1/2-x,y,1/2+z
1/2+x,-y,z
loop_
_atom_site_type_symbol
_atom_site_label
_atom_site_fract_x
_atom_site_fract_y
_atom_site_fract_z
Si Si1 0.588490 0.816618 0.407150
Si Si2 0.457756 0.664772 0.415319
Si Si3 0.550080 0.262059 0.200835
Si Si4 0.710340 0.514289 0.450509
Si Si5 0.126435 0.356731 0.067106
Si Si6 0.784501 0.140059 0.577198
Si Si7 0.787463 0.785000 0.232283
Si Si8 0.079493 0.074505 0.704041
O O1 0.528226 0.637652 0.411653
O O2 0.646496 0.624760 0.406166
O O3 0.581535 0.555247 0.183358
O O4 0.581554 0.058690 0.301076
O O5 0.446881 0.837904 0.549642
O O6 0.417825 0.408015 0.449132
O O7 0.435847 0.811949 0.288090
O O8 0.673944 0.400222 0.077635
O O9 0.479526 0.258118 0.223181
O O10 0.731389 0.204691 0.476221
O O11 0.756638 0.629559 0.347628
O O12 0.715936 0.630695 0.595595
O O13 0.167643 0.097733 0.059370
O O14 0.749458 0.057438 0.704894
O O15 0.856105 0.836179 0.250813
O O16 0.912456 0.961291 0.049586
#
# Coordination Sequence:
#
# PCOD9341168 Si02
#       8
#     4   4   4   4   4   4   4   4
#     4   9  17  39  73 120 175 216 285 353 437 513
#     4   8  18  37  74 120 162 227 275 354 424 527
#     4   8  17  38  75 119 161 228 276 350 429 526
#     4  11  26  47  78 116 161 224 280 360 427 519
#     4  10  23  44  79 111 157 213 288 335 411 519
#     4  12  25  51  74 120 154 225 279 346 416 510
#     4  11  26  47  78 119 165 220 283 357 424 520
#     4   9  18  37  73 117 173 213 280 351 436 504
#
# _framework density 27.669363000000001
#
# number of rings (size 3 to 8) (size 9 to 14) (size 15 to 20)
#    0.750    1.500    1.250    0.750    1.750    1.000 
#    4.500    1.250    0.000    4.500    3.250    0.000 
#    0.000    0.000    0.000    0.000    0.000    0.000 
#
# Total GULP energy -179063.550479 kJ/mol
# GULP energy per Si atom -5595.735952 kJ/mol
# Density = 2.760639 g / cm^3
# Si number density = 27.669363 Si / 1000 Ang^3
#
#
#
# Elastic Constant Matrix: (Units=GPa)
#
#
# Indices 1 2 3 4 5 6 
#
# 1 261.1807 95.3679 85.6625 0.0000 0.0000 0.0000
# 2 95.3679 163.4445 76.6205 0.0000 0.0000 0.0000
# 3 85.6625 76.6205 145.7564 0.0000 0.0000 0.0000
# 4 0.0000 0.0000 0.0000 48.6560 0.0000 0.0000
# 5 0.0000 0.0000 0.0000 0.0000 49.4047 0.0000
# 6 0.0000 0.0000 0.0000 0.0000 0.0000 22.7977
#
#
#
# Elastic Compliance Matrix: (Units=1/GPa)
#
#
# Indices 1 2 3 4 5 6 
#
# 1 0.005256 -0.002148 -0.001960 0.000000 0.000000 0.000000
# 2 -0.002148 0.008997 -0.003467 0.000000 0.000000 0.000000
# 3 -0.001960 -0.003467 0.009835 0.000000 0.000000 0.000000
# 4 0.000000 0.000000 0.000000 0.020552 0.000000 0.000000
# 5 0.000000 0.000000 0.000000 0.000000 0.020241 0.000000
# 6 0.000000 0.000000 0.000000 0.000000 0.000000 0.043864
#
#
# Mechanical properties :
#
#
# Convention : Reuss Voigt Hill
#
# Bulk Modulus (GPa) = 111.87928 120.63149 116.25539
# Shear Modulus (GPa) = 39.40905 45.02039 42.21472
#
# Velocity S-wave (km/s) = 3.77806 4.03809 3.91024
# Velocity P-wave (km/s) = 7.71711 8.08911 7.90530
#
# Compressibility (1/GPa) = 0.00893821
#
# Stress axis : x y z
#
# Youngs Moduli (GPa) = 190.26353 111.14892 101.67689
#
# Poissons Ratio (x) = 0.23875 0.19926
# Poissons Ratio (y) = 0.40869 0.35252
# Poissons Ratio (z) = 0.37287 0.38536
#
# Static dielectric constant tensor:
#      x y z
#    x 2.101760 0.000000 0.000000 
#    y 0.000000 2.329310 0.000000 
#    z 0.000000 0.000000 2.334450 
# 
# From -- ./inp_files/3922.got.cif
#   From: 2010.05.17/outbox.cif.g08.bks.cpg/sg29_2_cif.got.tgz:3922.got - 2010.06.04 01:19:37.
