data_PCOD9341687
_publ_section_title
;
Structure prediction by ZEFSAII (Michael W. Deem and Ramdas Pophale) SiO2 
 PCOD9341687
Probable space group: P C A 21
;
_chemical_formula_sum "Si O2"
_cell_formula_units_Z 24
_cell_length_a 8.446955
_cell_length_b 12.036897
_cell_length_c 8.900981
_cell_angle_alpha 90.000000
_cell_angle_beta 90.000000
_cell_angle_gamma 90.000000
_cell_volume 905.008376
_symmetry_space_group_name_H-M "P C A 21"
_symmetry_group_IT_number 29
_symmetry_cell_setting 'orthorhombic'
loop_
_space_group_symop_operation_xyz
x,y,z
-x,-y,1/2+z
1/2-x,y,1/2+z
1/2+x,-y,z
loop_
_atom_site_type_symbol
_atom_site_label
_atom_site_fract_x
_atom_site_fract_y
_atom_site_fract_z
Si Si1 0.207955 0.974506 0.694320
Si Si2 0.943755 0.908883 0.910434
Si Si3 0.747860 0.278384 0.135957
Si Si4 0.585022 0.681880 0.300349
Si Si5 0.083188 0.366294 0.751777
Si Si6 0.899381 0.460831 0.986215
O O1 0.257423 0.854499 0.627035
O O2 0.111517 0.946567 0.846329
O O3 0.110996 0.033895 0.562561
O O4 0.340638 0.053424 0.764727
O O5 0.934643 0.776507 0.925801
O O6 0.586285 0.310599 0.218646
O O7 0.762188 0.367388 0.998974
O O8 0.923926 0.302422 0.206045
O O9 0.612235 0.558353 0.362939
O O10 0.757679 0.703383 0.228568
O O11 0.095857 0.470669 0.639867
O O12 0.058999 0.400538 0.927443
#
# Coordination Sequence:
#
# PCOD9341687 Si02
#       6
#     4   4   4   4   4   4
#     4  11  27  50  77 109 150 197 259 320 383 457
#     4  11  27  50  77 109 150 197 259 320 383 457
#     4  11  28  48  75 113 149 200 256 307 381 459
#     4  11  28  48  75 113 149 200 256 307 381 459
#     4  12  28  46  78 104 158 198 242 314 378 444
#     4  12  26  48  74 114 152 198 248 308 378 458
#
# _framework density 26.519089999999998
#
# number of rings (size 3 to 8) (size 9 to 14) (size 15 to 20)
#    0.000    0.667    1.667    3.000   11.667    2.667 
#    0.000    0.000    0.000    0.000    0.000    0.000 
#    0.000    0.000    0.000    0.000    0.000    0.000 
#
# Total GULP energy -134188.471488 kJ/mol
# GULP energy per Si atom -5591.186312 kJ/mol
# Density = 2.645873 g / cm^3
# Si number density = 26.519090 Si / 1000 Ang^3
#
#
#
# Elastic Constant Matrix: (Units=GPa)
#
#
# Indices 1 2 3 4 5 6 
#
# 1 144.8154 35.1381 33.7793 0.0000 0.0000 0.0000
# 2 35.1381 116.6023 17.3607 0.0000 0.0000 0.0000
# 3 33.7793 17.3607 108.4187 0.0000 0.0000 0.0000
# 4 0.0000 0.0000 0.0000 36.7770 0.0000 0.0000
# 5 0.0000 0.0000 0.0000 0.0000 53.7081 0.0000
# 6 0.0000 0.0000 0.0000 0.0000 0.0000 28.4377
#
#
#
# Elastic Compliance Matrix: (Units=1/GPa)
#
#
# Indices 1 2 3 4 5 6 
#
# 1 0.007904 -0.002064 -0.002132 0.000000 0.000000 0.000000
# 2 -0.002064 0.009325 -0.000850 0.000000 0.000000 0.000000
# 3 -0.002132 -0.000850 0.010024 0.000000 0.000000 0.000000
# 4 0.000000 0.000000 0.000000 0.027191 0.000000 0.000000
# 5 0.000000 0.000000 0.000000 0.000000 0.018619 0.000000
# 6 0.000000 0.000000 0.000000 0.000000 0.000000 0.035165
#
#
# Mechanical properties :
#
#
# Convention : Reuss Voigt Hill
#
# Bulk Modulus (GPa) = 58.27589 60.26584 59.27086
# Shear Modulus (GPa) = 40.30990 42.68846 41.49918
#
# Velocity S-wave (km/s) = 3.90299 4.01649 3.96015
# Velocity P-wave (km/s) = 6.50645 6.65465 6.58097
#
# Compressibility (1/GPa) = 0.01715976
#
# Stress axis : x y z
#
# Youngs Moduli (GPa) = 126.52608 107.24106 99.76230
#
# Poissons Ratio (x) = 0.22138 0.21268
# Poissons Ratio (y) = 0.26119 0.08480
# Poissons Ratio (z) = 0.26974 0.09115
#
# Static dielectric constant tensor:
#      x y z
#    x 2.146140 0.000000 0.000000 
#    y 0.000000 2.068480 0.000000 
#    z 0.000000 0.000000 2.151500 
# 
# From -- ./inp_files/1143.got.cif
#   From: 2010.05.17/outbox.cif.g08.bks.cpg/sg29_1_cif.got.tgz:1143.got - 2010.06.04 01:19:37.
