data_PCOD9341714
_publ_section_title
;
Structure prediction by ZEFSAII (Michael W. Deem and Ramdas Pophale) SiO2 
 PCOD9341714
Probable space group: P C A 21
;
_chemical_formula_sum "Si O2"
_cell_formula_units_Z 28
_cell_length_a 11.279568
_cell_length_b 9.473251
_cell_length_c 10.654636
_cell_angle_alpha 90.000000
_cell_angle_beta 90.000000
_cell_angle_gamma 90.000000
_cell_volume 1138.492381
_symmetry_space_group_name_H-M "P C A 21"
_symmetry_group_IT_number 29
_symmetry_cell_setting 'orthorhombic'
loop_
_space_group_symop_operation_xyz
x,y,z
-x,-y,1/2+z
1/2-x,y,1/2+z
1/2+x,-y,z
loop_
_atom_site_type_symbol
_atom_site_label
_atom_site_fract_x
_atom_site_fract_y
_atom_site_fract_z
Si Si1 0.017593 0.285527 0.160930
Si Si2 0.220555 0.345913 0.704436
Si Si3 0.503381 0.848223 0.729949
Si Si4 0.335091 0.619249 0.809888
Si Si5 0.366650 0.778069 0.401282
Si Si6 0.952220 0.557448 0.011029
Si Si7 0.485590 0.028537 0.485980
O O1 0.150760 0.275930 0.214627
O O2 0.917707 0.234900 0.258894
O O3 0.998606 0.445996 0.113919
O O4 0.020211 0.183548 0.041657
O O5 0.119783 0.245503 0.762737
O O6 0.244114 0.503312 0.756599
O O7 0.169128 0.375159 0.564476
O O8 0.397556 0.733144 0.721057
O O9 0.533229 0.936625 0.604403
O O10 0.464587 0.950236 0.844944
O O11 0.260917 0.709960 0.909242
O O12 0.430959 0.530634 0.885778
O O13 0.458637 0.680006 0.475082
O O14 0.369032 0.936554 0.452461
#
# Coordination Sequence:
#
# PCOD9341714 Si02
#       7
#     4   4   4   4   4   4   4
#     4  12  26  47  72 109 152 198 255 313 379 459
#     4  12  26  45  78 112 149 197 258 324 381 451
#     4  12  28  52  76 114 158 206 262 314 390 470
#     4  12  26  45  78 112 149 197 258 324 381 451
#     4  12  26  47  72 109 152 198 255 313 379 459
#     4  12  24  46  76 110 154 192 260 318 390 446
#     4  12  28  50  74 108 160 204 254 308 388 466
#
# _framework density 24.593927000000001
#
# number of rings (size 3 to 8) (size 9 to 14) (size 15 to 20)
#    0.000    0.000    7.143    2.571    4.000    2.286 
#    0.000    0.000    0.000    0.000    0.000    0.000 
#    0.000    0.000    0.000    0.000    0.000    0.000 
#
# Total GULP energy -156416.687290 kJ/mol
# GULP energy per Si atom -5586.310260 kJ/mol
# Density = 2.453795 g / cm^3
# Si number density = 24.593927 Si / 1000 Ang^3
#
#
#
# Elastic Constant Matrix: (Units=GPa)
#
#
# Indices 1 2 3 4 5 6 
#
# 1 59.5275 9.2343 2.6352 0.0000 0.0000 0.0000
# 2 9.2343 98.6562 43.3057 0.0000 0.0000 0.0000
# 3 2.6352 43.3057 121.3896 0.0000 0.0000 0.0000
# 4 0.0000 0.0000 0.0000 57.2724 0.0000 0.0000
# 5 0.0000 0.0000 0.0000 0.0000 34.9135 0.0000
# 6 0.0000 0.0000 0.0000 0.0000 0.0000 21.8163
#
#
#
# Elastic Compliance Matrix: (Units=1/GPa)
#
#
# Indices 1 2 3 4 5 6 
#
# 1 0.017052 -0.001700 0.000236 0.000000 0.000000 0.000000
# 2 -0.001700 0.012188 -0.004311 0.000000 0.000000 0.000000
# 3 0.000236 -0.004311 0.009771 0.000000 0.000000 0.000000
# 4 0.000000 0.000000 0.000000 0.017460 0.000000 0.000000
# 5 0.000000 0.000000 0.000000 0.000000 0.028642 0.000000
# 6 0.000000 0.000000 0.000000 0.000000 0.000000 0.045837
#
#
# Mechanical properties :
#
#
# Convention : Reuss Voigt Hill
#
# Bulk Modulus (GPa) = 36.41474 43.32486 39.86980
# Shear Modulus (GPa) = 32.96988 37.76032 35.36510
#
# Velocity S-wave (km/s) = 3.66535 3.92261 3.79616
# Velocity P-wave (km/s) = 5.72290 6.17820 5.95490
#
# Compressibility (1/GPa) = 0.02746140
#
# Stress axis : x y z
#
# Youngs Moduli (GPa) = 58.64347 82.05010 102.34603
#
# Poissons Ratio (x) = 0.13947 -0.02418
# Poissons Ratio (y) = 0.09968 0.44122
# Poissons Ratio (z) = -0.01385 0.35372
#
# Static dielectric constant tensor:
#      x y z
#    x 1.928330 0.000000 0.000000 
#    y 0.000000 1.964660 0.000000 
#    z 0.000000 0.000000 2.034180 
# 
# From -- ./inp_files/3122.got.cif
#   From: 2010.05.17/outbox.cif.g08.bks.cpg/sg29_2_cif.got.tgz:3122.got - 2010.06.04 01:19:37.
