data_PCOD9341528
_publ_section_title
;
Structure prediction by ZEFSAII (Michael W. Deem and Ramdas Pophale) SiO2 
 PCOD9341528
Probable space group: P C A 21
;
_chemical_formula_sum "Si O2"
_cell_formula_units_Z 24
_cell_length_a 11.464253
_cell_length_b 8.400797
_cell_length_c 11.837746
_cell_angle_alpha 90.000000
_cell_angle_beta 90.000000
_cell_angle_gamma 90.000000
_cell_volume 1140.079848
_symmetry_space_group_name_H-M "P C A 21"
_symmetry_group_IT_number 29
_symmetry_cell_setting 'orthorhombic'
loop_
_space_group_symop_operation_xyz
x,y,z
-x,-y,1/2+z
1/2-x,y,1/2+z
1/2+x,-y,z
loop_
_atom_site_type_symbol
_atom_site_label
_atom_site_fract_x
_atom_site_fract_y
_atom_site_fract_z
Si Si1 0.308745 0.140809 0.991980
Si Si2 0.034292 0.660943 0.010881
Si Si3 0.057416 0.924308 0.660988
Si Si4 0.715309 0.165073 0.865386
Si Si5 0.051862 0.781454 0.253506
Si Si6 0.932337 0.706610 0.478000
O O1 0.200955 0.258281 0.010581
O O2 0.264589 0.005861 0.905265
O O3 0.424021 0.241551 0.961429
O O4 0.349054 0.040912 0.101358
O O5 0.027316 0.670636 0.146716
O O6 0.151811 0.748640 0.969305
O O7 0.037792 0.478576 0.975908
O O8 0.119111 0.847540 0.767799
O O9 0.011789 0.802312 0.567265
O O10 0.953796 0.040500 0.701939
O O11 0.825873 0.254741 0.812929
O O12 0.957392 0.772699 0.352755
#
# Coordination Sequence:
#
# PCOD9341528 Si02
#       6
#     4   4   4   4   4   4
#     4  11  23  46  72 101 140 190 248 290 354 441
#     4  11  29  45  70 112 147 190 241 303 379 426
#     4  11  23  44  73 105 136 190 252 291 357 437
#     4  12  22  45  75 101 141 191 246 296 351 439
#     4  11  25  45  71 102 142 188 243 290 365 435
#     4  12  26  47  71 107 148 185 238 310 368 426
#
# _framework density 21.051157
#
# number of rings (size 3 to 8) (size 9 to 14) (size 15 to 20)
#    0.000    0.667    3.333    5.000    4.667    0.000 
#    3.000    0.000    0.000    0.000    0.000    0.000 
#    0.000    0.000    0.000    0.000    0.000    0.000 
#
# Total GULP energy -134186.944556 kJ/mol
# GULP energy per Si atom -5591.122690 kJ/mol
# Density = 2.100324 g / cm^3
# Si number density = 21.051157 Si / 1000 Ang^3
#
#
#
# Elastic Constant Matrix: (Units=GPa)
#
#
# Indices 1 2 3 4 5 6 
#
# 1 85.5733 22.8525 39.9778 0.0000 0.0000 0.0000
# 2 22.8525 102.7592 29.5525 0.0000 0.0000 0.0000
# 3 39.9778 29.5525 96.2667 0.0000 0.0000 0.0000
# 4 0.0000 0.0000 0.0000 18.7077 0.0000 0.0000
# 5 0.0000 0.0000 0.0000 0.0000 21.0013 0.0000
# 6 0.0000 0.0000 0.0000 0.0000 0.0000 22.2910
#
#
#
# Elastic Compliance Matrix: (Units=1/GPa)
#
#
# Indices 1 2 3 4 5 6 
#
# 1 0.014754 -0.001666 -0.005616 0.000000 0.000000 0.000000
# 2 -0.001666 0.010862 -0.002643 0.000000 0.000000 0.000000
# 3 -0.005616 -0.002643 0.013531 0.000000 0.000000 0.000000
# 4 0.000000 0.000000 0.000000 0.053454 0.000000 0.000000
# 5 0.000000 0.000000 0.000000 0.000000 0.047616 0.000000
# 6 0.000000 0.000000 0.000000 0.000000 0.000000 0.044861
#
#
# Mechanical properties :
#
#
# Convention : Reuss Voigt Hill
#
# Bulk Modulus (GPa) = 51.81720 52.15164 51.98442
# Shear Modulus (GPa) = 23.65628 25.21443 24.43536
#
# Velocity S-wave (km/s) = 3.35588 3.46464 3.41069
# Velocity P-wave (km/s) = 6.29954 6.39003 6.34495
#
# Compressibility (1/GPa) = 0.01929861
#
# Stress axis : x y z
#
# Youngs Moduli (GPa) = 67.77649 92.06410 73.90360
#
# Poissons Ratio (x) = 0.15339 0.41502
# Poissons Ratio (y) = 0.11293 0.19529
# Poissons Ratio (z) = 0.38061 0.24328
#
# Static dielectric constant tensor:
#      x y z
#    x 1.769200 0.000000 0.000000 
#    y 0.000000 1.735350 0.000000 
#    z 0.000000 0.000000 1.736820 
# 
# From -- ./inp_files/3073.got.cif
#   From: 2010.05.17/outbox.cif.g08.bks.cpg/sg29_2_cif.got.tgz:3073.got - 2010.06.04 01:19:37.
