data_PCOD9341547
_publ_section_title
;
Structure prediction by ZEFSAII (Michael W. Deem and Ramdas Pophale) SiO2 
 PCOD9341547
Probable space group: P C A 21
;
_chemical_formula_sum "Si O2"
_cell_formula_units_Z 20
_cell_length_a 10.989065
_cell_length_b 7.626756
_cell_length_c 8.899659
_cell_angle_alpha 90.000000
_cell_angle_beta 90.000000
_cell_angle_gamma 90.000000
_cell_volume 745.888586
_symmetry_space_group_name_H-M "P C A 21"
_symmetry_group_IT_number 29
_symmetry_cell_setting 'orthorhombic'
loop_
_space_group_symop_operation_xyz
x,y,z
-x,-y,1/2+z
1/2-x,y,1/2+z
1/2+x,-y,z
loop_
_atom_site_type_symbol
_atom_site_label
_atom_site_fract_x
_atom_site_fract_y
_atom_site_fract_z
Si Si1 0.903268 0.012636 0.218330
Si Si2 0.802424 0.624775 0.505156
Si Si3 0.153289 0.148476 0.299905
Si Si4 0.627381 0.351208 0.525383
Si Si5 0.508202 0.634372 0.734479
O O1 0.016074 0.082321 0.317590
O O2 0.883570 0.156128 0.089317
O O3 0.772155 0.979666 0.296789
O O4 0.958949 0.824991 0.170528
O O5 0.838652 0.757105 0.636786
O O6 0.684888 0.711315 0.426024
O O7 0.891108 0.608702 0.365356
O O8 0.758203 0.436205 0.560257
O O9 0.532066 0.477729 0.617585
O O10 0.606729 0.355474 0.346191
#
# Coordination Sequence:
#
# PCOD9341547 Si02
#       5
#     4   4   4   4   4
#     4  11  26  47  75 112 150 207 253 325 394 459
#     4  11  23  48  70 108 158 198 254 336 372 464
#     4  11  25  47  76 108 162 193 270 329 381 473
#     4  12  25  47  78 108 149 213 252 323 396 465
#     4  11  27  47  73 112 155 199 265 325 381 475
#
# _framework density 26.813655000000001
#
# number of rings (size 3 to 8) (size 9 to 14) (size 15 to 20)
#    0.000    0.800    6.000    1.200    2.800    4.800 
#    3.600    0.000    0.000    0.000    0.000    0.000 
#    0.000    0.000    0.000    0.000    0.000    0.000 
#
# Total GULP energy -111921.790198 kJ/mol
# GULP energy per Si atom -5596.089510 kJ/mol
# Density = 2.675263 g / cm^3
# Si number density = 26.813655 Si / 1000 Ang^3
#
#
#
# Elastic Constant Matrix: (Units=GPa)
#
#
# Indices 1 2 3 4 5 6 
#
# 1 107.5415 24.8255 12.0415 0.0000 0.0000 0.0000
# 2 24.8255 158.7252 59.9124 0.0000 0.0000 0.0000
# 3 12.0415 59.9124 131.2623 0.0000 0.0000 0.0000
# 4 0.0000 0.0000 0.0000 37.7343 0.0000 0.0000
# 5 0.0000 0.0000 0.0000 0.0000 40.0194 0.0000
# 6 0.0000 0.0000 0.0000 0.0000 0.0000 60.5782
#
#
#
# Elastic Compliance Matrix: (Units=1/GPa)
#
#
# Indices 1 2 3 4 5 6 
#
# 1 0.009653 -0.001420 -0.000237 0.000000 0.000000 0.000000
# 2 -0.001420 0.007821 -0.003439 0.000000 0.000000 0.000000
# 3 -0.000237 -0.003439 0.009210 0.000000 0.000000 0.000000
# 4 0.000000 0.000000 0.000000 0.026501 0.000000 0.000000
# 5 0.000000 0.000000 0.000000 0.000000 0.024988 0.000000
# 6 0.000000 0.000000 0.000000 0.000000 0.000000 0.016508
#
#
# Mechanical properties :
#
#
# Convention : Reuss Voigt Hill
#
# Bulk Modulus (GPa) = 60.64287 65.67642 63.15965
# Shear Modulus (GPa) = 45.30203 47.71636 46.50920
#
# Velocity S-wave (km/s) = 4.11483 4.22305 4.16929
# Velocity P-wave (km/s) = 6.72616 6.95167 6.83985
#
# Compressibility (1/GPa) = 0.01648998
#
# Stress axis : x y z
#
# Youngs Moduli (GPa) = 103.59302 127.86901 108.57898
#
# Poissons Ratio (x) = 0.18160 0.02577
# Poissons Ratio (y) = 0.14713 0.37343
# Poissons Ratio (z) = 0.02458 0.43977
#
# Static dielectric constant tensor:
#      x y z
#    x 2.275690 0.000000 0.000000 
#    y 0.000000 2.146990 0.000000 
#    z 0.000000 0.000000 2.001720 
# 
# From -- ./inp_files/1366.got.cif
#   From: 2010.05.17/outbox.cif.g08.bks.cpg/sg29_1_cif.got.tgz:1366.got - 2010.06.04 01:19:37.
