data_PCOD9341605
_publ_section_title
;
Structure prediction by ZEFSAII (Michael W. Deem and Ramdas Pophale) SiO2 
 PCOD9341605
Probable space group: P C A 21
;
_chemical_formula_sum "Si O2"
_cell_formula_units_Z 24
_cell_length_a 10.018973
_cell_length_b 8.197340
_cell_length_c 13.256312
_cell_angle_alpha 90.000000
_cell_angle_beta 90.000000
_cell_angle_gamma 90.000000
_cell_volume 1088.726696
_symmetry_space_group_name_H-M "P C A 21"
_symmetry_group_IT_number 29
_symmetry_cell_setting 'orthorhombic'
loop_
_space_group_symop_operation_xyz
x,y,z
-x,-y,1/2+z
1/2-x,y,1/2+z
1/2+x,-y,z
loop_
_atom_site_type_symbol
_atom_site_label
_atom_site_fract_x
_atom_site_fract_y
_atom_site_fract_z
Si Si1 0.120687 0.634419 0.004470
Si Si2 0.258989 0.448285 0.185976
Si Si3 0.612357 0.856682 0.599891
Si Si4 0.504236 0.584107 0.304829
Si Si5 0.238175 0.942773 0.416365
Si Si6 0.007534 0.974543 0.792786
O O1 0.198513 0.529761 0.086307
O O2 0.003550 0.740390 0.056284
O O3 0.050263 0.534244 0.914456
O O4 0.221574 0.764656 0.955209
O O5 0.285488 0.259580 0.159851
O O6 0.397689 0.524906 0.222372
O O7 0.150392 0.473475 0.273760
O O8 0.682115 0.951075 0.508612
O O9 0.547048 0.978430 0.680134
O O10 0.509073 0.780587 0.303758
O O11 0.370969 0.019645 0.367522
O O12 0.125767 0.938166 0.330373
#
# Coordination Sequence:
#
# PCOD9341605 Si02
#       6
#     4   4   4   4   4   4
#     4  11  27  46  69 105 144 181 240 284 357 418
#     4  12  27  46  73 104 145 192 226 297 350 433
#     4  12  26  46  72 105 140 183 242 282 366 407
#     4  11  26  47  71 105 145 184 241 284 359 418
#     4  11  24  47  73 103 140 181 236 296 343 419
#     4  11  26  44  74 104 138 187 237 297 345 415
#
# _framework density 22.044101000000001
#
# number of rings (size 3 to 8) (size 9 to 14) (size 15 to 20)
#    0.000    0.667    5.000    2.000   11.667    1.333 
#    0.000    0.000    0.000    0.000    0.000    0.000 
#    0.000    0.000    0.000    0.000    0.000    0.000 
#
# Total GULP energy -134414.880745 kJ/mol
# GULP energy per Si atom -5600.620031 kJ/mol
# Density = 2.199393 g / cm^3
# Si number density = 22.044101 Si / 1000 Ang^3
#
#
#
# Elastic Constant Matrix: (Units=GPa)
#
#
# Indices 1 2 3 4 5 6 
#
# 1 95.8958 4.8139 -5.1199 0.0000 0.0000 0.0000
# 2 4.8139 22.8332 3.7483 0.0000 0.0000 0.0000
# 3 -5.1199 3.7483 53.7163 0.0000 0.0000 0.0000
# 4 0.0000 0.0000 0.0000 32.4400 0.0000 0.0000
# 5 0.0000 0.0000 0.0000 0.0000 37.6171 0.0000
# 6 0.0000 0.0000 0.0000 0.0000 0.0000 19.4063
#
#
#
# Elastic Compliance Matrix: (Units=1/GPa)
#
#
# Indices 1 2 3 4 5 6 
#
# 1 0.010613 -0.002431 0.001181 0.000000 0.000000 0.000000
# 2 -0.002431 0.044860 -0.003362 0.000000 0.000000 0.000000
# 3 0.001181 -0.003362 0.018964 0.000000 0.000000 0.000000
# 4 0.000000 0.000000 0.000000 0.030826 0.000000 0.000000
# 5 0.000000 0.000000 0.000000 0.000000 0.026584 0.000000
# 6 0.000000 0.000000 0.000000 0.000000 0.000000 0.051530
#
#
# Mechanical properties :
#
#
# Convention : Reuss Voigt Hill
#
# Bulk Modulus (GPa) = 15.33452 19.92555 17.63003
# Shear Modulus (GPa) = 23.32757 29.15954 26.24356
#
# Velocity S-wave (km/s) = 3.25656 3.64095 3.45411
# Velocity P-wave (km/s) = 4.59474 5.17049 4.89109
#
# Compressibility (1/GPa) = 0.06521236
#
# Stress axis : x y z
#
# Youngs Moduli (GPa) = 94.22306 22.29139 52.73283
#
# Poissons Ratio (x) = 0.05420 -0.06229
# Poissons Ratio (y) = 0.22910 0.17729
# Poissons Ratio (z) = -0.11130 0.07495
#
# Static dielectric constant tensor:
#      x y z
#    x 1.794940 0.000000 0.000000 
#    y 0.000000 1.770590 0.000000 
#    z 0.000000 0.000000 1.811610 
# 
# From -- ./inp_files/2804.got.cif
#   From: 2010.05.17/outbox.cif.g08.bks.cpg/sg29_2_cif.got.tgz:2804.got - 2010.06.04 01:19:37.
