data_PCOD9341471
_publ_section_title
;
Structure prediction by ZEFSAII (Michael W. Deem and Ramdas Pophale) SiO2 
 PCOD9341471
Probable space group: P C A 21
;
_chemical_formula_sum "Si O2"
_cell_formula_units_Z 24
_cell_length_a 11.141125
_cell_length_b 10.582674
_cell_length_c 8.429441
_cell_angle_alpha 90.000000
_cell_angle_beta 90.000000
_cell_angle_gamma 90.000000
_cell_volume 993.855488
_symmetry_space_group_name_H-M "P C A 21"
_symmetry_group_IT_number 29
_symmetry_cell_setting 'orthorhombic'
loop_
_space_group_symop_operation_xyz
x,y,z
-x,-y,1/2+z
1/2-x,y,1/2+z
1/2+x,-y,z
loop_
_atom_site_type_symbol
_atom_site_label
_atom_site_fract_x
_atom_site_fract_y
_atom_site_fract_z
Si Si1 0.945316 0.629733 0.019260
Si Si2 0.663784 0.268281 0.813381
Si Si3 0.804889 0.729148 0.559708
Si Si4 0.209828 0.095020 0.314339
Si Si5 0.364426 0.525301 0.728738
Si Si6 0.681165 0.091934 0.550042
O O1 0.840707 0.725147 0.066566
O O2 0.007431 0.581275 0.178731
O O3 0.878617 0.531801 0.903707
O O4 0.057044 0.675243 0.915182
O O5 0.758651 0.371614 0.745292
O O6 0.616328 0.193381 0.659116
O O7 0.731789 0.173929 0.935997
O O8 0.854405 0.798166 0.714149
O O9 0.814175 0.826200 0.410800
O O10 0.841899 0.583985 0.594696
O O11 0.256240 0.998287 0.180337
O O12 0.127196 0.010574 0.429485
#
# Coordination Sequence:
#
# PCOD9341471 Si02
#       6
#     4   4   4   4   4   4
#     4  12  26  40  68 106 128 182 222 264 350 404
#     4  11  22  44  67  98 138 170 222 279 333 401
#     4  11  22  44  67  98 138 170 222 279 333 401
#     4   9  20  41  71  90 129 181 216 275 335 380
#     4  12  26  42  68 100 142 172 220 282 340 400
#     4   9  20  41  71  90 129 181 216 275 335 380
#
# _framework density 24.148378999999998
#
# number of rings (size 3 to 8) (size 9 to 14) (size 15 to 20)
#    0.000    1.333    3.333    2.000    4.667    0.000 
#    0.000    5.000    0.000    0.000    0.000    0.000 
#    0.000    0.000    0.000    0.000    0.000    0.000 
#
# Total GULP energy -133700.409083 kJ/mol
# GULP energy per Si atom -5570.850378 kJ/mol
# Density = 2.409342 g / cm^3
# Si number density = 24.148379 Si / 1000 Ang^3
#
#
#
# Elastic Constant Matrix: (Units=GPa)
#
#
# Indices 1 2 3 4 5 6 
#
# 1 60.2535 30.9430 13.8699 0.0000 0.0000 0.0000
# 2 30.9430 117.5872 37.2703 0.0000 0.0000 0.0000
# 3 13.8699 37.2703 118.8044 0.0000 0.0000 0.0000
# 4 0.0000 0.0000 0.0000 61.2804 0.0000 0.0000
# 5 0.0000 0.0000 0.0000 0.0000 36.5021 0.0000
# 6 0.0000 0.0000 0.0000 0.0000 0.0000 7.4142
#
#
#
# Elastic Compliance Matrix: (Units=1/GPa)
#
#
# Indices 1 2 3 4 5 6 
#
# 1 0.019247 -0.004833 -0.000731 0.000000 0.000000 0.000000
# 2 -0.004833 0.010657 -0.002779 0.000000 0.000000 0.000000
# 3 -0.000731 -0.002779 0.009374 0.000000 0.000000 0.000000
# 4 0.000000 0.000000 0.000000 0.016318 0.000000 0.000000
# 5 0.000000 0.000000 0.000000 0.000000 0.027396 0.000000
# 6 0.000000 0.000000 0.000000 0.000000 0.000000 0.134877
#
#
# Mechanical properties :
#
#
# Convention : Reuss Voigt Hill
#
# Bulk Modulus (GPa) = 44.26283 51.20127 47.73205
# Shear Modulus (GPa) = 20.65385 35.34346 27.99865
#
# Velocity S-wave (km/s) = 2.92771 3.82985 3.40875
# Velocity P-wave (km/s) = 5.45875 6.38794 5.94154
#
# Compressibility (1/GPa) = 0.02259232
#
# Stress axis : x y z
#
# Youngs Moduli (GPa) = 51.95667 93.83511 106.67458
#
# Poissons Ratio (x) = 0.45352 0.07795
# Poissons Ratio (y) = 0.25111 0.29645
# Poissons Ratio (z) = 0.03797 0.26077
#
# Static dielectric constant tensor:
#      x y z
#    x 1.848630 0.000000 0.000000 
#    y 0.000000 2.071070 0.000000 
#    z 0.000000 0.000000 1.957410 
# 
# From -- ./inp_files/1431.got.cif
#   From: 2010.05.17/outbox.cif.g08.bks.cpg/sg29_1_cif.got.tgz:1431.got - 2010.06.04 01:19:37.
