data_PCOD9341039
_publ_section_title
;
Structure prediction by ZEFSAII (Michael W. Deem and Ramdas Pophale) SiO2 
 PCOD9341039
Probable space group: P C A 21
;
_chemical_formula_sum "Si O2"
_cell_formula_units_Z 32
_cell_length_a 19.164328
_cell_length_b 6.813208
_cell_length_c 12.875234
_cell_angle_alpha 90.000000
_cell_angle_beta 90.000000
_cell_angle_gamma 90.000000
_cell_volume 1681.126421
_symmetry_space_group_name_H-M "P C A 21"
_symmetry_group_IT_number 29
_symmetry_cell_setting 'orthorhombic'
loop_
_space_group_symop_operation_xyz
x,y,z
-x,-y,1/2+z
1/2-x,y,1/2+z
1/2+x,-y,z
loop_
_atom_site_type_symbol
_atom_site_label
_atom_site_fract_x
_atom_site_fract_y
_atom_site_fract_z
Si Si1 0.667125 0.388582 0.900310
Si Si2 0.303972 0.290720 0.570515
Si Si3 0.273257 0.900130 0.007901
Si Si4 0.925500 0.042697 0.914249
Si Si5 0.569742 0.914108 0.177183
Si Si6 0.033835 0.633847 0.568234
Si Si7 0.185571 0.576368 0.658124
Si Si8 0.037881 0.761844 0.010313
O O1 0.731251 0.252897 0.936919
O O2 0.675542 0.436567 0.780512
O O3 0.595694 0.273237 0.922644
O O4 0.667019 0.576860 0.976257
O O5 0.364684 0.225924 0.649958
O O6 0.241905 0.415781 0.622554
O O7 0.271421 0.092827 0.525495
O O8 0.346699 0.953978 0.955975
O O9 0.286496 0.786747 0.116669
O O10 0.928361 0.003334 0.791912
O O11 0.958557 0.244505 0.960176
O O12 0.969996 0.869222 0.965997
O O13 0.500830 0.785687 0.149985
O O14 0.570142 0.095537 0.096972
O O15 0.110033 0.561289 0.603547
O O16 0.984938 0.446554 0.555688
#
# Coordination Sequence:
#
# PCOD9341039 Si02
#       8
#     4   4   4   4   4   4   4   4
#     4  11  23  39  64  93 127 167 209 261 317 375
#     4  11  23  41  61  95 127 163 213 259 312 380
#     4  10  23  43  60  92 130 162 214 265 307 382
#     4  10  24  39  66  93 123 173 211 260 324 371
#     4  11  23  40  66  96 127 167 212 264 318 375
#     4  10  22  46  61  96 131 160 220 262 309 388
#     4  10  24  41  65  93 125 169 207 257 318 374
#     4  11  22  43  63  92 130 163 210 268 309 377
#
# _framework density 19.034856999999999
#
# number of rings (size 3 to 8) (size 9 to 14) (size 15 to 20)
#    0.000    1.500    2.500    1.500    3.500    2.000 
#    0.000    0.000    0.000    0.000    0.000    0.000 
#    0.000    0.000    0.000    0.000    0.000    0.000 
#
# Total GULP energy -178717.217864 kJ/mol
# GULP energy per Si atom -5584.913058 kJ/mol
# Density = 1.899153 g / cm^3
# Si number density = 19.034857 Si / 1000 Ang^3
#
#
#
# Elastic Constant Matrix: (Units=GPa)
#
#
# Indices 1 2 3 4 5 6 
#
# 1 93.5722 39.9990 31.5283 0.0000 0.0000 0.0000
# 2 39.9990 86.4816 52.9216 0.0000 0.0000 0.0000
# 3 31.5283 52.9216 126.4222 0.0000 0.0000 0.0000
# 4 0.0000 0.0000 0.0000 8.6569 0.0000 0.0000
# 5 0.0000 0.0000 0.0000 0.0000 70.6625 0.0000
# 6 0.0000 0.0000 0.0000 0.0000 0.0000 35.4666
#
#
#
# Elastic Compliance Matrix: (Units=1/GPa)
#
#
# Indices 1 2 3 4 5 6 
#
# 1 0.013415 -0.005589 -0.001006 0.000000 0.000000 0.000000
# 2 -0.005589 0.017874 -0.006088 0.000000 0.000000 0.000000
# 3 -0.001006 -0.006088 0.010709 0.000000 0.000000 0.000000
# 4 0.000000 0.000000 0.000000 0.115515 0.000000 0.000000
# 5 0.000000 0.000000 0.000000 0.000000 0.014152 0.000000
# 6 0.000000 0.000000 0.000000 0.000000 0.000000 0.028196
#
#
# Mechanical properties :
#
#
# Convention : Reuss Voigt Hill
#
# Bulk Modulus (GPa) = 60.12598 61.70822 60.91710
# Shear Modulus (GPa) = 21.66650 35.09234 28.37942
#
# Velocity S-wave (km/s) = 3.37746 4.29835 3.86543
# Velocity P-wave (km/s) = 6.84584 7.55800 7.21072
#
# Compressibility (1/GPa) = 0.01663174
#
# Stress axis : x y z
#
# Youngs Moduli (GPa) = 74.54336 55.94760 93.37507
#
# Poissons Ratio (x) = 0.31270 0.09393
# Poissons Ratio (y) = 0.41663 0.56850
# Poissons Ratio (z) = 0.07498 0.34063
#
# Static dielectric constant tensor:
#      x y z
#    x 1.626270 0.000000 0.000000 
#    y 0.000000 1.645290 0.000000 
#    z 0.000000 0.000000 1.628030 
# 
# From -- ./inp_files/3812.got.cif
#   From: 2010.05.17/outbox.cif.g08.bks.cpg/sg29_2_cif.got.tgz:3812.got - 2010.06.04 01:19:37.
