data_PCOD9341823
_publ_section_title
;
Structure prediction by ZEFSAII (Michael W. Deem and Ramdas Pophale) SiO2 
 PCOD9341823
Probable space group: P N C 2
;
_chemical_formula_sum "Si O2"
_cell_formula_units_Z 32
_cell_length_a 9.636304
_cell_length_b 18.633528
_cell_length_c 6.934802
_cell_angle_alpha 90.000000
_cell_angle_beta 90.000000
_cell_angle_gamma 90.000000
_cell_volume 1245.201538
_symmetry_space_group_name_H-M "P N C 2"
_symmetry_group_IT_number 30
_symmetry_cell_setting 'orthorhombic'
loop_
_space_group_symop_operation_xyz
x,y,z
-x,-y,z
-x,1/2+y,1/2+z
x,1/2-y,1/2+z
loop_
_atom_site_type_symbol
_atom_site_label
_atom_site_fract_x
_atom_site_fract_y
_atom_site_fract_z
Si Si1 0.655059 0.476293 0.964220
Si Si2 0.894440 0.567724 0.995728
Si Si3 0.038865 0.643525 0.502206
Si Si4 0.245559 0.094721 0.914907
Si Si5 0.707128 0.061434 0.904608
Si Si6 0.084179 0.806303 0.563989
Si Si7 0.504858 0.680410 0.304940
Si Si8 0.608342 0.329646 0.904463
O O1 0.500000 0.500000 0.012194
O O2 0.757137 0.537721 0.889025
O O3 0.634651 0.408670 0.823122
O O4 0.720754 0.446884 0.167075
O O5 0.000000 0.500000 0.001419
O O6 0.983124 0.639180 0.946914
O O7 0.826663 0.584098 0.205414
O O8 0.155013 0.582596 0.522800
O O9 0.046845 0.722963 0.588065
O O10 0.888370 0.611189 0.540903
O O11 0.072301 0.662404 0.277912
O O12 0.348351 0.161918 0.897714
O O13 0.327731 0.021074 0.956607
O O14 0.604120 0.129066 0.913925
O O15 0.239725 0.806648 0.480579
O O16 0.455750 0.762484 0.295982
O O17 0.497410 0.657658 0.082123
#
# Coordination Sequence:
#
# PCOD9341823 Si02
#       8
#     4   4   4   4   4   4   4   4
#     4  10  18  30  53  80 107 131 178 225 262 302
#     4  10  17  31  54  78 106 138 173 229 266 300
#     4  11  21  33  57  79 108 139 173 220 264 310
#     4  10  20  32  51  84 106 133 177 226 264 300
#     4  10  16  33  53  78 103 138 175 220 258 306
#     4  11  19  35  54  80 106 138 179 215 259 317
#     4  11  22  33  57  78 109 141 173 216 267 317
#     4  11  19  36  53  80 105 140 177 213 261 318
#
# _framework density 25.698647999999999
#
# number of rings (size 3 to 8) (size 9 to 14) (size 15 to 20)
#    0.000    1.500    5.000    6.000    0.000    3.000 
#    0.000    0.000    0.000    4.500    0.000    0.000 
#    0.000    0.000    0.000    0.000    0.000    0.000 
#
# Total GULP energy -178733.248889 kJ/mol
# GULP energy per Si atom -5585.414028 kJ/mol
# Density = 2.564016 g / cm^3
# Si number density = 25.698648 Si / 1000 Ang^3
#
#
#
# Elastic Constant Matrix: (Units=GPa)
#
#
# Indices 1 2 3 4 5 6 
#
# 1 139.7881 47.9425 7.0703 0.0000 0.0000 0.0000
# 2 47.9425 162.6800 10.6522 0.0000 0.0000 0.0000
# 3 7.0703 10.6522 50.3815 0.0000 0.0000 0.0000
# 4 0.0000 0.0000 0.0000 44.3485 0.0000 0.0000
# 5 0.0000 0.0000 0.0000 0.0000 4.0606 0.0000
# 6 0.0000 0.0000 0.0000 0.0000 0.0000 53.0957
#
#
#
# Elastic Compliance Matrix: (Units=1/GPa)
#
#
# Indices 1 2 3 4 5 6 
#
# 1 0.007978 -0.002310 -0.000631 0.000000 0.000000 0.000000
# 2 -0.002310 0.006902 -0.001135 0.000000 0.000000 0.000000
# 3 -0.000631 -0.001135 0.020177 0.000000 0.000000 0.000000
# 4 0.000000 0.000000 0.000000 0.022549 0.000000 0.000000
# 5 0.000000 0.000000 0.000000 0.000000 0.246270 0.000000
# 6 0.000000 0.000000 0.000000 0.000000 0.000000 0.018834
#
#
# Mechanical properties :
#
#
# Convention : Reuss Voigt Hill
#
# Bulk Modulus (GPa) = 37.16820 53.79775 45.48298
# Shear Modulus (GPa) = 14.71325 39.44659 27.07992
#
# Velocity S-wave (km/s) = 2.39536 3.92212 3.24967
# Velocity P-wave (km/s) = 4.70583 6.44129 5.64070
#
# Compressibility (1/GPa) = 0.02690472
#
# Stress axis : x y z
#
# Youngs Moduli (GPa) = 125.34818 144.88426 49.56101
#
# Poissons Ratio (x) = 0.33465 0.03128
# Poissons Ratio (y) = 0.28952 0.05626
# Poissons Ratio (z) = 0.07912 0.16447
#
# Static dielectric constant tensor:
#      x y z
#    x 2.018290 0.000000 0.000000 
#    y 0.000000 1.064700 0.000000 
#    z 0.000000 0.000000 2.194350 
# 
# From -- ./inp_files/3865.got.cif
#   From: 2010.05.17/outbox.cif.g08.bks.cpg/sg30_2_cif.got.tgz:3865.got - 2010.06.03 17:03:02.
