data_PCOD9341351
_publ_section_title
;
Structure prediction by ZEFSAII (Michael W. Deem and Ramdas Pophale) SiO2 
 PCOD9341351
Probable space group: P C A 21
;
_chemical_formula_sum "Si O2"
_cell_formula_units_Z 32
_cell_length_a 9.991081
_cell_length_b 10.764219
_cell_length_c 12.088956
_cell_angle_alpha 90.000000
_cell_angle_beta 90.000000
_cell_angle_gamma 90.000000
_cell_volume 1300.121086
_symmetry_space_group_name_H-M "P C A 21"
_symmetry_group_IT_number 29
_symmetry_cell_setting 'orthorhombic'
loop_
_space_group_symop_operation_xyz
x,y,z
-x,-y,1/2+z
1/2-x,y,1/2+z
1/2+x,-y,z
loop_
_atom_site_type_symbol
_atom_site_label
_atom_site_fract_x
_atom_site_fract_y
_atom_site_fract_z
Si Si1 0.187186 0.911282 0.625000
Si Si2 0.220369 0.164252 0.167873
Si Si3 0.582913 0.234736 0.026008
Si Si4 0.992903 0.475897 0.631356
Si Si5 0.645169 0.624686 0.813881
Si Si6 0.983601 0.086538 0.323679
Si Si7 0.035881 0.165823 0.955421
Si Si8 0.759199 0.461791 0.001155
O O1 0.336104 0.867031 0.595940
O O2 0.131855 0.862670 0.741658
O O3 0.096528 0.864005 0.524751
O O4 0.171662 0.059349 0.636950
O O5 0.270858 0.283129 0.234727
O O6 0.116323 0.092525 0.249633
O O7 0.146015 0.187174 0.051653
O O8 0.500464 0.175261 0.928343
O O9 0.499520 0.328894 0.100858
O O10 0.694411 0.328824 0.974996
O O11 0.055886 0.479310 0.751719
O O12 0.093196 0.544908 0.549232
O O13 0.840794 0.507063 0.601289
O O14 0.543324 0.714861 0.878300
O O15 0.740965 0.554790 0.900186
O O16 0.943300 0.954180 0.376501
#
# Coordination Sequence:
#
# PCOD9341351 Si02
#       8
#     4   4   4   4   4   4   4   4
#     4  11  25  41  66 108 146 189 248 298 372 444
#     4  11  25  43  67 107 149 190 250 303 370 463
#     4  10  25  46  73 101 150 183 250 309 367 452
#     4  10  26  48  74 106 146 188 255 312 372 448
#     4  12  25  46  75 102 145 199 242 315 384 441
#     4  11  24  42  68 106 145 196 235 304 378 438
#     4  11  26  41  70 105 149 189 251 304 369 459
#     4  10  26  49  73 107 142 194 249 311 376 443
#
# _framework density 24.613091000000001
#
# number of rings (size 3 to 8) (size 9 to 14) (size 15 to 20)
#    0.750    0.500    2.500    1.500    8.750    2.000 
#    2.250    0.000    0.000    0.000    0.000    0.000 
#    0.000    0.000    0.000    0.000    0.000    0.000 
#
# Total GULP energy -178972.249885 kJ/mol
# GULP energy per Si atom -5592.882809 kJ/mol
# Density = 2.455707 g / cm^3
# Si number density = 24.613091 Si / 1000 Ang^3
#
#
#
# Elastic Constant Matrix: (Units=GPa)
#
#
# Indices 1 2 3 4 5 6 
#
# 1 53.0970 3.3287 27.4365 0.0000 0.0000 0.0000
# 2 3.3287 88.4904 34.6457 0.0000 0.0000 0.0000
# 3 27.4365 34.6457 112.8899 0.0000 0.0000 0.0000
# 4 0.0000 0.0000 0.0000 50.9787 0.0000 0.0000
# 5 0.0000 0.0000 0.0000 0.0000 20.9912 0.0000
# 6 0.0000 0.0000 0.0000 0.0000 0.0000 32.5692
#
#
#
# Elastic Compliance Matrix: (Units=1/GPa)
#
#
# Indices 1 2 3 4 5 6 
#
# 1 0.021694 0.001419 -0.005708 0.000000 0.000000 0.000000
# 2 0.001419 0.012937 -0.004315 0.000000 0.000000 0.000000
# 3 -0.005708 -0.004315 0.011570 0.000000 0.000000 0.000000
# 4 0.000000 0.000000 0.000000 0.019616 0.000000 0.000000
# 5 0.000000 0.000000 0.000000 0.000000 0.047639 0.000000
# 6 0.000000 0.000000 0.000000 0.000000 0.000000 0.030704
#
#
# Mechanical properties :
#
#
# Convention : Reuss Voigt Hill
#
# Bulk Modulus (GPa) = 34.49240 42.81102 38.65171
# Shear Modulus (GPa) = 29.23438 33.51226 31.37332
#
# Velocity S-wave (km/s) = 3.45012 3.69394 3.57411
# Velocity P-wave (km/s) = 5.46950 5.96866 5.72452
#
# Compressibility (1/GPa) = 0.02899190
#
# Stress axis : x y z
#
# Youngs Moduli (GPa) = 46.09595 77.29930 86.43278
#
# Poissons Ratio (x) = -0.10966 0.49334
# Poissons Ratio (y) = -0.06540 0.37296
# Poissons Ratio (z) = 0.26311 0.33355
#
# Static dielectric constant tensor:
#      x y z
#    x 1.957030 0.000000 0.000000 
#    y 0.000000 1.950770 0.000000 
#    z 0.000000 0.000000 1.960050 
# 
# From -- ./inp_files/3269.got.cif
#   From: 2010.05.17/outbox.cif.g08.bks.cpg/sg29_2_cif.got.tgz:3269.got - 2010.06.04 01:19:37.
