data_PCOD9341080
_publ_section_title
;
Structure prediction by ZEFSAII (Michael W. Deem and Ramdas Pophale) SiO2 
 PCOD9341080
Probable space group: P C A 21
;
_chemical_formula_sum "Si O2"
_cell_formula_units_Z 20
_cell_length_a 9.864670
_cell_length_b 8.844320
_cell_length_c 8.482238
_cell_angle_alpha 90.000000
_cell_angle_beta 90.000000
_cell_angle_gamma 90.000000
_cell_volume 740.043866
_symmetry_space_group_name_H-M "P C A 21"
_symmetry_group_IT_number 29
_symmetry_cell_setting 'orthorhombic'
loop_
_space_group_symop_operation_xyz
x,y,z
-x,-y,1/2+z
1/2-x,y,1/2+z
1/2+x,-y,z
loop_
_atom_site_type_symbol
_atom_site_label
_atom_site_fract_x
_atom_site_fract_y
_atom_site_fract_z
Si Si1 0.761415 0.755635 0.813140
Si Si2 0.573111 0.483721 0.273036
Si Si3 0.465296 0.791856 0.941765
Si Si4 0.389690 0.994509 0.645700
Si Si5 0.959875 0.279656 0.467439
O O1 0.804439 0.597327 0.735803
O O2 0.619715 0.748944 0.897348
O O3 0.887864 0.777929 0.932459
O O4 0.769096 0.894811 0.693395
O O5 0.608435 0.368934 0.418096
O O6 0.451820 0.598271 0.325796
O O7 0.543394 0.380165 0.124487
O O8 0.418177 0.899630 0.801522
O O9 0.487119 0.891000 0.098096
O O10 0.372256 0.870271 0.506030
#
# Coordination Sequence:
#
# PCOD9341080 Si02
#       5
#     4   4   4   4   4
#     4  10  23  40  65  95 132 179 220 264 351 387
#     4   9  20  39  63  91 128 172 225 270 328 395
#     4  11  23  41  71  93 140 177 220 286 331 401
#     4  11  22  41  65  99 133 175 226 279 330 399
#     4   9  20  41  60  92 131 171 217 275 328 386
#
# _framework density 27.025428000000002
#
# number of rings (size 3 to 8) (size 9 to 14) (size 15 to 20)
#    1.200    0.800    2.000    1.200    5.600    0.000 
#    0.000   10.000    0.000    0.000    0.000    0.000 
#    0.000    0.000    0.000    0.000    0.000    0.000 
#
# Total GULP energy -111685.904634 kJ/mol
# GULP energy per Si atom -5584.295232 kJ/mol
# Density = 2.696392 g / cm^3
# Si number density = 27.025428 Si / 1000 Ang^3
#
#
#
# Elastic Constant Matrix: (Units=GPa)
#
#
# Indices 1 2 3 4 5 6 
#
# 1 47.3976 31.0558 19.4909 0.0000 0.0000 0.0000
# 2 31.0558 195.1354 41.5698 0.0000 0.0000 0.0000
# 3 19.4909 41.5698 63.0362 0.0000 0.0000 0.0000
# 4 0.0000 0.0000 0.0000 75.9267 0.0000 0.0000
# 5 0.0000 0.0000 0.0000 0.0000 30.3954 0.0000
# 6 0.0000 0.0000 0.0000 0.0000 0.0000 26.8358
#
#
#
# Elastic Compliance Matrix: (Units=1/GPa)
#
#
# Indices 1 2 3 4 5 6 
#
# 1 0.025384 -0.002755 -0.006032 0.000000 0.000000 0.000000
# 2 -0.002755 0.006261 -0.003277 0.000000 0.000000 0.000000
# 3 -0.006032 -0.003277 0.019890 0.000000 0.000000 0.000000
# 4 0.000000 0.000000 0.000000 0.013171 0.000000 0.000000
# 5 0.000000 0.000000 0.000000 0.000000 0.032900 0.000000
# 6 0.000000 0.000000 0.000000 0.000000 0.000000 0.037264
#
#
# Mechanical properties :
#
#
# Convention : Reuss Voigt Hill
#
# Bulk Modulus (GPa) = 36.48704 54.42247 45.45475
# Shear Modulus (GPa) = 29.73843 40.86176 35.30010
#
# Velocity S-wave (km/s) = 3.32081 3.89263 3.61803
# Velocity P-wave (km/s) = 5.31357 6.35489 5.85742
#
# Compressibility (1/GPa) = 0.02740699
#
# Stress axis : x y z
#
# Youngs Moduli (GPa) = 39.39557 159.71311 50.27599
#
# Poissons Ratio (x) = 0.43998 0.30326
# Poissons Ratio (y) = 0.10853 0.16477
# Poissons Ratio (z) = 0.23763 0.52342
#
# Static dielectric constant tensor:
#      x y z
#    x 2.061940 0.000000 0.000000 
#    y 0.000000 2.197050 0.000000 
#    z 0.000000 0.000000 2.164910 
# 
# From -- ./inp_files/1665.got.cif
#   From: 2010.05.17/outbox.cif.g08.bks.cpg/sg29_1_cif.got.tgz:1665.got - 2010.06.04 01:19:37.
