data_PCOD9341350
_publ_section_title
;
Structure prediction by ZEFSAII (Michael W. Deem and Ramdas Pophale) SiO2 
 PCOD9341350
Probable space group: P C A 21
;
_chemical_formula_sum "Si O2"
_cell_formula_units_Z 24
_cell_length_a 11.321438
_cell_length_b 7.788641
_cell_length_c 12.433868
_cell_angle_alpha 90.000000
_cell_angle_beta 90.000000
_cell_angle_gamma 90.000000
_cell_volume 1096.401274
_symmetry_space_group_name_H-M "P C A 21"
_symmetry_group_IT_number 29
_symmetry_cell_setting 'orthorhombic'
loop_
_space_group_symop_operation_xyz
x,y,z
-x,-y,1/2+z
1/2-x,y,1/2+z
1/2+x,-y,z
loop_
_atom_site_type_symbol
_atom_site_label
_atom_site_fract_x
_atom_site_fract_y
_atom_site_fract_z
Si Si1 0.697403 0.185208 0.034220
Si Si2 0.697402 0.814792 0.486121
Si Si3 0.935005 0.323662 0.115971
Si Si4 0.935005 0.676338 0.404369
Si Si5 0.527822 0.719670 0.665571
Si Si6 0.472178 0.719671 0.354770
O O1 0.797306 0.307368 0.085621
O O2 0.584253 0.188317 0.112596
O O3 0.647132 0.241592 0.919152
O O4 0.750000 0.000000 0.010171
O O5 0.797306 0.692633 0.434719
O O6 0.647131 0.758407 0.601188
O O7 0.584253 0.811683 0.407745
O O8 0.983301 0.515577 0.139767
O O9 0.958820 0.235053 0.229979
O O10 0.000000 0.253844 0.010170
O O11 0.958821 0.764947 0.290361
O O12 0.983300 0.484423 0.380574
#
# Coordination Sequence:
#
# PCOD9341350 Si02
#       6
#     4   4   4   4   4   4
#     4  11  25  46  66 102 145 179 229 288 354 417
#     4  11  25  46  66 102 145 179 229 288 354 417
#     4  11  24  43  76  99 135 182 235 290 341 412
#     4  11  24  43  76  99 135 182 235 290 341 412
#     4  10  25  46  70 104 134 182 243 284 345 418
#     4  10  25  46  70 104 134 182 243 284 345 418
#
# _framework density 21.889794999999999
#
# number of rings (size 3 to 8) (size 9 to 14) (size 15 to 20)
#    0.000    1.333    3.333    1.000    9.333    4.000 
#    0.000    0.000    0.000    0.000    0.000    0.000 
#    0.000    0.000    0.000    0.000    0.000    0.000 
#
# Total GULP energy -134023.002730 kJ/mol
# GULP energy per Si atom -5584.291780 kJ/mol
# Density = 2.183997 g / cm^3
# Si number density = 21.889795 Si / 1000 Ang^3
#
#
#
# Elastic Constant Matrix: (Units=GPa)
#
#
# Indices 1 2 3 4 5 6 
#
# 1 106.6853 29.5180 66.4288 0.0000 0.0000 0.0000
# 2 29.5180 61.3289 22.5204 0.0000 0.0000 0.0000
# 3 66.4288 22.5204 230.5461 0.0000 0.0000 0.0000
# 4 0.0000 0.0000 0.0000 16.4957 0.0000 0.0000
# 5 0.0000 0.0000 0.0000 0.0000 24.0492 0.0000
# 6 0.0000 0.0000 0.0000 0.0000 0.0000 26.4322
#
#
#
# Elastic Compliance Matrix: (Units=1/GPa)
#
#
# Indices 1 2 3 4 5 6 
#
# 1 0.012727 -0.004957 -0.003183 0.000000 0.000000 0.000000
# 2 -0.004957 0.018843 -0.000412 0.000000 0.000000 0.000000
# 3 -0.003183 -0.000412 0.005295 0.000000 0.000000 0.000000
# 4 0.000000 0.000000 0.000000 0.060622 0.000000 0.000000
# 5 0.000000 0.000000 0.000000 0.000000 0.041581 0.000000
# 6 0.000000 0.000000 0.000000 0.000000 0.000000 0.037833
#
#
# Mechanical properties :
#
#
# Convention : Reuss Voigt Hill
#
# Bulk Modulus (GPa) = 50.60633 70.61052 60.60843
# Shear Modulus (GPa) = 24.92641 32.06831 28.49736
#
# Velocity S-wave (km/s) = 3.37816 3.83167 3.61204
# Velocity P-wave (km/s) = 6.19555 7.20437 6.71892
#
# Compressibility (1/GPa) = 0.01976037
#
# Stress axis : x y z
#
# Youngs Moduli (GPa) = 78.57552 53.07117 188.86099
#
# Poissons Ratio (x) = 0.26306 0.60111
# Poissons Ratio (y) = 0.38947 0.07789
# Poissons Ratio (z) = 0.25009 0.02189
#
# Static dielectric constant tensor:
#      x y z
#    x 1.788030 0.000000 0.000000 
#    y 0.000000 2.052220 0.000000 
#    z 0.000000 0.000000 1.816810 
# 
# From -- ./inp_files/3113.got.cif
#   From: 2010.05.17/outbox.cif.g08.bks.cpg/sg29_2_cif.got.tgz:3113.got - 2010.06.04 01:19:37.
