data_PCOD9341115
_publ_section_title
;
Structure prediction by ZEFSAII (Michael W. Deem and Ramdas Pophale) SiO2 
 PCOD9341115
Probable space group: P C A 21
;
_chemical_formula_sum "Si O2"
_cell_formula_units_Z 16
_cell_length_a 12.032467
_cell_length_b 10.868771
_cell_length_c 5.067101
_cell_angle_alpha 90.000000
_cell_angle_beta 90.000000
_cell_angle_gamma 90.000000
_cell_volume 662.665985
_symmetry_space_group_name_H-M "P C A 21"
_symmetry_group_IT_number 29
_symmetry_cell_setting 'orthorhombic'
loop_
_space_group_symop_operation_xyz
x,y,z
-x,-y,1/2+z
1/2-x,y,1/2+z
1/2+x,-y,z
loop_
_atom_site_type_symbol
_atom_site_label
_atom_site_fract_x
_atom_site_fract_y
_atom_site_fract_z
Si Si1 0.482129 0.810477 0.610550
Si Si2 0.817948 0.673820 0.911398
Si Si3 0.832698 0.984668 0.354398
Si Si4 0.438337 0.549677 0.804235
O O1 0.565173 0.741647 0.408306
O O2 0.561295 0.893662 0.799749
O O3 0.429521 0.695038 0.767678
O O4 0.395537 0.890488 0.445472
O O5 0.740932 0.710501 0.676750
O O6 0.834557 0.527363 0.907702
O O7 0.740675 0.975034 0.587874
O O8 0.468833 0.485709 0.523353
#
# Coordination Sequence:
#
# PCOD9341115 Si02
#       4
#     4   4   4   4
#     4  11  26  49  73 103 151 191 239 302 361 427
#     4  11  23  42  73 107 141 184 233 288 356 435
#     4  12  28  47  73 107 144 196 250 299 359 430
#     4  10  23  42  67  99 136 181 230 289 354 414
#
# _framework density 24.144891999999999
#
# number of rings (size 3 to 8) (size 9 to 14) (size 15 to 20)
#    0.000    1.000    0.000    6.000    0.000   18.000 
#    0.000    0.000    0.000    0.000    0.000    0.000 
#    0.000    0.000    0.000    0.000    0.000    0.000 
#
# Total GULP energy -89429.433618 kJ/mol
# GULP energy per Si atom -5589.339601 kJ/mol
# Density = 2.408994 g / cm^3
# Si number density = 24.144892 Si / 1000 Ang^3
#
#
#
# Elastic Constant Matrix: (Units=GPa)
#
#
# Indices 1 2 3 4 5 6 
#
# 1 74.8411 34.2669 26.2282 0.0000 0.0000 0.0000
# 2 34.2669 142.7327 20.3418 0.0000 0.0000 0.0000
# 3 26.2282 20.3418 138.8351 0.0000 0.0000 0.0000
# 4 0.0000 0.0000 0.0000 40.3020 0.0000 0.0000
# 5 0.0000 0.0000 0.0000 0.0000 23.2222 0.0000
# 6 0.0000 0.0000 0.0000 0.0000 0.0000 55.7804
#
#
#
# Elastic Compliance Matrix: (Units=1/GPa)
#
#
# Indices 1 2 3 4 5 6 
#
# 1 0.015807 -0.003441 -0.002482 0.000000 0.000000 0.000000
# 2 -0.003441 0.007905 -0.000508 0.000000 0.000000 0.000000
# 3 -0.002482 -0.000508 0.007746 0.000000 0.000000 0.000000
# 4 0.000000 0.000000 0.000000 0.024813 0.000000 0.000000
# 5 0.000000 0.000000 0.000000 0.000000 0.043062 0.000000
# 6 0.000000 0.000000 0.000000 0.000000 0.000000 0.017927
#
#
# Mechanical properties :
#
#
# Convention : Reuss Voigt Hill
#
# Bulk Modulus (GPa) = 53.77708 57.56475 55.67091
# Shear Modulus (GPa) = 36.67809 42.23240 39.45524
#
# Velocity S-wave (km/s) = 3.90177 4.18679 4.04679
# Velocity P-wave (km/s) = 6.52835 6.87498 6.70391
#
# Compressibility (1/GPa) = 0.01859528
#
# Stress axis : x y z
#
# Youngs Moduli (GPa) = 63.26293 126.50759 129.09684
#
# Poissons Ratio (x) = 0.43534 0.32042
# Poissons Ratio (y) = 0.21770 0.06559
# Poissons Ratio (z) = 0.15702 0.06428
#
# Static dielectric constant tensor:
#      x y z
#    x 1.920170 0.000000 0.000000 
#    y 0.000000 2.018790 0.000000 
#    z 0.000000 0.000000 1.924360 
# 
# From -- ./inp_files/65.got.cif
#   From: 2010.05.17/outbox.cif.g08.bks.cpg/sg29_1_cif.got.tgz:65.got - 2010.06.04 01:19:37.
