data_PCOD9341322
_publ_section_title
;
Structure prediction by ZEFSAII (Michael W. Deem and Ramdas Pophale) SiO2 
 PCOD9341322
Probable space group: P C A 21
;
_chemical_formula_sum "Si O2"
_cell_formula_units_Z 20
_cell_length_a 9.439252
_cell_length_b 8.218035
_cell_length_c 10.377443
_cell_angle_alpha 90.000000
_cell_angle_beta 90.000000
_cell_angle_gamma 90.000000
_cell_volume 805.000080
_symmetry_space_group_name_H-M "P C A 21"
_symmetry_group_IT_number 29
_symmetry_cell_setting 'orthorhombic'
loop_
_space_group_symop_operation_xyz
x,y,z
-x,-y,1/2+z
1/2-x,y,1/2+z
1/2+x,-y,z
loop_
_atom_site_type_symbol
_atom_site_label
_atom_site_fract_x
_atom_site_fract_y
_atom_site_fract_z
Si Si1 0.243328 0.467968 0.270690
Si Si2 0.915025 0.852236 0.704874
Si Si3 0.325176 0.982432 0.079196
Si Si4 0.607291 0.645107 0.530910
Si Si5 0.147593 0.763603 0.890045
O O1 0.134343 0.335912 0.207976
O O2 0.374965 0.424598 0.175266
O O3 0.210395 0.428442 0.421503
O O4 0.261158 0.662522 0.284716
O O5 0.021625 0.899653 0.591768
O O6 0.026673 0.869232 0.820151
O O7 0.782069 0.974323 0.699369
O O8 0.350780 0.166379 0.036029
O O9 0.239900 0.870803 0.982747
O O10 0.448322 0.638694 0.475536
#
# Coordination Sequence:
#
# PCOD9341322 Si02
#       5
#     4   4   4   4   4
#     4  10  25  49  73 108 163 197 271 321 414 471
#     4  10  25  46  73 115 155 204 264 331 400 468
#     4  11  23  46  77 109 154 202 274 322 394 482
#     4  10  24  47  73 114 149 213 256 335 391 481
#     4  11  25  44  76 112 155 210 263 331 405 478
#
# _framework density 24.844718
#
# number of rings (size 3 to 8) (size 9 to 14) (size 15 to 20)
#    0.000    1.600    2.000    0.000   11.200    4.800 
#    7.200    0.000    0.000    0.000    0.000    0.000 
#    0.000    0.000    0.000    0.000    0.000    0.000 
#
# Total GULP energy -111353.487084 kJ/mol
# GULP energy per Si atom -5567.674354 kJ/mol
# Density = 2.478817 g / cm^3
# Si number density = 24.844718 Si / 1000 Ang^3
#
#
#
# Elastic Constant Matrix: (Units=GPa)
#
#
# Indices 1 2 3 4 5 6 
#
# 1 115.2586 60.8954 19.5869 0.0000 0.0000 0.0000
# 2 60.8954 126.6597 44.4468 0.0000 0.0000 0.0000
# 3 19.5869 44.4468 41.8273 0.0000 0.0000 0.0000
# 4 0.0000 0.0000 0.0000 38.7082 0.0000 0.0000
# 5 0.0000 0.0000 0.0000 0.0000 49.9296 0.0000
# 6 0.0000 0.0000 0.0000 0.0000 0.0000 42.5708
#
#
#
# Elastic Compliance Matrix: (Units=1/GPa)
#
#
# Indices 1 2 3 4 5 6 
#
# 1 0.011647 -0.005877 0.000791 0.000000 0.000000 0.000000
# 2 -0.005877 0.015556 -0.013778 0.000000 0.000000 0.000000
# 3 0.000791 -0.013778 0.038178 0.000000 0.000000 0.000000
# 4 0.000000 0.000000 0.000000 0.025834 0.000000 0.000000
# 5 0.000000 0.000000 0.000000 0.000000 0.020028 0.000000
# 6 0.000000 0.000000 0.000000 0.000000 0.000000 0.023490
#
#
# Mechanical properties :
#
#
# Convention : Reuss Voigt Hill
#
# Bulk Modulus (GPa) = 36.16228 59.28931 47.72579
# Shear Modulus (GPa) = 27.52127 36.82949 32.17538
#
# Velocity S-wave (km/s) = 3.33187 3.85435 3.60260
# Velocity P-wave (km/s) = 5.42114 6.61240 6.04618
#
# Compressibility (1/GPa) = 0.02765313
#
# Stress axis : x y z
#
# Youngs Moduli (GPa) = 85.86017 64.28553 26.19329
#
# Poissons Ratio (x) = 0.37782 -0.02073
# Poissons Ratio (y) = 0.50462 0.36088
# Poissons Ratio (z) = -0.06794 0.88570
#
# Static dielectric constant tensor:
#      x y z
#    x 2.028730 0.000000 0.000000 
#    y 0.000000 1.914840 0.000000 
#    z 0.000000 0.000000 2.230620 
# 
# From -- ./inp_files/2771.got.cif
#   From: 2010.05.17/outbox.cif.g08.bks.cpg/sg29_2_cif.got.tgz:2771.got - 2010.06.04 01:19:37.
