data_PCOD9341381
_publ_section_title
;
Structure prediction by ZEFSAII (Michael W. Deem and Ramdas Pophale) SiO2 
 PCOD9341381
Probable space group: P C A 21
;
_chemical_formula_sum "Si O2"
_cell_formula_units_Z 12
_cell_length_a 9.448269
_cell_length_b 6.340468
_cell_length_c 7.695888
_cell_angle_alpha 90.000000
_cell_angle_beta 90.000000
_cell_angle_gamma 90.000000
_cell_volume 461.033309
_symmetry_space_group_name_H-M "P C A 21"
_symmetry_group_IT_number 29
_symmetry_cell_setting 'orthorhombic'
loop_
_space_group_symop_operation_xyz
x,y,z
-x,-y,1/2+z
1/2-x,y,1/2+z
1/2+x,-y,z
loop_
_atom_site_type_symbol
_atom_site_label
_atom_site_fract_x
_atom_site_fract_y
_atom_site_fract_z
Si Si1 0.371320 0.003868 0.137870
Si Si2 0.556597 0.290602 0.934575
Si Si3 0.601652 0.711268 0.093560
O O1 0.226771 0.120691 0.098574
O O2 0.359025 0.882742 0.321236
O O3 0.453103 0.819025 0.030215
O O4 0.485541 0.190115 0.105474
O O5 0.433625 0.341603 0.794420
O O6 0.634727 0.502436 0.987432
#
# Coordination Sequence:
#
# PCOD9341381 Si02
#       3
#     4   4   4
#     4  10  26  48  79 116 162 204 271 332 397 478
#     4  10  26  46  84 114 158 214 266 326 402 478
#     4  10  26  50  81 116 160 212 265 328 403 478
#
# _framework density 26.028489
#
# number of rings (size 3 to 8) (size 9 to 14) (size 15 to 20)
#    2.000    0.000    0.000    0.000    9.333    2.667 
#    6.000    0.000    0.000    0.000    0.000    0.000 
#    0.000    0.000    0.000    0.000    0.000    0.000 
#
# Total GULP energy -66830.800489 kJ/mol
# GULP energy per Si atom -5569.233374 kJ/mol
# Density = 2.596925 g / cm^3
# Si number density = 26.028489 Si / 1000 Ang^3
#
#
#
# Elastic Constant Matrix: (Units=GPa)
#
#
# Indices 1 2 3 4 5 6 
#
# 1 137.4396 110.6411 61.6659 0.0000 0.0000 0.0000
# 2 110.6411 193.5017 113.6458 0.0000 0.0000 0.0000
# 3 61.6659 113.6458 102.9285 0.0000 0.0000 0.0000
# 4 0.0000 0.0000 0.0000 68.6263 0.0000 0.0000
# 5 0.0000 0.0000 0.0000 0.0000 17.0155 0.0000
# 6 0.0000 0.0000 0.0000 0.0000 0.0000 32.2538
#
#
#
# Elastic Compliance Matrix: (Units=1/GPa)
#
#
# Indices 1 2 3 4 5 6 
#
# 1 0.013537 -0.008468 0.001240 0.000000 0.000000 0.000000
# 2 -0.008468 0.019999 -0.017008 0.000000 0.000000 0.000000
# 3 0.001240 -0.017008 0.027751 0.000000 0.000000 0.000000
# 4 0.000000 0.000000 0.000000 0.014572 0.000000 0.000000
# 5 0.000000 0.000000 0.000000 0.000000 0.058770 0.000000
# 6 0.000000 0.000000 0.000000 0.000000 0.000000 0.031004
#
#
# Mechanical properties :
#
#
# Convention : Reuss Voigt Hill
#
# Bulk Modulus (GPa) = 78.03499 111.75282 94.89391
# Shear Modulus (GPa) = 22.89637 33.44026 28.16832
#
# Velocity S-wave (km/s) = 2.96913 3.58824 3.29327
# Velocity P-wave (km/s) = 6.46529 7.75856 7.14126
#
# Compressibility (1/GPa) = 0.01281476
#
# Stress axis : x y z
#
# Youngs Moduli (GPa) = 73.87314 50.00311 36.03486
#
# Poissons Ratio (x) = 0.42345 -0.04469
# Poissons Ratio (y) = 0.62559 0.61286
# Poissons Ratio (z) = -0.09162 0.85043
#
# Static dielectric constant tensor:
#      x y z
#    x 2.082910 0.000000 0.000000 
#    y 0.000000 2.029650 0.000000 
#    z 0.000000 0.000000 2.141890 
# 
# From -- ./inp_files/1290.got.cif
#   From: 2010.05.17/outbox.cif.g08.bks.cpg/sg29_1_cif.got.tgz:1290.got - 2010.06.04 01:19:37.
