data_PCOD9341985
_publ_section_title
;
Structure prediction by ZEFSAII (Michael W. Deem and Ramdas Pophale) SiO2 
 PCOD9341985
Probable space group: P N C 2
;
_chemical_formula_sum "Si O2"
_cell_formula_units_Z 32
_cell_length_a 13.587858
_cell_length_b 15.990225
_cell_length_c 5.745801
_cell_angle_alpha 90.000000
_cell_angle_beta 90.000000
_cell_angle_gamma 90.000000
_cell_volume 1248.406885
_symmetry_space_group_name_H-M "P N C 2"
_symmetry_group_IT_number 30
_symmetry_cell_setting 'orthorhombic'
loop_
_space_group_symop_operation_xyz
x,y,z
-x,-y,z
-x,1/2+y,1/2+z
x,1/2-y,1/2+z
loop_
_atom_site_type_symbol
_atom_site_label
_atom_site_fract_x
_atom_site_fract_y
_atom_site_fract_z
Si Si1 0.148482 0.230474 0.009720
Si Si2 0.463125 0.595537 0.004862
Si Si3 0.222088 0.062231 0.148261
Si Si4 0.651539 0.207793 0.222100
Si Si5 0.328633 0.360998 0.030036
Si Si6 0.888756 0.293237 0.746047
Si Si7 0.719545 0.039003 0.765829
Si Si8 0.905324 0.459610 0.982808
O O1 0.101312 0.242708 0.265131
O O2 0.170886 0.132415 0.993311
O O3 0.249694 0.285926 0.043624
O O4 0.500000 0.500000 0.986096
O O5 0.556608 0.652386 0.074918
O O6 0.373224 0.591379 0.187535
O O7 0.414461 0.625946 0.766371
O O8 0.314909 0.106810 0.266015
O O9 0.145479 0.035268 0.344338
O O10 0.256213 0.977590 0.030308
O O11 0.628314 0.255141 0.468422
O O12 0.769409 0.198475 0.236390
O O13 0.300593 0.443600 0.177988
O O14 0.912490 0.259629 0.484854
O O15 0.930152 0.385518 0.805428
O O16 0.819591 0.072917 0.651830
O O17 0.000000 0.500000 0.103467
#
# Coordination Sequence:
#
# PCOD9341985 Si02
#       8
#     4   4   4   4   4   4   4   4
#     4  10  19  37  65  93 139 188 234 279 344 415
#     4  10  21  41  60  97 139 182 234 289 343 411
#     4  10  22  39  69  97 137 190 226 290 355 419
#     4  10  22  42  66  94 130 185 236 282 344 413
#     4   9  20  38  59  94 138 183 233 280 344 412
#     4  10  23  46  74 100 138 182 228 290 356 422
#     4  10  20  42  64  92 136 180 236 285 354 412
#     4  11  25  45  73 106 137 179 234 296 364 434
#
# _framework density 25.632669
#
# number of rings (size 3 to 8) (size 9 to 14) (size 15 to 20)
#    0.000    2.000    2.500    0.000    1.750    3.500 
#    4.500    6.250    0.000    0.000    0.000    0.000 
#    0.000    0.000    0.000    0.000    0.000    0.000 
#
# Total GULP energy -178754.457432 kJ/mol
# GULP energy per Si atom -5586.076795 kJ/mol
# Density = 2.557433 g / cm^3
# Si number density = 25.632669 Si / 1000 Ang^3
#
#
#
# Elastic Constant Matrix: (Units=GPa)
#
#
# Indices 1 2 3 4 5 6 
#
# 1 133.8809 24.6450 46.5320 0.0000 0.0000 0.0000
# 2 24.6450 77.4242 39.6180 0.0000 0.0000 0.0000
# 3 46.5320 39.6180 123.0685 0.0000 0.0000 0.0000
# 4 0.0000 0.0000 0.0000 52.3154 0.0000 0.0000
# 5 0.0000 0.0000 0.0000 0.0000 15.8195 0.0000
# 6 0.0000 0.0000 0.0000 0.0000 0.0000 27.6454
#
#
#
# Elastic Compliance Matrix: (Units=1/GPa)
#
#
# Indices 1 2 3 4 5 6 
#
# 1 0.008708 -0.001301 -0.002873 0.000000 0.000000 0.000000
# 2 -0.001301 0.015658 -0.004548 0.000000 0.000000 0.000000
# 3 -0.002873 -0.004548 0.010676 0.000000 0.000000 0.000000
# 4 0.000000 0.000000 0.000000 0.019115 0.000000 0.000000
# 5 0.000000 0.000000 0.000000 0.000000 0.063213 0.000000
# 6 0.000000 0.000000 0.000000 0.000000 0.000000 0.036172
#
#
# Mechanical properties :
#
#
# Convention : Reuss Voigt Hill
#
# Bulk Modulus (GPa) = 56.83451 61.77374 59.30412
# Shear Modulus (GPa) = 28.27211 34.06131 31.16671
#
# Velocity S-wave (km/s) = 3.32470 3.64926 3.49076
# Velocity P-wave (km/s) = 6.07939 6.47364 6.27961
#
# Compressibility (1/GPa) = 0.01759494
#
# Stress axis : x y z
#
# Youngs Moduli (GPa) = 114.84270 63.86702 93.66651
#
# Poissons Ratio (x) = 0.08312 0.26914
# Poissons Ratio (y) = 0.14946 0.42603
# Poissons Ratio (z) = 0.32998 0.29049
#
# Static dielectric constant tensor:
#      x y z
#    x 2.060820 0.000000 0.000000 
#    y 0.000000 2.019620 0.000000 
#    z 0.000000 0.000000 2.073390 
# 
# From -- ./inp_files/966.got.cif
#   From: 2010.05.17/outbox.cif.g08.bks.cpg/sg30_1_cif.got.tgz:966.got - 2010.06.03 17:03:02.
