data_PCOD9341835
_publ_section_title
;
Structure prediction by ZEFSAII (Michael W. Deem and Ramdas Pophale) SiO2 
 PCOD9341835
Probable space group: P N C 2
;
_chemical_formula_sum "Si O2"
_cell_formula_units_Z 26
_cell_length_a 13.463184
_cell_length_b 12.037356
_cell_length_c 8.821901
_cell_angle_alpha 90.000000
_cell_angle_beta 90.000000
_cell_angle_gamma 90.000000
_cell_volume 1429.687322
_symmetry_space_group_name_H-M "P N C 2"
_symmetry_group_IT_number 30
_symmetry_cell_setting 'orthorhombic'
loop_
_space_group_symop_operation_xyz
x,y,z
-x,-y,z
-x,1/2+y,1/2+z
x,1/2-y,1/2+z
loop_
_atom_site_type_symbol
_atom_site_label
_atom_site_fract_x
_atom_site_fract_y
_atom_site_fract_z
Si Si1 0.846446 0.744931 0.500000
Si Si2 0.911045 0.914523 0.242215
Si Si3 0.692805 0.534624 0.775738
Si Si4 0.480196 0.681675 0.309555
Si Si5 0.500000 0.000000 0.064561
Si Si6 0.295576 0.202852 0.765552
Si Si7 0.421777 0.899064 0.494369
O O1 0.897417 0.833044 0.388146
O O2 0.918971 0.669376 0.599763
O O3 0.772204 0.804868 0.618092
O O4 0.772812 0.664099 0.403992
O O5 0.805908 0.979010 0.220927
O O6 0.000000 0.000000 0.256905
O O7 0.599166 0.516357 0.664209
O O8 0.689633 0.666639 0.803986
O O9 0.673996 0.456777 0.920409
O O10 0.474702 0.601867 0.454037
O O11 0.593253 0.661718 0.251233
O O12 0.458824 0.803540 0.377512
O O13 0.414016 0.651067 0.163533
O O14 0.500000 0.000000 0.499926
#
# Coordination Sequence:
#
# PCOD9341835 Si02
#       7
#     4   4   4   4   2   4   4
#     4   8  18  33  59  87 107 139 197 240 289 333
#     4  10  21  40  62  85 114 149 189 246 296 337
#     4  10  20  37  57  80 118 150 191 245 291 346
#     4  12  23  33  57  84 127 160 201 237 288 359
#     4  12  22  34  54  92 120 162 198 232 300 356
#     4  10  17  33  57  83 110 149 190 250 280 316
#     4  12  22  38  53  85 119 160 192 239 299 347
#
# _framework density 18.185793
#
# number of rings (size 3 to 8) (size 9 to 14) (size 15 to 20)
#    0.000    1.846    3.077    4.615    2.154    0.000 
#    0.000    6.154    0.000    0.000    0.000    0.000 
#    0.000    0.000    0.000    0.000    0.000    0.000 
#
# Total GULP energy -144848.674016 kJ/mol
# GULP energy per Si atom -5571.102847 kJ/mol
# Density = 1.814440 g / cm^3
# Si number density = 18.185793 Si / 1000 Ang^3
#
#
#
# Elastic Constant Matrix: (Units=GPa)
#
#
# Indices 1 2 3 4 5 6 
#
# 1 92.7156 36.5272 42.3374 0.0000 0.0000 0.0000
# 2 36.5272 91.1068 45.7278 0.0000 0.0000 0.0000
# 3 42.3374 45.7278 121.4496 0.0000 0.0000 0.0000
# 4 0.0000 0.0000 0.0000 27.4656 0.0000 0.0000
# 5 0.0000 0.0000 0.0000 0.0000 8.7883 0.0000
# 6 0.0000 0.0000 0.0000 0.0000 0.0000 34.9022
#
#
#
# Elastic Compliance Matrix: (Units=1/GPa)
#
#
# Indices 1 2 3 4 5 6 
#
# 1 0.013846 -0.003858 -0.003374 0.000000 0.000000 0.000000
# 2 -0.003858 0.014609 -0.004156 0.000000 0.000000 0.000000
# 3 -0.003374 -0.004156 0.010975 0.000000 0.000000 0.000000
# 4 0.000000 0.000000 0.000000 0.036409 0.000000 0.000000
# 5 0.000000 0.000000 0.000000 0.000000 0.113787 0.000000
# 6 0.000000 0.000000 0.000000 0.000000 0.000000 0.028652
#
#
# Mechanical properties :
#
#
# Convention : Reuss Voigt Hill
#
# Bulk Modulus (GPa) = 60.04413 61.60631 60.82522
# Shear Modulus (GPa) = 20.27539 26.27652 23.27595
#
# Velocity S-wave (km/s) = 3.34264 3.80530 3.58145
# Velocity P-wave (km/s) = 6.92722 7.29772 7.11488
#
# Compressibility (1/GPa) = 0.01665442
#
# Stress axis : x y z
#
# Youngs Moduli (GPa) = 72.22114 68.45316 91.11782
#
# Poissons Ratio (x) = 0.26408 0.30746
# Poissons Ratio (y) = 0.27861 0.37864
# Poissons Ratio (z) = 0.24370 0.28446
#
# Static dielectric constant tensor:
#      x y z
#    x 1.644260 0.000000 0.000000 
#    y 0.000000 1.656600 0.000000 
#    z 0.000000 0.000000 1.716210 
# 
# From -- ./inp_files/2652.got.cif
#   From: 2010.05.17/outbox.cif.g08.bks.cpg/sg30_2_cif.got.tgz:2652.got - 2010.06.03 17:03:02.
