data_PCOD9341863
_publ_section_title
;
Structure prediction by ZEFSAII (Michael W. Deem and Ramdas Pophale) SiO2 
 PCOD9341863
Probable space group: P N C 2
;
_chemical_formula_sum "Si O2"
_cell_formula_units_Z 16
_cell_length_a 5.314926
_cell_length_b 7.097198
_cell_length_c 16.598536
_cell_angle_alpha 90.000000
_cell_angle_beta 90.000000
_cell_angle_gamma 90.000000
_cell_volume 626.114740
_symmetry_space_group_name_H-M "P N C 2"
_symmetry_group_IT_number 30
_symmetry_cell_setting 'orthorhombic'
loop_
_space_group_symop_operation_xyz
x,y,z
-x,-y,z
-x,1/2+y,1/2+z
x,1/2-y,1/2+z
loop_
_atom_site_type_symbol
_atom_site_label
_atom_site_fract_x
_atom_site_fract_y
_atom_site_fract_z
Si Si1 0.490837 0.273418 0.929280
Si Si2 0.712715 0.729398 0.106683
Si Si3 0.214619 0.699163 0.169122
Si Si4 0.009531 0.728983 0.843779
O O1 0.500000 0.500000 0.924543
O O2 0.774325 0.215307 0.907959
O O3 0.270783 0.209122 0.868437
O O4 0.394973 0.230840 0.018723
O O5 0.490245 0.789815 0.166697
O O6 0.747910 0.505471 0.127390
O O7 0.994169 0.799448 0.119461
O O8 0.107879 0.695357 0.258875
O O9 0.000000 0.500000 0.839000
#
# Coordination Sequence:
#
# PCOD9341863 Si02
#       4
#     4   4   4   4
#     4  10  18  32  51  80 105 136 182 230 263 315
#     4  10  19  32  57  79 103 139 189 229 266 317
#     4  10  19  32  51  84 106 140 176 236 271 321
#     4  10  21  32  51  81 116 138 174 226 286 325
#
# _framework density 25.554423
#
# number of rings (size 3 to 8) (size 9 to 14) (size 15 to 20)
#    0.000    2.000    2.500    3.000    7.000    0.000 
#    0.000    0.000    0.000    0.000   65.000    0.000 
#    0.000    0.000    0.000    0.000    0.000    0.000 
#
# Total GULP energy -89439.991534 kJ/mol
# GULP energy per Si atom -5589.999471 kJ/mol
# Density = 2.549626 g / cm^3
# Si number density = 25.554423 Si / 1000 Ang^3
#
#
#
# Elastic Constant Matrix: (Units=GPa)
#
#
# Indices 1 2 3 4 5 6 
#
# 1 203.7991 -0.0375 38.9617 0.0000 0.0000 0.0000
# 2 -0.0375 126.1610 -5.9159 0.0000 0.0000 0.0000
# 3 38.9617 -5.9159 139.0813 0.0000 0.0000 0.0000
# 4 0.0000 0.0000 0.0000 19.3164 0.0000 0.0000
# 5 0.0000 0.0000 0.0000 0.0000 53.7909 0.0000
# 6 0.0000 0.0000 0.0000 0.0000 0.0000 -21.3022
#
#
#
# Elastic Compliance Matrix: (Units=1/GPa)
#
#
# Indices 1 2 3 4 5 6 
#
# 1 0.005185 -0.000067 -0.001455 0.000000 0.000000 0.000000
# 2 -0.000067 0.007943 0.000357 0.000000 0.000000 0.000000
# 3 -0.001455 0.000357 0.007613 0.000000 0.000000 0.000000
# 4 0.000000 0.000000 0.000000 0.051769 0.000000 0.000000
# 5 0.000000 0.000000 0.000000 0.000000 0.018590 0.000000
# 6 0.000000 0.000000 0.000000 0.000000 0.000000 -0.046943
#
#
# Mechanical properties :
#
#
# Convention : Reuss Voigt Hill
#
# Bulk Modulus (GPa) = 54.31832 59.45089 56.88461
# Shear Modulus (GPa) = 95.01180 39.42991 67.22085
#
# Velocity S-wave (km/s) = 6.10417 3.93234 5.13440
# Velocity P-wave (km/s) = 8.42516 6.62817 7.58010
#
# Compressibility (1/GPa) = 0.01840999
#
# Stress axis : x y z
#
# Youngs Moduli (GPa) = 192.86370 125.89572 131.35601
#
# Poissons Ratio (x) = 0.00840 0.19117
# Poissons Ratio (y) = 0.01286 -0.04684
# Poissons Ratio (z) = 0.28068 -0.04489
#
# Static dielectric constant tensor:
#      x y z
#    x 1.901080 0.000000 0.000000 
#    y 0.000000 1.604080 0.000000 
#    z 0.000000 0.000000 1.973930 
# 
# From -- ./inp_files/2993.got.cif
#   From: 2010.05.17/outbox.cif.g08.bks.cpg/sg30_2_cif.got.tgz:2993.got - 2010.06.03 17:03:02.
