data_PCOD9341478
_publ_section_title
;
Structure prediction by ZEFSAII (Michael W. Deem and Ramdas Pophale) SiO2 
 PCOD9341478
Probable space group: P C A 21
;
_chemical_formula_sum "Si O2"
_cell_formula_units_Z 16
_cell_length_a 10.486102
_cell_length_b 5.040954
_cell_length_c 13.378271
_cell_angle_alpha 90.000000
_cell_angle_beta 90.000000
_cell_angle_gamma 90.000000
_cell_volume 707.174841
_symmetry_space_group_name_H-M "P C A 21"
_symmetry_group_IT_number 29
_symmetry_cell_setting 'orthorhombic'
loop_
_space_group_symop_operation_xyz
x,y,z
-x,-y,1/2+z
1/2-x,y,1/2+z
1/2+x,-y,z
loop_
_atom_site_type_symbol
_atom_site_label
_atom_site_fract_x
_atom_site_fract_y
_atom_site_fract_z
Si Si1 0.966658 0.087817 0.388160
Si Si2 0.973018 0.022724 0.621185
Si Si3 0.289843 0.888692 0.784220
Si Si4 0.091088 0.532361 0.725729
O O1 0.977562 0.368489 0.328651
O O2 0.956544 0.092406 0.506257
O O3 0.090424 0.922391 0.356766
O O4 0.832742 0.986780 0.340478
O O5 0.044688 0.263285 0.677431
O O6 0.052090 0.758284 0.644633
O O7 0.839350 0.991365 0.679920
O O8 0.238001 0.595727 0.754162
#
# Coordination Sequence:
#
# PCOD9341478 Si02
#       4
#     4   4   4   4
#     4   9  22  43  72 102 142 187 232 291 358 418
#     4  11  22  45  69 102 136 190 226 291 358 412
#     4   9  22  45  66 107 141 178 240 294 342 432
#     4   9  24  41  65  99 141 173 236 286 334 432
#
# _framework density 22.625236999999998
#
# number of rings (size 3 to 8) (size 9 to 14) (size 15 to 20)
#    1.500    1.000    0.000    0.000    3.500    8.000 
#    0.000    0.000    0.000    0.000    0.000    0.000 
#    0.000    0.000    0.000    0.000    0.000    0.000 
#
# Total GULP energy -89108.843107 kJ/mol
# GULP energy per Si atom -5569.302694 kJ/mol
# Density = 2.257374 g / cm^3
# Si number density = 22.625237 Si / 1000 Ang^3
#
#
#
# Elastic Constant Matrix: (Units=GPa)
#
#
# Indices 1 2 3 4 5 6 
#
# 1 178.9227 38.4743 64.6485 0.0000 0.0000 0.0000
# 2 38.4743 87.9704 19.3160 0.0000 0.0000 0.0000
# 3 64.6485 19.3160 226.8142 0.0000 0.0000 0.0000
# 4 0.0000 0.0000 0.0000 15.4732 0.0000 0.0000
# 5 0.0000 0.0000 0.0000 0.0000 25.6174 0.0000
# 6 0.0000 0.0000 0.0000 0.0000 0.0000 27.4082
#
#
#
# Elastic Compliance Matrix: (Units=1/GPa)
#
#
# Indices 1 2 3 4 5 6 
#
# 1 0.006761 -0.002582 -0.001707 0.000000 0.000000 0.000000
# 2 -0.002582 0.012570 -0.000335 0.000000 0.000000 0.000000
# 3 -0.001707 -0.000335 0.004924 0.000000 0.000000 0.000000
# 4 0.000000 0.000000 0.000000 0.064628 0.000000 0.000000
# 5 0.000000 0.000000 0.000000 0.000000 0.039036 0.000000
# 6 0.000000 0.000000 0.000000 0.000000 0.000000 0.036485
#
#
# Mechanical properties :
#
#
# Convention : Reuss Voigt Hill
#
# Bulk Modulus (GPa) = 66.63304 82.06497 74.34901
# Shear Modulus (GPa) = 27.98690 38.45098 33.21894
#
# Velocity S-wave (km/s) = 3.52088 4.12694 3.83590
# Velocity P-wave (km/s) = 6.78554 7.68499 7.24923
#
# Compressibility (1/GPa) = 0.01500757
#
# Stress axis : x y z
#
# Youngs Moduli (GPa) = 147.90492 79.55309 203.08748
#
# Poissons Ratio (x) = 0.20542 0.34671
# Poissons Ratio (y) = 0.38191 0.06794
# Poissons Ratio (z) = 0.25250 0.02661
#
# Static dielectric constant tensor:
#      x y z
#    x 1.926780 0.000000 0.000000 
#    y 0.000000 1.911480 0.000000 
#    z 0.000000 0.000000 1.797700 
# 
# From -- ./inp_files/4364.got.cif
#   From: 2010.05.17/outbox.cif.g08.bks.cpg/sg29_3_cif.got.tgz:4364.got - 2010.06.04 01:19:37.
