data_PCOD9341646
_publ_section_title
;
Structure prediction by ZEFSAII (Michael W. Deem and Ramdas Pophale) SiO2 
 PCOD9341646
Probable space group: P C A 21
;
_chemical_formula_sum "Si O2"
_cell_formula_units_Z 24
_cell_length_a 9.250613
_cell_length_b 5.279090
_cell_length_c 18.011107
_cell_angle_alpha 90.000000
_cell_angle_beta 90.000000
_cell_angle_gamma 90.000000
_cell_volume 879.569143
_symmetry_space_group_name_H-M "P C A 21"
_symmetry_group_IT_number 29
_symmetry_cell_setting 'orthorhombic'
loop_
_space_group_symop_operation_xyz
x,y,z
-x,-y,1/2+z
1/2-x,y,1/2+z
1/2+x,-y,z
loop_
_atom_site_type_symbol
_atom_site_label
_atom_site_fract_x
_atom_site_fract_y
_atom_site_fract_z
Si Si1 0.310291 0.597603 0.529190
Si Si2 0.852760 0.498099 0.308245
Si Si3 0.335861 0.997203 0.821664
Si Si4 0.942179 0.009830 0.653702
Si Si5 0.194251 0.317171 0.650450
Si Si6 0.957612 0.303955 0.931206
O O1 0.380800 0.803015 0.587446
O O2 0.183382 0.460797 0.575217
O O3 0.422522 0.400181 0.490208
O O4 0.203902 0.697163 0.464918
O O5 0.779266 0.231177 0.321900
O O6 0.866724 0.530969 0.219556
O O7 0.994090 0.533492 0.358409
O O8 0.751108 0.741433 0.325277
O O9 0.409017 0.945701 0.741201
O O10 0.448402 0.968895 0.889891
O O11 0.112520 0.050167 0.647688
O O12 0.864832 0.740656 0.648486
#
# Coordination Sequence:
#
# PCOD9341646 Si02
#       6
#     4   4   4   4   4   4
#     4  12  26  48  74 106 158 194 246 320 386 462
#     4  11  25  50  80 110 149 200 260 316 371 458
#     4  11  25  50  80 110 149 200 260 316 371 458
#     4  11  25  47  76 108 143 201 258 315 374 454
#     4  11  25  47  76 108 143 201 258 315 374 454
#     4  12  26  48  72 116 150 200 246 314 390 450
#
# _framework density 27.286086000000001
#
# number of rings (size 3 to 8) (size 9 to 14) (size 15 to 20)
#    0.000    0.667    6.667    0.000    2.333    2.667 
#    9.000    0.000    0.000    0.000    0.000    0.000 
#    0.000    0.000    0.000    0.000    0.000    0.000 
#
# Total GULP energy -133883.307101 kJ/mol
# GULP energy per Si atom -5578.471129 kJ/mol
# Density = 2.722398 g / cm^3
# Si number density = 27.286086 Si / 1000 Ang^3
#
#
#
# Elastic Constant Matrix: (Units=GPa)
#
#
# Indices 1 2 3 4 5 6 
#
# 1 118.7832 48.5395 57.4866 0.0000 0.0000 0.0000
# 2 48.5395 110.8172 19.1512 0.0000 0.0000 0.0000
# 3 57.4866 19.1512 165.0164 0.0000 0.0000 0.0000
# 4 0.0000 0.0000 0.0000 23.6094 0.0000 0.0000
# 5 0.0000 0.0000 0.0000 0.0000 33.2945 0.0000
# 6 0.0000 0.0000 0.0000 0.0000 0.0000 44.8368
#
#
#
# Elastic Compliance Matrix: (Units=1/GPa)
#
#
# Indices 1 2 3 4 5 6 
#
# 1 0.012104 -0.004667 -0.003675 0.000000 0.000000 0.000000
# 2 -0.004667 0.011008 0.000348 0.000000 0.000000 0.000000
# 3 -0.003675 0.000348 0.007300 0.000000 0.000000 0.000000
# 4 0.000000 0.000000 0.000000 0.042356 0.000000 0.000000
# 5 0.000000 0.000000 0.000000 0.000000 0.030035 0.000000
# 6 0.000000 0.000000 0.000000 0.000000 0.000000 0.022303
#
#
# Mechanical properties :
#
#
# Convention : Reuss Voigt Hill
#
# Bulk Modulus (GPa) = 69.32569 71.66347 70.49458
# Shear Modulus (GPa) = 34.26961 38.31075 36.29018
#
# Velocity S-wave (km/s) = 3.54777 3.75112 3.65086
# Velocity P-wave (km/s) = 6.49956 6.71431 6.60781
#
# Compressibility (1/GPa) = 0.01442467
#
# Stress axis : x y z
#
# Youngs Moduli (GPa) = 82.61481 90.84473 136.98799
#
# Poissons Ratio (x) = 0.42395 0.50346
# Poissons Ratio (y) = 0.38554 -0.04770
# Poissons Ratio (z) = 0.30362 -0.03163
#
# Static dielectric constant tensor:
#      x y z
#    x 2.138500 0.000000 0.000000 
#    y 0.000000 2.256990 0.000000 
#    z 0.000000 0.000000 2.215890 
# 
# From -- ./inp_files/5061.got.cif
#   From: 2010.05.17/outbox.cif.g08.bks.cpg/sg29_3_cif.got.tgz:5061.got - 2010.06.04 01:19:37.
