data_PCOD9341372
_publ_section_title
;
Structure prediction by ZEFSAII (Michael W. Deem and Ramdas Pophale) SiO2 
 PCOD9341372
Probable space group: P C A 21
;
_chemical_formula_sum "Si O2"
_cell_formula_units_Z 12
_cell_length_a 10.212278
_cell_length_b 5.216190
_cell_length_c 8.366053
_cell_angle_alpha 90.000000
_cell_angle_beta 90.000000
_cell_angle_gamma 90.000000
_cell_volume 445.652803
_symmetry_space_group_name_H-M "P C A 21"
_symmetry_group_IT_number 29
_symmetry_cell_setting 'orthorhombic'
loop_
_space_group_symop_operation_xyz
x,y,z
-x,-y,1/2+z
1/2-x,y,1/2+z
1/2+x,-y,z
loop_
_atom_site_type_symbol
_atom_site_label
_atom_site_fract_x
_atom_site_fract_y
_atom_site_fract_z
Si Si1 0.754112 0.729481 0.696810
Si Si2 0.036883 0.659196 0.216980
Si Si3 0.889645 0.012906 0.421171
O O1 0.615671 0.579238 0.694738
O O2 0.633048 0.559789 0.276231
O O3 0.818036 0.797440 0.528355
O O4 0.707086 0.004504 0.769749
O O5 0.020184 0.889723 0.344976
O O6 0.082675 0.762378 0.043793
#
# Coordination Sequence:
#
# PCOD9341372 Si02
#       3
#     4   4   4
#     4  10  26  45  77 108 150 203 256 320 380 465
#     4  10  26  48  77 108 157 200 256 315 393 451
#     4  10  26  43  78 108 155 197 254 317 389 456
#
# _framework density 26.92679
#
# number of rings (size 3 to 8) (size 9 to 14) (size 15 to 20)
#    2.000    0.000    0.000    0.000    9.333    5.333 
#    0.000    0.000    0.000    0.000    0.000    0.000 
#    0.000    0.000    0.000    0.000    0.000    0.000 
#
# Total GULP energy -66952.850506 kJ/mol
# GULP energy per Si atom -5579.404209 kJ/mol
# Density = 2.686550 g / cm^3
# Si number density = 26.926790 Si / 1000 Ang^3
#
#
#
# Elastic Constant Matrix: (Units=GPa)
#
#
# Indices 1 2 3 4 5 6 
#
# 1 190.9695 53.6040 22.4762 0.0000 0.0000 0.0000
# 2 53.6040 107.4806 35.6243 0.0000 0.0000 0.0000
# 3 22.4762 35.6243 102.7181 0.0000 0.0000 0.0000
# 4 0.0000 0.0000 0.0000 31.6563 0.0000 0.0000
# 5 0.0000 0.0000 0.0000 0.0000 25.1666 0.0000
# 6 0.0000 0.0000 0.0000 0.0000 0.0000 55.4447
#
#
#
# Elastic Compliance Matrix: (Units=1/GPa)
#
#
# Indices 1 2 3 4 5 6 
#
# 1 0.006098 -0.002937 -0.000316 0.000000 0.000000 0.000000
# 2 -0.002937 0.011927 -0.003494 0.000000 0.000000 0.000000
# 3 -0.000316 -0.003494 0.011016 0.000000 0.000000 0.000000
# 4 0.000000 0.000000 0.000000 0.031589 0.000000 0.000000
# 5 0.000000 0.000000 0.000000 0.000000 0.039735 0.000000
# 6 0.000000 0.000000 0.000000 0.000000 0.000000 0.018036
#
#
# Mechanical properties :
#
#
# Convention : Reuss Voigt Hill
#
# Bulk Modulus (GPa) = 64.31566 69.39745 66.85656
# Shear Modulus (GPa) = 36.47607 41.75109 39.11358
#
# Velocity S-wave (km/s) = 3.68453 3.94196 3.81542
# Velocity P-wave (km/s) = 6.48369 6.82256 6.65529
#
# Compressibility (1/GPa) = 0.01554831
#
# Stress axis : x y z
#
# Youngs Moduli (GPa) = 163.99162 83.84658 90.77542
#
# Poissons Ratio (x) = 0.24622 0.02867
# Poissons Ratio (y) = 0.48156 0.31715
# Poissons Ratio (z) = 0.05180 0.29294
#
# Static dielectric constant tensor:
#      x y z
#    x 2.104890 0.000000 0.000000 
#    y 0.000000 2.083760 0.000000 
#    z 0.000000 0.000000 2.089660 
# 
# From -- ./inp_files/1292.got.cif
#   From: 2010.05.17/outbox.cif.g08.bks.cpg/sg29_1_cif.got.tgz:1292.got - 2010.06.04 01:19:37.
