data_PCOD9341191
_publ_section_title
;
Structure prediction by ZEFSAII (Michael W. Deem and Ramdas Pophale) SiO2 
 PCOD9341191
Probable space group: P C A 21
;
_chemical_formula_sum "Si O2"
_cell_formula_units_Z 28
_cell_length_a 26.487356
_cell_length_b 4.732787
_cell_length_c 7.952294
_cell_angle_alpha 90.000000
_cell_angle_beta 90.000000
_cell_angle_gamma 90.000000
_cell_volume 996.891736
_symmetry_space_group_name_H-M "P C A 21"
_symmetry_group_IT_number 29
_symmetry_cell_setting 'orthorhombic'
loop_
_space_group_symop_operation_xyz
x,y,z
-x,-y,1/2+z
1/2-x,y,1/2+z
1/2+x,-y,z
loop_
_atom_site_type_symbol
_atom_site_label
_atom_site_fract_x
_atom_site_fract_y
_atom_site_fract_z
Si Si1 0.949885 0.681761 0.984510
Si Si2 0.394705 0.816001 0.482525
Si Si3 0.612208 0.146525 0.625035
Si Si4 0.304243 0.200186 0.609690
Si Si5 0.543968 0.679086 0.103067
Si Si6 0.160841 0.563070 0.420203
Si Si7 0.799812 0.750092 0.234863
O O1 0.959614 0.773356 0.794892
O O2 0.062317 0.058202 0.994148
O O3 0.898091 0.488743 0.989293
O O4 0.937011 0.958871 0.087645
O O5 0.397389 0.672253 0.297957
O O6 0.345608 0.962118 0.567442
O O7 0.349116 0.059062 0.232979
O O8 0.505169 0.487584 0.545059
O O9 0.649254 0.108532 0.449209
O O10 0.412396 0.559192 0.600857
O O11 0.250950 0.086244 0.680095
O O12 0.294936 0.349896 0.427894
O O13 0.320282 0.417811 0.756150
O O14 0.191755 0.479905 0.587995
#
# Coordination Sequence:
#
# PCOD9341191 Si02
#       7
#     4   4   4   4   4   4   4
#     4  11  27  46  76 107 154 195 261 318 393 458
#     4  11  28  49  79 114 156 202 260 321 390 470
#     4  10  26  48  74 109 152 200 258 322 390 464
#     4  11  22  49  74 109 157 196 265 311 401 457
#     4  12  28  48  78 116 150 208 257 326 390 469
#     4  11  24  46  74 109 149 203 259 320 389 461
#     4  10  23  46  71 110 152 200 256 320 385 475
#
# _framework density 28.087302999999999
#
# number of rings (size 3 to 8) (size 9 to 14) (size 15 to 20)
#    0.000    1.143    2.857    0.857   12.000    0.000 
#    7.714    0.000    0.000    0.000    0.000    0.000 
#    0.000    0.000    0.000    0.000    0.000    0.000 
#
# Total GULP energy -156494.261022 kJ/mol
# GULP energy per Si atom -5589.080751 kJ/mol
# Density = 2.802337 g / cm^3
# Si number density = 28.087303 Si / 1000 Ang^3
#
#
#
# Elastic Constant Matrix: (Units=GPa)
#
#
# Indices 1 2 3 4 5 6 
#
# 1 105.2909 14.6928 44.3030 0.0000 0.0000 0.0000
# 2 14.6928 67.5239 22.4379 0.0000 0.0000 0.0000
# 3 44.3030 22.4379 233.6598 0.0000 0.0000 0.0000
# 4 0.0000 0.0000 0.0000 44.2400 0.0000 0.0000
# 5 0.0000 0.0000 0.0000 0.0000 35.6420 0.0000
# 6 0.0000 0.0000 0.0000 0.0000 0.0000 33.2996
#
#
#
# Elastic Compliance Matrix: (Units=1/GPa)
#
#
# Indices 1 2 3 4 5 6 
#
# 1 0.010502 -0.001677 -0.001830 0.000000 0.000000 0.000000
# 2 -0.001677 0.015565 -0.001177 0.000000 0.000000 0.000000
# 3 -0.001830 -0.001177 0.004740 0.000000 0.000000 0.000000
# 4 0.000000 0.000000 0.000000 0.022604 0.000000 0.000000
# 5 0.000000 0.000000 0.000000 0.000000 0.028057 0.000000
# 6 0.000000 0.000000 0.000000 0.000000 0.000000 0.030030
#
#
# Mechanical properties :
#
#
# Convention : Reuss Voigt Hill
#
# Bulk Modulus (GPa) = 46.64368 63.26023 54.95195
# Shear Modulus (GPa) = 39.05883 44.30570 41.68226
#
# Velocity S-wave (km/s) = 3.73315 3.97599 3.85648
# Velocity P-wave (km/s) = 5.93503 6.60679 6.27990
#
# Compressibility (1/GPa) = 0.02143913
#
# Stress axis : x y z
#
# Youngs Moduli (GPa) = 95.22398 64.24467 210.98268
#
# Poissons Ratio (x) = 0.10773 0.38612
# Poissons Ratio (y) = 0.15969 0.24828
# Poissons Ratio (z) = 0.17427 0.07560
#
# Static dielectric constant tensor:
#      x y z
#    x 2.275820 0.000000 0.000000 
#    y 0.000000 2.512320 0.000000 
#    z 0.000000 0.000000 2.524370 
# 
# From -- ./inp_files/2451.got.cif
#   From: 2010.05.17/outbox.cif.g08.bks.cpg/sg29_2_cif.got.tgz:2451.got - 2010.06.04 01:19:37.
