data_PCOD9341203
_publ_section_title
;
Structure prediction by ZEFSAII (Michael W. Deem and Ramdas Pophale) SiO2 
 PCOD9341203
Probable space group: P C A 21
;
_chemical_formula_sum "Si O2"
_cell_formula_units_Z 32
_cell_length_a 15.697179
_cell_length_b 7.578696
_cell_length_c 9.188137
_cell_angle_alpha 90.000000
_cell_angle_beta 90.000000
_cell_angle_gamma 90.000000
_cell_volume 1093.058887
_symmetry_space_group_name_H-M "P C A 21"
_symmetry_group_IT_number 29
_symmetry_cell_setting 'orthorhombic'
loop_
_space_group_symop_operation_xyz
x,y,z
-x,-y,1/2+z
1/2-x,y,1/2+z
1/2+x,-y,z
loop_
_atom_site_type_symbol
_atom_site_label
_atom_site_fract_x
_atom_site_fract_y
_atom_site_fract_z
Si Si1 0.681816 0.282184 0.243710
Si Si2 0.881344 0.813584 0.388843
Si Si3 0.194955 0.175828 0.466251
Si Si4 0.927130 0.448327 0.468280
Si Si5 0.682206 0.451416 0.560151
Si Si6 0.637603 0.160950 0.766054
Si Si7 0.551684 0.044487 0.353699
Si Si8 0.928100 0.664980 0.767784
O O1 0.679670 0.387460 0.394490
O O2 0.758941 0.144919 0.258034
O O3 0.566822 0.537309 0.129133
O O4 0.592691 0.179868 0.238507
O O5 0.795023 0.860965 0.474592
O O6 0.880668 0.604263 0.377857
O O7 0.884565 0.955156 0.259687
O O8 0.976078 0.865430 0.443957
O O9 0.172204 0.339101 0.570868
O O10 0.130028 0.012857 0.458990
O O11 0.166974 0.268128 0.310862
O O12 0.777045 0.405783 0.620395
O O13 0.886184 0.259875 0.419388
O O14 0.022047 0.429011 0.400809
O O15 0.622152 0.319379 0.651349
O O16 0.472126 0.139884 0.773206
#
# Coordination Sequence:
#
# PCOD9341203 Si02
#       8
#     4   4   4   4   4   4   4   4
#     4  10  23  47  80 121 162 222 286 365 435 533
#     4  12  25  52  81 125 169 233 289 363 437 545
#     4  10  23  51  81 121 172 227 290 358 454 521
#     4  12  27  52  82 127 173 222 296 362 446 532
#     4  10  24  45  84 117 169 220 287 362 446 533
#     4  10  23  51  75 120 162 215 282 352 436 530
#     4  10  24  50  82 120 170 230 291 370 439 540
#     4  10  27  52  83 123 177 221 285 370 441 526
#
# _framework density 29.275639999999999
#
# number of rings (size 3 to 8) (size 9 to 14) (size 15 to 20)
#    1.500    0.000    2.500    0.750    3.500    3.000 
#    6.750    0.000    0.000    0.000    0.000    0.000 
#    0.000    0.000    0.000    0.000    0.000    0.000 
#
# Total GULP energy -178585.374619 kJ/mol
# GULP energy per Si atom -5580.792957 kJ/mol
# Density = 2.920901 g / cm^3
# Si number density = 29.275640 Si / 1000 Ang^3
#
#
#
# Elastic Constant Matrix: (Units=GPa)
#
#
# Indices 1 2 3 4 5 6 
#
# 1 107.7077 30.1532 36.2621 0.0000 0.0000 0.0000
# 2 30.1532 204.8583 44.8604 0.0000 0.0000 0.0000
# 3 36.2621 44.8604 131.8586 0.0000 0.0000 0.0000
# 4 0.0000 0.0000 0.0000 39.1859 0.0000 0.0000
# 5 0.0000 0.0000 0.0000 0.0000 17.2939 0.0000
# 6 0.0000 0.0000 0.0000 0.0000 0.0000 63.7551
#
#
#
# Elastic Compliance Matrix: (Units=1/GPa)
#
#
# Indices 1 2 3 4 5 6 
#
# 1 0.010410 -0.000978 -0.002530 0.000000 0.000000 0.000000
# 2 -0.000978 0.005366 -0.001557 0.000000 0.000000 0.000000
# 3 -0.002530 -0.001557 0.008809 0.000000 0.000000 0.000000
# 4 0.000000 0.000000 0.000000 0.025519 0.000000 0.000000
# 5 0.000000 0.000000 0.000000 0.000000 0.057824 0.000000
# 6 0.000000 0.000000 0.000000 0.000000 0.000000 0.015685
#
#
# Mechanical properties :
#
#
# Convention : Reuss Voigt Hill
#
# Bulk Modulus (GPa) = 69.17675 74.10844 71.64259
# Shear Modulus (GPa) = 36.08485 46.25691 41.17088
#
# Velocity S-wave (km/s) = 3.51463 3.97929 3.75416
# Velocity P-wave (km/s) = 6.33648 6.81777 6.58153
#
# Compressibility (1/GPa) = 0.01445572
#
# Stress axis : x y z
#
# Youngs Moduli (GPa) = 96.06111 186.34833 113.51689
#
# Poissons Ratio (x) = 0.18229 0.28720
# Poissons Ratio (y) = 0.09397 0.17671
# Poissons Ratio (z) = 0.24304 0.29008
#
# Static dielectric constant tensor:
#      x y z
#    x 2.513500 0.000000 0.000000 
#    y 0.000000 2.209450 0.000000 
#    z 0.000000 0.000000 2.397020 
# 
# From -- ./inp_files/4744.got.cif
#   From: 2010.05.17/outbox.cif.g08.bks.cpg/sg29_3_cif.got.tgz:4744.got - 2010.06.04 01:19:37.
