data_PCOD9341153
_publ_section_title
;
Structure prediction by ZEFSAII (Michael W. Deem and Ramdas Pophale) SiO2 
 PCOD9341153
Probable space group: P C A 21
;
_chemical_formula_sum "Si O2"
_cell_formula_units_Z 32
_cell_length_a 12.215899
_cell_length_b 7.529485
_cell_length_c 13.533254
_cell_angle_alpha 90.000000
_cell_angle_beta 90.000000
_cell_angle_gamma 90.000000
_cell_volume 1244.780966
_symmetry_space_group_name_H-M "P C A 21"
_symmetry_group_IT_number 29
_symmetry_cell_setting 'orthorhombic'
loop_
_space_group_symop_operation_xyz
x,y,z
-x,-y,1/2+z
1/2-x,y,1/2+z
1/2+x,-y,z
loop_
_atom_site_type_symbol
_atom_site_label
_atom_site_fract_x
_atom_site_fract_y
_atom_site_fract_z
Si Si1 0.318703 0.237442 0.128570
Si Si2 0.546465 0.094906 0.036808
Si Si3 0.061914 0.440961 0.789374
Si Si4 0.249136 0.844890 0.660581
Si Si5 0.000841 0.774259 0.659218
Si Si6 0.144740 0.759296 0.362081
Si Si7 0.249821 0.429678 0.938895
Si Si8 0.585225 0.865842 0.359671
O O1 0.346201 0.365644 0.217223
O O2 0.436690 0.179582 0.084451
O O3 0.264870 0.058091 0.167540
O O4 0.248609 0.340432 0.046519
O O5 0.546300 0.883495 0.064047
O O6 0.653540 0.182579 0.083259
O O7 0.526743 0.141364 0.922790
O O8 0.995948 0.587071 0.722163
O O9 0.133362 0.473429 0.888754
O O10 0.974282 0.295327 0.822732
O O11 0.128905 0.779151 0.636614
O O12 0.279564 0.761576 0.765416
O O13 0.953800 0.896478 0.748109
O O14 0.183641 0.612083 0.437415
O O15 0.144463 0.958736 0.401196
O O16 0.330243 0.294056 0.877757
#
# Coordination Sequence:
#
# PCOD9341153 Si02
#       8
#     4   4   4   4   4   4   4   4
#     4  10  24  44  70  99 144 185 248 292 361 440
#     4  10  23  44  67 100 131 185 239 287 356 431
#     4  12  24  43  68 104 145 184 242 297 360 438
#     4  11  21  46  68  98 139 187 239 297 367 434
#     4  11  23  43  66 103 139 183 234 294 364 435
#     4  12  23  44  73 100 140 194 233 298 370 429
#     4  11  26  47  68 109 144 190 242 306 359 436
#     4  11  24  45  72  99 144 182 241 301 357 435
#
# _framework density 25.707336999999999
#
# number of rings (size 3 to 8) (size 9 to 14) (size 15 to 20)
#    0.000    1.000    5.000    1.500    3.500    0.000 
#    6.750    1.250    0.000    0.000    0.000    0.000 
#    0.000    0.000    0.000    0.000    0.000    0.000 
#
# Total GULP energy -178874.960521 kJ/mol
# GULP energy per Si atom -5589.842516 kJ/mol
# Density = 2.564883 g / cm^3
# Si number density = 25.707337 Si / 1000 Ang^3
#
#
#
# Elastic Constant Matrix: (Units=GPa)
#
#
# Indices 1 2 3 4 5 6 
#
# 1 81.9566 17.6616 13.7465 0.0000 0.0000 0.0000
# 2 17.6616 130.2600 16.7334 0.0000 0.0000 0.0000
# 3 13.7465 16.7334 68.5081 0.0000 0.0000 0.0000
# 4 0.0000 0.0000 0.0000 33.1279 0.0000 0.0000
# 5 0.0000 0.0000 0.0000 0.0000 22.7747 0.0000
# 6 0.0000 0.0000 0.0000 0.0000 0.0000 35.4841
#
#
#
# Elastic Compliance Matrix: (Units=1/GPa)
#
#
# Indices 1 2 3 4 5 6 
#
# 1 0.012890 -0.001461 -0.002230 0.000000 0.000000 0.000000
# 2 -0.001461 0.008091 -0.001683 0.000000 0.000000 0.000000
# 3 -0.002230 -0.001683 0.015455 0.000000 0.000000 0.000000
# 4 0.000000 0.000000 0.000000 0.030186 0.000000 0.000000
# 5 0.000000 0.000000 0.000000 0.000000 0.043908 0.000000
# 6 0.000000 0.000000 0.000000 0.000000 0.000000 0.028182
#
#
# Mechanical properties :
#
#
# Convention : Reuss Voigt Hill
#
# Bulk Modulus (GPa) = 38.92723 41.88974 40.40848
# Shear Modulus (GPa) = 31.64073 33.78289 32.71181
#
# Velocity S-wave (km/s) = 3.51209 3.62903 3.57104
# Velocity P-wave (km/s) = 5.62332 5.82152 5.72328
#
# Compressibility (1/GPa) = 0.02568896
#
# Stress axis : x y z
#
# Youngs Moduli (GPa) = 77.57669 123.58940 64.70268
#
# Poissons Ratio (x) = 0.18061 0.14426
# Poissons Ratio (y) = 0.11337 0.10890
# Poissons Ratio (z) = 0.17296 0.20801
#
# Static dielectric constant tensor:
#      x y z
#    x 2.013890 0.000000 0.000000 
#    y 0.000000 2.081910 0.000000 
#    z 0.000000 0.000000 2.010100 
# 
# From -- ./inp_files/4581.got.cif
#   From: 2010.05.17/outbox.cif.g08.bks.cpg/sg29_3_cif.got.tgz:4581.got - 2010.06.04 01:19:37.
