data_PCOD9341580
_publ_section_title
;
Structure prediction by ZEFSAII (Michael W. Deem and Ramdas Pophale) SiO2 
 PCOD9341580
Probable space group: P C A 21
;
_chemical_formula_sum "Si O2"
_cell_formula_units_Z 32
_cell_length_a 9.520026
_cell_length_b 6.620280
_cell_length_c 25.079608
_cell_angle_alpha 90.000000
_cell_angle_beta 90.000000
_cell_angle_gamma 90.000000
_cell_volume 1580.648256
_symmetry_space_group_name_H-M "P C A 21"
_symmetry_group_IT_number 29
_symmetry_cell_setting 'orthorhombic'
loop_
_space_group_symop_operation_xyz
x,y,z
-x,-y,1/2+z
1/2-x,y,1/2+z
1/2+x,-y,z
loop_
_atom_site_type_symbol
_atom_site_label
_atom_site_fract_x
_atom_site_fract_y
_atom_site_fract_z
Si Si1 0.231109 0.405849 0.113480
Si Si2 0.866070 0.882521 0.523419
Si Si3 0.253677 0.417878 0.936549
Si Si4 0.439953 0.757708 0.779895
Si Si5 0.621877 0.146809 0.768490
Si Si6 0.006072 0.575967 0.863344
Si Si7 0.183224 0.734012 0.526896
Si Si8 0.531221 0.474335 0.686038
O O1 0.215261 0.218504 0.073553
O O2 0.280185 0.597691 0.078273
O O3 0.342550 0.394840 0.161186
O O4 0.079515 0.435794 0.139522
O O5 0.815934 0.757699 0.471684
O O6 0.033093 0.847450 0.530632
O O7 0.810622 0.109403 0.518963
O O8 0.134454 0.527509 0.902215
O O9 0.374921 0.342804 0.896996
O O10 0.320929 0.579001 0.977463
O O11 0.287793 0.856883 0.777162
O O12 0.461474 0.632302 0.834078
O O13 0.453596 0.597867 0.732187
O O14 0.556534 0.926408 0.770629
O O15 0.554471 0.273489 0.817065
O O16 0.587321 0.270413 0.714265
#
# Coordination Sequence:
#
# PCOD9341580 Si02
#       8
#     4   4   4   4   4   4   4   4
#     4  11  24  45  66  91 130 172 213 259 316 377
#     4  11  26  42  65  97 131 165 211 267 312 378
#     4  11  24  45  66  91 130 172 213 259 316 377
#     4  11  26  42  65  98 130 165 214 265 317 378
#     4  11  26  42  65  98 130 165 214 265 317 378
#     4  11  24  45  66  91 130 172 213 259 317 377
#     4  11  26  42  65  99 129 165 215 261 318 376
#     4  11  24  45  66  91 130 172 213 259 317 377
#
# _framework density 20.244858000000001
#
# number of rings (size 3 to 8) (size 9 to 14) (size 15 to 20)
#    0.000    1.000    5.000    0.000    7.000    4.000 
#    0.000    0.000    0.000    0.000    0.000    0.000 
#    0.000    0.000    0.000    0.000    0.000    0.000 
#
# Total GULP energy -178921.735241 kJ/mol
# GULP energy per Si atom -5591.304226 kJ/mol
# Density = 2.019878 g / cm^3
# Si number density = 20.244858 Si / 1000 Ang^3
#
#
#
# Elastic Constant Matrix: (Units=GPa)
#
#
# Indices 1 2 3 4 5 6 
#
# 1 58.6783 -20.1748 8.3515 0.0000 0.0000 0.0000
# 2 -20.1748 30.0852 -1.7065 0.0000 0.0000 0.0000
# 3 8.3515 -1.7065 77.0001 0.0000 0.0000 0.0000
# 4 0.0000 0.0000 0.0000 7.0682 0.0000 0.0000
# 5 0.0000 0.0000 0.0000 0.0000 39.1017 0.0000
# 6 0.0000 0.0000 0.0000 0.0000 0.0000 33.6485
#
#
#
# Elastic Compliance Matrix: (Units=1/GPa)
#
#
# Indices 1 2 3 4 5 6 
#
# 1 0.022485 0.014959 -0.002107 0.000000 0.000000 0.000000
# 2 0.014959 0.043232 -0.000664 0.000000 0.000000 0.000000
# 3 -0.002107 -0.000664 0.013201 0.000000 0.000000 0.000000
# 4 0.000000 0.000000 0.000000 0.141478 0.000000 0.000000
# 5 0.000000 0.000000 0.000000 0.000000 0.025574 0.000000
# 6 0.000000 0.000000 0.000000 0.000000 0.000000 0.029719
#
#
# Mechanical properties :
#
#
# Convention : Reuss Voigt Hill
#
# Bulk Modulus (GPa) = 9.68121 15.41155 12.54638
# Shear Modulus (GPa) = 17.49801 27.91657 22.70729
#
# Velocity S-wave (km/s) = 2.94312 3.71745 3.35271
# Velocity P-wave (km/s) = 4.04249 5.10441 4.60417
#
# Compressibility (1/GPa) = 0.10329284
#
# Stress axis : x y z
#
# Youngs Moduli (GPa) = 44.47387 23.13076 75.75278
#
# Poissons Ratio (x) = -0.34601 0.15963
# Poissons Ratio (y) = -0.66527 0.05032
# Poissons Ratio (z) = 0.09372 0.01537
#
# Static dielectric constant tensor:
#      x y z
#    x 1.706340 0.000000 0.000000 
#    y 0.000000 1.683020 0.000000 
#    z 0.000000 0.000000 1.717010 
# 
# From -- ./inp_files/5823.got.cif
#   From: 2010.05.17/outbox.cif.g08.bks.cpg/sg29_3_cif.got.tgz:5823.got - 2010.06.04 01:19:37.
