data_PCOD9341981
_publ_section_title
;
Structure prediction by ZEFSAII (Michael W. Deem and Ramdas Pophale) SiO2 
 PCOD9341981
Probable space group: P N C 2
;
_chemical_formula_sum "Si O2"
_cell_formula_units_Z 26
_cell_length_a 8.567691
_cell_length_b 15.746917
_cell_length_c 9.724962
_cell_angle_alpha 90.000000
_cell_angle_beta 90.000000
_cell_angle_gamma 90.000000
_cell_volume 1312.040516
_symmetry_space_group_name_H-M "P N C 2"
_symmetry_group_IT_number 30
_symmetry_cell_setting 'orthorhombic'
loop_
_space_group_symop_operation_xyz
x,y,z
-x,-y,z
-x,1/2+y,1/2+z
x,1/2-y,1/2+z
loop_
_atom_site_type_symbol
_atom_site_label
_atom_site_fract_x
_atom_site_fract_y
_atom_site_fract_z
Si Si1 0.460450 0.588920 0.770240
Si Si2 0.803158 0.847186 0.190115
Si Si3 0.493073 0.593136 0.236843
Si Si4 0.728850 0.796132 0.890114
Si Si5 0.000000 0.000000 0.109353
Si Si6 0.725572 0.395708 0.498090
Si Si7 0.600170 0.215402 0.493144
O O1 0.500000 0.500000 0.840365
O O2 0.623334 0.629572 0.722324
O O3 0.366895 0.572503 0.631906
O O4 0.365251 0.650427 0.870191
O O5 0.826499 0.768490 0.294417
O O6 0.908540 0.931041 0.202611
O O7 0.815180 0.822592 0.029354
O O8 0.500000 0.500000 0.171740
O O9 0.657712 0.627489 0.297758
O O10 0.373545 0.583723 0.363378
O O11 0.428474 0.663749 0.132491
O O12 0.568400 0.753615 0.948478
O O13 0.113991 0.945113 0.012404
O O14 0.720006 0.292983 0.507524
#
# Coordination Sequence:
#
# PCOD9341981 Si02
#       7
#     4   4   4   4   2   4   4
#     4  11  19  36  64  89 117 153 203 260 300 355
#     4  11  21  40  62  89 122 157 213 245 310 359
#     4  11  19  34  63  96 120 145 197 259 305 354
#     4  10  19  37  63  90 120 159 195 256 306 364
#     4  12  26  40  60  90 120 178 208 248 286 380
#     4  11  21  39  59  86 121 159 209 244 296 358
#     4  10  20  35  61  94 121 149 194 259 318 345
#
# _framework density 19.816462000000001
#
# number of rings (size 3 to 8) (size 9 to 14) (size 15 to 20)
#    0.000    1.231    6.154    3.692    0.000    0.000 
#    5.538    0.000    0.000    1.846    0.000    0.000 
#    0.000    0.000    0.000    0.000    0.000    0.000 
#
# Total GULP energy -145054.322786 kJ/mol
# GULP energy per Si atom -5579.012415 kJ/mol
# Density = 1.977136 g / cm^3
# Si number density = 19.816462 Si / 1000 Ang^3
#
#
#
# Elastic Constant Matrix: (Units=GPa)
#
#
# Indices 1 2 3 4 5 6 
#
# 1 54.6568 38.7752 25.9943 0.0000 0.0000 0.0000
# 2 38.7752 149.7689 47.5320 0.0000 0.0000 0.0000
# 3 25.9943 47.5320 93.1973 0.0000 0.0000 0.0000
# 4 0.0000 0.0000 0.0000 37.2371 0.0000 0.0000
# 5 0.0000 0.0000 0.0000 0.0000 11.5366 0.0000
# 6 0.0000 0.0000 0.0000 0.0000 0.0000 33.3805
#
#
#
# Elastic Compliance Matrix: (Units=1/GPa)
#
#
# Indices 1 2 3 4 5 6 
#
# 1 0.023686 -0.004815 -0.004151 0.000000 0.000000 0.000000
# 2 -0.004815 0.008945 -0.003219 0.000000 0.000000 0.000000
# 3 -0.004151 -0.003219 0.013529 0.000000 0.000000 0.000000
# 4 0.000000 0.000000 0.000000 0.026855 0.000000 0.000000
# 5 0.000000 0.000000 0.000000 0.000000 0.086680 0.000000
# 6 0.000000 0.000000 0.000000 0.000000 0.000000 0.029958
#
#
# Mechanical properties :
#
#
# Convention : Reuss Voigt Hill
#
# Bulk Modulus (GPa) = 45.89086 58.02510 51.95798
# Shear Modulus (GPa) = 22.59511 28.78563 25.69037
#
# Velocity S-wave (km/s) = 3.38038 3.81545 3.60448
# Velocity P-wave (km/s) = 6.20033 6.98248 6.60300
#
# Compressibility (1/GPa) = 0.02179083
#
# Stress axis : x y z
#
# Youngs Moduli (GPa) = 42.21920 111.79139 73.91274
#
# Poissons Ratio (x) = 0.53827 0.30679
# Poissons Ratio (y) = 0.20328 0.23794
# Poissons Ratio (z) = 0.17524 0.35988
#
# Static dielectric constant tensor:
#      x y z
#    x 1.686520 0.000000 0.000000 
#    y 0.000000 1.782300 0.000000 
#    z 0.000000 0.000000 1.690110 
# 
# From -- ./inp_files/3718.got.cif
#   From: 2010.05.17/outbox.cif.g08.bks.cpg/sg30_2_cif.got.tgz:3718.got - 2010.06.03 17:03:02.
