data_PCOD9341072
_publ_section_title
;
Structure prediction by ZEFSAII (Michael W. Deem and Ramdas Pophale) SiO2 
 PCOD9341072
Probable space group: P C A 21
;
_chemical_formula_sum "Si O2"
_cell_formula_units_Z 28
_cell_length_a 15.149304
_cell_length_b 9.427093
_cell_length_c 9.922067
_cell_angle_alpha 90.000000
_cell_angle_beta 90.000000
_cell_angle_gamma 90.000000
_cell_volume 1417.009061
_symmetry_space_group_name_H-M "P C A 21"
_symmetry_group_IT_number 29
_symmetry_cell_setting 'orthorhombic'
loop_
_space_group_symop_operation_xyz
x,y,z
-x,-y,1/2+z
1/2-x,y,1/2+z
1/2+x,-y,z
loop_
_atom_site_type_symbol
_atom_site_label
_atom_site_fract_x
_atom_site_fract_y
_atom_site_fract_z
Si Si1 0.623601 0.847615 0.254400
Si Si2 0.756270 0.602439 0.853664
Si Si3 0.264292 0.599056 0.108986
Si Si4 0.594041 0.234256 0.519598
Si Si5 0.577537 0.073264 0.775642
Si Si6 0.723435 0.147680 0.284191
Si Si7 0.093699 0.217298 0.938705
O O1 0.669195 0.724524 0.343132
O O2 0.521588 0.868022 0.301689
O O3 0.681558 0.991979 0.262789
O O4 0.622487 0.812293 0.093915
O O5 0.762564 0.515560 0.717476
O O6 0.664701 0.684514 0.868999
O O7 0.755607 0.483967 0.969603
O O8 0.216566 0.746080 0.155433
O O9 0.367196 0.644379 0.115613
O O10 0.582643 0.093788 0.612268
O O11 0.667237 0.208513 0.407304
O O12 0.503615 0.280440 0.453830
O O13 0.672186 0.139835 0.819400
O O14 0.581447 0.921453 0.846494
#
# Coordination Sequence:
#
# PCOD9341072 Si02
#       7
#     4   4   4   4   4   4   4
#     4  11  24  42  70 101 139 177 236 293 345 410
#     4  12  24  46  71  98 138 185 228 293 347 415
#     4  11  25  45  68  98 138 185 232 275 357 420
#     4  10  23  44  65  98 139 178 231 281 344 427
#     4  10  23  39  67 102 131 177 232 288 344 412
#     4  11  22  42  72  94 139 180 226 282 347 415
#     4  11  23  42  67 103 138 174 235 288 346 409
#
# _framework density 19.759930000000001
#
# number of rings (size 3 to 8) (size 9 to 14) (size 15 to 20)
#    0.000    1.143    5.714    0.000    4.000    1.143 
#   10.286    0.000    0.000    0.000    0.000    0.000 
#    0.000    0.000    0.000    0.000    0.000    0.000 
#
# Total GULP energy -155887.663126 kJ/mol
# GULP energy per Si atom -5567.416540 kJ/mol
# Density = 1.971496 g / cm^3
# Si number density = 19.759930 Si / 1000 Ang^3
#
#
#
# Elastic Constant Matrix: (Units=GPa)
#
#
# Indices 1 2 3 4 5 6 
#
# 1 133.5574 37.4352 11.8366 0.0000 0.0000 0.0000
# 2 37.4352 80.0926 9.0494 0.0000 0.0000 0.0000
# 3 11.8366 9.0494 41.8360 0.0000 0.0000 0.0000
# 4 0.0000 0.0000 0.0000 18.5736 0.0000 0.0000
# 5 0.0000 0.0000 0.0000 0.0000 29.8171 0.0000
# 6 0.0000 0.0000 0.0000 0.0000 0.0000 18.3070
#
#
#
# Elastic Compliance Matrix: (Units=1/GPa)
#
#
# Indices 1 2 3 4 5 6 
#
# 1 0.008723 -0.003893 -0.001626 0.000000 0.000000 0.000000
# 2 -0.003893 0.014536 -0.002043 0.000000 0.000000 0.000000
# 3 -0.001626 -0.002043 0.024805 0.000000 0.000000 0.000000
# 4 0.000000 0.000000 0.000000 0.053840 0.000000 0.000000
# 5 0.000000 0.000000 0.000000 0.000000 0.033538 0.000000
# 6 0.000000 0.000000 0.000000 0.000000 0.000000 0.054624
#
#
# Mechanical properties :
#
#
# Convention : Reuss Voigt Hill
#
# Bulk Modulus (GPa) = 30.35828 41.34760 35.85294
# Shear Modulus (GPa) = 23.13007 26.48386 24.80697
#
# Velocity S-wave (km/s) = 3.42505 3.66496 3.54703
# Velocity P-wave (km/s) = 5.57119 6.23535 5.91260
#
# Compressibility (1/GPa) = 0.03293994
#
# Stress axis : x y z
#
# Youngs Moduli (GPa) = 114.64246 68.79435 40.31492
#
# Poissons Ratio (x) = 0.26784 0.06554
# Poissons Ratio (y) = 0.44634 0.08235
# Poissons Ratio (z) = 0.18638 0.14053
#
# Static dielectric constant tensor:
#      x y z
#    x 1.710160 0.000000 0.000000 
#    y 0.000000 1.728800 0.000000 
#    z 0.000000 0.000000 1.734200 
# 
# From -- ./inp_files/3428.got.cif
#   From: 2010.05.17/outbox.cif.g08.bks.cpg/sg29_2_cif.got.tgz:3428.got - 2010.06.04 01:19:37.
