data_PCOD9341084
_publ_section_title
;
Structure prediction by ZEFSAII (Michael W. Deem and Ramdas Pophale) SiO2 
 PCOD9341084
Probable space group: P C A 21
;
_chemical_formula_sum "Si O2"
_cell_formula_units_Z 32
_cell_length_a 10.974389
_cell_length_b 11.463680
_cell_length_c 10.405110
_cell_angle_alpha 90.000000
_cell_angle_beta 90.000000
_cell_angle_gamma 90.000000
_cell_volume 1309.034464
_symmetry_space_group_name_H-M "P C A 21"
_symmetry_group_IT_number 29
_symmetry_cell_setting 'orthorhombic'
loop_
_space_group_symop_operation_xyz
x,y,z
-x,-y,1/2+z
1/2-x,y,1/2+z
1/2+x,-y,z
loop_
_atom_site_type_symbol
_atom_site_label
_atom_site_fract_x
_atom_site_fract_y
_atom_site_fract_z
Si Si1 0.537679 0.053992 0.143690
Si Si2 0.988271 0.588518 0.329870
Si Si3 0.163379 0.176900 0.469640
Si Si4 0.055319 0.419048 0.114761
Si Si5 0.249376 0.300089 0.728724
Si Si6 0.251623 0.943015 0.956018
Si Si7 0.303983 0.761187 0.782240
Si Si8 0.919679 0.179276 0.135238
O O1 0.456187 0.124299 0.039037
O O2 0.660675 0.022447 0.068344
O O3 0.590548 0.147010 0.243675
O O4 0.476640 0.937129 0.203779
O O5 0.961705 0.538105 0.470394
O O6 0.881315 0.679341 0.294408
O O7 0.983548 0.493958 0.217834
O O8 0.121339 0.650271 0.328302
O O9 0.231139 0.222039 0.599517
O O10 0.163903 0.268014 0.351984
O O11 0.224966 0.067349 0.393905
O O12 0.193119 0.416081 0.165953
O O13 0.013481 0.283353 0.116623
O O14 0.378218 0.891184 0.009278
O O15 0.211613 0.832362 0.874987
O O16 0.207359 0.752794 0.667192
#
# Coordination Sequence:
#
# PCOD9341084 Si02
#       8
#     4   4   4   4   4   4   4   4
#     4  10  23  42  70 114 155 197 241 301 392 476
#     4  12  29  53  77 106 152 198 270 329 390 463
#     4  11  25  43  74 108 154 195 243 304 377 466
#     4  12  29  52  78 105 148 204 263 333 390 453
#     4  12  27  50  75 112 148 198 258 318 384 473
#     4  10  23  40  69 109 154 199 236 305 379 459
#     4  11  24  45  73 109 154 199 249 323 384 467
#     4  10  24  45  70 107 151 198 250 311 386 463
#
# _framework density 24.445499000000002
#
# number of rings (size 3 to 8) (size 9 to 14) (size 15 to 20)
#    0.000    1.000    3.750    0.750   12.250    1.000 
#    2.250    0.000    0.000    0.000    0.000    0.000 
#    0.000    0.000    0.000    0.000    0.000    0.000 
#
# Total GULP energy -178141.513958 kJ/mol
# GULP energy per Si atom -5566.922311 kJ/mol
# Density = 2.438986 g / cm^3
# Si number density = 24.445499 Si / 1000 Ang^3
#
#
#
# Elastic Constant Matrix: (Units=GPa)
#
#
# Indices 1 2 3 4 5 6 
#
# 1 72.2175 15.6238 30.3430 0.0000 0.0000 0.0000
# 2 15.6238 43.5222 30.1584 0.0000 0.0000 0.0000
# 3 30.3430 30.1584 150.5310 0.0000 0.0000 0.0000
# 4 0.0000 0.0000 0.0000 26.8725 0.0000 0.0000
# 5 0.0000 0.0000 0.0000 0.0000 28.5726 0.0000
# 6 0.0000 0.0000 0.0000 0.0000 0.0000 16.7565
#
#
#
# Elastic Compliance Matrix: (Units=1/GPa)
#
#
# Indices 1 2 3 4 5 6 
#
# 1 0.015706 -0.004000 -0.002365 0.000000 0.000000 0.000000
# 2 -0.004000 0.027699 -0.004743 0.000000 0.000000 0.000000
# 3 -0.002365 -0.004743 0.008070 0.000000 0.000000 0.000000
# 4 0.000000 0.000000 0.000000 0.037213 0.000000 0.000000
# 5 0.000000 0.000000 0.000000 0.000000 0.034999 0.000000
# 6 0.000000 0.000000 0.000000 0.000000 0.000000 0.059678
#
#
# Mechanical properties :
#
#
# Convention : Reuss Voigt Hill
#
# Bulk Modulus (GPa) = 34.17591 46.50234 40.33912
# Shear Modulus (GPa) = 23.21981 27.11669 25.16825
#
# Velocity S-wave (km/s) = 3.08532 3.33419 3.21217
# Velocity P-wave (km/s) = 5.16750 5.82122 5.50407
#
# Compressibility (1/GPa) = 0.02926038
#
# Stress axis : x y z
#
# Youngs Moduli (GPa) = 63.67051 36.10188 123.91458
#
# Poissons Ratio (x) = 0.14440 0.29300
# Poissons Ratio (y) = 0.25466 0.58776
# Poissons Ratio (z) = 0.15055 0.17124
#
# Static dielectric constant tensor:
#      x y z
#    x 2.078370 0.000000 0.000000 
#    y 0.000000 1.997120 0.000000 
#    z 0.000000 0.000000 2.160770 
# 
# From -- ./inp_files/3207.got.cif
#   From: 2010.05.17/outbox.cif.g08.bks.cpg/sg29_2_cif.got.tgz:3207.got - 2010.06.04 01:19:37.
