data_PCOD9341596
_publ_section_title
;
Structure prediction by ZEFSAII (Michael W. Deem and Ramdas Pophale) SiO2 
 PCOD9341596
Probable space group: P C A 21
;
_chemical_formula_sum "Si O2"
_cell_formula_units_Z 28
_cell_length_a 9.315925
_cell_length_b 6.984920
_cell_length_c 18.885509
_cell_angle_alpha 90.000000
_cell_angle_beta 90.000000
_cell_angle_gamma 90.000000
_cell_volume 1228.898783
_symmetry_space_group_name_H-M "P C A 21"
_symmetry_group_IT_number 29
_symmetry_cell_setting 'orthorhombic'
loop_
_space_group_symop_operation_xyz
x,y,z
-x,-y,1/2+z
1/2-x,y,1/2+z
1/2+x,-y,z
loop_
_atom_site_type_symbol
_atom_site_label
_atom_site_fract_x
_atom_site_fract_y
_atom_site_fract_z
Si Si1 0.797361 0.958910 0.752470
Si Si2 0.720224 0.315806 0.155533
Si Si3 0.366957 0.328671 0.329011
Si Si4 0.638589 0.698193 0.444430
Si Si5 0.627742 0.129496 0.402310
Si Si6 0.829485 0.400386 0.496486
Si Si7 0.003787 0.390446 0.226499
O O1 0.663041 0.816738 0.764173
O O2 0.931406 0.816947 0.742454
O O3 0.789324 0.106252 0.689170
O O4 0.806294 0.078133 0.825483
O O5 0.667889 0.321748 0.075526
O O6 0.885308 0.377434 0.165031
O O7 0.626454 0.463302 0.201959
O O8 0.476220 0.225315 0.382387
O O9 0.216086 0.353596 0.369703
O O10 0.427282 0.521099 0.295559
O O11 0.726675 0.269093 0.447859
O O12 0.755149 0.609423 0.498152
O O13 0.486321 0.604603 0.461986
O O14 0.615990 0.925993 0.442206
#
# Coordination Sequence:
#
# PCOD9341596 Si02
#       7
#     4   4   4   4   4   4   4
#     4  11  25  45  78 108 147 188 257 313 383 442
#     4  12  28  48  75 108 153 204 248 306 383 454
#     4  11  24  46  75 112 142 192 249 326 375 435
#     4  11  26  44  75 103 149 192 244 303 370 440
#     4  11  25  46  73 109 145 188 250 310 373 435
#     4  12  28  48  71 109 153 200 245 297 374 463
#     4  12  26  47  75 109 147 192 253 319 376 451
#
# _framework density 22.784625999999999
#
# number of rings (size 3 to 8) (size 9 to 14) (size 15 to 20)
#    0.000    0.571    2.857    4.286   10.000    2.286 
#    0.000    0.000    0.000    0.000    0.000    0.000 
#    0.000    0.000    0.000    0.000    0.000    0.000 
#
# Total GULP energy -156806.237590 kJ/mol
# GULP energy per Si atom -5600.222771 kJ/mol
# Density = 2.273277 g / cm^3
# Si number density = 22.784626 Si / 1000 Ang^3
#
#
#
# Elastic Constant Matrix: (Units=GPa)
#
#
# Indices 1 2 3 4 5 6 
#
# 1 107.3161 33.6212 15.6334 0.0000 0.0000 0.0000
# 2 33.6212 123.4894 39.1810 0.0000 0.0000 0.0000
# 3 15.6334 39.1810 97.7565 0.0000 0.0000 0.0000
# 4 0.0000 0.0000 0.0000 31.8825 0.0000 0.0000
# 5 0.0000 0.0000 0.0000 0.0000 22.1719 0.0000
# 6 0.0000 0.0000 0.0000 0.0000 0.0000 42.4725
#
#
#
# Elastic Compliance Matrix: (Units=1/GPa)
#
#
# Indices 1 2 3 4 5 6 
#
# 1 0.010217 -0.002593 -0.000595 0.000000 0.000000 0.000000
# 2 -0.002593 0.009936 -0.003568 0.000000 0.000000 0.000000
# 3 -0.000595 -0.003568 0.011754 0.000000 0.000000 0.000000
# 4 0.000000 0.000000 0.000000 0.031365 0.000000 0.000000
# 5 0.000000 0.000000 0.000000 0.000000 0.045102 0.000000
# 6 0.000000 0.000000 0.000000 0.000000 0.000000 0.023545
#
#
# Mechanical properties :
#
#
# Convention : Reuss Voigt Hill
#
# Bulk Modulus (GPa) = 54.35697 56.15925 55.25811
# Shear Modulus (GPa) = 32.98972 35.31382 34.15177
#
# Velocity S-wave (km/s) = 3.80925 3.94114 3.87576
# Velocity P-wave (km/s) = 6.57692 6.73881 6.65835
#
# Compressibility (1/GPa) = 0.01839690
#
# Stress axis : x y z
#
# Youngs Moduli (GPa) = 97.87332 100.64629 85.07389
#
# Poissons Ratio (x) = 0.26098 0.05059
# Poissons Ratio (y) = 0.25379 0.30351
# Poissons Ratio (z) = 0.05820 0.35906
#
# Static dielectric constant tensor:
#      x y z
#    x 1.871630 0.000000 0.000000 
#    y 0.000000 1.870550 0.000000 
#    z 0.000000 0.000000 1.840020 
# 
# From -- ./inp_files/5452.got.cif
#   From: 2010.05.17/outbox.cif.g08.bks.cpg/sg29_3_cif.got.tgz:5452.got - 2010.06.04 01:19:37.
