data_PCOD9341071
_publ_section_title
;
Structure prediction by ZEFSAII (Michael W. Deem and Ramdas Pophale) SiO2 
 PCOD9341071
Probable space group: P C A 21
;
_chemical_formula_sum "Si O2"
_cell_formula_units_Z 20
_cell_length_a 9.141770
_cell_length_b 9.783555
_cell_length_c 8.644800
_cell_angle_alpha 90.000000
_cell_angle_beta 90.000000
_cell_angle_gamma 90.000000
_cell_volume 773.182350
_symmetry_space_group_name_H-M "P C A 21"
_symmetry_group_IT_number 29
_symmetry_cell_setting 'orthorhombic'
loop_
_space_group_symop_operation_xyz
x,y,z
-x,-y,1/2+z
1/2-x,y,1/2+z
1/2+x,-y,z
loop_
_atom_site_type_symbol
_atom_site_label
_atom_site_fract_x
_atom_site_fract_y
_atom_site_fract_z
Si Si1 0.867596 0.722750 0.756010
Si Si2 0.169264 0.661562 0.764796
Si Si3 0.225555 0.466228 0.512699
Si Si4 0.101394 0.880205 0.181819
Si Si5 0.666311 0.952209 0.472218
O O1 0.866217 0.596564 0.874334
O O2 0.809686 0.657379 0.598522
O O3 0.779975 0.839293 0.846909
O O4 0.036451 0.768072 0.748465
O O5 0.134546 0.541334 0.644247
O O6 0.185055 0.586754 0.928102
O O7 0.317605 0.737408 0.716539
O O8 0.089114 0.942498 0.354060
O O9 0.951194 0.881747 0.086425
O O10 0.210983 0.971101 0.072988
#
# Coordination Sequence:
#
# PCOD9341071 Si02
#       5
#     4   4   4   4   4
#     4  11  22  40  63  93 133 174 225 284 346 415
#     4  11  22  42  65  94 130 175 225 282 347 414
#     4  10  23  39  64  95 128 173 226 282 344 414
#     4  12  26  45  72 102 141 188 239 297 357 429
#     4  12  25  44  68 102 140 186 239 293 360 426
#
# _framework density 25.867121999999998
#
# number of rings (size 3 to 8) (size 9 to 14) (size 15 to 20)
#    0.000    0.800    0.000    8.400    0.000    1.600 
#    0.000    8.000    0.000    0.000    0.000    0.000 
#    0.000    0.000    0.000    0.000    0.000    0.000 
#
# Total GULP energy -111843.353183 kJ/mol
# GULP energy per Si atom -5592.167659 kJ/mol
# Density = 2.580825 g / cm^3
# Si number density = 25.867122 Si / 1000 Ang^3
#
#
#
# Elastic Constant Matrix: (Units=GPa)
#
#
# Indices 1 2 3 4 5 6 
#
# 1 89.2226 18.3822 45.5299 0.0000 0.0000 0.0000
# 2 18.3822 74.9555 28.9224 0.0000 0.0000 0.0000
# 3 45.5299 28.9224 164.8950 0.0000 0.0000 0.0000
# 4 0.0000 0.0000 0.0000 76.0744 0.0000 0.0000
# 5 0.0000 0.0000 0.0000 0.0000 23.9475 0.0000
# 6 0.0000 0.0000 0.0000 0.0000 0.0000 17.9081
#
#
#
# Elastic Compliance Matrix: (Units=1/GPa)
#
#
# Indices 1 2 3 4 5 6 
#
# 1 0.013315 -0.001981 -0.003329 0.000000 0.000000 0.000000
# 2 -0.001981 0.014604 -0.002015 0.000000 0.000000 0.000000
# 3 -0.003329 -0.002015 0.007337 0.000000 0.000000 0.000000
# 4 0.000000 0.000000 0.000000 0.013145 0.000000 0.000000
# 5 0.000000 0.000000 0.000000 0.000000 0.041758 0.000000
# 6 0.000000 0.000000 0.000000 0.000000 0.000000 0.055841
#
#
# Mechanical properties :
#
#
# Convention : Reuss Voigt Hill
#
# Bulk Modulus (GPa) = 48.52651 57.19359 52.86005
# Shear Modulus (GPa) = 29.84754 39.33523 34.59139
#
# Velocity S-wave (km/s) = 3.40057 3.90380 3.66084
# Velocity P-wave (km/s) = 5.84971 6.51752 6.19262
#
# Compressibility (1/GPa) = 0.02060729
#
# Stress axis : x y z
#
# Youngs Moduli (GPa) = 75.10446 68.47249 136.29524
#
# Poissons Ratio (x) = 0.13563 0.45372
# Poissons Ratio (y) = 0.14877 0.27459
# Poissons Ratio (z) = 0.25002 0.13795
#
# Static dielectric constant tensor:
#      x y z
#    x 2.079140 0.000000 0.000000 
#    y 0.000000 2.053680 0.000000 
#    z 0.000000 0.000000 2.004500 
# 
# From -- ./inp_files/1055.got.cif
#   From: 2010.05.17/outbox.cif.g08.bks.cpg/sg29_1_cif.got.tgz:1055.got - 2010.06.04 01:19:37.
