data_PCOD9341671
_publ_section_title
;
Structure prediction by ZEFSAII (Michael W. Deem and Ramdas Pophale) SiO2 
 PCOD9341671
Probable space group: P C A 21
;
_chemical_formula_sum "Si O2"
_cell_formula_units_Z 20
_cell_length_a 19.764417
_cell_length_b 5.140459
_cell_length_c 7.383442
_cell_angle_alpha 90.000000
_cell_angle_beta 90.000000
_cell_angle_gamma 90.000000
_cell_volume 750.144234
_symmetry_space_group_name_H-M "P C A 21"
_symmetry_group_IT_number 29
_symmetry_cell_setting 'orthorhombic'
loop_
_space_group_symop_operation_xyz
x,y,z
-x,-y,1/2+z
1/2-x,y,1/2+z
1/2+x,-y,z
loop_
_atom_site_type_symbol
_atom_site_label
_atom_site_fract_x
_atom_site_fract_y
_atom_site_fract_z
Si Si1 0.564004 0.496934 0.316560
Si Si2 0.866139 0.444333 0.467961
Si Si3 0.451416 0.790709 0.161001
Si Si4 0.844375 0.847526 0.005687
Si Si5 0.199472 0.035136 0.115051
O O1 0.579357 0.370968 0.124295
O O2 0.519792 0.754951 0.275206
O O3 0.529199 0.315852 0.462724
O O4 0.633263 0.577776 0.415397
O O5 0.899599 0.391827 0.275395
O O6 0.842890 0.735509 0.515438
O O7 0.807554 0.233517 0.505686
O O8 0.407562 0.044452 0.120045
O O9 0.827445 0.002725 0.819343
O O10 0.776169 0.861182 0.119659
#
# Coordination Sequence:
#
# PCOD9341671 Si02
#       5
#     4   4   4   4   4
#     4  11  26  46  70 110 149 198 259 312 379 452
#     4  11  26  47  76 110 152 191 252 310 378 447
#     4  12  25  46  74 105 150 203 254 314 379 448
#     4  11  27  45  76 107 153 197 251 311 382 448
#     4  11  26  48  74 114 150 195 246 313 376 455
#
# _framework density 26.661538
#
# number of rings (size 3 to 8) (size 9 to 14) (size 15 to 20)
#    0.000    0.800    4.000    1.200    8.400    6.400 
#    0.000    0.000    0.000    0.000    0.000    0.000 
#    0.000    0.000    0.000    0.000    0.000    0.000 
#
# Total GULP energy -111888.996450 kJ/mol
# GULP energy per Si atom -5594.449823 kJ/mol
# Density = 2.660085 g / cm^3
# Si number density = 26.661538 Si / 1000 Ang^3
#
#
#
# Elastic Constant Matrix: (Units=GPa)
#
#
# Indices 1 2 3 4 5 6 
#
# 1 58.2964 -7.1275 3.0142 0.0000 0.0000 0.0000
# 2 -7.1275 84.4462 24.1692 0.0000 0.0000 0.0000
# 3 3.0142 24.1692 135.0861 0.0000 0.0000 0.0000
# 4 0.0000 0.0000 0.0000 41.6434 0.0000 0.0000
# 5 0.0000 0.0000 0.0000 0.0000 41.2391 0.0000
# 6 0.0000 0.0000 0.0000 0.0000 0.0000 23.9415
#
#
#
# Elastic Compliance Matrix: (Units=1/GPa)
#
#
# Indices 1 2 3 4 5 6 
#
# 1 0.017393 0.001664 -0.000686 0.000000 0.000000 0.000000
# 2 0.001664 0.012640 -0.002299 0.000000 0.000000 0.000000
# 3 -0.000686 -0.002299 0.007829 0.000000 0.000000 0.000000
# 4 0.000000 0.000000 0.000000 0.024013 0.000000 0.000000
# 5 0.000000 0.000000 0.000000 0.000000 0.024249 0.000000
# 6 0.000000 0.000000 0.000000 0.000000 0.000000 0.041769
#
#
# Mechanical properties :
#
#
# Convention : Reuss Voigt Hill
#
# Bulk Modulus (GPa) = 28.39164 35.32673 31.85919
# Shear Modulus (GPa) = 35.14347 38.54965 36.84656
#
# Velocity S-wave (km/s) = 3.63455 3.80661 3.72157
# Velocity P-wave (km/s) = 5.31839 5.70957 5.51745
#
# Compressibility (1/GPa) = 0.03522163
#
# Stress axis : x y z
#
# Youngs Moduli (GPa) = 57.49550 79.11247 127.72593
#
# Poissons Ratio (x) = -0.13167 0.08760
# Poissons Ratio (y) = -0.09569 0.29360
# Poissons Ratio (z) = 0.03943 0.18185
#
# Static dielectric constant tensor:
#      x y z
#    x 2.109900 0.000000 0.000000 
#    y 0.000000 2.112240 0.000000 
#    z 0.000000 0.000000 2.045890 
# 
# From -- ./inp_files/1997.got.cif
#   From: 2010.05.17/outbox.cif.g08.bks.cpg/sg29_1_cif.got.tgz:1997.got - 2010.06.04 01:19:37.
