data_PCOD9341995
_publ_section_title
;
Structure prediction by ZEFSAII (Michael W. Deem and Ramdas Pophale) SiO2 
 PCOD9341995
Probable space group: P N C 2
;
_chemical_formula_sum "Si O2"
_cell_formula_units_Z 24
_cell_length_a 6.257276
_cell_length_b 16.810333
_cell_length_c 9.342932
_cell_angle_alpha 90.000000
_cell_angle_beta 90.000000
_cell_angle_gamma 90.000000
_cell_volume 982.753991
_symmetry_space_group_name_H-M "P N C 2"
_symmetry_group_IT_number 30
_symmetry_cell_setting 'orthorhombic'
loop_
_space_group_symop_operation_xyz
x,y,z
-x,-y,z
-x,1/2+y,1/2+z
x,1/2-y,1/2+z
loop_
_atom_site_type_symbol
_atom_site_label
_atom_site_fract_x
_atom_site_fract_y
_atom_site_fract_z
Si Si1 0.368317 0.344413 0.344120
Si Si2 0.905558 0.705336 0.788920
Si Si3 0.744343 0.413182 0.899094
Si Si4 0.476246 0.378304 0.629109
Si Si5 0.707118 0.283314 0.135439
Si Si6 0.247379 0.025485 0.649393
O O1 0.401784 0.406940 0.473236
O O2 0.587471 0.311427 0.278734
O O3 0.255073 0.386345 0.209405
O O4 0.219077 0.269676 0.385730
O O5 0.044588 0.637333 0.863862
O O6 0.058548 0.756844 0.685170
O O7 0.729618 0.655550 0.706337
O O8 0.617734 0.421258 0.749762
O O9 0.657498 0.351258 0.019311
O O10 0.758011 0.495507 0.985110
O O11 0.607594 0.299479 0.586428
O O12 0.500000 0.000000 0.691466
O O13 0.000000 0.000000 0.698721
#
# Coordination Sequence:
#
# PCOD9341995 Si02
#       6
#     4   4   4   4   4   4
#     4  11  23  42  71 103 149 193 259 314 392 464
#     4  10  21  37  70 110 143 189 253 329 384 453
#     4  11  23  42  71 103 151 195 255 313 393 467
#     4  10  22  38  65 107 142 180 242 324 380 442
#     4  10  19  38  67 103 142 188 240 303 381 458
#     4  12  28  50  79 103 150 213 265 311 394 502
#
# _framework density 24.421168000000002
#
# number of rings (size 3 to 8) (size 9 to 14) (size 15 to 20)
#    0.000    1.333    1.667    5.000    2.333    4.000 
#    0.000    0.833    0.000    0.000    0.000    0.000 
#    0.000    0.000    0.000    0.000    0.000    0.000 
#
# Total GULP energy -133612.638873 kJ/mol
# GULP energy per Si atom -5567.193286 kJ/mol
# Density = 2.436558 g / cm^3
# Si number density = 24.421168 Si / 1000 Ang^3
#
#
#
# Elastic Constant Matrix: (Units=GPa)
#
#
# Indices 1 2 3 4 5 6 
#
# 1 136.9893 26.9750 24.1166 0.0000 0.0000 0.0000
# 2 26.9750 76.5549 50.2651 0.0000 0.0000 0.0000
# 3 24.1166 50.2651 125.2748 0.0000 0.0000 0.0000
# 4 0.0000 0.0000 0.0000 34.1358 0.0000 0.0000
# 5 0.0000 0.0000 0.0000 0.0000 -7.8672 0.0000
# 6 0.0000 0.0000 0.0000 0.0000 0.0000 32.2038
#
#
#
# Elastic Compliance Matrix: (Units=1/GPa)
#
#
# Indices 1 2 3 4 5 6 
#
# 1 0.007872 -0.002415 -0.000546 0.000000 0.000000 0.000000
# 2 -0.002415 0.018476 -0.006948 0.000000 0.000000 0.000000
# 3 -0.000546 -0.006948 0.010876 0.000000 0.000000 0.000000
# 4 0.000000 0.000000 0.000000 0.029295 0.000000 0.000000
# 5 0.000000 0.000000 0.000000 0.000000 -0.127110 0.000000
# 6 0.000000 0.000000 0.000000 0.000000 0.000000 0.031052
#
#
# Mechanical properties :
#
#
# Convention : Reuss Voigt Hill
#
# Bulk Modulus (GPa) = 57.45921 60.17025 58.81473
# Shear Modulus (GPa) = -1275.34913 27.52530 -623.91191
#
# Velocity S-wave (km/s) = -22.87717 3.36089 -16.00108
# Velocity P-wave (km/s) = 25.96613 6.30498 17.81134
#
# Compressibility (1/GPa) = 0.01740365
#
# Stress axis : x y z
#
# Youngs Moduli (GPa) = 127.03968 54.12555 91.94946
#
# Poissons Ratio (x) = 0.13071 0.05024
# Poissons Ratio (y) = 0.30678 0.63889
# Poissons Ratio (z) = 0.06942 0.37608
#
# Static dielectric constant tensor:
#      x y z
#    x 2.057490 0.000000 0.000000 
#    y 0.000000 1.971600 0.000000 
#    z 0.000000 0.000000 2.017690 
# 
# From -- ./inp_files/1390.got.cif
#   From: 2010.05.17/outbox.cif.g08.bks.cpg/sg30_1_cif.got.tgz:1390.got - 2010.06.03 17:03:02.
