data_PCOD9341662
_publ_section_title
;
Structure prediction by ZEFSAII (Michael W. Deem and Ramdas Pophale) SiO2 
 PCOD9341662
Probable space group: P C A 21
;
_chemical_formula_sum "Si O2"
_cell_formula_units_Z 20
_cell_length_a 11.127438
_cell_length_b 7.560026
_cell_length_c 9.395976
_cell_angle_alpha 90.000000
_cell_angle_beta 90.000000
_cell_angle_gamma 90.000000
_cell_volume 790.424460
_symmetry_space_group_name_H-M "P C A 21"
_symmetry_group_IT_number 29
_symmetry_cell_setting 'orthorhombic'
loop_
_space_group_symop_operation_xyz
x,y,z
-x,-y,1/2+z
1/2-x,y,1/2+z
1/2+x,-y,z
loop_
_atom_site_type_symbol
_atom_site_label
_atom_site_fract_x
_atom_site_fract_y
_atom_site_fract_z
Si Si1 0.098991 0.937459 0.867800
Si Si2 0.385865 0.342847 0.391699
Si Si3 0.281941 0.870033 0.087185
Si Si4 0.128473 0.223148 0.425855
Si Si5 0.455176 0.539810 0.119786
O O1 0.205217 0.908577 0.754440
O O2 0.979112 0.835064 0.822580
O O3 0.067044 0.142919 0.876068
O O4 0.150385 0.863878 0.017112
O O5 0.245326 0.315561 0.360919
O O6 0.444500 0.480870 0.283312
O O7 0.417693 0.403553 0.551435
O O8 0.359697 0.691605 0.072726
O O9 0.336169 0.043578 0.009758
O O10 0.081920 0.361111 0.540257
#
# Coordination Sequence:
#
# PCOD9341662 Si02
#       5
#     4   4   4   4   4
#     4  11  25  53  76 115 162 211 260 331 397 475
#     4  11  27  50  78 117 155 210 267 327 398 477
#     4  11  26  47  78 112 157 207 260 325 400 470
#     4  11  26  48  77 116 156 203 267 328 391 478
#     4  12  26  48  77 112 154 209 260 331 394 468
#
# _framework density 25.302862000000001
#
# number of rings (size 3 to 8) (size 9 to 14) (size 15 to 20)
#    0.000    0.800    4.000    1.200    5.600    8.000 
#    3.600    0.000    0.000    2.400    0.000    0.000 
#    0.000    0.000    0.000    0.000    0.000    0.000 
#
# Total GULP energy -111929.778899 kJ/mol
# GULP energy per Si atom -5596.488945 kJ/mol
# Density = 2.524527 g / cm^3
# Si number density = 25.302862 Si / 1000 Ang^3
#
#
#
# Elastic Constant Matrix: (Units=GPa)
#
#
# Indices 1 2 3 4 5 6 
#
# 1 109.1826 59.3382 52.6686 0.0000 0.0000 0.0000
# 2 59.3382 130.2024 35.9812 0.0000 0.0000 0.0000
# 3 52.6686 35.9812 118.0434 0.0000 0.0000 0.0000
# 4 0.0000 0.0000 0.0000 33.4383 0.0000 0.0000
# 5 0.0000 0.0000 0.0000 0.0000 26.6691 0.0000
# 6 0.0000 0.0000 0.0000 0.0000 0.0000 26.8243
#
#
#
# Elastic Compliance Matrix: (Units=1/GPa)
#
#
# Indices 1 2 3 4 5 6 
#
# 1 0.014292 -0.005188 -0.004795 0.000000 0.000000 0.000000
# 2 -0.005188 0.010270 -0.000816 0.000000 0.000000 0.000000
# 3 -0.004795 -0.000816 0.010860 0.000000 0.000000 0.000000
# 4 0.000000 0.000000 0.000000 0.029906 0.000000 0.000000
# 5 0.000000 0.000000 0.000000 0.000000 0.037497 0.000000
# 6 0.000000 0.000000 0.000000 0.000000 0.000000 0.037280
#
#
# Mechanical properties :
#
#
# Convention : Reuss Voigt Hill
#
# Bulk Modulus (GPa) = 72.34080 72.60049 72.47064
# Shear Modulus (GPa) = 30.06439 31.34904 30.70671
#
# Velocity S-wave (km/s) = 3.45074 3.52369 3.48741
# Velocity P-wave (km/s) = 6.67299 6.73128 6.70220
#
# Compressibility (1/GPa) = 0.01382346
#
# Stress axis : x y z
#
# Youngs Moduli (GPa) = 69.97003 97.36915 92.08400
#
# Poissons Ratio (x) = 0.50517 0.44157
# Poissons Ratio (y) = 0.36302 0.07511
# Poissons Ratio (z) = 0.33553 0.07942
#
# Static dielectric constant tensor:
#      x y z
#    x 2.037040 0.000000 0.000000 
#    y 0.000000 1.952860 0.000000 
#    z 0.000000 0.000000 1.976580 
# 
# From -- ./inp_files/1375.got.cif
#   From: 2010.05.17/outbox.cif.g08.bks.cpg/sg29_1_cif.got.tgz:1375.got - 2010.06.04 01:19:37.
