data_PCOD9341183
_publ_section_title
;
Structure prediction by ZEFSAII (Michael W. Deem and Ramdas Pophale) SiO2 
 PCOD9341183
Probable space group: P C A 21
;
_chemical_formula_sum "Si O2"
_cell_formula_units_Z 28
_cell_length_a 14.811608
_cell_length_b 5.415494
_cell_length_c 14.464833
_cell_angle_alpha 90.000000
_cell_angle_beta 90.000000
_cell_angle_gamma 90.000000
_cell_volume 1160.255705
_symmetry_space_group_name_H-M "P C A 21"
_symmetry_group_IT_number 29
_symmetry_cell_setting 'orthorhombic'
loop_
_space_group_symop_operation_xyz
x,y,z
-x,-y,1/2+z
1/2-x,y,1/2+z
1/2+x,-y,z
loop_
_atom_site_type_symbol
_atom_site_label
_atom_site_fract_x
_atom_site_fract_y
_atom_site_fract_z
Si Si1 0.505390 0.394100 0.436030
Si Si2 0.040894 0.665661 0.642072
Si Si3 0.677758 0.372581 0.916467
Si Si4 0.752711 0.003441 0.273094
Si Si5 0.673180 0.741833 0.435257
Si Si6 0.455248 0.162326 0.254632
Si Si7 0.221517 0.884662 0.577927
O O1 0.492144 0.320800 0.542632
O O2 0.427829 0.590287 0.410902
O O3 0.601759 0.524756 0.429948
O O4 0.496132 0.188708 0.357204
O O5 0.022471 0.409283 0.695540
O O6 0.148268 0.688172 0.615994
O O7 0.020716 0.908196 0.702984
O O8 0.726975 0.626680 0.941400
O O9 0.717801 0.257859 0.822917
O O10 0.710107 0.200146 0.999624
O O11 0.678440 0.889014 0.339751
O O12 0.846320 0.849497 0.267721
O O13 0.724895 0.029748 0.167649
O O14 0.660547 0.910913 0.525166
#
# Coordination Sequence:
#
# PCOD9341183 Si02
#       7
#     4   4   4   4   4   4   4
#     4  12  24  48  76 102 162 186 248 322 364 444
#     4  11  25  46  75 108 146 196 247 304 376 437
#     4  11  24  46  69 107 140 199 247 301 381 435
#     4  10  23  45  74 100 147 193 249 307 371 443
#     4  11  24  46  69 107 140 199 247 301 381 435
#     4  11  25  46  75 108 146 196 247 304 376 437
#     4  10  23  45  74 100 147 193 249 307 371 443
#
# _framework density 24.132612000000002
#
# number of rings (size 3 to 8) (size 9 to 14) (size 15 to 20)
#    0.000    1.143    2.857    3.429    0.000    4.571 
#    5.143    1.429    0.000    0.000    0.000    0.000 
#    0.000    0.000    0.000    0.000    0.000    0.000 
#
# Total GULP energy -156724.486506 kJ/mol
# GULP energy per Si atom -5597.303089 kJ/mol
# Density = 2.407769 g / cm^3
# Si number density = 24.132612 Si / 1000 Ang^3
#
#
#
# Elastic Constant Matrix: (Units=GPa)
#
#
# Indices 1 2 3 4 5 6 
#
# 1 8.2955 66.2664 120.5358 0.0000 0.0000 0.0000
# 2 66.2664 -10.7333 -161.6812 0.0000 0.0000 0.0000
# 3 120.5358 -161.6812 -217.8911 0.0000 0.0000 0.0000
# 4 0.0000 0.0000 0.0000 23.7859 0.0000 0.0000
# 5 0.0000 0.0000 0.0000 0.0000 25.5954 0.0000
# 6 0.0000 0.0000 0.0000 0.0000 0.0000 18.6659
#
#
#
# Elastic Compliance Matrix: (Units=1/GPa)
#
#
# Indices 1 2 3 4 5 6 
#
# 1 0.014274 0.003028 0.005649 0.000000 0.000000 0.000000
# 2 0.003028 0.009797 -0.005594 0.000000 0.000000 0.000000
# 3 0.005649 -0.005594 0.002687 0.000000 0.000000 0.000000
# 4 0.000000 0.000000 0.000000 0.042042 0.000000 0.000000
# 5 0.000000 0.000000 0.000000 0.000000 0.039069 0.000000
# 6 0.000000 0.000000 0.000000 0.000000 0.000000 0.053574
#
#
# Mechanical properties :
#
#
# Convention : Reuss Voigt Hill
#
# Bulk Modulus (GPa) = 30.37369 -18.89856 5.73757
# Shear Modulus (GPa) = 30.07517 -2.75385 13.66066
#
# Velocity S-wave (km/s) = 3.53405 -1.06940 2.38180
# Velocity P-wave (km/s) = 5.40982 3.06153 3.15383
#
# Compressibility (1/GPa) = 0.03292323
#
# Stress axis : x y z
#
# Youngs Moduli (GPa) = 70.05868 102.07555 372.19756
#
# Poissons Ratio (x) = -0.30910 -2.10262
# Poissons Ratio (y) = -0.21215 2.08217
# Poissons Ratio (z) = -0.39577 0.57104
#
# Static dielectric constant tensor:
#      x y z
#    x 1.882430 0.000000 0.000000 
#    y 0.000000 1.988780 0.000000 
#    z 0.000000 0.000000 1.954430 
# 
# From -- ./inp_files/4663.got.cif
#   From: 2010.05.17/outbox.cif.g08.bks.cpg/sg29_3_cif.got.tgz:4663.got - 2010.06.04 01:19:37.
