data_PCOD9341416
_publ_section_title
;
Structure prediction by ZEFSAII (Michael W. Deem and Ramdas Pophale) SiO2 
 PCOD9341416
Probable space group: P C A 21
;
_chemical_formula_sum "Si O2"
_cell_formula_units_Z 16
_cell_length_a 15.176447
_cell_length_b 6.911738
_cell_length_c 5.282604
_cell_angle_alpha 90.000000
_cell_angle_beta 90.000000
_cell_angle_gamma 90.000000
_cell_volume 554.122051
_symmetry_space_group_name_H-M "P C A 21"
_symmetry_group_IT_number 29
_symmetry_cell_setting 'orthorhombic'
loop_
_space_group_symop_operation_xyz
x,y,z
-x,-y,1/2+z
1/2-x,y,1/2+z
1/2+x,-y,z
loop_
_atom_site_type_symbol
_atom_site_label
_atom_site_fract_x
_atom_site_fract_y
_atom_site_fract_z
Si Si1 0.079155 0.017939 0.140420
Si Si2 0.041040 0.557198 0.080792
Si Si3 0.797934 0.488107 0.228449
Si Si4 0.127389 0.932611 0.645864
O O1 0.062482 0.783779 0.125319
O O2 0.136808 0.044481 0.386847
O O3 0.133583 0.062301 0.891743
O O4 0.980854 0.107881 0.136833
O O5 0.035264 0.470876 0.365733
O O6 0.115846 0.469452 0.897486
O O7 0.725184 0.542239 0.440468
O O8 0.813326 0.254440 0.182735
#
# Coordination Sequence:
#
# PCOD9341416 Si02
#       4
#     4   4   4   4
#     4   9  17  31  52  78 102 130 172 224 266 310
#     4  11  21  35  55  81 110 148 193 226 262 328
#     4  11  21  35  55  80 109 141 182 236 287 327
#     4   9  17  31  52  77 103 129 167 220 279 321
#
# _framework density 28.874504999999999
#
# number of rings (size 3 to 8) (size 9 to 14) (size 15 to 20)
#    0.000    2.000    0.000    7.500    0.000    0.000 
#    0.000    0.000    0.000    9.000    0.000    0.000 
#    0.000    0.000    0.000    0.000    0.000    0.000 
#
# Total GULP energy -89287.428136 kJ/mol
# GULP energy per Si atom -5580.464259 kJ/mol
# Density = 2.880879 g / cm^3
# Si number density = 28.874505 Si / 1000 Ang^3
#
#
#
# Elastic Constant Matrix: (Units=GPa)
#
#
# Indices 1 2 3 4 5 6 
#
# 1 98.6723 0.0822 15.9980 0.0000 0.0000 0.0000
# 2 0.0822 152.4323 24.1767 0.0000 0.0000 0.0000
# 3 15.9980 24.1767 301.3493 0.0000 0.0000 0.0000
# 4 0.0000 0.0000 0.0000 -0.2900 0.0000 0.0000
# 5 0.0000 0.0000 0.0000 0.0000 27.8386 0.0000
# 6 0.0000 0.0000 0.0000 0.0000 0.0000 26.9025
#
#
#
# Elastic Compliance Matrix: (Units=1/GPa)
#
#
# Indices 1 2 3 4 5 6 
#
# 1 0.010224 0.000082 -0.000549 0.000000 0.000000 0.000000
# 2 0.000082 0.006645 -0.000537 0.000000 0.000000 0.000000
# 3 -0.000549 -0.000537 0.003391 0.000000 0.000000 0.000000
# 4 0.000000 0.000000 0.000000 -3.448347 0.000000 0.000000
# 5 0.000000 0.000000 0.000000 0.000000 0.035921 0.000000
# 6 0.000000 0.000000 0.000000 0.000000 0.000000 0.037171
#
#
# Mechanical properties :
#
#
# Convention : Reuss Voigt Hill
#
# Bulk Modulus (GPa) = 54.79635 70.32972 62.56304
# Shear Modulus (GPa) = -1.49392 45.03670 21.77139
#
# Velocity S-wave (km/s) = -0.72007 3.95364 2.74889
# Velocity P-wave (km/s) = 4.28104 6.72693 5.63821
#
# Compressibility (1/GPa) = 0.01824939
#
# Stress axis : x y z
#
# Youngs Moduli (GPa) = 97.81342 150.47785 294.92523
#
# Poissons Ratio (x) = -0.01228 0.16200
# Poissons Ratio (y) = -0.00798 0.15852
# Poissons Ratio (z) = 0.05373 0.08088
#
# Static dielectric constant tensor:
#      x y z
#    x 2.649840 0.000000 0.000000 
#    y 0.000000 2.225920 0.000000 
#    z 0.000000 0.000000 2.413540 
# 
# From -- ./inp_files/53.got.cif
#   From: 2010.05.17/outbox.cif.g08.bks.cpg/sg29_1_cif.got.tgz:53.got - 2010.06.04 01:19:37.
