data_PCOD9341723
_publ_section_title
;
Structure prediction by ZEFSAII (Michael W. Deem and Ramdas Pophale) SiO2 
 PCOD9341723
Probable space group: P C A 21
;
_chemical_formula_sum "Si O2"
_cell_formula_units_Z 16
_cell_length_a 8.348352
_cell_length_b 4.832277
_cell_length_c 16.203616
_cell_angle_alpha 90.000000
_cell_angle_beta 90.000000
_cell_angle_gamma 90.000000
_cell_volume 653.678975
_symmetry_space_group_name_H-M "P C A 21"
_symmetry_group_IT_number 29
_symmetry_cell_setting 'orthorhombic'
loop_
_space_group_symop_operation_xyz
x,y,z
-x,-y,1/2+z
1/2-x,y,1/2+z
1/2+x,-y,z
loop_
_atom_site_type_symbol
_atom_site_label
_atom_site_fract_x
_atom_site_fract_y
_atom_site_fract_z
Si Si1 0.761937 0.901975 0.427410
Si Si2 0.554821 0.616490 0.177925
Si Si3 0.054820 0.616490 0.864313
Si Si4 0.761937 0.098026 0.614827
O O1 0.390585 0.664656 0.635179
O O2 0.890585 0.664657 0.407058
O O3 0.590685 0.765721 0.410726
O O4 0.798583 0.165712 0.369658
O O5 0.500000 0.567338 0.271119
O O6 0.409315 0.765721 0.131512
O O7 0.701417 0.834289 0.172580
O O8 0.225758 0.000000 0.021119
#
# Coordination Sequence:
#
# PCOD9341723 Si02
#       4
#     4   4   4   4
#     4  12  26  45  71 106 144 187 237 292 354 424
#     4  12  25  47  74 106 143 187 236 294 357 424
#     4  12  25  47  74 106 143 187 236 294 357 424
#     4  12  26  45  71 106 144 187 237 292 354 424
#
# _framework density 24.476849999999999
#
# number of rings (size 3 to 8) (size 9 to 14) (size 15 to 20)
#    0.000    0.000    0.000   10.500    0.000    4.000 
#    0.000    2.500    0.000    0.000    0.000    0.000 
#    0.000    0.000    0.000    0.000    0.000    0.000 
#
# Total GULP energy -89932.650558 kJ/mol
# GULP energy per Si atom -5620.790660 kJ/mol
# Density = 2.442114 g / cm^3
# Si number density = 24.476850 Si / 1000 Ang^3
#
#
#
# Elastic Constant Matrix: (Units=GPa)
#
#
# Indices 1 2 3 4 5 6 
#
# 1 71.7314 40.1030 26.9763 0.0000 0.0000 0.0000
# 2 40.1030 173.0328 70.9550 0.0000 0.0000 0.0000
# 3 26.9763 70.9550 125.4015 0.0000 0.0000 0.0000
# 4 0.0000 0.0000 0.0000 56.6643 0.0000 0.0000
# 5 0.0000 0.0000 0.0000 0.0000 36.7761 0.0000
# 6 0.0000 0.0000 0.0000 0.0000 0.0000 53.2706
#
#
#
# Elastic Compliance Matrix: (Units=1/GPa)
#
#
# Indices 1 2 3 4 5 6 
#
# 1 0.016317 -0.003050 -0.001784 0.000000 0.000000 0.000000
# 2 -0.003050 0.008095 -0.003924 0.000000 0.000000 0.000000
# 3 -0.001784 -0.003924 0.010579 0.000000 0.000000 0.000000
# 4 0.000000 0.000000 0.000000 0.017648 0.000000 0.000000
# 5 0.000000 0.000000 0.000000 0.000000 0.027192 0.000000
# 6 0.000000 0.000000 0.000000 0.000000 0.000000 0.018772
#
#
# Mechanical properties :
#
#
# Convention : Reuss Voigt Hill
#
# Bulk Modulus (GPa) = 57.22901 71.80379 64.51640
# Shear Modulus (GPa) = 41.00208 44.81764 42.90986
#
# Velocity S-wave (km/s) = 4.09728 4.28369 4.19152
# Velocity P-wave (km/s) = 6.76870 7.33933 7.05978
#
# Compressibility (1/GPa) = 0.01747366
#
# Stress axis : x y z
#
# Youngs Moduli (GPa) = 61.28528 123.52648 94.52887
#
# Poissons Ratio (x) = 0.37676 0.16867
# Poissons Ratio (y) = 0.18692 0.37097
# Poissons Ratio (z) = 0.10935 0.48477
#
# Static dielectric constant tensor:
#      x y z
#    x 2.001290 0.000000 0.000000 
#    y 0.000000 1.907240 0.000000 
#    z 0.000000 0.000000 1.865800 
# 
# From -- ./inp_files/4161.got.cif
#   From: 2010.05.17/outbox.cif.g08.bks.cpg/sg29_3_cif.got.tgz:4161.got - 2010.06.04 01:19:37.
