data_PCOD9341489
_publ_section_title
;
Structure prediction by ZEFSAII (Michael W. Deem and Ramdas Pophale) SiO2 
 PCOD9341489
Probable space group: P C A 21
;
_chemical_formula_sum "Si O2"
_cell_formula_units_Z 28
_cell_length_a 14.471300
_cell_length_b 5.999175
_cell_length_c 14.288469
_cell_angle_alpha 90.000000
_cell_angle_beta 90.000000
_cell_angle_gamma 90.000000
_cell_volume 1240.465741
_symmetry_space_group_name_H-M "P C A 21"
_symmetry_group_IT_number 29
_symmetry_cell_setting 'orthorhombic'
loop_
_space_group_symop_operation_xyz
x,y,z
-x,-y,1/2+z
1/2-x,y,1/2+z
1/2+x,-y,z
loop_
_atom_site_type_symbol
_atom_site_label
_atom_site_fract_x
_atom_site_fract_y
_atom_site_fract_z
Si Si1 0.015840 0.604547 0.275030
Si Si2 0.321310 0.260382 0.766820
Si Si3 0.228977 0.893804 0.854788
Si Si4 0.582798 0.059107 0.124540
Si Si5 0.080333 0.196926 0.951621
Si Si6 0.831675 0.429670 0.201189
Si Si7 0.716232 0.416139 0.022455
O O1 0.109005 0.462394 0.281773
O O2 0.026656 0.814584 0.205368
O O3 0.983877 0.677901 0.377807
O O4 0.938201 0.450125 0.226757
O O5 0.220450 0.362130 0.749668
O O6 0.309477 0.076345 0.847031
O O7 0.356392 0.125965 0.676908
O O8 0.208831 0.787132 0.753629
O O9 0.137485 0.013018 0.893506
O O10 0.250245 0.700984 0.928197
O O11 0.646942 0.247668 0.076791
O O12 0.533305 0.929763 0.039227
O O13 0.156030 0.370077 0.993052
O O14 0.800404 0.448263 0.094198
#
# Coordination Sequence:
#
# PCOD9341489 Si02
#       7
#     4   4   4   4   4   4   4
#     4  12  26  44  76 111 152 193 253 316 379 453
#     4  12  23  46  73 106 151 192 248 312 371 448
#     4  11  23  44  77 104 140 201 242 299 390 440
#     4  11  24  45  75 106 146 195 239 315 376 437
#     4  11  24  45  77 104 148 194 248 311 378 448
#     4  12  24  47  76 103 151 194 252 309 374 442
#     4  11  22  47  74 108 142 191 254 308 364 460
#
# _framework density 22.572165999999999
#
# number of rings (size 3 to 8) (size 9 to 14) (size 15 to 20)
#    0.000    0.571    7.143    0.000    2.000    0.000 
#    0.000   14.286    0.000    0.000    0.000    0.000 
#    0.000    0.000    0.000    0.000    0.000    0.000 
#
# Total GULP energy -156622.915929 kJ/mol
# GULP energy per Si atom -5593.675569 kJ/mol
# Density = 2.252079 g / cm^3
# Si number density = 22.572166 Si / 1000 Ang^3
#
#
#
# Elastic Constant Matrix: (Units=GPa)
#
#
# Indices 1 2 3 4 5 6 
#
# 1 40.1872 3.7679 14.9635 0.0000 0.0000 0.0000
# 2 3.7679 81.8489 34.6394 0.0000 0.0000 0.0000
# 3 14.9635 34.6394 97.3419 0.0000 0.0000 0.0000
# 4 0.0000 0.0000 0.0000 56.9559 0.0000 0.0000
# 5 0.0000 0.0000 0.0000 0.0000 30.8649 0.0000
# 6 0.0000 0.0000 0.0000 0.0000 0.0000 29.3640
#
#
#
# Elastic Compliance Matrix: (Units=1/GPa)
#
#
# Indices 1 2 3 4 5 6 
#
# 1 0.026419 0.000592 -0.004272 0.000000 0.000000 0.000000
# 2 0.000592 0.014397 -0.005214 0.000000 0.000000 0.000000
# 3 -0.004272 -0.005214 0.012785 0.000000 0.000000 0.000000
# 4 0.000000 0.000000 0.000000 0.017557 0.000000 0.000000
# 5 0.000000 0.000000 0.000000 0.000000 0.032399 0.000000
# 6 0.000000 0.000000 0.000000 0.000000 0.000000 0.034055
#
#
# Mechanical properties :
#
#
# Convention : Reuss Voigt Hill
#
# Bulk Modulus (GPa) = 27.92323 36.23550 32.07936
# Shear Modulus (GPa) = 29.87951 34.50410 32.19180
#
# Velocity S-wave (km/s) = 3.64226 3.91399 3.78057
# Velocity P-wave (km/s) = 5.48503 6.04266 5.77059
#
# Compressibility (1/GPa) = 0.03581248
#
# Stress axis : x y z
#
# Youngs Moduli (GPa) = 37.85219 69.45839 78.21558
#
# Poissons Ratio (x) = -0.04109 0.33411
# Poissons Ratio (y) = -0.02239 0.40783
# Poissons Ratio (z) = 0.16169 0.36217
#
# Static dielectric constant tensor:
#      x y z
#    x 1.803260 0.000000 0.000000 
#    y 0.000000 1.853220 0.000000 
#    z 0.000000 0.000000 1.845070 
# 
# From -- ./inp_files/4660.got.cif
#   From: 2010.05.17/outbox.cif.g08.bks.cpg/sg29_3_cif.got.tgz:4660.got - 2010.06.04 01:19:37.
