data_PCOD9341740
_publ_section_title
;
Structure prediction by ZEFSAII (Michael W. Deem and Ramdas Pophale) SiO2 
 PCOD9341740
Probable space group: P C A 21
;
_chemical_formula_sum "Si O2"
_cell_formula_units_Z 16
_cell_length_a 25.470092
_cell_length_b 5.312303
_cell_length_c 4.989691
_cell_angle_alpha 90.000000
_cell_angle_beta 90.000000
_cell_angle_gamma 90.000000
_cell_volume 675.129373
_symmetry_space_group_name_H-M "P C A 21"
_symmetry_group_IT_number 29
_symmetry_cell_setting 'orthorhombic'
loop_
_space_group_symop_operation_xyz
x,y,z
-x,-y,1/2+z
1/2-x,y,1/2+z
1/2+x,-y,z
loop_
_atom_site_type_symbol
_atom_site_label
_atom_site_fract_x
_atom_site_fract_y
_atom_site_fract_z
Si Si1 0.078166 0.491352 0.575360
Si Si2 0.853916 0.616821 0.592539
Si Si3 0.488830 0.851655 0.793029
Si Si4 0.285819 0.876776 0.574944
O O1 0.101138 0.354066 0.315791
O O2 0.062319 0.761951 0.454848
O O3 0.024390 0.379135 0.692918
O O4 0.119799 0.454740 0.809489
O O5 0.818400 0.372148 0.651663
O O6 0.819889 0.869620 0.597027
O O7 0.478619 0.996487 0.516941
O O8 0.263723 0.875623 0.274013
#
# Coordination Sequence:
#
# PCOD9341740 Si02
#       4
#     4   4   4   4
#     4  12  27  47  66 116 140 198 252 295 367 430
#     4  12  27  45  80 106 148 188 250 307 357 464
#     4  12  26  46  74 100 158 200 246 310 368 438
#     4  12  26  50  74 108 144 188 238 310 388 440
#
# _framework density 23.699162999999999
#
# number of rings (size 3 to 8) (size 9 to 14) (size 15 to 20)
#    0.000    0.000    0.000   10.500   10.500    0.000 
#    0.000    0.000    0.000    0.000    0.000    0.000 
#    0.000    0.000    0.000    0.000    0.000    0.000 
#
# Total GULP energy -89596.448703 kJ/mol
# GULP energy per Si atom -5599.778044 kJ/mol
# Density = 2.364522 g / cm^3
# Si number density = 23.699163 Si / 1000 Ang^3
#
#
#
# Elastic Constant Matrix: (Units=GPa)
#
#
# Indices 1 2 3 4 5 6 
#
# 1 42.8193 28.7641 4.4550 0.0000 0.0000 0.0000
# 2 28.7641 122.3988 23.5054 0.0000 0.0000 0.0000
# 3 4.4550 23.5054 132.5971 0.0000 0.0000 0.0000
# 4 0.0000 0.0000 0.0000 40.0572 0.0000 0.0000
# 5 0.0000 0.0000 0.0000 0.0000 55.9173 0.0000
# 6 0.0000 0.0000 0.0000 0.0000 0.0000 35.8319
#
#
#
# Elastic Compliance Matrix: (Units=1/GPa)
#
#
# Indices 1 2 3 4 5 6 
#
# 1 0.027739 -0.006563 0.000231 0.000000 0.000000 0.000000
# 2 -0.006563 0.010011 -0.001554 0.000000 0.000000 0.000000
# 3 0.000231 -0.001554 0.007809 0.000000 0.000000 0.000000
# 4 0.000000 0.000000 0.000000 0.024964 0.000000 0.000000
# 5 0.000000 0.000000 0.000000 0.000000 0.017884 0.000000
# 6 0.000000 0.000000 0.000000 0.000000 0.000000 0.027908
#
#
# Mechanical properties :
#
#
# Convention : Reuss Voigt Hill
#
# Bulk Modulus (GPa) = 33.57126 45.69601 39.63364
# Shear Modulus (GPa) = 35.20743 42.43398 38.82071
#
# Velocity S-wave (km/s) = 3.85853 4.23605 4.05169
# Velocity P-wave (km/s) = 5.83501 6.57640 6.21677
#
# Compressibility (1/GPa) = 0.02978738
#
# Stress axis : x y z
#
# Youngs Moduli (GPa) = 36.05073 99.89199 128.05143
#
# Poissons Ratio (x) = 0.65560 -0.02964
# Poissons Ratio (y) = 0.23661 0.19901
# Poissons Ratio (z) = -0.00835 0.15524
#
# Static dielectric constant tensor:
#      x y z
#    x 1.908500 0.000000 0.000000 
#    y 0.000000 1.932110 0.000000 
#    z 0.000000 0.000000 1.826530 
# 
# From -- ./inp_files/491.got.cif
#   From: 2010.05.17/outbox.cif.g08.bks.cpg/sg29_1_cif.got.tgz:491.got - 2010.06.04 01:19:37.
