data_PCOD9341933
_publ_section_title
;
Structure prediction by ZEFSAII (Michael W. Deem and Ramdas Pophale) SiO2 
 PCOD9341933
Probable space group: P N C 2
;
_chemical_formula_sum "Si O2"
_cell_formula_units_Z 24
_cell_length_a 9.800830
_cell_length_b 19.378710
_cell_length_c 5.351858
_cell_angle_alpha 90.000000
_cell_angle_beta 90.000000
_cell_angle_gamma 90.000000
_cell_volume 1016.464702
_symmetry_space_group_name_H-M "P N C 2"
_symmetry_group_IT_number 30
_symmetry_cell_setting 'orthorhombic'
loop_
_space_group_symop_operation_xyz
x,y,z
-x,-y,z
-x,1/2+y,1/2+z
x,1/2-y,1/2+z
loop_
_atom_site_type_symbol
_atom_site_label
_atom_site_fract_x
_atom_site_fract_y
_atom_site_fract_z
Si Si1 0.903401 0.063745 0.465810
Si Si2 0.499323 0.577557 0.128449
Si Si3 0.375664 0.216213 0.736183
Si Si4 0.951603 0.287009 0.975113
Si Si5 0.737089 0.082938 0.977486
Si Si6 0.649860 0.304330 0.807397
O O1 0.987873 0.133940 0.421181
O O2 0.828572 0.073005 0.731780
O O3 0.805963 0.051700 0.224854
O O4 0.000000 0.000000 0.488266
O O5 0.500000 0.500000 0.014578
O O6 0.618173 0.632638 0.213161
O O7 0.410523 0.562610 0.376296
O O8 0.424866 0.629582 0.935303
O O9 0.315119 0.253132 0.491344
O O10 0.532821 0.248354 0.745202
O O11 0.994631 0.239282 0.745274
O O12 0.784854 0.290567 0.969483
O O13 0.713945 0.161793 0.057645
#
# Coordination Sequence:
#
# PCOD9341933 Si02
#       6
#     4   4   4   4   4   4
#     4  11  24  38  57  84 118 151 185 225 288 347
#     4  11  22  35  53  86 121 154 190 225 275 344
#     4  10  19  32  51  75 110 154 171 223 286 333
#     4  11  20  31  57  86 113 136 179 227 295 350
#     4  11  20  39  55  81 117 153 184 227 281 337
#     4  10  20  33  56  80 118 148 177 235 295 339
#
# _framework density 23.611246000000001
#
# number of rings (size 3 to 8) (size 9 to 14) (size 15 to 20)
#    0.000    1.333    5.000    4.500    2.333    0.667 
#    0.000    0.000    0.000    0.000    0.000   14.000 
#    0.000    0.000    0.000    0.000    0.000    0.000 
#
# Total GULP energy -133747.222022 kJ/mol
# GULP energy per Si atom -5572.800918 kJ/mol
# Density = 2.355751 g / cm^3
# Si number density = 23.611246 Si / 1000 Ang^3
#
#
#
# Elastic Constant Matrix: (Units=GPa)
#
#
# Indices 1 2 3 4 5 6 
#
# 1 8.9822 13.2114 11.8313 0.0000 0.0000 0.0000
# 2 13.2114 171.2904 19.0332 0.0000 0.0000 0.0000
# 3 11.8313 19.0332 162.2493 0.0000 0.0000 0.0000
# 4 0.0000 0.0000 0.0000 25.2706 0.0000 0.0000
# 5 0.0000 0.0000 0.0000 0.0000 20.7935 0.0000
# 6 0.0000 0.0000 0.0000 0.0000 0.0000 28.7527
#
#
#
# Elastic Compliance Matrix: (Units=1/GPa)
#
#
# Indices 1 2 3 4 5 6 
#
# 1 0.137126 -0.009590 -0.008874 0.000000 0.000000 0.000000
# 2 -0.009590 0.006586 -0.000073 0.000000 0.000000 0.000000
# 3 -0.008874 -0.000073 0.006819 0.000000 0.000000 0.000000
# 4 0.000000 0.000000 0.000000 0.039572 0.000000 0.000000
# 5 0.000000 0.000000 0.000000 0.000000 0.048092 0.000000
# 6 0.000000 0.000000 0.000000 0.000000 0.000000 0.034779
#
#
# Mechanical properties :
#
#
# Convention : Reuss Voigt Hill
#
# Bulk Modulus (GPa) = 8.81406 47.85263 28.33334
# Shear Modulus (GPa) = 14.37329 34.85977 24.61653
#
# Velocity S-wave (km/s) = 2.46996 3.84657 3.23240
# Velocity P-wave (km/s) = 3.44606 6.32764 5.09482
#
# Compressibility (1/GPa) = 0.11345514
#
# Stress axis : x y z
#
# Youngs Moduli (GPa) = 7.29258 151.84048 146.64758
#
# Poissons Ratio (x) = 1.45618 1.30140
# Poissons Ratio (y) = 0.06994 0.01074
# Poissons Ratio (z) = 0.06472 0.01112
#
# Static dielectric constant tensor:
#      x y z
#    x 1.989600 0.000000 0.000000 
#    y 0.000000 1.988620 0.000000 
#    z 0.000000 0.000000 2.142700 
# 
# From -- ./inp_files/698.got.cif
#   From: 2010.05.17/outbox.cif.g08.bks.cpg/sg30_1_cif.got.tgz:698.got - 2010.06.03 17:03:02.
