data_PCOD9341696
_publ_section_title
;
Structure prediction by ZEFSAII (Michael W. Deem and Ramdas Pophale) SiO2 
 PCOD9341696
Probable space group: P C A 21
;
_chemical_formula_sum "Si O2"
_cell_formula_units_Z 24
_cell_length_a 14.519647
_cell_length_b 6.414435
_cell_length_c 11.811743
_cell_angle_alpha 90.000000
_cell_angle_beta 90.000000
_cell_angle_gamma 90.000000
_cell_volume 1100.090605
_symmetry_space_group_name_H-M "P C A 21"
_symmetry_group_IT_number 29
_symmetry_cell_setting 'orthorhombic'
loop_
_space_group_symop_operation_xyz
x,y,z
-x,-y,1/2+z
1/2-x,y,1/2+z
1/2+x,-y,z
loop_
_atom_site_type_symbol
_atom_site_label
_atom_site_fract_x
_atom_site_fract_y
_atom_site_fract_z
Si Si1 0.031859 0.343545 0.011370
Si Si2 0.379139 0.021708 0.013048
Si Si3 0.453330 0.371205 0.185772
Si Si4 0.332051 0.991476 0.531099
Si Si5 0.414285 0.683695 0.345094
Si Si6 0.938749 0.007685 0.768907
O O1 0.950779 0.171407 0.019777
O O2 0.026563 0.473988 0.127688
O O3 0.125924 0.214132 0.990704
O O4 0.024845 0.531871 0.923057
O O5 0.275965 0.979341 0.051259
O O6 0.414251 0.213806 0.090246
O O7 0.377188 0.052897 0.876882
O O8 0.379189 0.519400 0.249909
O O9 0.507814 0.226359 0.273602
O O10 0.356159 0.818737 0.435295
O O11 0.383914 0.974316 0.651745
O O12 0.477013 0.847481 0.279057
#
# Coordination Sequence:
#
# PCOD9341696 Si02
#       6
#     4   4   4   4   4   4
#     4  12  22  46  74 102 148 192 246 300 376 438
#     4  12  27  46  73 114 148 188 256 312 370 445
#     4  12  23  45  77 105 145 205 243 299 378 446
#     4  12  27  46  73 114 148 188 256 312 370 445
#     4  12  23  45  77 105 145 205 243 299 378 446
#     4  12  22  46  74 102 152 194 244 316 364 440
#
# _framework density 21.816382999999998
#
# number of rings (size 3 to 8) (size 9 to 14) (size 15 to 20)
#    0.000    0.000   10.000    0.000    0.000    5.333 
#    6.000    0.000    0.000    0.000    0.000    0.000 
#    0.000    0.000    0.000    0.000    0.000    0.000 
#
# Total GULP energy -133682.058346 kJ/mol
# GULP energy per Si atom -5570.085764 kJ/mol
# Density = 2.176673 g / cm^3
# Si number density = 21.816383 Si / 1000 Ang^3
#
#
#
# Elastic Constant Matrix: (Units=GPa)
#
#
# Indices 1 2 3 4 5 6 
#
# 1 62.5795 13.3301 -6.6921 0.0000 0.0000 0.0000
# 2 13.3301 118.6805 26.0083 0.0000 0.0000 0.0000
# 3 -6.6921 26.0083 88.3760 0.0000 0.0000 0.0000
# 4 0.0000 0.0000 0.0000 58.3253 0.0000 0.0000
# 5 0.0000 0.0000 0.0000 0.0000 19.8557 0.0000
# 6 0.0000 0.0000 0.0000 0.0000 0.0000 6.3993
#
#
#
# Elastic Compliance Matrix: (Units=1/GPa)
#
#
# Indices 1 2 3 4 5 6 
#
# 1 0.016677 -0.002298 0.001939 0.000000 0.000000 0.000000
# 2 -0.002298 0.009324 -0.002918 0.000000 0.000000 0.000000
# 3 0.001939 -0.002918 0.012321 0.000000 0.000000 0.000000
# 4 0.000000 0.000000 0.000000 0.017145 0.000000 0.000000
# 5 0.000000 0.000000 0.000000 0.000000 0.050363 0.000000
# 6 0.000000 0.000000 0.000000 0.000000 0.000000 0.156267
#
#
# Mechanical properties :
#
#
# Convention : Reuss Voigt Hill
#
# Bulk Modulus (GPa) = 31.47893 37.21432 34.34662
# Shear Modulus (GPa) = 17.90578 32.71536 25.31057
#
# Velocity S-wave (km/s) = 2.86798 3.87664 3.40981
# Velocity P-wave (km/s) = 5.04256 6.09367 5.59286
#
# Compressibility (1/GPa) = 0.03176728
#
# Stress axis : x y z
#
# Youngs Moduli (GPa) = 59.96449 107.25550 81.16343
#
# Poissons Ratio (x) = 0.24648 -0.15738
# Poissons Ratio (y) = 0.13780 0.23682
# Poissons Ratio (z) = -0.11628 0.31296
#
# Static dielectric constant tensor:
#      x y z
#    x 1.749860 0.000000 0.000000 
#    y 0.000000 1.814670 0.000000 
#    z 0.000000 0.000000 1.964050 
# 
# From -- ./inp_files/3388.got.cif
#   From: 2010.05.17/outbox.cif.g08.bks.cpg/sg29_2_cif.got.tgz:3388.got - 2010.06.04 01:19:37.
