data_PCOD9341313
_publ_section_title
;
Structure prediction by ZEFSAII (Michael W. Deem and Ramdas Pophale) SiO2 
 PCOD9341313
Probable space group: P C A 21
;
_chemical_formula_sum "Si O2"
_cell_formula_units_Z 28
_cell_length_a 12.227182
_cell_length_b 5.056419
_cell_length_c 17.278879
_cell_angle_alpha 90.000000
_cell_angle_beta 90.000000
_cell_angle_gamma 90.000000
_cell_volume 1068.279746
_symmetry_space_group_name_H-M "P C A 21"
_symmetry_group_IT_number 29
_symmetry_cell_setting 'orthorhombic'
loop_
_space_group_symop_operation_xyz
x,y,z
-x,-y,1/2+z
1/2-x,y,1/2+z
1/2+x,-y,z
loop_
_atom_site_type_symbol
_atom_site_label
_atom_site_fract_x
_atom_site_fract_y
_atom_site_fract_z
Si Si1 0.273243 0.132634 0.181990
Si Si2 0.769174 0.129047 0.000130
Si Si3 0.882053 0.628087 0.496613
Si Si4 0.594101 0.223250 0.779649
Si Si5 0.453844 0.893603 0.877212
Si Si6 0.680968 0.368865 0.248364
Si Si7 0.425500 0.547964 0.112078
O O1 0.189617 0.114839 0.020912
O O2 0.186144 0.351344 0.207894
O O3 0.353107 0.283576 0.121843
O O4 0.357630 0.061096 0.251669
O O5 0.696133 0.383012 0.978669
O O6 0.850687 0.240099 0.066335
O O7 0.035278 0.472319 0.063271
O O8 0.848818 0.045717 0.930152
O O9 0.958252 0.734621 0.427560
O O10 0.706917 0.368976 0.799533
O O11 0.555289 0.350890 0.699131
O O12 0.507807 0.161061 0.844875
O O13 0.413974 0.724960 0.803717
O O14 0.704385 0.141852 0.183747
#
# Coordination Sequence:
#
# PCOD9341313 Si02
#       7
#     4   4   4   4   4   4   4
#     4   9  21  41  63 100 140 166 227 291 345 423
#     4  11  28  46  70 103 143 193 248 297 358 432
#     4  11  28  48  73 102 146 195 248 292 354 445
#     4   9  22  43  68 107 138 177 235 300 353 433
#     4  11  24  46  73 102 143 194 235 299 365 424
#     4   9  21  40  64 100 137 174 220 288 350 416
#     4  10  24  46  75 104 145 189 243 301 367 427
#
# _framework density 26.210364999999999
#
# number of rings (size 3 to 8) (size 9 to 14) (size 15 to 20)
#    0.857    1.143    0.000    0.857    6.000    8.000 
#   10.286    0.000    0.000    0.000    0.000    0.000 
#    0.000    0.000    0.000    0.000    0.000    0.000 
#
# Total GULP energy -156662.877239 kJ/mol
# GULP energy per Si atom -5595.102759 kJ/mol
# Density = 2.615071 g / cm^3
# Si number density = 26.210365 Si / 1000 Ang^3
#
#
#
# Elastic Constant Matrix: (Units=GPa)
#
#
# Indices 1 2 3 4 5 6 
#
# 1 130.7856 18.3676 47.6102 0.0000 0.0000 0.0000
# 2 18.3676 127.3675 8.8659 0.0000 0.0000 0.0000
# 3 47.6102 8.8659 92.4711 0.0000 0.0000 0.0000
# 4 0.0000 0.0000 0.0000 25.4008 0.0000 0.0000
# 5 0.0000 0.0000 0.0000 0.0000 68.3266 0.0000
# 6 0.0000 0.0000 0.0000 0.0000 0.0000 14.0361
#
#
#
# Elastic Compliance Matrix: (Units=1/GPa)
#
#
# Indices 1 2 3 4 5 6 
#
# 1 0.009545 -0.001041 -0.004815 0.000000 0.000000 0.000000
# 2 -0.001041 0.008018 -0.000233 0.000000 0.000000 0.000000
# 3 -0.004815 -0.000233 0.013315 0.000000 0.000000 0.000000
# 4 0.000000 0.000000 0.000000 0.039369 0.000000 0.000000
# 5 0.000000 0.000000 0.000000 0.000000 0.014636 0.000000
# 6 0.000000 0.000000 0.000000 0.000000 0.000000 0.071245
#
#
# Mechanical properties :
#
#
# Convention : Reuss Voigt Hill
#
# Bulk Modulus (GPa) = 53.47284 55.59017 54.53150
# Shear Modulus (GPa) = 28.64705 39.93807 34.29256
#
# Velocity S-wave (km/s) = 3.30959 3.90776 3.62105
# Velocity P-wave (km/s) = 5.92032 6.45105 6.19138
#
# Compressibility (1/GPa) = 0.01870108
#
# Stress axis : x y z
#
# Youngs Moduli (GPa) = 104.76689 124.72476 75.10139
#
# Poissons Ratio (x) = 0.12988 0.36158
# Poissons Ratio (y) = 0.10910 0.01747
# Poissons Ratio (z) = 0.50441 0.02901
#
# Static dielectric constant tensor:
#      x y z
#    x 2.080410 0.000000 0.000000 
#    y 0.000000 2.050140 0.000000 
#    z 0.000000 0.000000 2.175130 
# 
# From -- ./inp_files/5499.got.cif
#   From: 2010.05.17/outbox.cif.g08.bks.cpg/sg29_3_cif.got.tgz:5499.got - 2010.06.04 01:19:37.
