data_PCOD9341577
_publ_section_title
;
Structure prediction by ZEFSAII (Michael W. Deem and Ramdas Pophale) SiO2 
 PCOD9341577
Probable space group: P C A 21
;
_chemical_formula_sum "Si O2"
_cell_formula_units_Z 32
_cell_length_a 22.002362
_cell_length_b 5.685515
_cell_length_c 11.028072
_cell_angle_alpha 90.000000
_cell_angle_beta 90.000000
_cell_angle_gamma 90.000000
_cell_volume 1379.554011
_symmetry_space_group_name_H-M "P C A 21"
_symmetry_group_IT_number 29
_symmetry_cell_setting 'orthorhombic'
loop_
_space_group_symop_operation_xyz
x,y,z
-x,-y,1/2+z
1/2-x,y,1/2+z
1/2+x,-y,z
loop_
_atom_site_type_symbol
_atom_site_label
_atom_site_fract_x
_atom_site_fract_y
_atom_site_fract_z
Si Si1 0.869334 0.271264 0.939350
Si Si2 0.072931 0.348447 0.587820
Si Si3 0.900291 0.877609 0.473568
Si Si4 0.516941 0.939514 0.394482
Si Si5 0.353991 0.760749 0.672274
Si Si6 0.679459 0.757405 0.760688
Si Si7 0.036640 0.391103 0.170760
Si Si8 0.721483 0.248998 0.662483
O O1 0.836668 0.210282 0.813898
O O2 0.933784 0.140685 0.922048
O O3 0.889468 0.533593 0.977754
O O4 0.825427 0.212426 0.051288
O O5 0.021673 0.201234 0.520314
O O6 0.121167 0.223377 0.671783
O O7 0.032757 0.521634 0.669614
O O8 0.845429 0.771691 0.397500
O O9 0.946744 0.700077 0.537425
O O10 0.876475 0.031738 0.585558
O O11 0.945877 0.007606 0.381341
O O12 0.539336 0.801859 0.276218
O O13 0.410225 0.581948 0.687492
O O14 0.289257 0.692489 0.615441
O O15 0.703615 0.491682 0.733547
O O16 0.718395 0.994204 0.731533
#
# Coordination Sequence:
#
# PCOD9341577 Si02
#       8
#     4   4   4   4   4   4   4   4
#     4  11  24  48  72 104 143 199 252 314 378 458
#     4  11  24  44  72 105 147 197 248 308 400 454
#     4  12  29  43  75 110 157 193 257 319 400 457
#     4  12  24  43  71 107 153 190 246 317 391 461
#     4  12  28  48  74 110 145 204 257 320 373 460
#     4  11  29  50  76 109 149 204 252 317 375 464
#     4  12  27  43  72 112 153 196 249 322 388 469
#     4  11  29  53  78 107 153 207 263 307 381 449
#
# _framework density 23.195902
#
# number of rings (size 3 to 8) (size 9 to 14) (size 15 to 20)
#    0.000    0.500    6.250    0.000   14.000    0.000 
#    2.250    0.000    0.000    0.000    0.000    0.000 
#    0.000    0.000    0.000    0.000    0.000    0.000 
#
# Total GULP energy -178434.047375 kJ/mol
# GULP energy per Si atom -5576.063980 kJ/mol
# Density = 2.314311 g / cm^3
# Si number density = 23.195902 Si / 1000 Ang^3
#
#
#
# Elastic Constant Matrix: (Units=GPa)
#
#
# Indices 1 2 3 4 5 6 
#
# 1 92.0843 26.3371 23.4888 0.0000 0.0000 0.0000
# 2 26.3371 82.5777 47.0115 0.0000 0.0000 0.0000
# 3 23.4888 47.0115 78.2630 0.0000 0.0000 0.0000
# 4 0.0000 0.0000 0.0000 35.1235 0.0000 0.0000
# 5 0.0000 0.0000 0.0000 0.0000 13.3806 0.0000
# 6 0.0000 0.0000 0.0000 0.0000 0.0000 10.4814
#
#
#
# Elastic Compliance Matrix: (Units=1/GPa)
#
#
# Indices 1 2 3 4 5 6 
#
# 1 0.012153 -0.002735 -0.002005 0.000000 0.000000 0.000000
# 2 -0.002735 0.019019 -0.010603 0.000000 0.000000 0.000000
# 3 -0.002005 -0.010603 0.019748 0.000000 0.000000 0.000000
# 4 0.000000 0.000000 0.000000 0.028471 0.000000 0.000000
# 5 0.000000 0.000000 0.000000 0.000000 0.074735 0.000000
# 6 0.000000 0.000000 0.000000 0.000000 0.000000 0.095407
#
#
# Mechanical properties :
#
#
# Convention : Reuss Voigt Hill
#
# Bulk Modulus (GPa) = 49.42109 49.62221 49.52165
# Shear Modulus (GPa) = 17.42380 22.20294 19.81337
#
# Velocity S-wave (km/s) = 2.74370 3.09721 2.92580
# Velocity P-wave (km/s) = 5.60262 5.85059 5.72795
#
# Compressibility (1/GPa) = 0.02023428
#
# Stress axis : x y z
#
# Youngs Moduli (GPa) = 82.28306 52.58023 50.63701
#
# Poissons Ratio (x) = 0.14380 0.10151
# Poissons Ratio (y) = 0.22503 0.53692
# Poissons Ratio (z) = 0.16495 0.55753
#
# Static dielectric constant tensor:
#      x y z
#    x 1.842530 0.000000 0.000000 
#    y 0.000000 2.127950 0.000000 
#    z 0.000000 0.000000 1.977950 
# 
# From -- ./inp_files/3813.got.cif
#   From: 2010.05.17/outbox.cif.g08.bks.cpg/sg29_2_cif.got.tgz:3813.got - 2010.06.04 01:19:37.
