data_PCOD9341701
_publ_section_title
;
Structure prediction by ZEFSAII (Michael W. Deem and Ramdas Pophale) SiO2 
 PCOD9341701
Probable space group: P C A 21
;
_chemical_formula_sum "Si O2"
_cell_formula_units_Z 24
_cell_length_a 7.654891
_cell_length_b 15.627806
_cell_length_c 8.366093
_cell_angle_alpha 90.000000
_cell_angle_beta 90.000000
_cell_angle_gamma 90.000000
_cell_volume 1000.828607
_symmetry_space_group_name_H-M "P C A 21"
_symmetry_group_IT_number 29
_symmetry_cell_setting 'orthorhombic'
loop_
_space_group_symop_operation_xyz
x,y,z
-x,-y,1/2+z
1/2-x,y,1/2+z
1/2+x,-y,z
loop_
_atom_site_type_symbol
_atom_site_label
_atom_site_fract_x
_atom_site_fract_y
_atom_site_fract_z
Si Si1 0.205645 0.527594 0.658520
Si Si2 0.230630 0.329560 0.258734
Si Si3 0.357269 0.915750 0.112690
Si Si4 0.017630 0.096020 0.474017
Si Si5 0.367916 0.212702 0.479203
Si Si6 0.000571 0.579079 0.961931
O O1 0.239010 0.427902 0.705963
O O2 0.102464 0.570007 0.798312
O O3 0.369953 0.582712 0.609120
O O4 0.095512 0.511159 0.497051
O O5 0.387047 0.270314 0.319866
O O6 0.124020 0.276132 0.131237
O O7 0.126871 0.344018 0.426410
O O8 0.433759 0.912535 0.294745
O O9 0.479047 0.854175 0.006704
O O10 0.153328 0.890614 0.087685
O O11 0.389793 0.010063 0.040078
O O12 0.179656 0.163421 0.471305
#
# Coordination Sequence:
#
# PCOD9341701 Si02
#       6
#     4   4   4   4   4   4
#     4  12  23  44  72 102 141 187 255 299 361 467
#     4  12  25  46  74 102 145 198 233 315 392 421
#     4  12  27  47  78 111 149 198 260 308 372 463
#     4  12  27  47  78 112 146 202 255 310 374 457
#     4  12  27  50  71 107 159 191 247 317 385 442
#     4  12  23  44  71 106 138 192 246 301 374 446
#
# _framework density 23.980129000000002
#
# number of rings (size 3 to 8) (size 9 to 14) (size 15 to 20)
#    0.000    0.000    8.333    1.000    4.667    0.000 
#    3.000    0.000    0.000    0.000    0.000    0.000 
#    0.000    0.000    0.000    0.000    0.000    0.000 
#
# Total GULP energy -134036.461873 kJ/mol
# GULP energy per Si atom -5584.852578 kJ/mol
# Density = 2.392555 g / cm^3
# Si number density = 23.980129 Si / 1000 Ang^3
#
#
#
# Elastic Constant Matrix: (Units=GPa)
#
#
# Indices 1 2 3 4 5 6 
#
# 1 113.4761 14.5866 10.9789 0.0000 0.0000 0.0000
# 2 14.5866 75.3418 21.1023 0.0000 0.0000 0.0000
# 3 10.9789 21.1023 64.1202 0.0000 0.0000 0.0000
# 4 0.0000 0.0000 0.0000 36.4395 0.0000 0.0000
# 5 0.0000 0.0000 0.0000 0.0000 53.3704 0.0000
# 6 0.0000 0.0000 0.0000 0.0000 0.0000 21.2609
#
#
#
# Elastic Compliance Matrix: (Units=1/GPa)
#
#
# Indices 1 2 3 4 5 6 
#
# 1 0.009105 -0.001461 -0.001078 0.000000 0.000000 0.000000
# 2 -0.001461 0.014855 -0.004639 0.000000 0.000000 0.000000
# 3 -0.001078 -0.004639 0.017307 0.000000 0.000000 0.000000
# 4 0.000000 0.000000 0.000000 0.027443 0.000000 0.000000
# 5 0.000000 0.000000 0.000000 0.000000 0.018737 0.000000
# 6 0.000000 0.000000 0.000000 0.000000 0.000000 0.047035
#
#
# Mechanical properties :
#
#
# Convention : Reuss Voigt Hill
#
# Bulk Modulus (GPa) = 37.15934 38.47487 37.81710
# Shear Modulus (GPa) = 31.68439 35.96550 33.82494
#
# Velocity S-wave (km/s) = 3.63888 3.87693 3.75979
# Velocity P-wave (km/s) = 5.76062 6.01000 5.88663
#
# Compressibility (1/GPa) = 0.02691114
#
# Stress axis : x y z
#
# Youngs Moduli (GPa) = 109.83572 67.31789 57.78033
#
# Poissons Ratio (x) = 0.09833 0.06230
# Poissons Ratio (y) = 0.16044 0.26803
# Poissons Ratio (z) = 0.11842 0.31227
#
# Static dielectric constant tensor:
#      x y z
#    x 2.148500 0.000000 0.000000 
#    y 0.000000 1.839340 0.000000 
#    z 0.000000 0.000000 2.062570 
# 
# From -- ./inp_files/1167.got.cif
#   From: 2010.05.17/outbox.cif.g08.bks.cpg/sg29_1_cif.got.tgz:1167.got - 2010.06.04 01:19:37.
