data_PCOD9341466
_publ_section_title
;
Structure prediction by ZEFSAII (Michael W. Deem and Ramdas Pophale) SiO2 
 PCOD9341466
Probable space group: P C A 21
;
_chemical_formula_sum "Si O2"
_cell_formula_units_Z 32
_cell_length_a 11.358318
_cell_length_b 5.667974
_cell_length_c 21.510382
_cell_angle_alpha 90.000000
_cell_angle_beta 90.000000
_cell_angle_gamma 90.000000
_cell_volume 1384.809378
_symmetry_space_group_name_H-M "P C A 21"
_symmetry_group_IT_number 29
_symmetry_cell_setting 'orthorhombic'
loop_
_space_group_symop_operation_xyz
x,y,z
-x,-y,1/2+z
1/2-x,y,1/2+z
1/2+x,-y,z
loop_
_atom_site_type_symbol
_atom_site_label
_atom_site_fract_x
_atom_site_fract_y
_atom_site_fract_z
Si Si1 0.033206 0.804436 0.324690
Si Si2 0.950948 0.835147 0.549661
Si Si3 0.282950 0.975645 0.274779
Si Si4 0.950804 0.942850 0.938978
Si Si5 0.748080 0.934266 0.631188
Si Si6 0.664515 0.433667 0.571846
Si Si7 0.910083 0.387381 0.345733
Si Si8 0.269333 0.372152 0.453018
O O1 0.145268 0.951123 0.298565
O O2 0.019810 0.524978 0.315131
O O3 0.052158 0.818165 0.399468
O O4 0.901332 0.889002 0.302279
O O5 0.884268 0.926540 0.609733
O O6 0.859175 0.770405 0.496038
O O7 0.025260 0.603430 0.565046
O O8 0.026625 0.025298 0.511754
O O9 0.330483 0.715115 0.290981
O O10 0.273029 0.053584 0.204106
O O11 0.830699 0.806470 0.933757
O O12 0.042613 0.797919 0.897074
O O13 0.698134 0.682081 0.604621
O O14 0.702400 0.186333 0.604160
O O15 0.718489 0.438464 0.502163
O O16 0.827042 0.537167 0.390756
#
# Coordination Sequence:
#
# PCOD9341466 Si02
#       8
#     4   4   4   4   4   4   4   4
#     4  11  25  48  75 111 153 206 271 332 417 481
#     4  11  23  44  75 109 154 199 254 326 404 477
#     4  11  28  48  76 107 152 211 276 336 404 486
#     4  11  23  40  70 109 152 194 247 323 404 489
#     4  11  28  51  73 108 149 208 270 328 397 475
#     4  11  26  47  74 108 150 202 258 323 398 485
#     4  11  23  43  71 111 152 205 251 336 399 494
#     4  11  22  41  72 109 150 193 249 316 409 479
#
# _framework density 23.107873000000001
#
# number of rings (size 3 to 8) (size 9 to 14) (size 15 to 20)
#    0.000    1.000    1.250    4.500    7.000    4.000 
#    0.000    0.000    0.000    0.000    0.000    0.000 
#    0.000    0.000    0.000    0.000    0.000    0.000 
#
# Total GULP energy -178290.754382 kJ/mol
# GULP energy per Si atom -5571.586074 kJ/mol
# Density = 2.305528 g / cm^3
# Si number density = 23.107873 Si / 1000 Ang^3
#
#
#
# Elastic Constant Matrix: (Units=GPa)
#
#
# Indices 1 2 3 4 5 6 
#
# 1 87.7802 40.3058 41.9274 0.0000 0.0000 0.0000
# 2 40.3058 97.9896 46.1189 0.0000 0.0000 0.0000
# 3 41.9274 46.1189 113.7480 0.0000 0.0000 0.0000
# 4 0.0000 0.0000 0.0000 64.8551 0.0000 0.0000
# 5 0.0000 0.0000 0.0000 0.0000 60.8375 0.0000
# 6 0.0000 0.0000 0.0000 0.0000 0.0000 31.6303
#
#
#
# Elastic Compliance Matrix: (Units=1/GPa)
#
#
# Indices 1 2 3 4 5 6 
#
# 1 0.015273 -0.004489 -0.003809 0.000000 0.000000 0.000000
# 2 -0.004489 0.013931 -0.003994 0.000000 0.000000 0.000000
# 3 -0.003809 -0.003994 0.011815 0.000000 0.000000 0.000000
# 4 0.000000 0.000000 0.000000 0.015419 0.000000 0.000000
# 5 0.000000 0.000000 0.000000 0.000000 0.016437 0.000000
# 6 0.000000 0.000000 0.000000 0.000000 0.000000 0.031615
#
#
# Mechanical properties :
#
#
# Convention : Reuss Voigt Hill
#
# Bulk Modulus (GPa) = 60.84848 61.80245 61.32547
# Shear Modulus (GPa) = 37.15996 42.87564 40.01780
#
# Velocity S-wave (km/s) = 4.01447 4.31217 4.16598
# Velocity P-wave (km/s) = 6.91936 7.18306 7.05244
#
# Compressibility (1/GPa) = 0.01643426
#
# Stress axis : x y z
#
# Youngs Moduli (GPa) = 65.47515 71.78048 84.63992
#
# Poissons Ratio (x) = 0.32224 0.32243
# Poissons Ratio (y) = 0.29394 0.33803
# Poissons Ratio (z) = 0.24942 0.28667
#
# Static dielectric constant tensor:
#      x y z
#    x 1.982870 0.000000 0.000000 
#    y 0.000000 1.337500 0.000000 
#    z 0.000000 0.000000 1.808700 
# 
# From -- ./inp_files/5568.got.cif
#   From: 2010.05.17/outbox.cif.g08.bks.cpg/sg29_3_cif.got.tgz:5568.got - 2010.06.04 01:19:37.
