data_PCOD9341609
_publ_section_title
;
Structure prediction by ZEFSAII (Michael W. Deem and Ramdas Pophale) SiO2 
 PCOD9341609
Probable space group: P C A 21
;
_chemical_formula_sum "Si O2"
_cell_formula_units_Z 20
_cell_length_a 10.249246
_cell_length_b 5.309681
_cell_length_c 14.136061
_cell_angle_alpha 90.000000
_cell_angle_beta 90.000000
_cell_angle_gamma 90.000000
_cell_volume 769.287645
_symmetry_space_group_name_H-M "P C A 21"
_symmetry_group_IT_number 29
_symmetry_cell_setting 'orthorhombic'
loop_
_space_group_symop_operation_xyz
x,y,z
-x,-y,1/2+z
1/2-x,y,1/2+z
1/2+x,-y,z
loop_
_atom_site_type_symbol
_atom_site_label
_atom_site_fract_x
_atom_site_fract_y
_atom_site_fract_z
Si Si1 0.075428 0.781879 0.189960
Si Si2 0.823229 0.488793 0.144206
Si Si3 0.697446 0.022904 0.375629
Si Si4 0.190917 0.466007 0.946589
Si Si5 0.510419 0.137950 0.544821
O O1 0.182749 0.558402 0.189407
O O2 0.115438 0.939440 0.280911
O O3 0.929378 0.673556 0.188135
O O4 0.090317 0.944598 0.093167
O O5 0.900031 0.224920 0.132539
O O6 0.789807 0.547296 0.035145
O O7 0.790729 0.265787 0.396091
O O8 0.596718 0.020518 0.462920
O O9 0.775207 0.763927 0.377803
O O10 0.057279 0.380767 0.996835
#
# Coordination Sequence:
#
# PCOD9341609 Si02
#       5
#     4   4   4   4   4
#     4  12  27  47  80 119 155 215 263 334 395 481
#     4  11  25  47  78 108 158 203 267 322 402 464
#     4  11  28  44  76 116 157 202 266 323 390 470
#     4  11  24  48  71 110 151 209 250 325 390 464
#     4  11  24  48  77 107 159 207 260 324 401 465
#
# _framework density 25.998076000000001
#
# number of rings (size 3 to 8) (size 9 to 14) (size 15 to 20)
#    0.000    0.800    4.000    2.400    5.600    1.600 
#    0.000    0.000    0.000    0.000    0.000    0.000 
#    0.000    0.000    0.000    0.000    0.000    0.000 
#
# Total GULP energy -112005.360703 kJ/mol
# GULP energy per Si atom -5600.268035 kJ/mol
# Density = 2.593890 g / cm^3
# Si number density = 25.998076 Si / 1000 Ang^3
#
#
#
# Elastic Constant Matrix: (Units=GPa)
#
#
# Indices 1 2 3 4 5 6 
#
# 1 81.1310 22.0188 -6.7538 0.0000 0.0000 0.0000
# 2 22.0188 118.6354 28.2817 0.0000 0.0000 0.0000
# 3 -6.7538 28.2817 75.4563 0.0000 0.0000 0.0000
# 4 0.0000 0.0000 0.0000 32.2165 0.0000 0.0000
# 5 0.0000 0.0000 0.0000 0.0000 35.1701 0.0000
# 6 0.0000 0.0000 0.0000 0.0000 0.0000 35.2871
#
#
#
# Elastic Compliance Matrix: (Units=1/GPa)
#
#
# Indices 1 2 3 4 5 6 
#
# 1 0.013343 -0.003032 0.002331 0.000000 0.000000 0.000000
# 2 -0.003032 0.009945 -0.003999 0.000000 0.000000 0.000000
# 3 0.002331 -0.003999 0.014960 0.000000 0.000000 0.000000
# 4 0.000000 0.000000 0.000000 0.031040 0.000000 0.000000
# 5 0.000000 0.000000 0.000000 0.000000 0.028433 0.000000
# 6 0.000000 0.000000 0.000000 0.000000 0.000000 0.028339
#
#
# Mechanical properties :
#
#
# Convention : Reuss Voigt Hill
#
# Bulk Modulus (GPa) = 34.66507 40.25733 37.46120
# Shear Modulus (GPa) = 34.46454 35.97981 35.22217
#
# Velocity S-wave (km/s) = 3.64491 3.72417 3.68475
# Velocity P-wave (km/s) = 5.57463 5.83189 5.70471
#
# Compressibility (1/GPa) = 0.02884748
#
# Stress axis : x y z
#
# Youngs Moduli (GPa) = 74.94760 100.55057 66.84421
#
# Poissons Ratio (x) = 0.30487 -0.15579
# Poissons Ratio (y) = 0.22724 0.26731
# Poissons Ratio (z) = -0.17468 0.40210
#
# Static dielectric constant tensor:
#      x y z
#    x 2.097370 0.000000 0.000000 
#    y 0.000000 2.101110 0.000000 
#    z 0.000000 0.000000 2.029040 
# 
# From -- ./inp_files/4383.got.cif
#   From: 2010.05.17/outbox.cif.g08.bks.cpg/sg29_3_cif.got.tgz:4383.got - 2010.06.04 01:19:37.
