data_PCOD9341120
_publ_section_title
;
Structure prediction by ZEFSAII (Michael W. Deem and Ramdas Pophale) SiO2 
 PCOD9341120
Probable space group: P C A 21
;
_chemical_formula_sum "Si O2"
_cell_formula_units_Z 28
_cell_length_a 12.823402
_cell_length_b 10.780534
_cell_length_c 8.745842
_cell_angle_alpha 90.000000
_cell_angle_beta 90.000000
_cell_angle_gamma 90.000000
_cell_volume 1209.052496
_symmetry_space_group_name_H-M "P C A 21"
_symmetry_group_IT_number 29
_symmetry_cell_setting 'orthorhombic'
loop_
_space_group_symop_operation_xyz
x,y,z
-x,-y,1/2+z
1/2-x,y,1/2+z
1/2+x,-y,z
loop_
_atom_site_type_symbol
_atom_site_label
_atom_site_fract_x
_atom_site_fract_y
_atom_site_fract_z
Si Si1 0.307387 0.303090 0.491010
Si Si2 0.650497 0.979448 0.046895
Si Si3 0.333435 0.829821 0.088935
Si Si4 0.471073 0.030428 0.228574
Si Si5 0.244507 0.658776 0.355354
Si Si6 0.608066 0.462411 0.110761
Si Si7 0.898576 0.694093 0.153420
O O1 0.314838 0.162448 0.549586
O O2 0.388903 0.392124 0.577302
O O3 0.187939 0.338311 0.526770
O O4 0.338964 0.314934 0.314999
O O5 0.744783 0.074620 0.034100
O O6 0.577594 0.987068 0.895911
O O7 0.342198 0.729699 0.955855
O O8 0.296543 0.754889 0.237975
O O9 0.093851 0.981094 0.204049
O O10 0.429830 0.914194 0.131067
O O11 0.437416 0.162379 0.155852
O O12 0.331885 0.602894 0.467591
O O13 0.183541 0.560765 0.253798
O O14 0.497475 0.396853 0.138052
#
# Coordination Sequence:
#
# PCOD9341120 Si02
#       7
#     4   4   4   4   4   4   4
#     4  11  26  49  71 103 144 191 243 302 357 428
#     4  11  25  43  66 106 139 190 233 302 370 434
#     4  11  21  41  65 100 141 176 228 295 363 429
#     4  11  24  40  70  99 140 179 236 298 371 437
#     4  10  23  42  70 103 143 185 234 298 354 431
#     4  11  25  49  72 104 147 193 247 296 358 436
#     4  11  26  48  72 105 142 188 245 299 365 433
#
# _framework density 23.158632000000001
#
# number of rings (size 3 to 8) (size 9 to 14) (size 15 to 20)
#    0.000    1.143    2.857    2.571    6.000    3.429 
#    5.143    0.000    0.000    0.000    0.000    0.000 
#    0.000    0.000    0.000    0.000    0.000    0.000 
#
# Total GULP energy -156712.246623 kJ/mol
# GULP energy per Si atom -5596.865951 kJ/mol
# Density = 2.310592 g / cm^3
# Si number density = 23.158632 Si / 1000 Ang^3
#
#
#
# Elastic Constant Matrix: (Units=GPa)
#
#
# Indices 1 2 3 4 5 6 
#
# 1 84.4160 5.3124 28.8574 0.0000 0.0000 0.0000
# 2 5.3124 76.6274 36.8960 0.0000 0.0000 0.0000
# 3 28.8574 36.8960 82.9098 0.0000 0.0000 0.0000
# 4 0.0000 0.0000 0.0000 29.0180 0.0000 0.0000
# 5 0.0000 0.0000 0.0000 0.0000 32.3723 0.0000
# 6 0.0000 0.0000 0.0000 0.0000 0.0000 20.5494
#
#
#
# Elastic Compliance Matrix: (Units=1/GPa)
#
#
# Indices 1 2 3 4 5 6 
#
# 1 0.013618 0.001703 -0.005498 0.000000 0.000000 0.000000
# 2 0.001703 0.016822 -0.008079 0.000000 0.000000 0.000000
# 3 -0.005498 -0.008079 0.017570 0.000000 0.000000 0.000000
# 4 0.000000 0.000000 0.000000 0.034461 0.000000 0.000000
# 5 0.000000 0.000000 0.000000 0.000000 0.030891 0.000000
# 6 0.000000 0.000000 0.000000 0.000000 0.000000 0.048663
#
#
# Mechanical properties :
#
#
# Convention : Reuss Voigt Hill
#
# Bulk Modulus (GPa) = 41.21459 42.89831 42.05645
# Shear Modulus (GPa) = 25.79176 27.91378 26.85277
#
# Velocity S-wave (km/s) = 3.34083 3.47555 3.40886
# Velocity P-wave (km/s) = 5.71986 5.88811 5.80460
#
# Compressibility (1/GPa) = 0.02426326
#
# Stress axis : x y z
#
# Youngs Moduli (GPa) = 73.43031 59.44592 56.91502
#
# Poissons Ratio (x) = -0.10124 0.31291
# Poissons Ratio (y) = -0.12506 0.45980
# Poissons Ratio (z) = 0.40371 0.48025
#
# Static dielectric constant tensor:
#      x y z
#    x 1.846270 0.000000 0.000000 
#    y 0.000000 1.864820 0.000000 
#    z 0.000000 0.000000 1.873390 
# 
# From -- ./inp_files/1487.got.cif
#   From: 2010.05.17/outbox.cif.g08.bks.cpg/sg29_1_cif.got.tgz:1487.got - 2010.06.04 01:19:37.
