data_PCOD9341258
_publ_section_title
;
Structure prediction by ZEFSAII (Michael W. Deem and Ramdas Pophale) SiO2 
 PCOD9341258
Probable space group: P C A 21
;
_chemical_formula_sum "Si O2"
_cell_formula_units_Z 32
_cell_length_a 21.603237
_cell_length_b 6.266227
_cell_length_c 10.347236
_cell_angle_alpha 90.000000
_cell_angle_beta 90.000000
_cell_angle_gamma 90.000000
_cell_volume 1400.713480
_symmetry_space_group_name_H-M "P C A 21"
_symmetry_group_IT_number 29
_symmetry_cell_setting 'orthorhombic'
loop_
_space_group_symop_operation_xyz
x,y,z
-x,-y,1/2+z
1/2-x,y,1/2+z
1/2+x,-y,z
loop_
_atom_site_type_symbol
_atom_site_label
_atom_site_fract_x
_atom_site_fract_y
_atom_site_fract_z
Si Si1 0.220938 0.969303 0.826000
Si Si2 0.887428 0.911943 0.496015
Si Si3 0.272322 0.698432 0.065632
Si Si4 0.001942 0.047414 0.152199
Si Si5 0.910970 0.416123 0.080289
Si Si6 0.197151 0.317186 0.198772
Si Si7 0.952979 0.661778 0.304651
Si Si8 0.430108 0.380494 0.831452
O O1 0.151052 0.004652 0.874598
O O2 0.257677 0.191219 0.797926
O O3 0.225638 0.849876 0.690588
O O4 0.248319 0.822636 0.940032
O O5 0.944111 0.043650 0.557940
O O6 0.836312 0.850295 0.601978
O O7 0.923166 0.702398 0.443547
O O8 0.342983 0.642592 0.037799
O O9 0.233043 0.491962 0.112406
O O10 0.040822 0.175465 0.262022
O O11 0.957851 0.216827 0.078853
O O12 0.960276 0.879943 0.226506
O O13 0.910536 0.500055 0.225836
O O14 0.930372 0.610383 0.986287
O O15 0.138534 0.413654 0.275764
O O16 0.021913 0.568201 0.300409
#
# Coordination Sequence:
#
# PCOD9341258 Si02
#       8
#     4   4   4   4   4   4   4   4
#     4  12  27  48  73 113 144 200 249 301 374 450
#     4  11  24  47  71 102 151 184 243 301 367 436
#     4  12  28  46  78 106 146 197 246 300 377 440
#     4  10  24  44  67 104 137 188 229 298 364 432
#     4  11  24  43  68 105 137 180 244 295 357 443
#     4  11  27  48  71 108 150 193 242 314 362 449
#     4  11  24  43  71 102 139 188 238 298 373 438
#     4  10  24  43  69 100 144 180 237 295 368 434
#
# _framework density 22.845499
#
# number of rings (size 3 to 8) (size 9 to 14) (size 15 to 20)
#    0.000    1.000    2.500    2.250    8.750    4.000 
#    0.000    0.000    0.000    0.000    0.000    0.000 
#    0.000    0.000    0.000    0.000    0.000    0.000 
#
# Total GULP energy -178778.599133 kJ/mol
# GULP energy per Si atom -5586.831223 kJ/mol
# Density = 2.279350 g / cm^3
# Si number density = 22.845499 Si / 1000 Ang^3
#
#
#
# Elastic Constant Matrix: (Units=GPa)
#
#
# Indices 1 2 3 4 5 6 
#
# 1 120.7662 35.1706 25.4291 0.0000 0.0000 0.0000
# 2 35.1706 41.8926 16.5182 0.0000 0.0000 0.0000
# 3 25.4291 16.5182 86.0433 0.0000 0.0000 0.0000
# 4 0.0000 0.0000 0.0000 24.7615 0.0000 0.0000
# 5 0.0000 0.0000 0.0000 0.0000 37.1161 0.0000
# 6 0.0000 0.0000 0.0000 0.0000 0.0000 22.5758
#
#
#
# Elastic Compliance Matrix: (Units=1/GPa)
#
#
# Indices 1 2 3 4 5 6 
#
# 1 0.011166 -0.008734 -0.001623 0.000000 0.000000 0.000000
# 2 -0.008734 0.032658 -0.003688 0.000000 0.000000 0.000000
# 3 -0.001623 -0.003688 0.012810 0.000000 0.000000 0.000000
# 4 0.000000 0.000000 0.000000 0.040385 0.000000 0.000000
# 5 0.000000 0.000000 0.000000 0.000000 0.026942 0.000000
# 6 0.000000 0.000000 0.000000 0.000000 0.000000 0.044295
#
#
# Mechanical properties :
#
#
# Convention : Reuss Voigt Hill
#
# Bulk Modulus (GPa) = 35.03594 44.77088 39.90341
# Shear Modulus (GPa) = 24.28819 28.32963 26.30891
#
# Velocity S-wave (km/s) = 3.26414 3.52526 3.39721
# Velocity P-wave (km/s) = 5.43833 6.01745 5.73521
#
# Compressibility (1/GPa) = 0.02854212
#
# Stress axis : x y z
#
# Youngs Moduli (GPa) = 89.55825 30.62081 78.06521
#
# Poissons Ratio (x) = 0.26745 0.12672
# Poissons Ratio (y) = 0.78222 0.28791
# Poissons Ratio (z) = 0.14537 0.11293
#
# Static dielectric constant tensor:
#      x y z
#    x 1.849740 0.000000 0.000000 
#    y 0.000000 1.927100 0.000000 
#    z 0.000000 0.000000 1.878070 
# 
# From -- ./inp_files/3855.got.cif
#   From: 2010.05.17/outbox.cif.g08.bks.cpg/sg29_2_cif.got.tgz:3855.got - 2010.06.04 01:19:37.
