data_PCOD9341527
_publ_section_title
;
Structure prediction by ZEFSAII (Michael W. Deem and Ramdas Pophale) SiO2 
 PCOD9341527
Probable space group: P C A 21
;
_chemical_formula_sum "Si O2"
_cell_formula_units_Z 20
_cell_length_a 8.078626
_cell_length_b 4.474307
_cell_length_c 18.927590
_cell_angle_alpha 90.000000
_cell_angle_beta 90.000000
_cell_angle_gamma 90.000000
_cell_volume 684.161454
_symmetry_space_group_name_H-M "P C A 21"
_symmetry_group_IT_number 29
_symmetry_cell_setting 'orthorhombic'
loop_
_space_group_symop_operation_xyz
x,y,z
-x,-y,1/2+z
1/2-x,y,1/2+z
1/2+x,-y,z
loop_
_atom_site_type_symbol
_atom_site_label
_atom_site_fract_x
_atom_site_fract_y
_atom_site_fract_z
Si Si1 0.487932 0.187792 0.973860
Si Si2 0.231144 0.285665 0.678331
Si Si3 0.552561 0.276610 0.275664
Si Si4 0.739417 0.215192 0.573739
Si Si5 0.224684 0.175540 0.870224
O O1 0.352344 0.339201 0.922826
O O2 0.609545 0.018873 0.920756
O O3 0.386563 0.953285 0.022136
O O4 0.611956 0.351516 0.026990
O O5 0.348224 0.469526 0.732884
O O6 0.075924 0.139747 0.718994
O O7 0.165938 0.530808 0.623169
O O8 0.306797 0.032024 0.628770
O O9 0.670904 0.045442 0.317583
O O10 0.409410 0.381979 0.330456
#
# Coordination Sequence:
#
# PCOD9341527 Si02
#       5
#     4   4   4   4   4
#     4   9  20  43  72 104 145 190 248 302 364 433
#     4  12  26  44  74 108 150 192 240 304 370 440
#     4  11  24  43  72 110 149 192 244 298 368 439
#     4  11  23  44  72 106 145 193 244 304 368 437
#     4   9  21  46  74 106 147 197 244 304 366 437
#
# _framework density 29.232865
#
# number of rings (size 3 to 8) (size 9 to 14) (size 15 to 20)
#    0.000    1.600    0.000    3.600    0.000    6.400 
#    0.000   30.000    0.000    0.000    0.000    0.000 
#    0.000    0.000    0.000    0.000    0.000    0.000 
#
# Total GULP energy -112022.778569 kJ/mol
# GULP energy per Si atom -5601.138928 kJ/mol
# Density = 2.916633 g / cm^3
# Si number density = 29.232865 Si / 1000 Ang^3
#
#
#
# Elastic Constant Matrix: (Units=GPa)
#
#
# Indices 1 2 3 4 5 6 
#
# 1 177.1067 37.8508 123.1205 0.0000 0.0000 0.0000
# 2 37.8508 78.2959 67.4514 0.0000 0.0000 0.0000
# 3 123.1205 67.4514 185.4255 0.0000 0.0000 0.0000
# 4 0.0000 0.0000 0.0000 47.9774 0.0000 0.0000
# 5 0.0000 0.0000 0.0000 0.0000 123.3279 0.0000
# 6 0.0000 0.0000 0.0000 0.0000 0.0000 -29.0909
#
#
#
# Elastic Compliance Matrix: (Units=1/GPa)
#
#
# Indices 1 2 3 4 5 6 
#
# 1 0.010586 0.001366 -0.007526 0.000000 0.000000 0.000000
# 2 0.001366 0.018778 -0.007738 0.000000 0.000000 0.000000
# 3 -0.007526 -0.007738 0.013205 0.000000 0.000000 0.000000
# 4 0.000000 0.000000 0.000000 0.020843 0.000000 0.000000
# 5 0.000000 0.000000 0.000000 0.000000 0.008108 0.000000
# 6 0.000000 0.000000 0.000000 0.000000 0.000000 -0.034375
#
#
# Mechanical properties :
#
#
# Convention : Reuss Voigt Hill
#
# Bulk Modulus (GPa) = 67.68963 99.74154 83.71559
# Shear Modulus (GPa) = 71.56597 42.60323 57.08460
#
# Velocity S-wave (km/s) = 4.95323 3.82170 4.42379
# Velocity P-wave (km/s) = 7.47785 7.32582 7.40222
#
# Compressibility (1/GPa) = 0.01477331
#
# Stress axis : x y z
#
# Youngs Moduli (GPa) = 94.46109 53.25487 75.72937
#
# Poissons Ratio (x) = -0.07274 0.56995
# Poissons Ratio (y) = -0.12902 0.58596
# Poissons Ratio (z) = 0.71092 0.41206
#
# Static dielectric constant tensor:
#      x y z
#    x 2.201300 0.000000 0.000000 
#    y 0.000000 2.160570 0.000000 
#    z 0.000000 0.000000 2.328330 
# 
# From -- ./inp_files/4931.got.cif
#   From: 2010.05.17/outbox.cif.g08.bks.cpg/sg29_3_cif.got.tgz:4931.got - 2010.06.04 01:19:37.
