data_PCOD9341277
_publ_section_title
;
Structure prediction by ZEFSAII (Michael W. Deem and Ramdas Pophale) SiO2 
 PCOD9341277
Probable space group: P C A 21
;
_chemical_formula_sum "Si O2"
_cell_formula_units_Z 32
_cell_length_a 8.970656
_cell_length_b 11.592809
_cell_length_c 12.345955
_cell_angle_alpha 90.000000
_cell_angle_beta 90.000000
_cell_angle_gamma 90.000000
_cell_volume 1283.918845
_symmetry_space_group_name_H-M "P C A 21"
_symmetry_group_IT_number 29
_symmetry_cell_setting 'orthorhombic'
loop_
_space_group_symop_operation_xyz
x,y,z
-x,-y,1/2+z
1/2-x,y,1/2+z
1/2+x,-y,z
loop_
_atom_site_type_symbol
_atom_site_label
_atom_site_fract_x
_atom_site_fract_y
_atom_site_fract_z
Si Si1 0.773203 0.513997 0.650880
Si Si2 0.045949 0.784221 0.061519
Si Si3 0.885321 0.917760 0.250028
Si Si4 0.142942 0.886325 0.579781
Si Si5 0.392252 0.049341 0.892770
Si Si6 0.384528 0.403351 0.961552
Si Si7 0.491846 0.574856 0.796477
Si Si8 0.584444 0.699987 0.009241
O O1 0.688378 0.496727 0.536359
O O2 0.646848 0.565560 0.731856
O O3 0.853293 0.412579 0.715984
O O4 0.895607 0.609151 0.609340
O O5 0.215912 0.805313 0.089136
O O6 0.942058 0.823602 0.163077
O O7 0.998282 0.861717 0.956773
O O8 0.017197 0.654991 0.024929
O O9 0.875461 0.038464 0.186234
O O10 0.012889 0.948285 0.335483
O O11 0.727756 0.898242 0.309166
O O12 0.994369 0.814496 0.551542
O O13 0.187643 0.980429 0.489227
O O14 0.447496 0.452509 0.851818
O O15 0.255728 0.305591 0.966004
O O16 0.502513 0.658284 0.899470
#
# Coordination Sequence:
#
# PCOD9341277 Si02
#       8
#     4   4   4   4   4   4   4   4
#     4  10  24  44  69 102 127 186 225 290 354 414
#     4  11  25  43  71 101 140 184 230 290 354 409
#     4  11  24  43  68 100 143 185 235 283 345 416
#     4  11  25  45  65 107 139 181 232 292 343 422
#     4  11  24  44  70 100 139 189 232 284 344 421
#     4  10  26  43  66 106 135 180 230 293 350 417
#     4  12  22  49  71  95 141 181 238 280 363 420
#     4  10  26  45  68 103 144 172 234 296 353 417
#
# _framework density 24.923694000000001
#
# number of rings (size 3 to 8) (size 9 to 14) (size 15 to 20)
#    0.750    0.500    3.750    0.750    5.250    3.000 
#    2.250    0.000    0.000    0.000    0.000    0.000 
#    0.000    0.000    0.000    0.000    0.000    0.000 
#
# Total GULP energy -178740.185977 kJ/mol
# GULP energy per Si atom -5585.630812 kJ/mol
# Density = 2.486697 g / cm^3
# Si number density = 24.923694 Si / 1000 Ang^3
#
#
#
# Elastic Constant Matrix: (Units=GPa)
#
#
# Indices 1 2 3 4 5 6 
#
# 1 70.7639 26.4005 17.7418 0.0000 0.0000 0.0000
# 2 26.4005 39.2632 23.0499 0.0000 0.0000 0.0000
# 3 17.7418 23.0499 114.9455 0.0000 0.0000 0.0000
# 4 0.0000 0.0000 0.0000 46.0022 0.0000 0.0000
# 5 0.0000 0.0000 0.0000 0.0000 38.2089 0.0000
# 6 0.0000 0.0000 0.0000 0.0000 0.0000 36.9561
#
#
#
# Elastic Compliance Matrix: (Units=1/GPa)
#
#
# Indices 1 2 3 4 5 6 
#
# 1 0.018881 -0.012451 -0.000418 0.000000 0.000000 0.000000
# 2 -0.012451 0.037078 -0.005513 0.000000 0.000000 0.000000
# 3 -0.000418 -0.005513 0.009870 0.000000 0.000000 0.000000
# 4 0.000000 0.000000 0.000000 0.021738 0.000000 0.000000
# 5 0.000000 0.000000 0.000000 0.000000 0.026172 0.000000
# 6 0.000000 0.000000 0.000000 0.000000 0.000000 0.027059
#
#
# Mechanical properties :
#
#
# Convention : Reuss Voigt Hill
#
# Bulk Modulus (GPa) = 34.40503 39.92856 37.16679
# Shear Modulus (GPa) = 26.70235 34.75212 30.72724
#
# Velocity S-wave (km/s) = 3.27672 3.73814 3.51501
# Velocity P-wave (km/s) = 5.30565 5.88954 5.60520
#
# Compressibility (1/GPa) = 0.02906552
#
# Stress axis : x y z
#
# Youngs Moduli (GPa) = 52.96257 26.97048 101.31888
#
# Poissons Ratio (x) = 0.33580 0.04231
# Poissons Ratio (y) = 0.65941 0.55861
# Poissons Ratio (z) = 0.02212 0.14870
#
# Static dielectric constant tensor:
#      x y z
#    x 1.999590 0.000000 0.000000 
#    y 0.000000 2.006640 0.000000 
#    z 0.000000 0.000000 2.020950 
# 
# From -- ./inp_files/2938.got.cif
#   From: 2010.05.17/outbox.cif.g08.bks.cpg/sg29_2_cif.got.tgz:2938.got - 2010.06.04 01:19:37.
