data_PCOD9341298
_publ_section_title
;
Structure prediction by ZEFSAII (Michael W. Deem and Ramdas Pophale) SiO2 
 PCOD9341298
Probable space group: P C A 21
;
_chemical_formula_sum "Si O2"
_cell_formula_units_Z 20
_cell_length_a 18.342076
_cell_length_b 5.214519
_cell_length_c 8.663542
_cell_angle_alpha 90.000000
_cell_angle_beta 90.000000
_cell_angle_gamma 90.000000
_cell_volume 828.625374
_symmetry_space_group_name_H-M "P C A 21"
_symmetry_group_IT_number 29
_symmetry_cell_setting 'orthorhombic'
loop_
_space_group_symop_operation_xyz
x,y,z
-x,-y,1/2+z
1/2-x,y,1/2+z
1/2+x,-y,z
loop_
_atom_site_type_symbol
_atom_site_label
_atom_site_fract_x
_atom_site_fract_y
_atom_site_fract_z
Si Si1 0.222082 0.273634 0.772660
Si Si2 0.594128 0.230740 0.309758
Si Si3 0.151234 0.775144 0.635056
Si Si4 0.350007 0.126157 0.590546
Si Si5 0.015818 0.264891 0.230722
O O1 0.193967 0.550444 0.722045
O O2 0.307586 0.250375 0.736073
O O3 0.185297 0.050639 0.669360
O O4 0.196439 0.194097 0.942556
O O5 0.648042 0.269573 0.451907
O O6 0.538401 0.463097 0.297846
O O7 0.636455 0.165998 0.148526
O O8 0.547208 0.969119 0.332939
O O9 0.068069 0.765995 0.694342
O O10 0.431460 0.236697 0.580779
#
# Coordination Sequence:
#
# PCOD9341298 Si02
#       5
#     4   4   4   4   4
#     4  12  28  45  72 104 142 188 235 297 352 432
#     4  10  24  45  72  97 144 181 233 286 353 416
#     4  12  27  44  74 106 142 183 240 292 363 416
#     4  10  28  46  72  99 144 185 239 284 360 418
#     4  10  25  42  74 100 142 179 233 291 348 422
#
# _framework density 24.136361000000001
#
# number of rings (size 3 to 8) (size 9 to 14) (size 15 to 20)
#    1.200    0.000    0.000    3.600   14.000    0.000 
#    0.000    0.000    0.000    0.000    0.000    0.000 
#    0.000    0.000    0.000    0.000    0.000    0.000 
#
# Total GULP energy -111834.035687 kJ/mol
# GULP energy per Si atom -5591.701784 kJ/mol
# Density = 2.408143 g / cm^3
# Si number density = 24.136361 Si / 1000 Ang^3
#
#
#
# Elastic Constant Matrix: (Units=GPa)
#
#
# Indices 1 2 3 4 5 6 
#
# 1 121.0159 20.3819 -0.4264 0.0000 0.0000 0.0000
# 2 20.3819 81.9377 18.9141 0.0000 0.0000 0.0000
# 3 -0.4264 18.9141 76.5402 0.0000 0.0000 0.0000
# 4 0.0000 0.0000 0.0000 27.9946 0.0000 0.0000
# 5 0.0000 0.0000 0.0000 0.0000 37.4348 0.0000
# 6 0.0000 0.0000 0.0000 0.0000 0.0000 36.5954
#
#
#
# Elastic Compliance Matrix: (Units=1/GPa)
#
#
# Indices 1 2 3 4 5 6 
#
# 1 0.008652 -0.002294 0.000615 0.000000 0.000000 0.000000
# 2 -0.002294 0.013551 -0.003361 0.000000 0.000000 0.000000
# 3 0.000615 -0.003361 0.013899 0.000000 0.000000 0.000000
# 4 0.000000 0.000000 0.000000 0.035721 0.000000 0.000000
# 5 0.000000 0.000000 0.000000 0.000000 0.026713 0.000000
# 6 0.000000 0.000000 0.000000 0.000000 0.000000 0.027326
#
#
# Mechanical properties :
#
#
# Convention : Reuss Voigt Hill
#
# Bulk Modulus (GPa) = 38.43030 39.69257 39.06143
# Shear Modulus (GPa) = 34.57416 36.44659 35.51038
#
# Velocity S-wave (km/s) = 3.78888 3.89012 3.83984
# Velocity P-wave (km/s) = 5.92432 6.05461 5.98982
#
# Compressibility (1/GPa) = 0.02602113
#
# Stress axis : x y z
#
# Youngs Moduli (GPa) = 115.58118 73.79538 71.94708
#
# Poissons Ratio (x) = 0.16930 -0.04426
# Poissons Ratio (y) = 0.26516 0.24184
# Poissons Ratio (z) = -0.07110 0.24806
#
# Static dielectric constant tensor:
#      x y z
#    x 1.903230 0.000000 0.000000 
#    y 0.000000 1.929140 0.000000 
#    z 0.000000 0.000000 1.974800 
# 
# From -- ./inp_files/1941.got.cif
#   From: 2010.05.17/outbox.cif.g08.bks.cpg/sg29_1_cif.got.tgz:1941.got - 2010.06.04 01:19:37.
