data_PCOD9341544
_publ_section_title
;
Structure prediction by ZEFSAII (Michael W. Deem and Ramdas Pophale) SiO2 
 PCOD9341544
Probable space group: P C A 21
;
_chemical_formula_sum "Si O2"
_cell_formula_units_Z 20
_cell_length_a 10.528809
_cell_length_b 7.243302
_cell_length_c 9.669031
_cell_angle_alpha 90.000000
_cell_angle_beta 90.000000
_cell_angle_gamma 90.000000
_cell_volume 737.392630
_symmetry_space_group_name_H-M "P C A 21"
_symmetry_group_IT_number 29
_symmetry_cell_setting 'orthorhombic'
loop_
_space_group_symop_operation_xyz
x,y,z
-x,-y,1/2+z
1/2-x,y,1/2+z
1/2+x,-y,z
loop_
_atom_site_type_symbol
_atom_site_label
_atom_site_fract_x
_atom_site_fract_y
_atom_site_fract_z
Si Si1 0.206151 0.280599 0.577460
Si Si2 0.992429 0.221651 0.809273
Si Si3 0.596948 0.346578 0.583643
Si Si4 0.310384 0.893919 0.597596
Si Si5 0.999509 0.209296 0.363149
O O1 0.210202 0.503084 0.575442
O O2 0.102347 0.266116 0.700419
O O3 0.136508 0.241159 0.431481
O O4 0.311636 0.119477 0.598426
O O5 0.853671 0.206682 0.738307
O O6 0.989326 0.348510 0.945888
O O7 0.013894 0.005164 0.829155
O O8 0.664134 0.148458 0.571828
O O9 0.526954 0.337898 0.730884
O O10 0.395210 0.790117 0.484509
#
# Coordination Sequence:
#
# PCOD9341544 Si02
#       5
#     4   4   4   4   4
#     4  11  25  45  72 102 137 184 220 281 346 401
#     4  11  23  47  71  95 143 181 221 281 341 404
#     4  12  23  44  69 107 135 175 234 279 331 410
#     4  11  24  47  67  99 138 181 224 280 337 399
#     4  11  23  47  71  95 143 181 221 281 341 404
#
# _framework density 27.122592999999998
#
# number of rings (size 3 to 8) (size 9 to 14) (size 15 to 20)
#    0.000    0.800    4.000    3.600    0.000    0.000 
#   28.800    0.000    0.000    0.000    0.000    0.000 
#    0.000    0.000    0.000    0.000    0.000    0.000 
#
# Total GULP energy -111704.978584 kJ/mol
# GULP energy per Si atom -5585.248929 kJ/mol
# Density = 2.706086 g / cm^3
# Si number density = 27.122593 Si / 1000 Ang^3
#
#
#
# Elastic Constant Matrix: (Units=GPa)
#
#
# Indices 1 2 3 4 5 6 
#
# 1 42.8205 9.7082 29.7628 0.0000 0.0000 0.0000
# 2 9.7082 119.3854 41.0994 0.0000 0.0000 0.0000
# 3 29.7628 41.0994 153.9774 0.0000 0.0000 0.0000
# 4 0.0000 0.0000 0.0000 44.6053 0.0000 0.0000
# 5 0.0000 0.0000 0.0000 0.0000 40.6388 0.0000
# 6 0.0000 0.0000 0.0000 0.0000 0.0000 59.2384
#
#
#
# Elastic Compliance Matrix: (Units=1/GPa)
#
#
# Indices 1 2 3 4 5 6 
#
# 1 0.026999 -0.000439 -0.005101 0.000000 0.000000 0.000000
# 2 -0.000439 0.009231 -0.002379 0.000000 0.000000 0.000000
# 3 -0.005101 -0.002379 0.008116 0.000000 0.000000 0.000000
# 4 0.000000 0.000000 0.000000 0.022419 0.000000 0.000000
# 5 0.000000 0.000000 0.000000 0.000000 0.024607 0.000000
# 6 0.000000 0.000000 0.000000 0.000000 0.000000 0.016881
#
#
# Mechanical properties :
#
#
# Convention : Reuss Voigt Hill
#
# Bulk Modulus (GPa) = 35.08064 53.03601 44.05833
# Shear Modulus (GPa) = 37.42704 44.60402 41.01553
#
# Velocity S-wave (km/s) = 3.71876 4.05968 3.89296
# Velocity P-wave (km/s) = 5.60367 6.44759 6.04038
#
# Compressibility (1/GPa) = 0.02850575
#
# Stress axis : x y z
#
# Youngs Moduli (GPa) = 37.03889 108.33130 123.22055
#
# Poissons Ratio (x) = 0.04759 0.62860
# Poissons Ratio (y) = 0.01627 0.29314
# Poissons Ratio (z) = 0.18895 0.25772
#
# Static dielectric constant tensor:
#      x y z
#    x 2.138770 0.000000 0.000000 
#    y 0.000000 2.070610 0.000000 
#    z 0.000000 0.000000 2.279180 
# 
# From -- ./inp_files/1334.got.cif
#   From: 2010.05.17/outbox.cif.g08.bks.cpg/sg29_1_cif.got.tgz:1334.got - 2010.06.04 01:19:37.
