data_PCOD9341824
_publ_section_title
;
Structure prediction by ZEFSAII (Michael W. Deem and Ramdas Pophale) SiO2 
 PCOD9341824
Probable space group: P N C 2
;
_chemical_formula_sum "Si O2"
_cell_formula_units_Z 30
_cell_length_a 12.096429
_cell_length_b 7.211142
_cell_length_c 14.429321
_cell_angle_alpha 90.000000
_cell_angle_beta 90.000000
_cell_angle_gamma 90.000000
_cell_volume 1258.656211
_symmetry_space_group_name_H-M "P N C 2"
_symmetry_group_IT_number 30
_symmetry_cell_setting 'orthorhombic'
loop_
_space_group_symop_operation_xyz
x,y,z
-x,-y,z
-x,1/2+y,1/2+z
x,1/2-y,1/2+z
loop_
_atom_site_type_symbol
_atom_site_label
_atom_site_fract_x
_atom_site_fract_y
_atom_site_fract_z
Si Si1 0.708953 0.210368 0.892190
Si Si2 0.099715 0.296549 0.479100
Si Si3 0.769115 0.107144 0.710239
Si Si4 0.424725 0.327552 0.231797
Si Si5 0.000000 0.500000 0.307624
Si Si6 0.677675 0.781280 0.912415
Si Si7 0.484052 0.720316 0.041306
Si Si8 0.125404 0.720915 0.535223
O O1 0.710330 0.249514 0.783190
O O2 0.716322 0.986518 0.884438
O O3 0.614769 0.248189 0.967927
O O4 0.820156 0.281006 0.938770
O O5 0.213355 0.192746 0.456930
O O6 0.125041 0.495411 0.528523
O O7 0.043526 0.343576 0.379820
O O8 0.001181 0.213835 0.540044
O O9 0.796028 0.209960 0.615571
O O10 0.685883 0.932858 0.693002
O O11 0.891014 0.053677 0.749636
O O12 0.500000 0.500000 0.269459
O O13 0.382896 0.207797 0.319811
O O14 0.497439 0.234795 0.150359
O O15 0.588563 0.808165 0.991232
O O16 0.500000 0.500000 0.041671
#
# Coordination Sequence:
#
# PCOD9341824 Si02
#       8
#     4   4   4   4   2   4   4   4
#     4  10  19  37  59  81 110 158 204 235 278 362
#     4   9  17  36  55  82 117 144 198 249 277 342
#     4  11  19  33  63  83 111 158 205 234 292 360
#     4  10  20  35  54  84 110 147 200 240 277 352
#     4  10  16  34  56  84 108 148 200 240 276 348
#     4  10  19  38  63  78 107 160 202 229 286 360
#     4  11  23  36  54  83 122 146 184 255 304 330
#     4   9  17  31  56  84 110 142 187 251 290 328
#
# _framework density 23.834941000000001
#
# number of rings (size 3 to 8) (size 9 to 14) (size 15 to 20)
#    0.000    2.133    5.333    3.600    0.000    1.067 
#    0.000    4.000    2.933    1.600    0.000    0.000 
#    0.000    0.000    0.000    0.000    0.000    0.000 
#
# Total GULP energy -167102.535312 kJ/mol
# GULP energy per Si atom -5570.084510 kJ/mol
# Density = 2.378069 g / cm^3
# Si number density = 23.834941 Si / 1000 Ang^3
#
#
#
# Elastic Constant Matrix: (Units=GPa)
#
#
# Indices 1 2 3 4 5 6 
#
# 1 145.0478 -16.8047 43.4754 0.0000 0.0000 0.0000
# 2 -16.8047 42.3628 -5.6259 0.0000 0.0000 0.0000
# 3 43.4754 -5.6259 142.3409 0.0000 0.0000 0.0000
# 4 0.0000 0.0000 0.0000 -22.4334 0.0000 0.0000
# 5 0.0000 0.0000 0.0000 0.0000 58.2388 0.0000
# 6 0.0000 0.0000 0.0000 0.0000 0.0000 5.2979
#
#
#
# Elastic Compliance Matrix: (Units=1/GPa)
#
#
# Indices 1 2 3 4 5 6 
#
# 1 0.007913 0.002833 -0.002305 0.000000 0.000000 0.000000
# 2 0.002833 0.024744 0.000113 0.000000 0.000000 0.000000
# 3 -0.002305 0.000113 0.007734 0.000000 0.000000 0.000000
# 4 0.000000 0.000000 0.000000 -0.044576 0.000000 0.000000
# 5 0.000000 0.000000 0.000000 0.000000 0.017171 0.000000
# 6 0.000000 0.000000 0.000000 0.000000 0.000000 0.188755
#
#
# Mechanical properties :
#
#
# Convention : Reuss Voigt Hill
#
# Bulk Modulus (GPa) = 23.99629 41.31566 32.65598
# Shear Modulus (GPa) = 23.32629 28.80111 26.06370
#
# Velocity S-wave (km/s) = 3.13175 3.47991 3.31041
# Velocity P-wave (km/s) = 4.81318 5.78948 5.32376
#
# Compressibility (1/GPa) = 0.04167310
#
# Stress axis : x y z
#
# Youngs Moduli (GPa) = 126.36807 40.41314 129.30135
#
# Poissons Ratio (x) = -0.11449 0.29804
# Poissons Ratio (y) = -0.35800 -0.01457
# Poissons Ratio (z) = 0.29128 -0.00456
#
# Static dielectric constant tensor:
#      x y z
#    x 2.007540 0.000000 0.000000 
#    y 0.000000 2.117900 0.000000 
#    z 0.000000 0.000000 1.980810 
# 
# From -- ./inp_files/5494.got.cif
#   From: 2010.05.17/outbox.cif.g08.bks.cpg/sg30_3_cif.got.tgz:5494.got - 2010.06.03 17:03:02.
