data_PCOD9341819
_publ_section_title
;
Structure prediction by ZEFSAII (Michael W. Deem and Ramdas Pophale) SiO2 
 PCOD9341819
Probable space group: P N C 2
;
_chemical_formula_sum "Si O2"
_cell_formula_units_Z 24
_cell_length_a 5.666719
_cell_length_b 7.621320
_cell_length_c 27.027796
_cell_angle_alpha 90.000000
_cell_angle_beta 90.000000
_cell_angle_gamma 90.000000
_cell_volume 1167.273179
_symmetry_space_group_name_H-M "P N C 2"
_symmetry_group_IT_number 30
_symmetry_cell_setting 'orthorhombic'
loop_
_space_group_symop_operation_xyz
x,y,z
-x,-y,z
-x,1/2+y,1/2+z
x,1/2-y,1/2+z
loop_
_atom_site_type_symbol
_atom_site_label
_atom_site_fract_x
_atom_site_fract_y
_atom_site_fract_z
Si Si1 0.314375 0.154128 0.237040
Si Si2 0.815581 0.157954 0.601049
Si Si3 0.743859 0.396073 0.989881
Si Si4 0.500000 0.500000 0.187587
Si Si5 0.263442 0.716030 0.885139
Si Si6 0.227658 0.309912 0.847887
Si Si7 0.000000 0.000000 0.150333
O O1 0.400237 0.347094 0.222089
O O2 0.185183 0.171810 0.289215
O O3 0.500000 0.000000 0.247603
O O4 0.183791 0.085134 0.188350
O O5 0.710889 0.170816 0.546042
O O6 0.665473 0.101312 0.648687
O O7 0.914680 0.344887 0.615744
O O8 0.000000 0.000000 0.596975
O O9 0.500000 0.500000 0.980356
O O10 0.000000 0.500000 0.987083
O O11 0.741115 0.261935 0.944270
O O12 0.245945 0.505531 0.872066
O O13 0.513724 0.771761 0.860655
O O14 0.009091 0.783594 0.866921
#
# Coordination Sequence:
#
# PCOD9341819 Si02
#       7
#     4   4   4   2   4   4   2
#     4  12  24  38  64  91 127 171 214 272 328 387
#     4  11  24  40  62  93 128 166 219 272 327 389
#     4  11  19  33  60  91 122 164 213 267 325 386
#     4  12  24  42  60  94 130 166 224 270 324 398
#     4  10  16  32  55  92 117 156 217 260 309 399
#     4  10  19  31  55  89 121 157 215 256 316 385
#     4  12  24  42  64  90 130 172 220 272 328 392
#
# _framework density 20.560737
#
# number of rings (size 3 to 8) (size 9 to 14) (size 15 to 20)
#    0.000    1.000    9.167    1.000    0.000    0.000 
#    0.000    0.000    0.000    2.000    0.000    0.000 
#    0.000    0.000    0.000    0.000    0.000    0.000 
#
# Total GULP energy -133647.777610 kJ/mol
# GULP energy per Si atom -5568.657400 kJ/mol
# Density = 2.051394 g / cm^3
# Si number density = 20.560737 Si / 1000 Ang^3
#
#
#
# Elastic Constant Matrix: (Units=GPa)
#
#
# Indices 1 2 3 4 5 6 
#
# 1 123.4623 18.3850 19.9482 0.0000 0.0000 0.0000
# 2 18.3850 99.9860 24.3506 0.0000 0.0000 0.0000
# 3 19.9482 24.3506 130.3846 0.0000 0.0000 0.0000
# 4 0.0000 0.0000 0.0000 72.2184 0.0000 0.0000
# 5 0.0000 0.0000 0.0000 0.0000 51.6525 0.0000
# 6 0.0000 0.0000 0.0000 0.0000 0.0000 13.1943
#
#
#
# Elastic Compliance Matrix: (Units=1/GPa)
#
#
# Indices 1 2 3 4 5 6 
#
# 1 0.008463 -0.001300 -0.001052 0.000000 0.000000 0.000000
# 2 -0.001300 0.010678 -0.001795 0.000000 0.000000 0.000000
# 3 -0.001052 -0.001795 0.008166 0.000000 0.000000 0.000000
# 4 0.000000 0.000000 0.000000 0.013847 0.000000 0.000000
# 5 0.000000 0.000000 0.000000 0.000000 0.019360 0.000000
# 6 0.000000 0.000000 0.000000 0.000000 0.000000 0.075790
#
#
# Mechanical properties :
#
#
# Convention : Reuss Voigt Hill
#
# Bulk Modulus (GPa) = 52.59792 53.24450 52.92121
# Shear Modulus (GPa) = 33.12661 46.82297 39.97479
#
# Velocity S-wave (km/s) = 4.01828 4.77728 4.41413
# Velocity P-wave (km/s) = 6.86775 7.50882 7.19543
#
# Compressibility (1/GPa) = 0.01901216
#
# Stress axis : x y z
#
# Youngs Moduli (GPa) = 118.15859 93.65354 122.46106
#
# Poissons Ratio (x) = 0.12175 0.12884
# Poissons Ratio (y) = 0.15360 0.21985
# Poissons Ratio (z) = 0.12431 0.16813
#
# Static dielectric constant tensor:
#      x y z
#    x 1.839270 0.000000 0.000000 
#    y 0.000000 1.607360 0.000000 
#    z 0.000000 0.000000 1.720920 
# 
# From -- ./inp_files/7200.got.cif
#   From: 2010.05.17/outbox.cif.g08.bks.cpg/sg30_4_cif.got.tgz:7200.got - 2010.06.03 17:03:02.
