data_PCOD9341484
_publ_section_title
;
Structure prediction by ZEFSAII (Michael W. Deem and Ramdas Pophale) SiO2 
 PCOD9341484
Probable space group: P C A 21
;
_chemical_formula_sum "Si O2"
_cell_formula_units_Z 16
_cell_length_a 13.388902
_cell_length_b 5.114903
_cell_length_c 9.208136
_cell_angle_alpha 90.000000
_cell_angle_beta 90.000000
_cell_angle_gamma 90.000000
_cell_volume 630.600179
_symmetry_space_group_name_H-M "P C A 21"
_symmetry_group_IT_number 29
_symmetry_cell_setting 'orthorhombic'
loop_
_space_group_symop_operation_xyz
x,y,z
-x,-y,1/2+z
1/2-x,y,1/2+z
1/2+x,-y,z
loop_
_atom_site_type_symbol
_atom_site_label
_atom_site_fract_x
_atom_site_fract_y
_atom_site_fract_z
Si Si1 0.145367 0.295288 0.860530
Si Si2 0.736008 0.021235 0.608038
Si Si3 0.023357 0.835833 0.533623
Si Si4 0.091419 0.652326 0.090269
O O1 0.195287 0.205091 0.713849
O O2 0.141100 0.582776 0.930771
O O3 0.027849 0.217222 0.877252
O O4 0.205809 0.127591 0.980676
O O5 0.640317 0.182090 0.553469
O O6 0.817545 0.218659 0.677110
O O7 0.963257 0.619566 0.629702
O O8 0.991096 0.128857 0.567522
#
# Coordination Sequence:
#
# PCOD9341484 Si02
#       4
#     4   4   4   4
#     4   9  24  41  68 106 137 186 244 289 369 434
#     4  11  22  46  72 101 148 192 233 314 357 439
#     4   9  22  42  66  99 138 184 239 289 357 435
#     4   9  22  45  62 110 133 184 244 286 365 430
#
# _framework density 25.372655000000002
#
# number of rings (size 3 to 8) (size 9 to 14) (size 15 to 20)
#    1.500    1.000    0.000    0.000    3.500    8.000 
#    0.000    0.000    0.000    0.000    0.000    0.000 
#    0.000    0.000    0.000    0.000    0.000    0.000 
#
# Total GULP energy -89225.840031 kJ/mol
# GULP energy per Si atom -5576.615002 kJ/mol
# Density = 2.531491 g / cm^3
# Si number density = 25.372655 Si / 1000 Ang^3
#
#
#
# Elastic Constant Matrix: (Units=GPa)
#
#
# Indices 1 2 3 4 5 6 
#
# 1 141.1360 32.3455 -5.9663 0.0000 0.0000 0.0000
# 2 32.3455 144.7755 7.3892 0.0000 0.0000 0.0000
# 3 -5.9663 7.3892 57.9912 0.0000 0.0000 0.0000
# 4 0.0000 0.0000 0.0000 22.8514 0.0000 0.0000
# 5 0.0000 0.0000 0.0000 0.0000 22.4538 0.0000
# 6 0.0000 0.0000 0.0000 0.0000 0.0000 28.9553
#
#
#
# Elastic Compliance Matrix: (Units=1/GPa)
#
#
# Indices 1 2 3 4 5 6 
#
# 1 0.007524 -0.001732 0.000995 0.000000 0.000000 0.000000
# 2 -0.001732 0.007351 -0.001115 0.000000 0.000000 0.000000
# 3 0.000995 -0.001115 0.017488 0.000000 0.000000 0.000000
# 4 0.000000 0.000000 0.000000 0.043761 0.000000 0.000000
# 5 0.000000 0.000000 0.000000 0.000000 0.044536 0.000000
# 6 0.000000 0.000000 0.000000 0.000000 0.000000 0.034536
#
#
# Mechanical properties :
#
#
# Convention : Reuss Voigt Hill
#
# Bulk Modulus (GPa) = 34.89185 45.71551 40.30368
# Shear Modulus (GPa) = 29.68170 35.52770 32.60470
#
# Velocity S-wave (km/s) = 3.42399 3.74603 3.58862
# Velocity P-wave (km/s) = 5.42339 6.06359 5.75240
#
# Compressibility (1/GPa) = 0.02865999
#
# Stress axis : x y z
#
# Youngs Moduli (GPa) = 132.90234 136.03456 57.18081
#
# Poissons Ratio (x) = 0.23559 -0.05688
# Poissons Ratio (y) = 0.23017 0.06375
# Poissons Ratio (z) = -0.13221 0.15166
#
# Static dielectric constant tensor:
#      x y z
#    x 2.003800 0.000000 0.000000 
#    y 0.000000 1.989180 0.000000 
#    z 0.000000 0.000000 2.079180 
# 
# From -- ./inp_files/3004.got.cif
#   From: 2010.05.17/outbox.cif.g08.bks.cpg/sg29_2_cif.got.tgz:3004.got - 2010.06.04 01:19:37.
