data_PCOD9341369
_publ_section_title
;
Structure prediction by ZEFSAII (Michael W. Deem and Ramdas Pophale) SiO2 
 PCOD9341369
Probable space group: P C A 21
;
_chemical_formula_sum "Si O2"
_cell_formula_units_Z 24
_cell_length_a 9.743123
_cell_length_b 5.226721
_cell_length_c 18.548539
_cell_angle_alpha 90.000000
_cell_angle_beta 90.000000
_cell_angle_gamma 90.000000
_cell_volume 944.576662
_symmetry_space_group_name_H-M "P C A 21"
_symmetry_group_IT_number 29
_symmetry_cell_setting 'orthorhombic'
loop_
_space_group_symop_operation_xyz
x,y,z
-x,-y,1/2+z
1/2-x,y,1/2+z
1/2+x,-y,z
loop_
_atom_site_type_symbol
_atom_site_label
_atom_site_fract_x
_atom_site_fract_y
_atom_site_fract_z
Si Si1 0.811164 0.141607 0.364790
Si Si2 0.946102 0.001087 0.943538
Si Si3 0.620152 0.975352 0.721565
Si Si4 0.472430 0.479472 0.690178
Si Si5 0.286761 0.377048 0.110119
Si Si6 0.403112 0.506886 0.477559
O O1 0.776178 0.072529 0.283308
O O2 0.488487 0.772172 0.490410
O O3 0.965282 0.036157 0.371251
O O4 0.711399 0.001328 0.421569
O O5 0.672181 0.423295 0.900374
O O6 0.991045 0.276593 0.970516
O O7 0.542125 0.705242 0.735939
O O8 0.690906 0.908643 0.643514
O O9 0.509341 0.199474 0.716509
O O10 0.564134 0.500259 0.617422
O O11 0.314695 0.502635 0.670118
O O12 0.209665 0.427745 0.036192
#
# Coordination Sequence:
#
# PCOD9341369 Si02
#       6
#     4   4   4   4   4   4
#     4  10  26  46  70 103 142 189 238 299 360 438
#     4  10  26  40  73  98 139 185 233 296 355 439
#     4  10  26  42  72 100 143 181 247 287 370 420
#     4  10  26  41  71 102 139 189 228 309 345 445
#     4  10  26  45  72 103 144 183 243 293 368 427
#     4  10  26  42  70 102 141 185 237 292 364 431
#
# _framework density 25.408207999999998
#
# number of rings (size 3 to 8) (size 9 to 14) (size 15 to 20)
#    2.000    0.000    0.000    0.000   14.000    0.000 
#    0.000    0.000    0.000    0.000    0.000    0.000 
#    0.000    0.000    0.000    0.000    0.000    0.000 
#
# Total GULP energy -133713.880651 kJ/mol
# GULP energy per Si atom -5571.411694 kJ/mol
# Density = 2.535038 g / cm^3
# Si number density = 25.408208 Si / 1000 Ang^3
#
#
#
# Elastic Constant Matrix: (Units=GPa)
#
#
# Indices 1 2 3 4 5 6 
#
# 1 81.3704 19.0125 7.8578 0.0000 0.0000 0.0000
# 2 19.0125 165.3550 56.7784 0.0000 0.0000 0.0000
# 3 7.8578 56.7784 98.7184 0.0000 0.0000 0.0000
# 4 0.0000 0.0000 0.0000 38.1238 0.0000 0.0000
# 5 0.0000 0.0000 0.0000 0.0000 32.2780 0.0000
# 6 0.0000 0.0000 0.0000 0.0000 0.0000 17.8638
#
#
#
# Elastic Compliance Matrix: (Units=1/GPa)
#
#
# Indices 1 2 3 4 5 6 
#
# 1 0.012632 -0.001380 -0.000212 0.000000 0.000000 0.000000
# 2 -0.001380 0.007687 -0.004311 0.000000 0.000000 0.000000
# 3 -0.000212 -0.004311 0.012626 0.000000 0.000000 0.000000
# 4 0.000000 0.000000 0.000000 0.026230 0.000000 0.000000
# 5 0.000000 0.000000 0.000000 0.000000 0.030981 0.000000
# 6 0.000000 0.000000 0.000000 0.000000 0.000000 0.055979
#
#
# Mechanical properties :
#
#
# Convention : Reuss Voigt Hill
#
# Bulk Modulus (GPa) = 47.30472 56.97126 52.13799
# Shear Modulus (GPa) = 30.30530 35.10612 32.70571
#
# Velocity S-wave (km/s) = 3.45735 3.72113 3.59166
# Velocity P-wave (km/s) = 5.88184 6.39793 6.14530
#
# Compressibility (1/GPa) = 0.02113954
#
# Stress axis : x y z
#
# Youngs Moduli (GPa) = 79.16208 130.09718 79.19988
#
# Poissons Ratio (x) = 0.17949 0.01679
# Poissons Ratio (y) = 0.10922 0.34144
# Poissons Ratio (z) = 0.01678 0.56087
#
# Static dielectric constant tensor:
#      x y z
#    x 1.954730 0.000000 0.000000 
#    y 0.000000 1.996210 0.000000 
#    z 0.000000 0.000000 2.175380 
# 
# From -- ./inp_files/5656.got.cif
#   From: 2010.05.17/outbox.cif.g08.bks.cpg/sg29_3_cif.got.tgz:5656.got - 2010.06.04 01:19:37.
