data_PCOD9341163
_publ_section_title
;
Structure prediction by ZEFSAII (Michael W. Deem and Ramdas Pophale) SiO2 
 PCOD9341163
Probable space group: P C A 21
;
_chemical_formula_sum "Si O2"
_cell_formula_units_Z 28
_cell_length_a 11.194558
_cell_length_b 8.712594
_cell_length_c 12.532991
_cell_angle_alpha 90.000000
_cell_angle_beta 90.000000
_cell_angle_gamma 90.000000
_cell_volume 1222.388218
_symmetry_space_group_name_H-M "P C A 21"
_symmetry_group_IT_number 29
_symmetry_cell_setting 'orthorhombic'
loop_
_space_group_symop_operation_xyz
x,y,z
-x,-y,1/2+z
1/2-x,y,1/2+z
1/2+x,-y,z
loop_
_atom_site_type_symbol
_atom_site_label
_atom_site_fract_x
_atom_site_fract_y
_atom_site_fract_z
Si Si1 0.944536 0.861453 0.222260
Si Si2 0.190366 0.457166 0.379226
Si Si3 0.688193 0.057275 0.898592
Si Si4 0.744466 0.795191 0.551809
Si Si5 0.584392 0.239220 0.403855
Si Si6 0.982000 0.827948 0.628333
Si Si7 0.577360 0.351848 0.813397
O O1 0.873527 0.798563 0.121945
O O2 0.009805 0.737761 0.295955
O O3 0.858209 0.942951 0.308326
O O4 0.022235 0.002961 0.178111
O O5 0.232861 0.319591 0.453727
O O6 0.145970 0.606731 0.443850
O O7 0.311128 0.527469 0.321938
O O8 0.060460 0.406005 0.330576
O O9 0.815703 0.122314 0.866081
O O10 0.604110 0.209246 0.896409
O O11 0.717907 0.962289 0.005617
O O12 0.852846 0.749605 0.628837
O O13 0.517032 0.168025 0.504000
O O14 0.075010 0.730497 0.697992
#
# Coordination Sequence:
#
# PCOD9341163 Si02
#       7
#     4   4   4   4   4   4   4
#     4  11  24  41  74 106 141 197 247 323 371 447
#     4  11  27  48  72 108 156 203 246 321 380 461
#     4  10  23  44  71 103 146 191 252 319 358 454
#     4  12  25  42  77 107 144 199 260 307 389 444
#     4  11  23  46  65 101 154 188 249 310 379 451
#     4  11  24  41  73 106 142 196 254 308 378 448
#     4  10  26  48  74 107 151 200 252 310 385 447
#
# _framework density 22.905981000000001
#
# number of rings (size 3 to 8) (size 9 to 14) (size 15 to 20)
#    0.000    1.143    2.857    1.714    8.000    2.286 
#    0.000    0.000    0.000    0.000    0.000    0.000 
#    0.000    0.000    0.000    0.000    0.000    0.000 
#
# Total GULP energy -156092.510903 kJ/mol
# GULP energy per Si atom -5574.732532 kJ/mol
# Density = 2.285385 g / cm^3
# Si number density = 22.905981 Si / 1000 Ang^3
#
#
#
# Elastic Constant Matrix: (Units=GPa)
#
#
# Indices 1 2 3 4 5 6 
#
# 1 111.8124 56.4472 40.4405 0.0000 0.0000 0.0000
# 2 56.4472 83.2291 42.5427 0.0000 0.0000 0.0000
# 3 40.4405 42.5427 94.0401 0.0000 0.0000 0.0000
# 4 0.0000 0.0000 0.0000 16.4829 0.0000 0.0000
# 5 0.0000 0.0000 0.0000 0.0000 43.8166 0.0000
# 6 0.0000 0.0000 0.0000 0.0000 0.0000 25.6712
#
#
#
# Elastic Compliance Matrix: (Units=1/GPa)
#
#
# Indices 1 2 3 4 5 6 
#
# 1 0.013952 -0.008320 -0.002236 0.000000 0.000000 0.000000
# 2 -0.008320 0.020590 -0.005737 0.000000 0.000000 0.000000
# 3 -0.002236 -0.005737 0.014191 0.000000 0.000000 0.000000
# 4 0.000000 0.000000 0.000000 0.060669 0.000000 0.000000
# 5 0.000000 0.000000 0.000000 0.000000 0.022822 0.000000
# 6 0.000000 0.000000 0.000000 0.000000 0.000000 0.038954
#
#
# Mechanical properties :
#
#
# Convention : Reuss Voigt Hill
#
# Bulk Modulus (GPa) = 61.92948 63.10469 62.51708
# Shear Modulus (GPa) = 23.90662 27.17088 25.53875
#
# Velocity S-wave (km/s) = 3.23412 3.44785 3.34269
# Velocity P-wave (km/s) = 6.40633 6.59238 6.50002
#
# Compressibility (1/GPa) = 0.01614740
#
# Stress axis : x y z
#
# Youngs Moduli (GPa) = 71.67178 48.56724 70.46827
#
# Poissons Ratio (x) = 0.40406 0.15759
# Poissons Ratio (y) = 0.59629 0.40427
# Poissons Ratio (z) = 0.16028 0.27863
#
# Static dielectric constant tensor:
#      x y z
#    x 1.947820 0.000000 0.000000 
#    y 0.000000 1.881120 0.000000 
#    z 0.000000 0.000000 1.828510 
# 
# From -- ./inp_files/3134.got.cif
#   From: 2010.05.17/outbox.cif.g08.bks.cpg/sg29_2_cif.got.tgz:3134.got - 2010.06.04 01:19:37.
