data_PCOD9341456
_publ_section_title
;
Structure prediction by ZEFSAII (Michael W. Deem and Ramdas Pophale) SiO2 
 PCOD9341456
Probable space group: P C A 21
;
_chemical_formula_sum "Si O2"
_cell_formula_units_Z 28
_cell_length_a 17.472815
_cell_length_b 7.909132
_cell_length_c 7.895098
_cell_angle_alpha 90.000000
_cell_angle_beta 90.000000
_cell_angle_gamma 90.000000
_cell_volume 1091.061491
_symmetry_space_group_name_H-M "P C A 21"
_symmetry_group_IT_number 29
_symmetry_cell_setting 'orthorhombic'
loop_
_space_group_symop_operation_xyz
x,y,z
-x,-y,1/2+z
1/2-x,y,1/2+z
1/2+x,-y,z
loop_
_atom_site_type_symbol
_atom_site_label
_atom_site_fract_x
_atom_site_fract_y
_atom_site_fract_z
Si Si1 0.547133 0.534955 0.266570
Si Si2 0.294674 0.615792 0.332616
Si Si3 0.437686 0.728835 0.489384
Si Si4 0.649021 0.830937 0.132432
Si Si5 0.823116 0.784695 0.254383
Si Si6 0.635502 0.321449 0.487448
Si Si7 0.427716 0.035951 0.965510
O O1 0.470490 0.625453 0.326116
O O2 0.603325 0.654009 0.159170
O O3 0.586501 0.486543 0.444957
O O4 0.538293 0.364872 0.161547
O O5 0.347290 0.707364 0.472549
O O6 0.315211 0.416133 0.305266
O O7 0.206048 0.653879 0.359136
O O8 0.319910 0.696661 0.159481
O O9 0.485707 0.899570 0.477680
O O10 0.736950 0.823827 0.193541
O O11 0.606039 0.938288 0.276501
O O12 0.652973 0.869582 0.932843
O O13 0.878054 0.854789 0.103251
O O14 0.580413 0.161973 0.488838
#
# Coordination Sequence:
#
# PCOD9341456 Si02
#       7
#     4   4   4   4   4   4   4
#     4  11  22  44  70 105 135 186 244 300 349 424
#     4  12  24  45  74 106 137 189 247 303 353 426
#     4  11  24  45  72 102 141 189 239 299 361 427
#     4  11  22  39  73 101 137 184 245 298 347 421
#     4  12  21  43  71 106 134 185 247 300 347 418
#     4  12  27  45  72 106 147 186 239 299 367 438
#     4  11  28  45  68 108 151 191 233 293 376 444
#
# _framework density 25.663077999999999
#
# number of rings (size 3 to 8) (size 9 to 14) (size 15 to 20)
#    0.000    0.571    4.286    5.143    2.000    1.143 
#    2.571    0.000    0.000    0.000    0.000    0.000 
#    0.000    0.000    0.000    0.000    0.000    0.000 
#
# Total GULP energy -156671.561215 kJ/mol
# GULP energy per Si atom -5595.412901 kJ/mol
# Density = 2.560467 g / cm^3
# Si number density = 25.663078 Si / 1000 Ang^3
#
#
#
# Elastic Constant Matrix: (Units=GPa)
#
#
# Indices 1 2 3 4 5 6 
#
# 1 103.1901 18.6238 5.6629 0.0000 0.0000 0.0000
# 2 18.6238 40.9365 19.0836 0.0000 0.0000 0.0000
# 3 5.6629 19.0836 112.9019 0.0000 0.0000 0.0000
# 4 0.0000 0.0000 0.0000 21.7037 0.0000 0.0000
# 5 0.0000 0.0000 0.0000 0.0000 78.7429 0.0000
# 6 0.0000 0.0000 0.0000 0.0000 0.0000 20.6938
#
#
#
# Elastic Compliance Matrix: (Units=1/GPa)
#
#
# Indices 1 2 3 4 5 6 
#
# 1 0.010568 -0.004951 0.000307 0.000000 0.000000 0.000000
# 2 -0.004951 0.028837 -0.004626 0.000000 0.000000 0.000000
# 3 0.000307 -0.004626 0.009624 0.000000 0.000000 0.000000
# 4 0.000000 0.000000 0.000000 0.046075 0.000000 0.000000
# 5 0.000000 0.000000 0.000000 0.000000 0.012700 0.000000
# 6 0.000000 0.000000 0.000000 0.000000 0.000000 0.048324
#
#
# Mechanical properties :
#
#
# Convention : Reuss Voigt Hill
#
# Bulk Modulus (GPa) = 32.79922 38.19655 35.49788
# Shear Modulus (GPa) = 27.05203 38.47195 32.76199
#
# Velocity S-wave (km/s) = 3.25025 3.87604 3.57686
# Velocity P-wave (km/s) = 5.18594 5.91166 5.56065
#
# Compressibility (1/GPa) = 0.03048853
#
# Stress axis : x y z
#
# Youngs Moduli (GPa) = 94.62969 34.67786 103.90935
#
# Poissons Ratio (x) = 0.17168 -0.03187
# Poissons Ratio (y) = 0.46848 0.48068
# Poissons Ratio (z) = -0.02903 0.16042
#
# Static dielectric constant tensor:
#      x y z
#    x 1.229320 0.000000 0.000000 
#    y 0.000000 2.120940 0.000000 
#    z 0.000000 0.000000 2.059180 
# 
# From -- ./inp_files/2058.got.cif
#   From: 2010.05.17/outbox.cif.g08.bks.cpg/sg29_2_cif.got.tgz:2058.got - 2010.06.04 01:19:37.
