data_PCOD9341689
_publ_section_title
;
Structure prediction by ZEFSAII (Michael W. Deem and Ramdas Pophale) SiO2 
 PCOD9341689
Probable space group: P C A 21
;
_chemical_formula_sum "Si O2"
_cell_formula_units_Z 20
_cell_length_a 10.032466
_cell_length_b 4.937391
_cell_length_c 14.314423
_cell_angle_alpha 90.000000
_cell_angle_beta 90.000000
_cell_angle_gamma 90.000000
_cell_volume 709.053597
_symmetry_space_group_name_H-M "P C A 21"
_symmetry_group_IT_number 29
_symmetry_cell_setting 'orthorhombic'
loop_
_space_group_symop_operation_xyz
x,y,z
-x,-y,1/2+z
1/2-x,y,1/2+z
1/2+x,-y,z
loop_
_atom_site_type_symbol
_atom_site_label
_atom_site_fract_x
_atom_site_fract_y
_atom_site_fract_z
Si Si1 0.350709 0.978473 0.410410
Si Si2 0.474826 0.301046 0.066863
Si Si3 0.090595 0.658526 0.410869
Si Si4 0.847922 0.598365 0.711347
Si Si5 0.674142 0.106266 0.699804
O O1 0.413799 0.817101 0.496513
O O2 0.192727 0.913188 0.414906
O O3 0.434681 0.257206 0.416468
O O4 0.388274 0.894160 0.303763
O O5 0.540757 0.510106 0.138944
O O6 0.411160 0.052655 0.123533
O O7 0.378852 0.462597 0.996828
O O8 0.117877 0.504181 0.314714
O O9 0.803816 0.908192 0.707989
O O10 0.724081 0.407389 0.682881
#
# Coordination Sequence:
#
# PCOD9341689 Si02
#       5
#     4   4   4   4   4
#     4  11  28  51  81 119 166 216 277 340 415 494
#     4  12  28  48  86 119 164 221 281 344 414 501
#     4  11  28  50  84 120 166 221 273 350 412 503
#     4  11  28  50  80 118 170 216 278 339 419 493
#     4  11  28  51  77 120 168 220 273 345 412 497
#
# _framework density 28.206613999999998
#
# number of rings (size 3 to 8) (size 9 to 14) (size 15 to 20)
#    0.000    0.800    2.000    1.200   19.600    0.000 
#    0.000    0.000    0.000    0.000    0.000    0.000 
#    0.000    0.000    0.000    0.000    0.000    0.000 
#
# Total GULP energy -112266.124295 kJ/mol
# GULP energy per Si atom -5613.306215 kJ/mol
# Density = 2.814241 g / cm^3
# Si number density = 28.206614 Si / 1000 Ang^3
#
#
#
# Elastic Constant Matrix: (Units=GPa)
#
#
# Indices 1 2 3 4 5 6 
#
# 1 111.9079 26.9020 55.7486 0.0000 0.0000 0.0000
# 2 26.9020 77.8075 20.0032 0.0000 0.0000 0.0000
# 3 55.7486 20.0032 225.0470 0.0000 0.0000 0.0000
# 4 0.0000 0.0000 0.0000 45.4739 0.0000 0.0000
# 5 0.0000 0.0000 0.0000 0.0000 49.6011 0.0000
# 6 0.0000 0.0000 0.0000 0.0000 0.0000 52.5681
#
#
#
# Elastic Compliance Matrix: (Units=1/GPa)
#
#
# Indices 1 2 3 4 5 6 
#
# 1 0.010898 -0.003146 -0.002420 0.000000 0.000000 0.000000
# 2 -0.003146 0.014061 -0.000471 0.000000 0.000000 0.000000
# 3 -0.002420 -0.000471 0.005085 0.000000 0.000000 0.000000
# 4 0.000000 0.000000 0.000000 0.021991 0.000000 0.000000
# 5 0.000000 0.000000 0.000000 0.000000 0.020161 0.000000
# 6 0.000000 0.000000 0.000000 0.000000 0.000000 0.019023
#
#
# Mechanical properties :
#
#
# Convention : Reuss Voigt Hill
#
# Bulk Modulus (GPa) = 55.64566 68.89669 62.27118
# Shear Modulus (GPa) = 45.75381 50.33586 48.04484
#
# Velocity S-wave (km/s) = 4.03189 4.22897 4.13160
# Velocity P-wave (km/s) = 6.43783 6.95157 6.69962
#
# Compressibility (1/GPa) = 0.01797085
#
# Stress axis : x y z
#
# Youngs Moduli (GPa) = 91.76263 71.11953 196.66412
#
# Poissons Ratio (x) = 0.22372 0.47592
# Poissons Ratio (y) = 0.28866 0.09254
# Poissons Ratio (z) = 0.22206 0.03346
#
# Static dielectric constant tensor:
#      x y z
#    x 2.279130 0.000000 0.000000 
#    y 0.000000 2.129280 0.000000 
#    z 0.000000 0.000000 2.108140 
# 
# From -- ./inp_files/4395.got.cif
#   From: 2010.05.17/outbox.cif.g08.bks.cpg/sg29_3_cif.got.tgz:4395.got - 2010.06.04 01:19:37.
