data_PCOD9341501
_publ_section_title
;
Structure prediction by ZEFSAII (Michael W. Deem and Ramdas Pophale) SiO2 
 PCOD9341501
Probable space group: P C A 21
;
_chemical_formula_sum "Si O2"
_cell_formula_units_Z 32
_cell_length_a 10.286876
_cell_length_b 13.916142
_cell_length_c 9.154746
_cell_angle_alpha 90.000000
_cell_angle_beta 90.000000
_cell_angle_gamma 90.000000
_cell_volume 1310.535096
_symmetry_space_group_name_H-M "P C A 21"
_symmetry_group_IT_number 29
_symmetry_cell_setting 'orthorhombic'
loop_
_space_group_symop_operation_xyz
x,y,z
-x,-y,1/2+z
1/2-x,y,1/2+z
1/2+x,-y,z
loop_
_atom_site_type_symbol
_atom_site_label
_atom_site_fract_x
_atom_site_fract_y
_atom_site_fract_z
Si Si1 0.602577 0.984616 0.596250
Si Si2 0.652534 0.056878 0.265685
Si Si3 0.932419 0.262024 0.859819
Si Si4 0.724285 0.458280 0.302447
Si Si5 0.320593 0.232893 0.163012
Si Si6 0.938776 0.631522 0.940613
Si Si7 0.608160 0.508322 0.041959
Si Si8 0.471221 0.285705 0.659601
O O1 0.454578 0.990162 0.655977
O O2 0.639834 0.873158 0.616303
O O3 0.625348 0.015692 0.428633
O O4 0.704166 0.037437 0.703832
O O5 0.630206 0.171333 0.277572
O O6 0.843115 0.357209 0.840888
O O7 0.079187 0.266342 0.790570
O O8 0.946760 0.235964 0.032830
O O9 0.632169 0.545962 0.354762
O O10 0.857986 0.487770 0.375957
O O11 0.735292 0.476713 0.130663
O O12 0.167810 0.238358 0.195009
O O13 0.339914 0.299943 0.022255
O O14 0.023183 0.691164 0.821777
O O15 0.012841 0.579409 0.071898
O O16 0.557163 0.611583 0.080493
#
# Coordination Sequence:
#
# PCOD9341501 Si02
#       8
#     4   4   4   4   4   4   4   4
#     4  11  27  49  80 107 147 185 246 310 384 442
#     4  11  27  51  77 110 143 191 240 313 375 451
#     4  11  25  44  66  99 140 180 233 288 357 427
#     4  11  24  40  62  94 137 181 220 274 334 409
#     4  11  24  44  71  99 133 177 239 289 349 420
#     4  11  23  41  62  99 137 178 224 280 334 414
#     4  11  24  39  63  92 140 181 225 271 335 404
#     4  11  24  38  69 100 131 183 231 283 340 419
#
# _framework density 24.417505999999999
#
# number of rings (size 3 to 8) (size 9 to 14) (size 15 to 20)
#    0.000    1.000    3.750    1.500   10.500    1.000 
#    2.250    0.000    0.000    0.000    0.000    0.000 
#    0.000    0.000    0.000    0.000    0.000    0.000 
#
# Total GULP energy -178793.159216 kJ/mol
# GULP energy per Si atom -5587.286226 kJ/mol
# Density = 2.436193 g / cm^3
# Si number density = 24.417506 Si / 1000 Ang^3
#
#
#
# Elastic Constant Matrix: (Units=GPa)
#
#
# Indices 1 2 3 4 5 6 
#
# 1 46.7347 10.7639 -7.0733 0.0000 0.0000 0.0000
# 2 10.7639 68.3621 4.7283 0.0000 0.0000 0.0000
# 3 -7.0733 4.7283 65.2587 0.0000 0.0000 0.0000
# 4 0.0000 0.0000 0.0000 23.8046 0.0000 0.0000
# 5 0.0000 0.0000 0.0000 0.0000 36.6397 0.0000
# 6 0.0000 0.0000 0.0000 0.0000 0.0000 33.5097
#
#
#
# Elastic Compliance Matrix: (Units=1/GPa)
#
#
# Indices 1 2 3 4 5 6 
#
# 1 0.022676 -0.003759 0.002730 0.000000 0.000000 0.000000
# 2 -0.003759 0.015325 -0.001518 0.000000 0.000000 0.000000
# 3 0.002730 -0.001518 0.015730 0.000000 0.000000 0.000000
# 4 0.000000 0.000000 0.000000 0.042009 0.000000 0.000000
# 5 0.000000 0.000000 0.000000 0.000000 0.027293 0.000000
# 6 0.000000 0.000000 0.000000 0.000000 0.000000 0.029842
#
#
# Mechanical properties :
#
#
# Convention : Reuss Voigt Hill
#
# Bulk Modulus (GPa) = 20.56044 21.91034 21.23539
# Shear Modulus (GPa) = 28.70582 30.25323 29.47953
#
# Velocity S-wave (km/s) = 3.43246 3.52376 3.47841
# Velocity P-wave (km/s) = 4.91403 5.05455 4.98479
#
# Compressibility (1/GPa) = 0.04863709
#
# Stress axis : x y z
#
# Youngs Moduli (GPa) = 44.09861 65.25331 63.57464
#
# Poissons Ratio (x) = 0.24531 -0.17358
# Poissons Ratio (y) = 0.16578 0.09650
# Poissons Ratio (z) = -0.12040 0.09904
#
# Static dielectric constant tensor:
#      x y z
#    x 2.033780 0.000000 0.000000 
#    y 0.000000 1.964540 0.000000 
#    z 0.000000 0.000000 2.012700 
# 
# From -- ./inp_files/1574.got.cif
#   From: 2010.05.17/outbox.cif.g08.bks.cpg/sg29_1_cif.got.tgz:1574.got - 2010.06.04 01:19:37.
