data_PCOD9341967
_publ_section_title
;
Structure prediction by ZEFSAII (Michael W. Deem and Ramdas Pophale) SiO2 
 PCOD9341967
Probable space group: P N C 2
;
_chemical_formula_sum "Si O2"
_cell_formula_units_Z 32
_cell_length_a 15.957670
_cell_length_b 15.220019
_cell_length_c 5.620716
_cell_angle_alpha 90.000000
_cell_angle_beta 90.000000
_cell_angle_gamma 90.000000
_cell_volume 1365.137247
_symmetry_space_group_name_H-M "P N C 2"
_symmetry_group_IT_number 30
_symmetry_cell_setting 'orthorhombic'
loop_
_space_group_symop_operation_xyz
x,y,z
-x,-y,z
-x,1/2+y,1/2+z
x,1/2-y,1/2+z
loop_
_atom_site_type_symbol
_atom_site_label
_atom_site_fract_x
_atom_site_fract_y
_atom_site_fract_z
Si Si1 0.915353 0.538149 0.855770
Si Si2 0.745596 0.993673 0.624251
Si Si3 0.941348 0.294607 0.173925
Si Si4 0.122023 0.229879 0.197972
Si Si5 0.590951 0.466139 0.361109
Si Si6 0.550756 0.225445 0.743454
Si Si7 0.696053 0.135640 0.249465
Si Si8 0.844350 0.415913 0.478377
O O1 0.918876 0.632659 0.722237
O O2 0.903973 0.459068 0.668094
O O3 0.000000 0.500000 0.982763
O O4 0.823663 0.548372 0.983261
O O5 0.649803 0.970105 0.699787
O O6 0.729393 0.084996 0.481097
O O7 0.786281 0.007002 0.881259
O O8 0.920287 0.235088 0.407758
O O9 0.893340 0.380483 0.252715
O O10 0.042216 0.296435 0.182762
O O11 0.166813 0.256662 0.444400
O O12 0.500000 0.500000 0.425821
O O13 0.572275 0.376373 0.216882
O O14 0.639096 0.432506 0.596706
O O15 0.508242 0.260180 0.501977
O O16 0.637496 0.280318 0.779211
O O17 0.778992 0.152719 0.091828
#
# Coordination Sequence:
#
# PCOD9341967 Si02
#       8
#     4   4   4   4   4   4   4   4
#     4  11  24  40  64  92 132 180 228 278 335 394
#     4  10  22  40  62  95 128 165 225 275 331 397
#     4  10  22  37  56  85 126 165 216 270 331 398
#     4  10  23  41  61  87 123 173 232 281 331 386
#     4  10  21  39  64  96 132 177 211 264 330 397
#     4  10  19  36  60  93 135 169 209 254 328 403
#     4   9  20  38  57  92 127 170 204 268 335 405
#     4  10  23  37  61  90 130 168 220 276 343 402
#
# _framework density 23.440867000000001
#
# number of rings (size 3 to 8) (size 9 to 14) (size 15 to 20)
#    0.000    2.000    1.250    1.500    8.750    4.000 
#    0.000    0.000    0.000    3.000    0.000    0.000 
#    0.000    0.000    0.000    0.000    0.000    0.000 
#
# Total GULP energy -178152.486791 kJ/mol
# GULP energy per Si atom -5567.265212 kJ/mol
# Density = 2.338751 g / cm^3
# Si number density = 23.440867 Si / 1000 Ang^3
#
#
#
# Elastic Constant Matrix: (Units=GPa)
#
#
# Indices 1 2 3 4 5 6 
#
# 1 85.7758 18.1497 25.8436 0.0000 0.0000 0.0000
# 2 18.1497 37.5446 5.8563 0.0000 0.0000 0.0000
# 3 25.8436 5.8563 115.3641 0.0000 0.0000 0.0000
# 4 0.0000 0.0000 0.0000 19.1373 0.0000 0.0000
# 5 0.0000 0.0000 0.0000 0.0000 16.4513 0.0000
# 6 0.0000 0.0000 0.0000 0.0000 0.0000 24.5231
#
#
#
# Elastic Compliance Matrix: (Units=1/GPa)
#
#
# Indices 1 2 3 4 5 6 
#
# 1 0.013817 -0.006246 -0.002778 0.000000 0.000000 0.000000
# 2 -0.006246 0.029671 -0.000107 0.000000 0.000000 0.000000
# 3 -0.002778 -0.000107 0.009296 0.000000 0.000000 0.000000
# 4 0.000000 0.000000 0.000000 0.052254 0.000000 0.000000
# 5 0.000000 0.000000 0.000000 0.000000 0.060785 0.000000
# 6 0.000000 0.000000 0.000000 0.000000 0.000000 0.040778
#
#
# Mechanical properties :
#
#
# Convention : Reuss Voigt Hill
#
# Bulk Modulus (GPa) = 28.96728 37.59817 33.28272
# Shear Modulus (GPa) = 21.15319 24.61133 22.88226
#
# Velocity S-wave (km/s) = 3.00727 3.24378 3.12776
# Velocity P-wave (km/s) = 4.94395 5.48670 5.22238
#
# Compressibility (1/GPa) = 0.03452171
#
# Stress axis : x y z
#
# Youngs Moduli (GPa) = 72.37479 33.70285 107.57311
#
# Poissons Ratio (x) = 0.21051 0.29886
# Poissons Ratio (y) = 0.45205 0.01151
# Poissons Ratio (z) = 0.20107 0.00361
#
# Static dielectric constant tensor:
#      x y z
#    x 1.985390 0.000000 0.000000 
#    y 0.000000 2.027060 0.000000 
#    z 0.000000 0.000000 1.989700 
# 
# From -- ./inp_files/959.got.cif
#   From: 2010.05.17/outbox.cif.g08.bks.cpg/sg30_1_cif.got.tgz:959.got - 2010.06.03 17:03:02.
