data_PCOD9341869
_publ_section_title
;
Structure prediction by ZEFSAII (Michael W. Deem and Ramdas Pophale) SiO2 
 PCOD9341869
Probable space group: P N C 2
;
_chemical_formula_sum "Si O2"
_cell_formula_units_Z 30
_cell_length_a 12.418225
_cell_length_b 19.878083
_cell_length_c 5.687143
_cell_angle_alpha 90.000000
_cell_angle_beta 90.000000
_cell_angle_gamma 90.000000
_cell_volume 1403.874134
_symmetry_space_group_name_H-M "P N C 2"
_symmetry_group_IT_number 30
_symmetry_cell_setting 'orthorhombic'
loop_
_space_group_symop_operation_xyz
x,y,z
-x,-y,z
-x,1/2+y,1/2+z
x,1/2-y,1/2+z
loop_
_atom_site_type_symbol
_atom_site_label
_atom_site_fract_x
_atom_site_fract_y
_atom_site_fract_z
Si Si1 0.046139 0.422666 0.112500
Si Si2 0.461836 0.233706 0.985283
Si Si3 0.311769 0.952079 0.213673
Si Si4 0.890452 0.956786 0.115468
Si Si5 0.500000 0.500000 0.028064
Si Si6 0.316008 0.817264 0.494216
Si Si7 0.076029 0.716330 0.073194
Si Si8 0.447938 0.895860 0.854253
O O1 0.110145 0.419381 0.362004
O O2 0.000000 0.500000 0.108574
O O3 0.107069 0.415679 0.861311
O O4 0.958994 0.362011 0.106156
O O5 0.409649 0.241150 0.726734
O O6 0.577300 0.272530 0.948730
O O7 0.487491 0.155192 0.014187
O O8 0.386320 0.986577 0.405857
O O9 0.296089 0.874466 0.296137
O O10 0.204638 0.989892 0.147967
O O11 0.391071 0.953919 0.994184
O O12 0.000000 0.000000 0.109967
O O13 0.479952 0.430185 0.161374
O O14 0.206117 0.779650 0.551285
O O15 0.351759 0.856989 0.726609
O O16 0.040078 0.745310 0.815072
#
# Coordination Sequence:
#
# PCOD9341869 Si02
#       8
#     4   4   4   4   2   4   4   4
#     4  10  22  41  57  89 129 174 218 264 311 392
#     4  10  18  33  50  83 117 160 193 239 308 395
#     4  11  22  38  64  89 133 175 215 276 324 396
#     4  10  22  37  63  91 127 173 223 262 323 385
#     4  10  24  40  56  92 124 172 222 262 330 378
#     4  10  21  33  55  91 131 165 206 247 336 412
#     4  12  25  38  62  95 137 177 220 269 337 407
#     4  10  21  35  57  80 128 168 204 261 314 387
#
# _framework density 21.369439
#
# number of rings (size 3 to 8) (size 9 to 14) (size 15 to 20)
#    0.000    1.600    1.333    4.400    9.333    0.000 
#    0.000    0.000    0.000    0.000    0.000   16.800 
#    0.000    0.000    0.000    0.000    0.000    0.000 
#
# Total GULP energy -167051.190069 kJ/mol
# GULP energy per Si atom -5568.373002 kJ/mol
# Density = 2.132080 g / cm^3
# Si number density = 21.369439 Si / 1000 Ang^3
#
#
#
# Elastic Constant Matrix: (Units=GPa)
#
#
# Indices 1 2 3 4 5 6 
#
# 1 20.4308 21.3996 8.0618 0.0000 0.0000 0.0000
# 2 21.3996 52.9398 26.3129 0.0000 0.0000 0.0000
# 3 8.0618 26.3129 154.9107 0.0000 0.0000 0.0000
# 4 0.0000 0.0000 0.0000 61.8969 0.0000 0.0000
# 5 0.0000 0.0000 0.0000 0.0000 -2.1787 0.0000
# 6 0.0000 0.0000 0.0000 0.0000 0.0000 25.7489
#
#
#
# Elastic Compliance Matrix: (Units=1/GPa)
#
#
# Indices 1 2 3 4 5 6 
#
# 1 0.085224 -0.035218 0.001547 0.000000 0.000000 0.000000
# 2 -0.035218 0.035185 -0.004144 0.000000 0.000000 0.000000
# 3 0.001547 -0.004144 0.007079 0.000000 0.000000 0.000000
# 4 0.000000 0.000000 0.000000 0.016156 0.000000 0.000000
# 5 0.000000 0.000000 0.000000 0.000000 -0.458993 0.000000
# 6 0.000000 0.000000 0.000000 0.000000 0.000000 0.038837
#
#
# Mechanical properties :
#
#
# Convention : Reuss Voigt Hill
#
# Bulk Modulus (GPa) = 19.28375 37.75887 28.52131
# Shear Modulus (GPa) = -27.23346 28.59391 0.68023
#
# Velocity S-wave (km/s) = -3.57376 3.66194 0.56481
# Velocity P-wave (km/s) = 2.82586 5.96554 3.71498
#
# Compressibility (1/GPa) = 0.05185713
#
# Stress axis : x y z
#
# Youngs Moduli (GPa) = 11.73384 28.42112 141.26970
#
# Poissons Ratio (x) = 1.00095 -0.21854
# Poissons Ratio (y) = 0.41325 0.58537
# Poissons Ratio (z) = -0.01815 0.11777
#
# Static dielectric constant tensor:
#      x y z
#    x 1.729380 0.000000 0.000000 
#    y 0.000000 1.794500 0.000000 
#    z 0.000000 0.000000 1.942990 
# 
# From -- ./inp_files/803.got.cif
#   From: 2010.05.17/outbox.cif.g08.bks.cpg/sg30_1_cif.got.tgz:803.got - 2010.06.03 17:03:02.
