data_PCOD9341211
_publ_section_title
;
Structure prediction by ZEFSAII (Michael W. Deem and Ramdas Pophale) SiO2 
 PCOD9341211
Probable space group: P C A 21
;
_chemical_formula_sum "Si O2"
_cell_formula_units_Z 20
_cell_length_a 11.338837
_cell_length_b 7.349567
_cell_length_c 8.463949
_cell_angle_alpha 90.000000
_cell_angle_beta 90.000000
_cell_angle_gamma 90.000000
_cell_volume 705.347779
_symmetry_space_group_name_H-M "P C A 21"
_symmetry_group_IT_number 29
_symmetry_cell_setting 'orthorhombic'
loop_
_space_group_symop_operation_xyz
x,y,z
-x,-y,1/2+z
1/2-x,y,1/2+z
1/2+x,-y,z
loop_
_atom_site_type_symbol
_atom_site_label
_atom_site_fract_x
_atom_site_fract_y
_atom_site_fract_z
Si Si1 0.644805 0.879068 0.758180
Si Si2 0.689911 0.188938 0.302877
Si Si3 0.337426 0.492971 0.360746
Si Si4 0.913401 0.540029 0.811465
Si Si5 0.505950 0.854033 0.071652
O O1 0.654657 0.665136 0.727093
O O2 0.764235 0.996803 0.739941
O O3 0.535381 0.968667 0.667627
O O4 0.607967 0.885360 0.942978
O O5 0.813432 0.294863 0.330125
O O6 0.624759 0.356662 0.213494
O O7 0.612320 0.175586 0.462317
O O8 0.205400 0.434552 0.414049
O O9 0.472561 0.491479 0.414348
O O10 0.949825 0.703104 0.696813
#
# Coordination Sequence:
#
# PCOD9341211 Si02
#       5
#     4   4   4   4   4
#     4  12  27  49  79 121 159 219 267 348 411 495
#     4  10  26  47  77 113 161 203 277 336 404 488
#     4  10  23  49  76 110 157 207 267 327 405 475
#     4  10  23  51  72 113 160 215 262 331 407 487
#     4  12  27  50  80 121 167 216 275 340 423 497
#
# _framework density 28.354807000000001
#
# number of rings (size 3 to 8) (size 9 to 14) (size 15 to 20)
#    1.200    0.000    4.000    0.000    5.600    3.200 
#   10.800    0.000    0.000    0.000    0.000    0.000 
#    0.000    0.000    0.000    0.000    0.000    0.000 
#
# Total GULP energy -111389.734633 kJ/mol
# GULP energy per Si atom -5569.486732 kJ/mol
# Density = 2.829027 g / cm^3
# Si number density = 28.354807 Si / 1000 Ang^3
#
#
#
# Elastic Constant Matrix: (Units=GPa)
#
#
# Indices 1 2 3 4 5 6 
#
# 1 231.2533 8.1382 34.6018 0.0000 0.0000 0.0000
# 2 8.1382 94.1493 30.5508 0.0000 0.0000 0.0000
# 3 34.6018 30.5508 114.3947 0.0000 0.0000 0.0000
# 4 0.0000 0.0000 0.0000 27.7435 0.0000 0.0000
# 5 0.0000 0.0000 0.0000 0.0000 29.4256 0.0000
# 6 0.0000 0.0000 0.0000 0.0000 0.0000 46.8577
#
#
#
# Elastic Compliance Matrix: (Units=1/GPa)
#
#
# Indices 1 2 3 4 5 6 
#
# 1 0.004530 0.000058 -0.001386 0.000000 0.000000 0.000000
# 2 0.000058 0.011630 -0.003124 0.000000 0.000000 0.000000
# 3 -0.001386 -0.003124 0.009995 0.000000 0.000000 0.000000
# 4 0.000000 0.000000 0.000000 0.036044 0.000000 0.000000
# 5 0.000000 0.000000 0.000000 0.000000 0.033984 0.000000
# 6 0.000000 0.000000 0.000000 0.000000 0.000000 0.021341
#
#
# Mechanical properties :
#
#
# Convention : Reuss Voigt Hill
#
# Bulk Modulus (GPa) = 57.96296 65.15322 61.55809
# Shear Modulus (GPa) = 37.82808 45.23914 41.53361
#
# Velocity S-wave (km/s) = 3.65649 3.99866 3.83140
# Velocity P-wave (km/s) = 6.18975 6.65934 6.42883
#
# Compressibility (1/GPa) = 0.01725240
#
# Stress axis : x y z
#
# Youngs Moduli (GPa) = 220.77296 85.98481 100.05050
#
# Poissons Ratio (x) = -0.00499 0.13863
# Poissons Ratio (y) = -0.01282 0.31251
# Poissons Ratio (z) = 0.30590 0.26858
#
# Static dielectric constant tensor:
#      x y z
#    x 2.250490 0.000000 0.000000 
#    y 0.000000 2.320490 0.000000 
#    z 0.000000 0.000000 2.194260 
# 
# From -- ./inp_files/1378.got.cif
#   From: 2010.05.17/outbox.cif.g08.bks.cpg/sg29_1_cif.got.tgz:1378.got - 2010.06.04 01:19:37.
