data_PCOD9341898
_publ_section_title
;
Structure prediction by ZEFSAII (Michael W. Deem and Ramdas Pophale) SiO2 
 PCOD9341898
Probable space group: P N C 2
;
_chemical_formula_sum "Si O2"
_cell_formula_units_Z 30
_cell_length_a 7.671350
_cell_length_b 11.466885
_cell_length_c 18.458930
_cell_angle_alpha 90.000000
_cell_angle_beta 90.000000
_cell_angle_gamma 90.000000
_cell_volume 1623.767249
_symmetry_space_group_name_H-M "P N C 2"
_symmetry_group_IT_number 30
_symmetry_cell_setting 'orthorhombic'
loop_
_space_group_symop_operation_xyz
x,y,z
-x,-y,z
-x,1/2+y,1/2+z
x,1/2-y,1/2+z
loop_
_atom_site_type_symbol
_atom_site_label
_atom_site_fract_x
_atom_site_fract_y
_atom_site_fract_z
Si Si1 0.001006 0.363732 0.459930
Si Si2 0.705733 0.137733 0.700846
Si Si3 0.294659 0.765406 0.542580
Si Si4 0.702975 0.764613 0.542550
Si Si5 0.999528 0.760198 0.800503
Si Si6 0.295879 0.361168 0.200851
Si Si7 0.298523 0.000372 0.449663
Si Si8 0.000000 0.000000 0.330949
O O1 0.833392 0.327486 0.507165
O O2 0.000000 0.500000 0.442182
O O3 0.169608 0.328407 0.506840
O O4 0.000770 0.289872 0.385616
O O5 0.744607 0.205187 0.626138
O O6 0.500897 0.154646 0.717829
O O7 0.831854 0.182920 0.763198
O O8 0.732575 0.999387 0.689086
O O9 0.498686 0.733126 0.536912
O O10 0.269958 0.886032 0.498422
O O11 0.742443 0.793501 0.626165
O O12 0.728734 0.885363 0.498614
O O13 0.829764 0.815581 0.763247
O O14 0.000886 0.621365 0.788575
O O15 0.168162 0.000694 0.383006
O O16 0.500000 0.000000 0.425788
#
# Coordination Sequence:
#
# PCOD9341898 Si02
#       8
#     4   4   4   4   4   4   4   2
#     4  12  25  39  58  88 124 161 196 235 295 359
#     4  10  21  40  65  90 117 153 199 247 293 344
#     4  10  20  39  67  92 113 146 198 254 297 340
#     4  10  20  39  67  92 113 146 198 254 297 340
#     4  12  25  39  59  87 123 160 196 238 292 358
#     4  10  21  40  65  90 117 153 199 247 293 344
#     4  10  18  36  68  94 110 137 192 258 302 339
#     4  12  24  40  58  86 122 160 194 234 298 356
#
# _framework density 18.475553999999999
#
# number of rings (size 3 to 8) (size 9 to 14) (size 15 to 20)
#    0.000    1.333    4.000    2.000    0.000    2.667 
#    4.800    0.000    0.000    0.000    0.000    0.000 
#    0.000    0.000    0.000    0.000    0.000    0.000 
#
# Total GULP energy -167650.269837 kJ/mol
# GULP energy per Si atom -5588.342328 kJ/mol
# Density = 1.843350 g / cm^3
# Si number density = 18.475554 Si / 1000 Ang^3
#
#
#
# Elastic Constant Matrix: (Units=GPa)
#
#
# Indices 1 2 3 4 5 6 
#
# 1 63.1654 29.8506 48.5233 0.0000 0.0000 0.0000
# 2 29.8506 77.9774 15.0139 0.0000 0.0000 0.0000
# 3 48.5233 15.0139 79.6561 0.0000 0.0000 0.0000
# 4 0.0000 0.0000 0.0000 29.6191 0.0000 0.0000
# 5 0.0000 0.0000 0.0000 0.0000 -32.1124 0.0000
# 6 0.0000 0.0000 0.0000 0.0000 0.0000 29.5549
#
#
#
# Elastic Compliance Matrix: (Units=1/GPa)
#
#
# Indices 1 2 3 4 5 6 
#
# 1 0.035839 -0.009874 -0.019971 0.000000 0.000000 0.000000
# 2 -0.009874 0.016028 0.002994 0.000000 0.000000 0.000000
# 3 -0.019971 0.002994 0.024155 0.000000 0.000000 0.000000
# 4 0.000000 0.000000 0.000000 0.033762 0.000000 0.000000
# 5 0.000000 0.000000 0.000000 0.000000 -0.031141 0.000000
# 6 0.000000 0.000000 0.000000 0.000000 0.000000 0.033835
#
#
# Mechanical properties :
#
#
# Convention : Reuss Voigt Hill
#
# Bulk Modulus (GPa) = 44.80282 45.28605 45.04444
# Shear Modulus (GPa) = 28.79846 13.90639 21.35242
#
# Velocity S-wave (km/s) = 3.95236 2.74650 3.40326
# Velocity P-wave (km/s) = 6.71794 5.88407 6.31478
#
# Compressibility (1/GPa) = 0.02232002
#
# Stress axis : x y z
#
# Youngs Moduli (GPa) = 27.90242 62.39171 41.39949
#
# Poissons Ratio (x) = 0.61608 0.82677
# Poissons Ratio (y) = 0.27552 -0.12396
# Poissons Ratio (z) = 0.55723 -0.18681
#
# Static dielectric constant tensor:
#      x y z
#    x 1.649850 0.000000 0.000000 
#    y 0.000000 1.612800 0.000000 
#    z 0.000000 0.000000 1.601140 
# 
# From -- ./inp_files/5161.got.cif
#   From: 2010.05.17/outbox.cif.g08.bks.cpg/sg30_3_cif.got.tgz:5161.got - 2010.06.03 17:03:02.
