data_PCOD9341235
_publ_section_title
;
Structure prediction by ZEFSAII (Michael W. Deem and Ramdas Pophale) SiO2 
 PCOD9341235
Probable space group: P C A 21
;
_chemical_formula_sum "Si O2"
_cell_formula_units_Z 20
_cell_length_a 26.062813
_cell_length_b 5.012287
_cell_length_c 5.440994
_cell_angle_alpha 90.000000
_cell_angle_beta 90.000000
_cell_angle_gamma 90.000000
_cell_volume 710.780436
_symmetry_space_group_name_H-M "P C A 21"
_symmetry_group_IT_number 29
_symmetry_cell_setting 'orthorhombic'
loop_
_space_group_symop_operation_xyz
x,y,z
-x,-y,1/2+z
1/2-x,y,1/2+z
1/2+x,-y,z
loop_
_atom_site_type_symbol
_atom_site_label
_atom_site_fract_x
_atom_site_fract_y
_atom_site_fract_z
Si Si1 0.167237 0.363923 0.539060
Si Si2 0.735682 0.006692 0.041485
Si Si3 0.989794 0.353958 0.581688
Si Si4 0.360872 0.373986 0.545405
Si Si5 0.076547 0.036677 0.346688
O O1 0.223659 0.241857 0.548231
O O2 0.127780 0.111443 0.499130
O O3 0.158480 0.524915 0.288145
O O4 0.147051 0.504801 0.783555
O O5 0.751018 0.154808 0.290505
O O6 0.679629 0.877193 0.034061
O O7 0.985887 0.475630 0.306504
O O8 0.939044 0.229361 0.706048
O O9 0.029992 0.114715 0.523781
O O10 0.414748 0.244547 0.619578
#
# Coordination Sequence:
#
# PCOD9341235 Si02
#       5
#     4   4   4   4   4
#     4   8  16  27  54  81 115 154 193 247 304 367
#     4   8  12  24  42  84 114 134 204 238 278 388
#     4  12  28  42  66  94 124 170 222 270 320 372
#     4   8  16  27  54  81 115 154 193 247 304 367
#     4  10  24  42  64  84 130 162 210 262 318 370
#
# _framework density 28.138086999999999
#
# number of rings (size 3 to 8) (size 9 to 14) (size 15 to 20)
#    1.200    1.600    0.000    1.200    8.400    0.000 
#    0.000    0.000    0.000    0.000    0.000    8.400 
#    0.000    0.000    0.000    0.000    0.000    0.000 
#
# Total GULP energy -111653.748459 kJ/mol
# GULP energy per Si atom -5582.687423 kJ/mol
# Density = 2.807404 g / cm^3
# Si number density = 28.138087 Si / 1000 Ang^3
#
#
#
# Elastic Constant Matrix: (Units=GPa)
#
#
# Indices 1 2 3 4 5 6 
#
# 1 115.5105 27.3616 15.7877 0.0000 0.0000 0.0000
# 2 27.3616 80.3135 26.2795 0.0000 0.0000 0.0000
# 3 15.7877 26.2795 257.7788 0.0000 0.0000 0.0000
# 4 0.0000 0.0000 0.0000 12.2558 0.0000 0.0000
# 5 0.0000 0.0000 0.0000 0.0000 46.7281 0.0000
# 6 0.0000 0.0000 0.0000 0.0000 0.0000 32.5005
#
#
#
# Elastic Compliance Matrix: (Units=1/GPa)
#
#
# Indices 1 2 3 4 5 6 
#
# 1 0.009434 -0.003129 -0.000259 0.000000 0.000000 0.000000
# 2 -0.003129 0.013919 -0.001227 0.000000 0.000000 0.000000
# 3 -0.000259 -0.001227 0.004020 0.000000 0.000000 0.000000
# 4 0.000000 0.000000 0.000000 0.081594 0.000000 0.000000
# 5 0.000000 0.000000 0.000000 0.000000 0.021400 0.000000
# 6 0.000000 0.000000 0.000000 0.000000 0.000000 0.030769
#
#
# Mechanical properties :
#
#
# Convention : Reuss Voigt Hill
#
# Bulk Modulus (GPa) = 55.11992 65.82891 60.47442
# Shear Modulus (GPa) = 28.34241 43.90849 36.12545
#
# Velocity S-wave (km/s) = 3.17718 3.95456 3.58699
# Velocity P-wave (km/s) = 5.75247 6.65561 6.22045
#
# Compressibility (1/GPa) = 0.01814226
#
# Stress axis : x y z
#
# Youngs Moduli (GPa) = 106.00134 71.84469 248.73992
#
# Poissons Ratio (x) = 0.22482 0.06436
# Poissons Ratio (y) = 0.33171 0.30528
# Poissons Ratio (z) = 0.02743 0.08818
#
# Static dielectric constant tensor:
#      x y z
#    x 2.169110 0.000000 0.000000 
#    y 0.000000 2.127000 0.000000 
#    z 0.000000 0.000000 2.312630 
# 
# From -- ./inp_files/843.got.cif
#   From: 2010.05.17/outbox.cif.g08.bks.cpg/sg29_1_cif.got.tgz:843.got - 2010.06.04 01:19:37.
