data_PCOD9341005
_publ_section_title
;
Structure prediction by ZEFSAII (Michael W. Deem and Ramdas Pophale) SiO2 
 PCOD9341005
Probable space group: P C A 21
;
_chemical_formula_sum "Si O2"
_cell_formula_units_Z 24
_cell_length_a 7.900359
_cell_length_b 13.685792
_cell_length_c 9.021854
_cell_angle_alpha 90.000000
_cell_angle_beta 90.000000
_cell_angle_gamma 90.000000
_cell_volume 975.466943
_symmetry_space_group_name_H-M "P C A 21"
_symmetry_group_IT_number 29
_symmetry_cell_setting 'orthorhombic'
loop_
_space_group_symop_operation_xyz
x,y,z
-x,-y,1/2+z
1/2-x,y,1/2+z
1/2+x,-y,z
loop_
_atom_site_type_symbol
_atom_site_label
_atom_site_fract_x
_atom_site_fract_y
_atom_site_fract_z
Si Si1 0.110434 0.888443 0.039950
Si Si2 0.965142 0.077124 0.193281
Si Si3 0.128344 0.622014 0.697004
Si Si4 0.252486 0.409972 0.681865
Si Si5 0.092945 0.243888 0.026339
Si Si6 0.958984 0.277389 0.746979
O O1 0.304605 0.896954 0.090701
O O2 0.049249 0.782305 0.094171
O O3 0.077912 0.909992 0.866662
O O4 0.022035 0.971199 0.140659
O O5 0.105817 0.157090 0.143705
O O6 0.216428 0.522045 0.644993
O O7 0.073242 0.692551 0.565098
O O8 0.269366 0.684939 0.780773
O O9 0.938658 0.598468 0.759988
O O10 0.270573 0.328895 0.551759
O O11 0.082254 0.370849 0.756585
O O12 0.053171 0.206713 0.864008
#
# Coordination Sequence:
#
# PCOD9341005 Si02
#       6
#     4   4   4   4   4   4
#     4  12  27  46  78 103 148 188 239 302 369 438
#     4  12  26  49  73 110 143 190 241 300 368 442
#     4  10  22  44  66 102 148 191 245 299 365 436
#     4  10  23  44  66 104 148 193 244 299 364 438
#     4  10  25  43  69 106 142 186 254 290 365 442
#     4  12  23  46  72 103 145 196 237 312 363 426
#
# _framework density 24.603603
#
# number of rings (size 3 to 8) (size 9 to 14) (size 15 to 20)
#    1.000    0.000    3.333    3.000    2.333    2.667 
#    3.000    0.000    0.000    0.000    0.000    0.000 
#    0.000    0.000    0.000    0.000    0.000    0.000 
#
# Total GULP energy -133713.445163 kJ/mol
# GULP energy per Si atom -5571.393548 kJ/mol
# Density = 2.454760 g / cm^3
# Si number density = 24.603603 Si / 1000 Ang^3
#
#
#
# Elastic Constant Matrix: (Units=GPa)
#
#
# Indices 1 2 3 4 5 6 
#
# 1 109.0795 28.3984 10.5575 0.0000 0.0000 0.0000
# 2 28.3984 127.8690 14.1639 0.0000 0.0000 0.0000
# 3 10.5575 14.1639 45.3508 0.0000 0.0000 0.0000
# 4 0.0000 0.0000 0.0000 6.5551 0.0000 0.0000
# 5 0.0000 0.0000 0.0000 0.0000 27.6379 0.0000
# 6 0.0000 0.0000 0.0000 0.0000 0.0000 48.8743
#
#
#
# Elastic Compliance Matrix: (Units=1/GPa)
#
#
# Indices 1 2 3 4 5 6 
#
# 1 0.009850 -0.002003 -0.001668 0.000000 0.000000 0.000000
# 2 -0.002003 0.008508 -0.002191 0.000000 0.000000 0.000000
# 3 -0.001668 -0.002191 0.023123 0.000000 0.000000 0.000000
# 4 0.000000 0.000000 0.000000 0.152553 0.000000 0.000000
# 5 0.000000 0.000000 0.000000 0.000000 0.036182 0.000000
# 6 0.000000 0.000000 0.000000 0.000000 0.000000 0.020461
#
#
# Mechanical properties :
#
#
# Convention : Reuss Voigt Hill
#
# Bulk Modulus (GPa) = 33.60402 43.17097 38.38749
# Shear Modulus (GPa) = 18.36081 31.89210 25.12646
#
# Velocity S-wave (km/s) = 2.73475 3.60424 3.19917
# Velocity P-wave (km/s) = 4.86412 5.90808 5.41133
#
# Compressibility (1/GPa) = 0.02975835
#
# Stress axis : x y z
#
# Youngs Moduli (GPa) = 101.51780 117.53597 43.24731
#
# Poissons Ratio (x) = 0.23542 0.07212
# Poissons Ratio (y) = 0.20334 0.09475
# Poissons Ratio (z) = 0.16929 0.25751
#
# Static dielectric constant tensor:
#      x y z
#    x 2.019810 0.000000 0.000000 
#    y 0.000000 1.936070 0.000000 
#    z 0.000000 0.000000 2.059850 
# 
# From -- ./inp_files/1185.got.cif
#   From: 2010.05.17/outbox.cif.g08.bks.cpg/sg29_1_cif.got.tgz:1185.got - 2010.06.04 01:19:37.
