data_PCOD9341984
_publ_section_title
;
Structure prediction by ZEFSAII (Michael W. Deem and Ramdas Pophale) SiO2 
 PCOD9341984
Probable space group: P N C 2
;
_chemical_formula_sum "Si O2"
_cell_formula_units_Z 20
_cell_length_a 6.091412
_cell_length_b 12.038305
_cell_length_c 12.149459
_cell_angle_alpha 90.000000
_cell_angle_beta 90.000000
_cell_angle_gamma 90.000000
_cell_volume 890.923176
_symmetry_space_group_name_H-M "P N C 2"
_symmetry_group_IT_number 30
_symmetry_cell_setting 'orthorhombic'
loop_
_space_group_symop_operation_xyz
x,y,z
-x,-y,z
-x,1/2+y,1/2+z
x,1/2-y,1/2+z
loop_
_atom_site_type_symbol
_atom_site_label
_atom_site_fract_x
_atom_site_fract_y
_atom_site_fract_z
Si Si1 0.003313 0.382840 0.623920
Si Si2 0.385992 0.247570 0.551395
Si Si3 0.240072 0.484641 0.980014
Si Si4 0.328309 0.899411 0.921447
Si Si5 0.235021 0.659862 0.182479
O O1 0.849317 0.403496 0.518034
O O2 0.919010 0.268542 0.678099
O O3 0.000000 0.500000 0.685742
O O4 0.244923 0.352917 0.584412
O O5 0.543255 0.285639 0.452140
O O6 0.524988 0.209722 0.656627
O O7 0.242392 0.143900 0.515082
O O8 0.500000 0.500000 0.938632
O O9 0.218938 0.568243 0.085183
O O10 0.000000 0.500000 0.922554
O O11 0.222324 0.893756 0.801613
O O12 0.500000 0.000000 0.922534
#
# Coordination Sequence:
#
# PCOD9341984 Si02
#       5
#     4   4   4   4   4
#     4  11  22  40  66  93 132 173 210 273 342 407
#     4  10  21  39  62  89 132 167 211 276 342 393
#     4  10  19  37  64  93 123 171 216 273 333 397
#     4  11  22  39  64  99 122 167 228 280 331 406
#     4  10  23  39  67  93 128 170 225 274 337 403
#
# _framework density 22.448625
#
# number of rings (size 3 to 8) (size 9 to 14) (size 15 to 20)
#    0.000    1.600    4.000    1.800    0.000    2.400 
#    0.000    0.000   39.600    0.000    0.000    0.000 
#    0.000    0.000    0.000    0.000    0.000    0.000 
#
# Total GULP energy -111464.102405 kJ/mol
# GULP energy per Si atom -5573.205120 kJ/mol
# Density = 2.239753 g / cm^3
# Si number density = 22.448625 Si / 1000 Ang^3
#
#
#
# Elastic Constant Matrix: (Units=GPa)
#
#
# Indices 1 2 3 4 5 6 
#
# 1 95.1066 16.1776 19.3165 0.0000 0.0000 0.0000
# 2 16.1776 126.4356 18.6382 0.0000 0.0000 0.0000
# 3 19.3165 18.6382 92.7133 0.0000 0.0000 0.0000
# 4 0.0000 0.0000 0.0000 -93.4573 0.0000 0.0000
# 5 0.0000 0.0000 0.0000 0.0000 1.1385 0.0000
# 6 0.0000 0.0000 0.0000 0.0000 0.0000 59.1849
#
#
#
# Elastic Compliance Matrix: (Units=1/GPa)
#
#
# Indices 1 2 3 4 5 6 
#
# 1 0.011130 -0.001115 -0.002095 0.000000 0.000000 0.000000
# 2 -0.001115 0.008262 -0.001429 0.000000 0.000000 0.000000
# 3 -0.002095 -0.001429 0.011510 0.000000 0.000000 0.000000
# 4 0.000000 0.000000 0.000000 -0.010700 0.000000 0.000000
# 5 0.000000 0.000000 0.000000 0.000000 0.878351 0.000000
# 6 0.000000 0.000000 0.000000 0.000000 0.000000 0.016896
#
#
# Mechanical properties :
#
#
# Convention : Reuss Voigt Hill
#
# Bulk Modulus (GPa) = 46.24367 46.94667 46.59517
# Shear Modulus (GPa) = 5.36519 10.71475 8.03997
#
# Velocity S-wave (km/s) = 1.54763 2.18709 1.89454
# Velocity P-wave (km/s) = 4.88242 5.22840 5.05837
#
# Compressibility (1/GPa) = 0.02162458
#
# Stress axis : x y z
#
# Youngs Moduli (GPa) = 89.85001 121.02925 86.88435
#
# Poissons Ratio (x) = 0.13498 0.18199
# Poissons Ratio (y) = 0.10021 0.12413
# Poissons Ratio (z) = 0.18820 0.17291
#
# Static dielectric constant tensor:
#      x y z
#    x 1.893060 0.000000 0.000000 
#    y 0.000000 1.927650 0.000000 
#    z 0.000000 0.000000 1.800980 
# 
# From -- ./inp_files/4582.got.cif
#   From: 2010.05.17/outbox.cif.g08.bks.cpg/sg30_3_cif.got.tgz:4582.got - 2010.06.03 17:03:02.
