data_PCOD9341327
_publ_section_title
;
Structure prediction by ZEFSAII (Michael W. Deem and Ramdas Pophale) SiO2 
 PCOD9341327
Probable space group: P C A 21
;
_chemical_formula_sum "Si O2"
_cell_formula_units_Z 32
_cell_length_a 8.599957
_cell_length_b 12.055172
_cell_length_c 13.068883
_cell_angle_alpha 90.000000
_cell_angle_beta 90.000000
_cell_angle_gamma 90.000000
_cell_volume 1354.902864
_symmetry_space_group_name_H-M "P C A 21"
_symmetry_group_IT_number 29
_symmetry_cell_setting 'orthorhombic'
loop_
_space_group_symop_operation_xyz
x,y,z
-x,-y,1/2+z
1/2-x,y,1/2+z
1/2+x,-y,z
loop_
_atom_site_type_symbol
_atom_site_label
_atom_site_fract_x
_atom_site_fract_y
_atom_site_fract_z
Si Si1 0.501151 0.273596 0.772670
Si Si2 0.876958 0.426932 0.597548
Si Si3 0.893656 0.627650 0.443412
Si Si4 0.300754 0.151771 0.933171
Si Si5 0.723587 0.277643 0.425628
Si Si6 0.388773 0.494374 0.243708
Si Si7 0.408171 0.960692 0.540505
Si Si8 0.878823 0.142205 0.096576
O O1 0.364449 0.198554 0.822419
O O2 0.661486 0.250727 0.834786
O O3 0.492263 0.406972 0.776183
O O4 0.541203 0.239687 0.657445
O O5 0.896999 0.542057 0.536490
O O6 0.826422 0.337335 0.513731
O O7 0.741833 0.443289 0.679318
O O8 0.030860 0.409346 0.664566
O O9 0.796186 0.738763 0.468332
O O10 0.827486 0.563356 0.345209
O O11 0.071252 0.649629 0.407269
O O12 0.465246 0.118117 0.985801
O O13 0.189549 0.045048 0.963461
O O14 0.645465 0.170757 0.477279
O O15 0.296043 0.894305 0.617503
O O16 0.510446 0.039931 0.610280
#
# Coordination Sequence:
#
# PCOD9341327 Si02
#       8
#     4   4   4   4   4   4   4   4
#     4  12  25  44  73 108 147 184 242 292 363 440
#     4  12  25  43  69 100 151 193 236 295 353 429
#     4  12  26  45  70 106 150 195 240 296 364 435
#     4  11  25  45  76 104 139 189 244 307 367 422
#     4  12  24  46  68 101 147 190 234 296 362 424
#     4  12  26  42  68 110 148 191 244 282 356 448
#     4  10  24  49  75 101 140 184 250 303 366 421
#     4  11  23  48  71 104 140 186 234 301 359 425
#
# _framework density 23.617929
#
# number of rings (size 3 to 8) (size 9 to 14) (size 15 to 20)
#    0.000    0.500    6.250    1.500    3.500    1.000 
#    0.000    1.250    0.000    0.000    0.000    0.000 
#    0.000    0.000    0.000    0.000    0.000    0.000 
#
# Total GULP energy -178493.522325 kJ/mol
# GULP energy per Si atom -5577.922573 kJ/mol
# Density = 2.356417 g / cm^3
# Si number density = 23.617929 Si / 1000 Ang^3
#
#
#
# Elastic Constant Matrix: (Units=GPa)
#
#
# Indices 1 2 3 4 5 6 
#
# 1 82.0576 16.7951 9.1451 0.0000 0.0000 0.0000
# 2 16.7951 91.7033 8.2310 0.0000 0.0000 0.0000
# 3 9.1451 8.2310 53.8492 0.0000 0.0000 0.0000
# 4 0.0000 0.0000 0.0000 13.1863 0.0000 0.0000
# 5 0.0000 0.0000 0.0000 0.0000 25.8291 0.0000
# 6 0.0000 0.0000 0.0000 0.0000 0.0000 47.6887
#
#
#
# Elastic Compliance Matrix: (Units=1/GPa)
#
#
# Indices 1 2 3 4 5 6 
#
# 1 0.012840 -0.002186 -0.001846 0.000000 0.000000 0.000000
# 2 -0.002186 0.011429 -0.001376 0.000000 0.000000 0.000000
# 3 -0.001846 -0.001376 0.019094 0.000000 0.000000 0.000000
# 4 0.000000 0.000000 0.000000 0.075836 0.000000 0.000000
# 5 0.000000 0.000000 0.000000 0.000000 0.038716 0.000000
# 6 0.000000 0.000000 0.000000 0.000000 0.000000 0.020969
#
#
# Mechanical properties :
#
#
# Convention : Reuss Voigt Hill
#
# Bulk Modulus (GPa) = 30.72515 32.88361 31.80438
# Shear Modulus (GPa) = 24.93161 30.23676 27.58419
#
# Velocity S-wave (km/s) = 3.25256 3.58193 3.42121
# Velocity P-wave (km/s) = 5.20990 5.57318 5.39460
#
# Compressibility (1/GPa) = 0.03254663
#
# Stress axis : x y z
#
# Youngs Moduli (GPa) = 77.88329 87.50027 52.37188
#
# Poissons Ratio (x) = 0.19126 0.09670
# Poissons Ratio (y) = 0.17024 0.07205
# Poissons Ratio (z) = 0.14381 0.12037
#
# Static dielectric constant tensor:
#      x y z
#    x 2.011200 0.000000 0.000000 
#    y 0.000000 1.985420 0.000000 
#    z 0.000000 0.000000 1.888030 
# 
# From -- ./inp_files/4280.got.cif
#   From: 2010.05.17/outbox.cif.g08.bks.cpg/sg29_3_cif.got.tgz:4280.got - 2010.06.04 01:19:37.
