data_PCOD9341971
_publ_section_title
;
Structure prediction by ZEFSAII (Michael W. Deem and Ramdas Pophale) SiO2 
 PCOD9341971
Probable space group: P N C 2
;
_chemical_formula_sum "Si O2"
_cell_formula_units_Z 16
_cell_length_a 7.975181
_cell_length_b 15.543217
_cell_length_c 5.087781
_cell_angle_alpha 90.000000
_cell_angle_beta 90.000000
_cell_angle_gamma 90.000000
_cell_volume 630.681175
_symmetry_space_group_name_H-M "P N C 2"
_symmetry_group_IT_number 30
_symmetry_cell_setting 'orthorhombic'
loop_
_space_group_symop_operation_xyz
x,y,z
-x,-y,z
-x,1/2+y,1/2+z
x,1/2-y,1/2+z
loop_
_atom_site_type_symbol
_atom_site_label
_atom_site_fract_x
_atom_site_fract_y
_atom_site_fract_z
Si Si1 0.332813 0.546527 0.266120
Si Si2 0.048111 0.600845 0.911668
Si Si3 0.142199 0.125361 0.915056
Si Si4 0.501346 0.804212 0.069472
O O1 0.500000 0.500000 0.154715
O O2 0.212074 0.473028 0.386930
O O3 0.599792 0.388550 0.484944
O O4 0.228045 0.597102 0.047725
O O5 0.000000 0.500000 0.898494
O O6 0.007797 0.635249 0.623531
O O7 0.924704 0.645566 0.124327
O O8 0.302689 0.174781 0.023724
O O9 0.465723 0.730524 0.856142
#
# Coordination Sequence:
#
# PCOD9341971 Si02
#       4
#     4   4   4   4
#     4   9  21  41  67  96 126 165 212 264 318 377
#     4  10  19  36  63  94 121 155 208 262 308 367
#     4  10  21  39  63  89 123 164 210 257 309 374
#     4  11  24  42  61  89 128 170 210 259 319 378
#
# _framework density 25.369399000000001
#
# number of rings (size 3 to 8) (size 9 to 14) (size 15 to 20)
#    0.000    2.000    0.000    3.750    0.000    6.000 
#    0.000   27.500    0.000    0.000    0.000    0.000 
#    0.000    0.000    0.000    0.000    0.000    0.000 
#
# Total GULP energy -89636.861785 kJ/mol
# GULP energy per Si atom -5602.303862 kJ/mol
# Density = 2.531166 g / cm^3
# Si number density = 25.369399 Si / 1000 Ang^3
#
#
#
# Elastic Constant Matrix: (Units=GPa)
#
#
# Indices 1 2 3 4 5 6 
#
# 1 118.5560 27.7172 43.3497 0.0000 0.0000 0.0000
# 2 27.7172 64.0878 3.4495 0.0000 0.0000 0.0000
# 3 43.3497 3.4495 102.6904 0.0000 0.0000 0.0000
# 4 0.0000 0.0000 0.0000 13.4974 0.0000 0.0000
# 5 0.0000 0.0000 0.0000 0.0000 40.4210 0.0000
# 6 0.0000 0.0000 0.0000 0.0000 0.0000 38.9011
#
#
#
# Elastic Compliance Matrix: (Units=1/GPa)
#
#
# Indices 1 2 3 4 5 6 
#
# 1 0.011176 -0.004588 -0.004564 0.000000 0.000000 0.000000
# 2 -0.004588 0.017515 0.001348 0.000000 0.000000 0.000000
# 3 -0.004564 0.001348 0.011619 0.000000 0.000000 0.000000
# 4 0.000000 0.000000 0.000000 0.074088 0.000000 0.000000
# 5 0.000000 0.000000 0.000000 0.000000 0.024740 0.000000
# 6 0.000000 0.000000 0.000000 0.000000 0.000000 0.025706
#
#
# Mechanical properties :
#
#
# Convention : Reuss Voigt Hill
#
# Bulk Modulus (GPa) = 40.47922 48.26298 44.37110
# Shear Modulus (GPa) = 26.49900 32.61841 29.55870
#
# Velocity S-wave (km/s) = 3.23542 3.58961 3.41711
# Velocity P-wave (km/s) = 5.47246 6.02045 5.75298
#
# Compressibility (1/GPa) = 0.02470404
#
# Stress axis : x y z
#
# Youngs Moduli (GPa) = 89.47597 57.09315 86.06392
#
# Poissons Ratio (x) = 0.26194 0.39278
# Poissons Ratio (y) = 0.41051 -0.11605
# Poissons Ratio (z) = 0.40835 -0.07698
#
# Static dielectric constant tensor:
#      x y z
#    x 2.011330 0.000000 0.000000 
#    y 0.000000 2.006050 0.000000 
#    z 0.000000 0.000000 1.945000 
# 
# From -- ./inp_files/377.got.cif
#   From: 2010.05.17/outbox.cif.g08.bks.cpg/sg30_1_cif.got.tgz:377.got - 2010.06.03 17:03:02.
