data_PCOD9341656
_publ_section_title
;
Structure prediction by ZEFSAII (Michael W. Deem and Ramdas Pophale) SiO2 
 PCOD9341656
Probable space group: P C A 21
;
_chemical_formula_sum "Si O2"
_cell_formula_units_Z 20
_cell_length_a 7.420607
_cell_length_b 11.249015
_cell_length_c 8.841928
_cell_angle_alpha 90.000000
_cell_angle_beta 90.000000
_cell_angle_gamma 90.000000
_cell_volume 738.075691
_symmetry_space_group_name_H-M "P C A 21"
_symmetry_group_IT_number 29
_symmetry_cell_setting 'orthorhombic'
loop_
_space_group_symop_operation_xyz
x,y,z
-x,-y,1/2+z
1/2-x,y,1/2+z
1/2+x,-y,z
loop_
_atom_site_type_symbol
_atom_site_label
_atom_site_fract_x
_atom_site_fract_y
_atom_site_fract_z
Si Si1 0.004491 0.371679 0.468940
Si Si2 0.619670 0.199986 0.554529
Si Si3 0.672221 0.436609 0.658444
Si Si4 0.424636 0.885339 0.760735
Si Si5 0.345696 0.141435 0.787535
O O1 0.859905 0.373382 0.607926
O O2 0.901027 0.440967 0.330287
O O3 0.155864 0.446985 0.556736
O O4 0.083405 0.250101 0.393633
O O5 0.549720 0.331840 0.594229
O O6 0.656857 0.207916 0.379156
O O7 0.452444 0.131575 0.628059
O O8 0.792973 0.131738 0.621580
O O9 0.634234 0.855181 0.751463
O O10 0.395385 0.010446 0.847888
#
# Coordination Sequence:
#
# PCOD9341656 Si02
#       5
#     4   4   4   4   4
#     4  11  26  51  77 119 156 220 265 340 410 489
#     4  11  27  49  77 112 155 215 259 336 400 475
#     4  11  25  49  77 109 163 204 277 332 405 484
#     4  12  27  49  80 115 162 208 266 335 402 487
#     4  11  27  46  79 119 160 207 267 327 411 487
#
# _framework density 27.097490000000001
#
# number of rings (size 3 to 8) (size 9 to 14) (size 15 to 20)
#    0.000    0.800    2.000    3.600    5.600    3.200 
#    3.600    0.000    0.000    0.000    0.000    0.000 
#    0.000    0.000    0.000    0.000    0.000    0.000 
#
# Total GULP energy -111478.756034 kJ/mol
# GULP energy per Si atom -5573.937802 kJ/mol
# Density = 2.703582 g / cm^3
# Si number density = 27.097490 Si / 1000 Ang^3
#
#
#
# Elastic Constant Matrix: (Units=GPa)
#
#
# Indices 1 2 3 4 5 6 
#
# 1 217.8294 56.8783 58.9903 0.0000 0.0000 0.0000
# 2 56.8783 108.9092 48.3049 0.0000 0.0000 0.0000
# 3 58.9903 48.3049 124.4040 0.0000 0.0000 0.0000
# 4 0.0000 0.0000 0.0000 48.4228 0.0000 0.0000
# 5 0.0000 0.0000 0.0000 0.0000 22.6486 0.0000
# 6 0.0000 0.0000 0.0000 0.0000 0.0000 4.0611
#
#
#
# Elastic Compliance Matrix: (Units=1/GPa)
#
#
# Indices 1 2 3 4 5 6 
#
# 1 0.005648 -0.002128 -0.001852 0.000000 0.000000 0.000000
# 2 -0.002128 0.011894 -0.003609 0.000000 0.000000 0.000000
# 3 -0.001852 -0.003609 0.010318 0.000000 0.000000 0.000000
# 4 0.000000 0.000000 0.000000 0.020651 0.000000 0.000000
# 5 0.000000 0.000000 0.000000 0.000000 0.044153 0.000000
# 6 0.000000 0.000000 0.000000 0.000000 0.000000 0.246239
#
#
# Mechanical properties :
#
#
# Convention : Reuss Voigt Hill
#
# Bulk Modulus (GPa) = 78.85534 86.60996 82.73265
# Shear Modulus (GPa) = 13.95443 34.15777 24.05610
#
# Velocity S-wave (km/s) = 2.27176 3.55428 2.98276
# Velocity P-wave (km/s) = 6.00375 6.99111 6.51615
#
# Compressibility (1/GPa) = 0.01268145
#
# Stress axis : x y z
#
# Youngs Moduli (GPa) = 177.05487 84.07376 96.91969
#
# Poissons Ratio (x) = 0.17894 0.17947
# Poissons Ratio (y) = 0.37684 0.34980
# Poissons Ratio (z) = 0.32786 0.30344
#
# Static dielectric constant tensor:
#      x y z
#    x 2.423710 0.000000 0.000000 
#    y 0.000000 2.750870 0.000000 
#    z 0.000000 0.000000 2.309020 
# 
# From -- ./inp_files/1095.got.cif
#   From: 2010.05.17/outbox.cif.g08.bks.cpg/sg29_1_cif.got.tgz:1095.got - 2010.06.04 01:19:37.
