data_PCOD9341069
_publ_section_title
;
Structure prediction by ZEFSAII (Michael W. Deem and Ramdas Pophale) SiO2 
 PCOD9341069
Probable space group: P C A 21
;
_chemical_formula_sum "Si O2"
_cell_formula_units_Z 20
_cell_length_a 15.517655
_cell_length_b 9.073132
_cell_length_c 4.894291
_cell_angle_alpha 90.000000
_cell_angle_beta 90.000000
_cell_angle_gamma 90.000000
_cell_volume 689.085496
_symmetry_space_group_name_H-M "P C A 21"
_symmetry_group_IT_number 29
_symmetry_cell_setting 'orthorhombic'
loop_
_space_group_symop_operation_xyz
x,y,z
-x,-y,1/2+z
1/2-x,y,1/2+z
1/2+x,-y,z
loop_
_atom_site_type_symbol
_atom_site_label
_atom_site_fract_x
_atom_site_fract_y
_atom_site_fract_z
Si Si1 0.441882 0.002035 0.823780
Si Si2 0.366370 0.229518 0.194895
Si Si3 0.697342 0.062895 0.961123
Si Si4 0.475826 0.589522 0.559637
Si Si5 0.802779 0.443515 0.232847
O O1 0.384523 0.893686 0.641717
O O2 0.516147 0.049500 0.609250
O O3 0.379325 0.134538 0.919909
O O4 0.325459 0.110149 0.399358
O O5 0.466023 0.287048 0.212031
O O6 0.314069 0.379075 0.219916
O O7 0.776435 0.106068 0.157817
O O8 0.536926 0.525005 0.312099
O O9 0.388907 0.612760 0.384185
O O10 0.723450 0.402462 0.428576
#
# Coordination Sequence:
#
# PCOD9341069 Si02
#       5
#     4   4   4   4   4
#     4  12  25  43  65  98 139 187 232 286 360 430
#     4  11  24  39  69  97 137 183 229 285 352 429
#     4  12  23  39  65 101 133 165 223 298 355 396
#     4  10  23  39  61  95 136 182 224 270 345 427
#     4  11  23  38  62  99 135 169 222 285 344 398
#
# _framework density 29.023975
#
# number of rings (size 3 to 8) (size 9 to 14) (size 15 to 20)
#    0.000    0.800    4.000    3.600    8.400    0.000 
#    0.000    0.000    0.000    7.200    0.000    0.000 
#    0.000    0.000    0.000    0.000    0.000    0.000 
#
# Total GULP energy -111724.477030 kJ/mol
# GULP energy per Si atom -5586.223851 kJ/mol
# Density = 2.895791 g / cm^3
# Si number density = 29.023975 Si / 1000 Ang^3
#
#
#
# Elastic Constant Matrix: (Units=GPa)
#
#
# Indices 1 2 3 4 5 6 
#
# 1 136.3586 26.8007 43.1684 0.0000 0.0000 0.0000
# 2 26.8007 117.7737 58.5235 0.0000 0.0000 0.0000
# 3 43.1684 58.5235 223.1611 0.0000 0.0000 0.0000
# 4 0.0000 0.0000 0.0000 36.1028 0.0000 0.0000
# 5 0.0000 0.0000 0.0000 0.0000 89.3652 0.0000
# 6 0.0000 0.0000 0.0000 0.0000 0.0000 39.4340
#
#
#
# Elastic Compliance Matrix: (Units=1/GPa)
#
#
# Indices 1 2 3 4 5 6 
#
# 1 0.007957 -0.001203 -0.001224 0.000000 0.000000 0.000000
# 2 -0.001203 0.009945 -0.002375 0.000000 0.000000 0.000000
# 3 -0.001224 -0.002375 0.005341 0.000000 0.000000 0.000000
# 4 0.000000 0.000000 0.000000 0.027699 0.000000 0.000000
# 5 0.000000 0.000000 0.000000 0.000000 0.011190 0.000000
# 6 0.000000 0.000000 0.000000 0.000000 0.000000 0.025359
#
#
# Mechanical properties :
#
#
# Convention : Reuss Voigt Hill
#
# Bulk Modulus (GPa) = 73.31776 81.58649 77.45213
# Shear Modulus (GPa) = 49.19280 56.23380 52.71330
#
# Velocity S-wave (km/s) = 4.12139 4.40647 4.26631
# Velocity P-wave (km/s) = 6.92558 7.35258 7.14227
#
# Compressibility (1/GPa) = 0.01363926
#
# Stress axis : x y z
#
# Youngs Moduli (GPa) = 125.66855 100.55405 187.23922
#
# Poissons Ratio (x) = 0.12093 0.22916
# Poissons Ratio (y) = 0.15113 0.44477
# Poissons Ratio (z) = 0.15381 0.23886
#
# Static dielectric constant tensor:
#      x y z
#    x 2.391340 0.000000 0.000000 
#    y 0.000000 2.535240 0.000000 
#    z 0.000000 0.000000 2.112760 
# 
# From -- ./inp_files/156.got.cif
#   From: 2010.05.17/outbox.cif.g08.bks.cpg/sg29_1_cif.got.tgz:156.got - 2010.06.04 01:19:37.
