data_PCOD9341334
_publ_section_title
;
Structure prediction by ZEFSAII (Michael W. Deem and Ramdas Pophale) SiO2 
 PCOD9341334
Probable space group: P C A 21
;
_chemical_formula_sum "Si O2"
_cell_formula_units_Z 32
_cell_length_a 8.678226
_cell_length_b 15.371143
_cell_length_c 10.844280
_cell_angle_alpha 90.000000
_cell_angle_beta 90.000000
_cell_angle_gamma 90.000000
_cell_volume 1446.564628
_symmetry_space_group_name_H-M "P C A 21"
_symmetry_group_IT_number 29
_symmetry_cell_setting 'orthorhombic'
loop_
_space_group_symop_operation_xyz
x,y,z
-x,-y,1/2+z
1/2-x,y,1/2+z
1/2+x,-y,z
loop_
_atom_site_type_symbol
_atom_site_label
_atom_site_fract_x
_atom_site_fract_y
_atom_site_fract_z
Si Si1 0.044818 0.083503 0.389300
Si Si2 0.503165 0.628036 0.179667
Si Si3 0.263414 0.502641 0.786043
Si Si4 0.037960 0.390522 0.900349
Si Si5 0.183024 0.784122 0.010046
Si Si6 0.588303 0.241099 0.279689
Si Si7 0.981487 0.172892 0.147449
Si Si8 0.405949 0.100790 0.410325
O O1 0.228241 0.088112 0.378030
O O2 0.962009 0.159333 0.468113
O O3 0.986073 0.100861 0.251222
O O4 0.984347 0.991641 0.437368
O O5 0.660874 0.575029 0.205928
O O6 0.364608 0.568681 0.233148
O O7 0.503500 0.731160 0.209183
O O8 0.480640 0.629963 0.034441
O O9 0.185424 0.451455 0.898901
O O10 0.405309 0.558710 0.829446
O O11 0.050878 0.302836 0.823966
O O12 0.130612 0.734390 0.137887
O O13 0.320542 0.836199 0.075394
O O14 0.271225 0.749328 0.883349
O O15 0.514101 0.146689 0.306459
O O16 0.098083 0.158173 0.035502
#
# Coordination Sequence:
#
# PCOD9341334 Si02
#       8
#     4   4   4   4   4   4   4   4
#     4  12  28  45  72 100 141 183 238 288 359 426
#     4  11  22  44  67 100 141 180 236 285 358 410
#     4  10  25  39  67  97 136 185 225 291 349 427
#     4  11  22  43  65  97 136 177 233 285 353 420
#     4  11  23  46  70 104 131 190 224 289 349 413
#     4  11  24  45  74 100 142 179 238 290 353 427
#     4  11  25  44  73 102 141 182 242 295 344 431
#     4  11  27  46  68 102 138 186 226 299 351 424
#
# _framework density 22.121376999999999
#
# number of rings (size 3 to 8) (size 9 to 14) (size 15 to 20)
#    0.000    1.000    3.750    3.000    5.250    0.000 
#    0.000    0.000    0.000    0.000    0.000    0.000 
#    0.000    0.000    0.000    0.000    0.000    0.000 
#
# Total GULP energy -178269.852672 kJ/mol
# GULP energy per Si atom -5570.932896 kJ/mol
# Density = 2.207103 g / cm^3
# Si number density = 22.121377 Si / 1000 Ang^3
#
#
#
# Elastic Constant Matrix: (Units=GPa)
#
#
# Indices 1 2 3 4 5 6 
#
# 1 43.7202 12.6651 17.8667 0.0000 0.0000 0.0000
# 2 12.6651 79.8306 14.8568 0.0000 0.0000 0.0000
# 3 17.8667 14.8568 53.3560 0.0000 0.0000 0.0000
# 4 0.0000 0.0000 0.0000 29.4009 0.0000 0.0000
# 5 0.0000 0.0000 0.0000 0.0000 18.5646 0.0000
# 6 0.0000 0.0000 0.0000 0.0000 0.0000 29.1384
#
#
#
# Elastic Compliance Matrix: (Units=1/GPa)
#
#
# Indices 1 2 3 4 5 6 
#
# 1 0.027059 -0.002749 -0.008295 0.000000 0.000000 0.000000
# 2 -0.002749 0.013490 -0.002836 0.000000 0.000000 0.000000
# 3 -0.008295 -0.002836 0.022309 0.000000 0.000000 0.000000
# 4 0.000000 0.000000 0.000000 0.034013 0.000000 0.000000
# 5 0.000000 0.000000 0.000000 0.000000 0.053866 0.000000
# 6 0.000000 0.000000 0.000000 0.000000 0.000000 0.034319
#
#
# Mechanical properties :
#
#
# Convention : Reuss Voigt Hill
#
# Bulk Modulus (GPa) = 28.49148 29.74267 29.11708
# Shear Modulus (GPa) = 22.27006 24.18866 23.22936
#
# Velocity S-wave (km/s) = 3.17633 3.31033 3.24402
# Velocity P-wave (km/s) = 5.13417 5.29957 5.21752
#
# Compressibility (1/GPa) = 0.03509822
#
# Stress axis : x y z
#
# Youngs Moduli (GPa) = 36.95615 74.12660 44.82406
#
# Poissons Ratio (x) = 0.20378 0.37184
# Poissons Ratio (y) = 0.10160 0.12711
# Poissons Ratio (z) = 0.30657 0.21021
#
# Static dielectric constant tensor:
#      x y z
#    x 1.905730 0.000000 0.000000 
#    y 0.000000 1.867830 0.000000 
#    z 0.000000 0.000000 1.857300 
# 
# From -- ./inp_files/2940.got.cif
#   From: 2010.05.17/outbox.cif.g08.bks.cpg/sg29_2_cif.got.tgz:2940.got - 2010.06.04 01:19:37.
