data_PCOD9341287
_publ_section_title
;
Structure prediction by ZEFSAII (Michael W. Deem and Ramdas Pophale) SiO2 
 PCOD9341287
Probable space group: P C A 21
;
_chemical_formula_sum "Si O2"
_cell_formula_units_Z 20
_cell_length_a 18.000374
_cell_length_b 4.989034
_cell_length_c 9.291894
_cell_angle_alpha 90.000000
_cell_angle_beta 90.000000
_cell_angle_gamma 90.000000
_cell_volume 834.453689
_symmetry_space_group_name_H-M "P C A 21"
_symmetry_group_IT_number 29
_symmetry_cell_setting 'orthorhombic'
loop_
_space_group_symop_operation_xyz
x,y,z
-x,-y,1/2+z
1/2-x,y,1/2+z
1/2+x,-y,z
loop_
_atom_site_type_symbol
_atom_site_label
_atom_site_fract_x
_atom_site_fract_y
_atom_site_fract_z
Si Si1 0.594186 0.381374 0.691070
Si Si2 0.635728 0.718422 0.944044
Si Si3 0.782206 0.221801 0.382285
Si Si4 0.883800 0.431593 0.860969
Si Si5 0.054872 0.075208 0.213520
O O1 0.599335 0.645134 0.790576
O O2 0.672982 0.244797 0.730993
O O3 0.586672 0.433679 0.523703
O O4 0.526629 0.194564 0.740548
O O5 0.671040 0.428993 0.983771
O O6 0.704327 0.922035 0.933047
O O7 0.577684 0.855593 0.050128
O O8 0.699563 0.321084 0.365555
O O9 0.889842 0.731418 0.802494
O O10 0.930985 0.227222 0.761960
#
# Coordination Sequence:
#
# PCOD9341287 Si02
#       5
#     4   4   4   4   4
#     4  10  28  44  75 100 149 183 242 286 360 423
#     4  10  24  44  72  94 145 180 231 291 355 406
#     4  10  25  45  72  98 142 182 238 290 347 418
#     4  12  28  45  74 107 138 191 241 290 360 428
#     4  12  27  44  73 105 146 184 238 293 362 425
#
# _framework density 23.967777999999999
#
# number of rings (size 3 to 8) (size 9 to 14) (size 15 to 20)
#    1.200    0.000    0.000    3.600   14.000    0.000 
#    0.000    0.000    0.000    0.000    0.000    0.000 
#    0.000    0.000    0.000    0.000    0.000    0.000 
#
# Total GULP energy -111832.595284 kJ/mol
# GULP energy per Si atom -5591.629764 kJ/mol
# Density = 2.391323 g / cm^3
# Si number density = 23.967778 Si / 1000 Ang^3
#
#
#
# Elastic Constant Matrix: (Units=GPa)
#
#
# Indices 1 2 3 4 5 6 
#
# 1 101.4142 2.8933 2.9395 0.0000 0.0000 0.0000
# 2 2.8933 92.6389 8.2536 0.0000 0.0000 0.0000
# 3 2.9395 8.2536 96.1001 0.0000 0.0000 0.0000
# 4 0.0000 0.0000 0.0000 24.1772 0.0000 0.0000
# 5 0.0000 0.0000 0.0000 0.0000 24.1935 0.0000
# 6 0.0000 0.0000 0.0000 0.0000 0.0000 35.9282
#
#
#
# Elastic Compliance Matrix: (Units=1/GPa)
#
#
# Indices 1 2 3 4 5 6 
#
# 1 0.009877 -0.000284 -0.000278 0.000000 0.000000 0.000000
# 2 -0.000284 0.010886 -0.000926 0.000000 0.000000 0.000000
# 3 -0.000278 -0.000926 0.010494 0.000000 0.000000 0.000000
# 4 0.000000 0.000000 0.000000 0.041361 0.000000 0.000000
# 5 0.000000 0.000000 0.000000 0.000000 0.041333 0.000000
# 6 0.000000 0.000000 0.000000 0.000000 0.000000 0.027833
#
#
# Mechanical properties :
#
#
# Convention : Reuss Voigt Hill
#
# Bulk Modulus (GPa) = 35.35932 35.36956 35.36444
# Shear Modulus (GPa) = 32.42817 35.26426 33.84622
#
# Velocity S-wave (km/s) = 3.68229 3.83994 3.76194
# Velocity P-wave (km/s) = 5.73271 5.86936 5.80143
#
# Compressibility (1/GPa) = 0.02828108
#
# Stress axis : x y z
#
# Youngs Moduli (GPa) = 101.24847 91.86124 95.29377
#
# Poissons Ratio (x) = 0.02606 0.02647
# Poissons Ratio (y) = 0.02873 0.08827
# Poissons Ratio (z) = 0.02812 0.08509
#
# Static dielectric constant tensor:
#      x y z
#    x 1.903200 0.000000 0.000000 
#    y 0.000000 1.858720 0.000000 
#    z 0.000000 0.000000 1.952610 
# 
# From -- ./inp_files/1955.got.cif
#   From: 2010.05.17/outbox.cif.g08.bks.cpg/sg29_1_cif.got.tgz:1955.got - 2010.06.04 01:19:37.
