data_PCOD9341310
_publ_section_title
;
Structure prediction by ZEFSAII (Michael W. Deem and Ramdas Pophale) SiO2 
 PCOD9341310
Probable space group: P C A 21
;
_chemical_formula_sum "Si O2"
_cell_formula_units_Z 20
_cell_length_a 20.714311
_cell_length_b 7.025278
_cell_length_c 5.448123
_cell_angle_alpha 90.000000
_cell_angle_beta 90.000000
_cell_angle_gamma 90.000000
_cell_volume 792.831526
_symmetry_space_group_name_H-M "P C A 21"
_symmetry_group_IT_number 29
_symmetry_cell_setting 'orthorhombic'
loop_
_space_group_symop_operation_xyz
x,y,z
-x,-y,1/2+z
1/2-x,y,1/2+z
1/2+x,-y,z
loop_
_atom_site_type_symbol
_atom_site_label
_atom_site_fract_x
_atom_site_fract_y
_atom_site_fract_z
Si Si1 0.489631 0.175352 0.477240
Si Si2 0.717269 0.971188 0.291820
Si Si3 0.427714 0.490003 0.802390
Si Si4 0.590980 0.848496 0.585647
Si Si5 0.783905 0.427343 0.723336
O O1 0.472948 0.328876 0.684948
O O2 0.536427 0.310026 0.313379
O O3 0.418573 0.121909 0.375369
O O4 0.530395 0.985304 0.515418
O O5 0.766769 0.908585 0.511930
O O6 0.718904 0.199126 0.257075
O O7 0.650064 0.915533 0.421547
O O8 0.358051 0.516228 0.682057
O O9 0.413157 0.380000 0.056790
O O10 0.742371 0.492637 0.489265
#
# Coordination Sequence:
#
# PCOD9341310 Si02
#       5
#     4   4   4   4   4
#     4  12  26  46  68 110 142 192 240 308 368 434
#     4  10  24  46  73 104 143 191 243 305 365 428
#     4  12  26  45  73 104 145 188 244 299 368 441
#     4  12  26  45  73 104 145 188 244 299 368 441
#     4  10  24  46  73 104 143 191 243 305 365 428
#
# _framework density 25.226037999999999
#
# number of rings (size 3 to 8) (size 9 to 14) (size 15 to 20)
#    0.000    0.800    6.000    0.000    5.600    1.600 
#    7.200    0.000    0.000    0.000    0.000    0.000 
#    0.000    0.000    0.000    0.000    0.000    0.000 
#
# Total GULP energy -111447.195682 kJ/mol
# GULP energy per Si atom -5572.359784 kJ/mol
# Density = 2.516862 g / cm^3
# Si number density = 25.226038 Si / 1000 Ang^3
#
#
#
# Elastic Constant Matrix: (Units=GPa)
#
#
# Indices 1 2 3 4 5 6 
#
# 1 112.6377 18.0832 27.0512 0.0000 0.0000 0.0000
# 2 18.0832 146.9971 22.3657 0.0000 0.0000 0.0000
# 3 27.0512 22.3657 45.9018 0.0000 0.0000 0.0000
# 4 0.0000 0.0000 0.0000 2.4954 0.0000 0.0000
# 5 0.0000 0.0000 0.0000 0.0000 33.4176 0.0000
# 6 0.0000 0.0000 0.0000 0.0000 0.0000 24.9856
#
#
#
# Elastic Compliance Matrix: (Units=1/GPa)
#
#
# Indices 1 2 3 4 5 6 
#
# 1 0.010361 -0.000373 -0.005924 0.000000 0.000000 0.000000
# 2 -0.000373 0.007361 -0.003367 0.000000 0.000000 0.000000
# 3 -0.005924 -0.003367 0.026917 0.000000 0.000000 0.000000
# 4 0.000000 0.000000 0.000000 0.400738 0.000000 0.000000
# 5 0.000000 0.000000 0.000000 0.000000 0.029924 0.000000
# 6 0.000000 0.000000 0.000000 0.000000 0.000000 0.040023
#
#
# Mechanical properties :
#
#
# Convention : Reuss Voigt Hill
#
# Bulk Modulus (GPa) = 39.50837 48.94853 44.22845
# Shear Modulus (GPa) = 9.20658 28.04881 18.62770
#
# Velocity S-wave (km/s) = 1.91247 3.33813 2.72036
# Velocity P-wave (km/s) = 4.53569 5.85693 5.23813
#
# Compressibility (1/GPa) = 0.02531109
#
# Stress axis : x y z
#
# Youngs Moduli (GPa) = 96.51903 135.85079 37.15090
#
# Poissons Ratio (x) = 0.05070 0.22008
# Poissons Ratio (y) = 0.03602 0.12508
# Poissons Ratio (z) = 0.57178 0.45737
#
# Static dielectric constant tensor:
#      x y z
#    x 2.075690 0.000000 0.000000 
#    y 0.000000 1.961930 0.000000 
#    z 0.000000 0.000000 2.267880 
# 
# From -- ./inp_files/351.got.cif
#   From: 2010.05.17/outbox.cif.g08.bks.cpg/sg29_1_cif.got.tgz:351.got - 2010.06.04 01:19:37.
