data_PCOD9341113
_publ_section_title
;
Structure prediction by ZEFSAII (Michael W. Deem and Ramdas Pophale) SiO2 
 PCOD9341113
Probable space group: P C A 21
;
_chemical_formula_sum "Si O2"
_cell_formula_units_Z 24
_cell_length_a 12.644835
_cell_length_b 15.742346
_cell_length_c 5.254530
_cell_angle_alpha 90.000000
_cell_angle_beta 90.000000
_cell_angle_gamma 90.000000
_cell_volume 1045.963419
_symmetry_space_group_name_H-M "P C A 21"
_symmetry_group_IT_number 29
_symmetry_cell_setting 'orthorhombic'
loop_
_space_group_symop_operation_xyz
x,y,z
-x,-y,1/2+z
1/2-x,y,1/2+z
1/2+x,-y,z
loop_
_atom_site_type_symbol
_atom_site_label
_atom_site_fract_x
_atom_site_fract_y
_atom_site_fract_z
Si Si1 0.693825 0.648188 0.393500
Si Si2 0.872246 0.216342 0.325160
Si Si3 0.008402 0.947026 0.900764
Si Si4 0.680528 0.825650 0.248107
Si Si5 0.631846 0.291002 0.325489
Si Si6 0.566511 0.483376 0.394546
O O1 0.706793 0.654402 0.697542
O O2 0.634618 0.731312 0.294157
O O3 0.648249 0.557188 0.329609
O O4 0.891296 0.117714 0.390824
O O5 0.751685 0.253073 0.301430
O O6 0.919144 0.271038 0.555084
O O7 0.918967 0.236764 0.050282
O O8 0.908823 0.892574 0.807946
O O9 0.014966 0.019202 0.683940
O O10 0.770350 0.834078 0.467844
O O11 0.619904 0.390329 0.386985
O O12 0.520212 0.505947 0.671842
#
# Coordination Sequence:
#
# PCOD9341113 Si02
#       6
#     4   4   4   4   4   4
#     4  10  23  42  67  90 129 181 226 270 326 397
#     4  10  23  45  68 100 135 181 226 288 355 423
#     4  12  26  47  73 105 134 173 236 299 354 431
#     4  10  23  46  68  97 136 180 220 281 353 420
#     4  10  23  42  69  99 143 184 225 276 354 408
#     4  12  26  40  65 107 141 183 233 286 332 409
#
# _framework density 22.945352
#
# number of rings (size 3 to 8) (size 9 to 14) (size 15 to 20)
#    0.000    1.333    0.000    4.000    9.333    0.000 
#   18.000    0.000    0.000    0.000    0.000    0.000 
#    0.000    0.000    0.000    0.000    0.000    0.000 
#
# Total GULP energy -133926.214228 kJ/mol
# GULP energy per Si atom -5580.258926 kJ/mol
# Density = 2.289313 g / cm^3
# Si number density = 22.945352 Si / 1000 Ang^3
#
#
#
# Elastic Constant Matrix: (Units=GPa)
#
#
# Indices 1 2 3 4 5 6 
#
# 1 57.9891 18.1354 -3.5157 0.0000 0.0000 0.0000
# 2 18.1354 91.1342 -25.0900 0.0000 0.0000 0.0000
# 3 -3.5157 -25.0900 86.1367 0.0000 0.0000 0.0000
# 4 0.0000 0.0000 0.0000 35.7587 0.0000 0.0000
# 5 0.0000 0.0000 0.0000 0.0000 515.1767 0.0000
# 6 0.0000 0.0000 0.0000 0.0000 0.0000 56.4650
#
#
#
# Elastic Compliance Matrix: (Units=1/GPa)
#
#
# Indices 1 2 3 4 5 6 
#
# 1 0.018398 -0.003756 -0.000343 0.000000 0.000000 0.000000
# 2 -0.003756 0.012696 0.003545 0.000000 0.000000 0.000000
# 3 -0.000343 0.003545 0.012628 0.000000 0.000000 0.000000
# 4 0.000000 0.000000 0.000000 0.027965 0.000000 0.000000
# 5 0.000000 0.000000 0.000000 0.000000 0.001941 0.000000
# 6 0.000000 0.000000 0.000000 0.000000 0.000000 0.017710
#
#
# Mechanical properties :
#
#
# Convention : Reuss Voigt Hill
#
# Bulk Modulus (GPa) = 23.46599 23.81326 23.63963
# Shear Modulus (GPa) = 46.88169 137.86210 92.37189
#
# Velocity S-wave (km/s) = 4.52507 7.75972 6.35175
# Velocity P-wave (km/s) = 6.12787 9.52287 8.00737
#
# Compressibility (1/GPa) = 0.04261486
#
# Stress axis : x y z
#
# Youngs Moduli (GPa) = 54.35273 78.76419 79.18907
#
# Poissons Ratio (x) = 0.29581 0.02716
# Poissons Ratio (y) = 0.20413 -0.28071
# Poissons Ratio (z) = 0.01864 -0.27921
#
# Static dielectric constant tensor:
#      x y z
#    x -3.247910 0.000000 0.000000 
#    y 0.000000 1.867550 0.000000 
#    z 0.000000 0.000000 1.877910 
# 
# From -- ./inp_files/83.got.cif
#   From: 2010.05.17/outbox.cif.g08.bks.cpg/sg29_1_cif.got.tgz:83.got - 2010.06.04 01:19:37.
