data_PCOD9341638
_publ_section_title
;
Structure prediction by ZEFSAII (Michael W. Deem and Ramdas Pophale) SiO2 
 PCOD9341638
Probable space group: P C A 21
;
_chemical_formula_sum "Si O2"
_cell_formula_units_Z 28
_cell_length_a 10.004100
_cell_length_b 9.645587
_cell_length_c 12.302651
_cell_angle_alpha 90.000000
_cell_angle_beta 90.000000
_cell_angle_gamma 90.000000
_cell_volume 1187.149437
_symmetry_space_group_name_H-M "P C A 21"
_symmetry_group_IT_number 29
_symmetry_cell_setting 'orthorhombic'
loop_
_space_group_symop_operation_xyz
x,y,z
-x,-y,1/2+z
1/2-x,y,1/2+z
1/2+x,-y,z
loop_
_atom_site_type_symbol
_atom_site_label
_atom_site_fract_x
_atom_site_fract_y
_atom_site_fract_z
Si Si1 0.093860 0.813442 0.317370
Si Si2 0.629726 0.642503 0.174616
Si Si3 0.708298 0.045940 0.131274
Si Si4 0.101994 0.204916 0.616484
Si Si5 0.548494 0.127235 0.566322
Si Si6 0.523409 0.437660 0.003761
Si Si7 0.784349 0.470865 0.873530
O O1 0.180553 0.934733 0.258757
O O2 0.181741 0.675742 0.320170
O O3 0.974854 0.792564 0.230655
O O4 0.040556 0.846079 0.436320
O O5 0.764789 0.703543 0.122622
O O6 0.521023 0.761563 0.150900
O O7 0.579068 0.506740 0.112738
O O8 0.671735 0.596453 0.294808
O O9 0.790602 0.173850 0.084991
O O10 0.838341 0.950140 0.102389
O O11 0.575168 0.989362 0.079257
O O12 0.010126 0.277190 0.526549
O O13 0.631800 0.470341 0.911326
O O14 0.386161 0.512960 0.973173
#
# Coordination Sequence:
#
# PCOD9341638 Si02
#       7
#     4   4   4   4   4   4   4
#     4  12  26  45  77 108 149 197 264 307 394 465
#     4  11  25  46  74 110 154 185 249 318 392 461
#     4  11  27  50  71 108 146 205 258 321 375 469
#     4  11  25  49  71 104 156 196 253 315 375 476
#     4  11  27  48  75 104 154 197 254 325 385 466
#     4  12  25  47  72 113 149 200 240 314 394 464
#     4  12  27  43  78 113 150 192 252 312 399 471
#
# _framework density 23.585910999999999
#
# number of rings (size 3 to 8) (size 9 to 14) (size 15 to 20)
#    0.000    0.571    5.714    0.857    6.000    0.000 
#    2.571    0.000    0.000    0.000    0.000    0.000 
#    0.000    0.000    0.000    0.000    0.000    0.000 
#
# Total GULP energy -156046.043958 kJ/mol
# GULP energy per Si atom -5573.072998 kJ/mol
# Density = 2.353223 g / cm^3
# Si number density = 23.585911 Si / 1000 Ang^3
#
#
#
# Elastic Constant Matrix: (Units=GPa)
#
#
# Indices 1 2 3 4 5 6 
#
# 1 159.5953 25.7980 12.4708 0.0000 0.0000 0.0000
# 2 25.7980 165.8048 53.4830 0.0000 0.0000 0.0000
# 3 12.4708 53.4830 90.2836 0.0000 0.0000 0.0000
# 4 0.0000 0.0000 0.0000 46.3484 0.0000 0.0000
# 5 0.0000 0.0000 0.0000 0.0000 42.9465 0.0000
# 6 0.0000 0.0000 0.0000 0.0000 0.0000 33.7896
#
#
#
# Elastic Compliance Matrix: (Units=1/GPa)
#
#
# Indices 1 2 3 4 5 6 
#
# 1 0.006437 -0.000884 -0.000366 0.000000 0.000000 0.000000
# 2 -0.000884 0.007577 -0.004367 0.000000 0.000000 0.000000
# 3 -0.000366 -0.004367 0.013713 0.000000 0.000000 0.000000
# 4 0.000000 0.000000 0.000000 0.021576 0.000000 0.000000
# 5 0.000000 0.000000 0.000000 0.000000 0.023285 0.000000
# 6 0.000000 0.000000 0.000000 0.000000 0.000000 0.029595
#
#
# Mechanical properties :
#
#
# Convention : Reuss Voigt Hill
#
# Bulk Modulus (GPa) = 60.62066 66.57635 63.59850
# Shear Modulus (GPa) = 42.04725 46.21236 44.12980
#
# Velocity S-wave (km/s) = 4.22682 4.43122 4.33023
# Velocity P-wave (km/s) = 7.04125 7.38034 7.21279
#
# Compressibility (1/GPa) = 0.01649603
#
# Stress axis : x y z
#
# Youngs Moduli (GPa) = 155.34560 131.97517 72.92117
#
# Poissons Ratio (x) = 0.11662 0.02667
# Poissons Ratio (y) = 0.13727 0.31842
# Poissons Ratio (z) = 0.05681 0.57628
#
# Static dielectric constant tensor:
#      x y z
#    x 1.808020 0.000000 0.000000 
#    y 0.000000 1.747800 0.000000 
#    z 0.000000 0.000000 1.804860 
# 
# From -- ./inp_files/3155.got.cif
#   From: 2010.05.17/outbox.cif.g08.bks.cpg/sg29_2_cif.got.tgz:3155.got - 2010.06.04 01:19:37.
