data_PCOD9341354
_publ_section_title
;
Structure prediction by ZEFSAII (Michael W. Deem and Ramdas Pophale) SiO2 
 PCOD9341354
Probable space group: P C A 21
;
_chemical_formula_sum "Si O2"
_cell_formula_units_Z 32
_cell_length_a 11.395293
_cell_length_b 13.840972
_cell_length_c 8.121550
_cell_angle_alpha 90.000000
_cell_angle_beta 90.000000
_cell_angle_gamma 90.000000
_cell_volume 1280.946552
_symmetry_space_group_name_H-M "P C A 21"
_symmetry_group_IT_number 29
_symmetry_cell_setting 'orthorhombic'
loop_
_space_group_symop_operation_xyz
x,y,z
-x,-y,1/2+z
1/2-x,y,1/2+z
1/2+x,-y,z
loop_
_atom_site_type_symbol
_atom_site_label
_atom_site_fract_x
_atom_site_fract_y
_atom_site_fract_z
Si Si1 0.131464 0.459647 0.435950
Si Si2 0.384158 0.922128 0.627181
Si Si3 0.318083 0.657422 0.138324
Si Si4 0.123670 0.079071 0.427369
Si Si5 0.295232 0.192192 0.645896
Si Si6 0.754231 0.201769 0.877917
Si Si7 0.647269 0.675527 0.868226
Si Si8 0.942529 0.413708 0.675581
O O1 0.143728 0.554281 0.558152
O O2 0.251852 0.400223 0.422717
O O3 0.097897 0.483542 0.248287
O O4 0.019612 0.408815 0.513846
O O5 0.512452 0.931965 0.545970
O O6 0.304722 0.892801 0.464595
O O7 0.342298 0.832245 0.736272
O O8 0.377081 0.001358 0.777042
O O9 0.339707 0.719369 0.306336
O O10 0.179587 0.638316 0.159981
O O11 0.333201 0.740112 0.004864
O O12 0.234973 0.100557 0.550141
O O13 0.130597 0.172625 0.309897
O O14 0.369926 0.249162 0.513909
O O15 0.192065 0.261348 0.712771
O O16 0.530987 0.622611 0.815317
#
# Coordination Sequence:
#
# PCOD9341354 Si02
#       8
#     4   4   4   4   4   4   4   4
#     4  12  26  43  68 104 149 195 250 304 361 420
#     4  11  26  49  77 112 142 190 235 303 374 459
#     4  11  24  46  65 105 145 195 249 299 355 432
#     4  11  26  49  79 109 143 186 240 295 381 453
#     4  10  25  47  74 105 149 188 237 312 360 440
#     4  10  25  46  75 102 150 185 237 305 363 430
#     4  11  24  45  69 105 148 194 249 299 361 430
#     4  12  26  41  71  98 142 199 247 299 363 420
#
# _framework density 24.981525999999999
#
# number of rings (size 3 to 8) (size 9 to 14) (size 15 to 20)
#    0.000    1.000    2.500    2.250    7.000    6.000 
#    0.000    0.000    0.000    0.000    0.000    0.000 
#    0.000    0.000    0.000    0.000    0.000    0.000 
#
# Total GULP energy -178248.723991 kJ/mol
# GULP energy per Si atom -5570.272625 kJ/mol
# Density = 2.492467 g / cm^3
# Si number density = 24.981526 Si / 1000 Ang^3
#
#
#
# Elastic Constant Matrix: (Units=GPa)
#
#
# Indices 1 2 3 4 5 6 
#
# 1 82.9464 39.6434 40.8877 0.0000 0.0000 0.0000
# 2 39.6434 62.7829 27.2411 0.0000 0.0000 0.0000
# 3 40.8877 27.2411 135.6840 0.0000 0.0000 0.0000
# 4 0.0000 0.0000 0.0000 33.3316 0.0000 0.0000
# 5 0.0000 0.0000 0.0000 0.0000 42.1503 0.0000
# 6 0.0000 0.0000 0.0000 0.0000 0.0000 -8.3512
#
#
#
# Elastic Compliance Matrix: (Units=1/GPa)
#
#
# Indices 1 2 3 4 5 6 
#
# 1 0.018732 -0.010274 -0.003582 0.000000 0.000000 0.000000
# 2 -0.010274 0.023083 -0.001538 0.000000 0.000000 0.000000
# 3 -0.003582 -0.001538 0.008758 0.000000 0.000000 0.000000
# 4 0.000000 0.000000 0.000000 0.030002 0.000000 0.000000
# 5 0.000000 0.000000 0.000000 0.000000 0.023725 0.000000
# 6 0.000000 0.000000 0.000000 0.000000 0.000000 -0.119743
#
#
# Mechanical properties :
#
#
# Convention : Reuss Voigt Hill
#
# Bulk Modulus (GPa) = 50.54465 55.21755 52.88110
# Shear Modulus (GPa) = 227.90411 25.00223 126.45317
#
# Velocity S-wave (km/s) = 9.56175 3.16702 7.12240
# Velocity P-wave (km/s) = 11.92391 5.96026 9.42614
#
# Compressibility (1/GPa) = 0.01978449
#
# Stress axis : x y z
#
# Youngs Moduli (GPa) = 53.38458 43.32270 114.17651
#
# Poissons Ratio (x) = 0.44509 0.40900
# Poissons Ratio (y) = 0.54846 0.17564
# Poissons Ratio (z) = 0.19123 0.06664
#
# Static dielectric constant tensor:
#      x y z
#    x 1.975960 0.000000 0.000000 
#    y 0.000000 2.157820 0.000000 
#    z 0.000000 0.000000 2.077160 
# 
# From -- ./inp_files/1553.got.cif
#   From: 2010.05.17/outbox.cif.g08.bks.cpg/sg29_1_cif.got.tgz:1553.got - 2010.06.04 01:19:37.
