data_PCOD9341024
_publ_section_title
;
Structure prediction by ZEFSAII (Michael W. Deem and Ramdas Pophale) SiO2 
 PCOD9341024
Probable space group: P C A 21
;
_chemical_formula_sum "Si O2"
_cell_formula_units_Z 28
_cell_length_a 28.914377
_cell_length_b 4.810505
_cell_length_c 7.533974
_cell_angle_alpha 90.000000
_cell_angle_beta 90.000000
_cell_angle_gamma 90.000000
_cell_volume 1047.921201
_symmetry_space_group_name_H-M "P C A 21"
_symmetry_group_IT_number 29
_symmetry_cell_setting 'orthorhombic'
loop_
_space_group_symop_operation_xyz
x,y,z
-x,-y,1/2+z
1/2-x,y,1/2+z
1/2+x,-y,z
loop_
_atom_site_type_symbol
_atom_site_label
_atom_site_fract_x
_atom_site_fract_y
_atom_site_fract_z
Si Si1 0.174360 0.074327 0.278670
Si Si2 0.723731 0.448461 0.117629
Si Si3 0.037903 0.238494 0.420469
Si Si4 0.323597 0.537649 0.244042
Si Si5 0.442341 0.954423 0.549889
Si Si6 0.608975 0.948052 0.709573
Si Si7 0.388492 0.604403 0.809085
O O1 0.214427 0.312771 0.266729
O O2 0.134025 0.307078 0.263478
O O3 0.199473 0.846869 0.154556
O O4 0.146913 0.831387 0.391993
O O5 0.778425 0.394134 0.126057
O O6 0.698217 0.538016 0.936449
O O7 0.040019 0.126523 0.219305
O O8 0.069329 0.069967 0.560787
O O9 0.064668 0.531636 0.413240
O O10 0.985317 0.224885 0.479618
O O11 0.351497 0.277962 0.166131
O O12 0.403637 0.753213 0.629908
O O13 0.362075 0.776290 0.255441
O O14 0.419032 0.123911 0.390759
#
# Coordination Sequence:
#
# PCOD9341024 Si02
#       7
#     4   4   4   4   4   4   4
#     4  10  22  44  77 108 148 209 260 313 406 473
#     4  11  24  47  75 114 158 206 265 330 408 472
#     4  12  29  51  85 119 163 217 271 338 417 494
#     4  12  28  49  80 119 159 213 270 343 398 502
#     4  12  27  54  82 117 168 217 267 346 414 486
#     4  12  30  52  80 124 160 212 287 326 410 492
#     4  11  24  45  77 117 150 212 260 326 397 471
#
# _framework density 26.719566
#
# number of rings (size 3 to 8) (size 9 to 14) (size 15 to 20)
#    0.000    0.571    2.857    4.286    6.000    5.714 
#    0.000    0.000    0.000    0.000    0.000    0.000 
#    0.000    0.000    0.000    0.000    0.000    0.000 
#
# Total GULP energy -156323.322223 kJ/mol
# GULP energy per Si atom -5582.975794 kJ/mol
# Density = 2.665875 g / cm^3
# Si number density = 26.719566 Si / 1000 Ang^3
#
#
#
# Elastic Constant Matrix: (Units=GPa)
#
#
# Indices 1 2 3 4 5 6 
#
# 1 123.8563 17.4678 31.9304 0.0000 0.0000 0.0000
# 2 17.4678 152.4370 10.5832 0.0000 0.0000 0.0000
# 3 31.9304 10.5832 129.2350 0.0000 0.0000 0.0000
# 4 0.0000 0.0000 0.0000 25.2706 0.0000 0.0000
# 5 0.0000 0.0000 0.0000 0.0000 49.5540 0.0000
# 6 0.0000 0.0000 0.0000 0.0000 0.0000 36.4351
#
#
#
# Elastic Compliance Matrix: (Units=1/GPa)
#
#
# Indices 1 2 3 4 5 6 
#
# 1 0.008733 -0.000856 -0.002088 0.000000 0.000000 0.000000
# 2 -0.000856 0.006681 -0.000336 0.000000 0.000000 0.000000
# 3 -0.002088 -0.000336 0.008281 0.000000 0.000000 0.000000
# 4 0.000000 0.000000 0.000000 0.039572 0.000000 0.000000
# 5 0.000000 0.000000 0.000000 0.000000 0.020180 0.000000
# 6 0.000000 0.000000 0.000000 0.000000 0.000000 0.027446
#
#
# Mechanical properties :
#
#
# Convention : Reuss Voigt Hill
#
# Bulk Modulus (GPa) = 58.35235 58.38791 58.37013
# Shear Modulus (GPa) = 40.59645 45.28841 42.94243
#
# Velocity S-wave (km/s) = 3.90212 4.12145 4.01328
# Velocity P-wave (km/s) = 6.49525 6.67443 6.58545
#
# Compressibility (1/GPa) = 0.01713727
#
# Stress axis : x y z
#
# Youngs Moduli (GPa) = 114.51171 149.66794 120.75678
#
# Poissons Ratio (x) = 0.12808 0.25208
# Poissons Ratio (y) = 0.09799 0.04054
# Poissons Ratio (z) = 0.23905 0.05025
#
# Static dielectric constant tensor:
#      x y z
#    x 2.114710 0.000000 0.000000 
#    y 0.000000 2.070550 0.000000 
#    z 0.000000 0.000000 2.219070 
# 
# From -- ./inp_files/2556.got.cif
#   From: 2010.05.17/outbox.cif.g08.bks.cpg/sg29_2_cif.got.tgz:2556.got - 2010.06.04 01:19:37.
