data_PCOD9341779
_publ_section_title
;
Structure prediction by ZEFSAII (Michael W. Deem and Ramdas Pophale) SiO2 
 PCOD9341779
Probable space group: P C A 21
;
_chemical_formula_sum "Si O2"
_cell_formula_units_Z 32
_cell_length_a 21.000000
_cell_length_b 6.000000
_cell_length_c 12.000000
_cell_angle_alpha 90.000000
_cell_angle_beta 90.000000
_cell_angle_gamma 90.000000
_cell_volume 1512.000000
_symmetry_space_group_name_H-M "P C A 21"
_symmetry_group_IT_number 29
_symmetry_cell_setting 'orthorhombic'
loop_
_space_group_symop_operation_xyz
x,y,z
-x,-y,1/2+z
1/2-x,y,1/2+z
1/2+x,-y,z
loop_
_atom_site_type_symbol
_atom_site_label
_atom_site_fract_x
_atom_site_fract_y
_atom_site_fract_z
Si Si1 0.649933 0.499857 0.331210
Si Si2 0.453926 0.281898 0.986964
Si Si3 0.454057 0.717772 0.675543
Si Si4 0.360057 0.004390 0.140150
Si Si5 0.360062 0.995214 0.522477
Si Si6 0.760700 0.711222 0.661519
Si Si7 0.739235 0.288918 0.500851
Si Si8 0.952542 0.999982 0.331310
O O1 0.601201 0.577125 0.427337
O O2 0.601047 0.423305 0.235176
O O3 0.699521 0.670070 0.274562
O O4 0.699341 0.328907 0.387814
O O5 0.500833 0.173731 0.894397
O O6 0.499902 0.391303 0.081258
O O7 0.412487 0.099376 0.054106
O O8 0.412541 0.900044 0.608375
O O9 0.500903 0.826093 0.768161
O O10 0.309808 0.190460 0.185122
O O11 0.403783 0.904052 0.238285
O O12 0.309974 0.855321 0.073951
O O13 0.310033 0.144078 0.588910
O O14 0.309757 0.809425 0.477381
O O15 0.403763 0.095797 0.424357
O O16 0.749960 0.500478 0.580910
#
# Coordination Sequence:
#
# PCOD9341779 Si02
#       8
#     4   4   4   4   4   4   4   4
#     4  12  24  40  68  96 130 170 216 268 332 378
#     4  10  22  42  61  94 128 169 215 261 317 387
#     4  10  22  42  61  94 128 169 215 261 317 387
#     4  10  23  43  64  93 133 164 216 265 319 388
#     4  10  23  43  64  93 133 164 216 265 319 388
#     4  11  24  41  65  97 129 166 213 270 318 387
#     4  11  24  41  65  97 129 166 213 270 318 387
#     4  10  22  40  68  88 126 176 208 260 326 380
#
# _framework density 21.164021000000002
#
# number of rings (size 3 to 8) (size 9 to 14) (size 15 to 20)
#    0.000    1.500    2.500    1.500    3.500    2.000 
#    0.000    0.000    0.000    0.000    0.000    0.000 
#    0.000    0.000    0.000    0.000    0.000    0.000 
#
# Total GULP energy -178374.348805 kJ/mol
# GULP energy per Si atom -5574.198400 kJ/mol
# Density = 2.111585 g / cm^3
# Si number density = 21.164021 Si / 1000 Ang^3
#
#
#
# Elastic Constant Matrix: (Units=GPa)
#
#
# Indices 1 2 3 4 5 6 
#
# 1 164.2062 22.5497 45.8428 0.0000 0.0000 0.0000
# 2 22.5497 14.5299 12.1293 0.0000 0.0000 0.0000
# 3 45.8428 12.1293 90.5425 0.0000 0.0000 0.0000
# 4 0.0000 0.0000 0.0000 18.1386 0.0000 0.0000
# 5 0.0000 0.0000 0.0000 0.0000 60.4641 0.0000
# 6 0.0000 0.0000 0.0000 0.0000 0.0000 28.0502
#
#
#
# Elastic Compliance Matrix: (Units=1/GPa)
#
#
# Indices 1 2 3 4 5 6 
#
# 1 0.008324 -0.010584 -0.002797 0.000000 0.000000 0.000000
# 2 -0.010584 0.090946 -0.006825 0.000000 0.000000 0.000000
# 3 -0.002797 -0.006825 0.013375 0.000000 0.000000 0.000000
# 4 0.000000 0.000000 0.000000 0.055131 0.000000 0.000000
# 5 0.000000 0.000000 0.000000 0.000000 0.016539 0.000000
# 6 0.000000 0.000000 0.000000 0.000000 0.000000 0.035650
#
#
# Mechanical properties :
#
#
# Convention : Reuss Voigt Hill
#
# Bulk Modulus (GPa) = 13.84381 47.81358 30.82870
# Shear Modulus (GPa) = 17.57755 33.91438 25.74597
#
# Velocity S-wave (km/s) = 2.88503 4.00741 3.49162
# Velocity P-wave (km/s) = 4.20158 6.63727 5.55458
#
# Compressibility (1/GPa) = 0.07223443
#
# Stress axis : x y z
#
# Youngs Moduli (GPa) = 120.13260 10.99553 74.76733
#
# Poissons Ratio (x) = 0.11638 0.20911
# Poissons Ratio (y) = 1.27147 0.51026
# Poissons Ratio (z) = 0.33598 0.07504
#
# Static dielectric constant tensor:
#      x y z
#    x 1.693430 0.000000 0.000000 
#    y 0.000000 1.852890 0.000000 
#    z 0.000000 0.000000 1.992260 
# 
# From -- ./inp_files/3862.got.cif
#   From: 2010.05.17/outbox.ucp.g08.bks.cvg/sg29_2_cif.got.tgz:3862.got - 2010.06.11 15:24:14.
