data_PCOD9341344
_publ_section_title
;
Structure prediction by ZEFSAII (Michael W. Deem and Ramdas Pophale) SiO2 
 PCOD9341344
Probable space group: P C A 21
;
_chemical_formula_sum "Si O2"
_cell_formula_units_Z 28
_cell_length_a 9.102209
_cell_length_b 5.911411
_cell_length_c 20.878044
_cell_angle_alpha 90.000000
_cell_angle_beta 90.000000
_cell_angle_gamma 90.000000
_cell_volume 1123.382792
_symmetry_space_group_name_H-M "P C A 21"
_symmetry_group_IT_number 29
_symmetry_cell_setting 'orthorhombic'
loop_
_space_group_symop_operation_xyz
x,y,z
-x,-y,1/2+z
1/2-x,y,1/2+z
1/2+x,-y,z
loop_
_atom_site_type_symbol
_atom_site_label
_atom_site_fract_x
_atom_site_fract_y
_atom_site_fract_z
Si Si1 0.893484 0.035224 0.077760
Si Si2 0.359561 0.674848 0.542992
Si Si3 0.814781 0.654641 0.268090
Si Si4 0.598810 0.335960 0.313956
Si Si5 0.144822 0.276374 0.141374
Si Si6 0.002112 0.318147 0.424439
Si Si7 0.749552 0.962625 0.388964
O O1 0.802277 0.216524 0.035309
O O2 0.983049 0.173859 0.131847
O O3 0.766787 0.875174 0.105314
O O4 0.020594 0.875953 0.049305
O O5 0.355565 0.518046 0.605523
O O6 0.427219 0.542305 0.482171
O O7 0.757287 0.408719 0.287855
O O8 0.986838 0.670336 0.254406
O O9 0.703907 0.726408 0.213295
O O10 0.805488 0.806414 0.331463
O O11 0.537541 0.527443 0.362837
O O12 0.625473 0.115589 0.355165
O O13 0.876252 0.128586 0.412956
O O14 0.158943 0.196322 0.437628
#
# Coordination Sequence:
#
# PCOD9341344 Si02
#       7
#     4   4   4   4   4   4   4
#     4  10  25  45  64 103 126 182 231 264 348 396
#     4  11  24  45  69  99 136 178 226 286 336 405
#     4  11  26  42  69  97 137 171 223 276 334 406
#     4  11  24  42  66 102 130 174 218 271 341 389
#     4  11  26  44  69  97 138 180 226 281 336 403
#     4  11  24  42  69  97 134 173 222 277 337 403
#     4  11  23  44  64 101 133 176 220 277 340 394
#
# _framework density 24.924719
#
# number of rings (size 3 to 8) (size 9 to 14) (size 15 to 20)
#    0.000    1.143    2.857    1.714    6.000    5.714 
#    0.000    0.000    0.000    0.000    0.000    0.000 
#    0.000    0.000    0.000    0.000    0.000    0.000 
#
# Total GULP energy -156480.751260 kJ/mol
# GULP energy per Si atom -5588.598259 kJ/mol
# Density = 2.486799 g / cm^3
# Si number density = 24.924719 Si / 1000 Ang^3
#
#
#
# Elastic Constant Matrix: (Units=GPa)
#
#
# Indices 1 2 3 4 5 6 
#
# 1 119.4733 24.0919 -5.3844 0.0000 0.0000 0.0000
# 2 24.0919 47.3482 -12.1459 0.0000 0.0000 0.0000
# 3 -5.3844 -12.1459 30.4964 0.0000 0.0000 0.0000
# 4 0.0000 0.0000 0.0000 22.4347 0.0000 0.0000
# 5 0.0000 0.0000 0.0000 0.0000 30.5619 0.0000
# 6 0.0000 0.0000 0.0000 0.0000 0.0000 36.0144
#
#
#
# Elastic Compliance Matrix: (Units=1/GPa)
#
#
# Indices 1 2 3 4 5 6 
#
# 1 0.009329 -0.004816 -0.000271 0.000000 0.000000 0.000000
# 2 -0.004816 0.026010 0.009509 0.000000 0.000000 0.000000
# 3 -0.000271 0.009509 0.036530 0.000000 0.000000 0.000000
# 4 0.000000 0.000000 0.000000 0.044574 0.000000 0.000000
# 5 0.000000 0.000000 0.000000 0.000000 0.032720 0.000000
# 6 0.000000 0.000000 0.000000 0.000000 0.000000 0.027767
#
#
# Mechanical properties :
#
#
# Convention : Reuss Voigt Hill
#
# Bulk Modulus (GPa) = 12.38981 23.38234 17.88607
# Shear Modulus (GPa) = 25.64215 30.51929 28.08072
#
# Velocity S-wave (km/s) = 3.21095 3.50302 3.36016
# Velocity P-wave (km/s) = 4.32765 5.07574 4.71655
#
# Compressibility (1/GPa) = 0.08071149
#
# Stress axis : x y z
#
# Youngs Moduli (GPa) = 107.19161 38.44667 27.37481
#
# Poissons Ratio (x) = 0.18518 0.00742
# Poissons Ratio (y) = 0.51628 -0.26030
# Poissons Ratio (z) = 0.02906 -0.36558
#
# Static dielectric constant tensor:
#      x y z
#    x 2.003740 0.000000 0.000000 
#    y 0.000000 1.995980 0.000000 
#    z 0.000000 0.000000 2.010260 
# 
# From -- ./inp_files/5657.got.cif
#   From: 2010.05.17/outbox.cif.g08.bks.cpg/sg29_3_cif.got.tgz:5657.got - 2010.06.04 01:19:37.
