data_PCOD9341214
_publ_section_title
;
Structure prediction by ZEFSAII (Michael W. Deem and Ramdas Pophale) SiO2 
 PCOD9341214
Probable space group: P C A 21
;
_chemical_formula_sum "Si O2"
_cell_formula_units_Z 28
_cell_length_a 8.760135
_cell_length_b 5.033586
_cell_length_c 23.665174
_cell_angle_alpha 90.000000
_cell_angle_beta 90.000000
_cell_angle_gamma 90.000000
_cell_volume 1043.513313
_symmetry_space_group_name_H-M "P C A 21"
_symmetry_group_IT_number 29
_symmetry_cell_setting 'orthorhombic'
loop_
_space_group_symop_operation_xyz
x,y,z
-x,-y,1/2+z
1/2-x,y,1/2+z
1/2+x,-y,z
loop_
_atom_site_type_symbol
_atom_site_label
_atom_site_fract_x
_atom_site_fract_y
_atom_site_fract_z
Si Si1 0.448114 0.121623 0.628760
Si Si2 0.870701 0.604956 0.873662
Si Si3 0.140694 0.793905 0.022889
Si Si4 0.098836 0.941044 0.446221
Si Si5 0.728064 0.506779 0.614402
Si Si6 0.100487 0.756738 0.220807
Si Si7 0.126975 0.624485 0.790710
O O1 0.568891 0.356782 0.616666
O O2 0.263897 0.190129 0.628595
O O3 0.446842 0.925649 0.575552
O O4 0.474824 0.010986 0.691599
O O5 0.808229 0.839159 0.912011
O O6 0.741002 0.545487 0.828864
O O7 0.008935 0.732738 0.837080
O O8 0.914099 0.334573 0.909554
O O9 0.190016 0.517421 0.052782
O O10 0.041303 0.873842 0.968489
O O11 0.306578 0.879236 0.002126
O O12 0.824608 0.383263 0.666238
O O13 0.247040 0.808938 0.260295
O O14 0.975191 0.567909 0.250514
#
# Coordination Sequence:
#
# PCOD9341214 Si02
#       7
#     4   4   4   4   4   4   4
#     4  11  26  47  73 113 156 209 267 327 397 504
#     4  11  26  49  76 114 156 204 280 323 407 470
#     4  11  26  41  75 110 154 207 259 322 402 471
#     4  12  26  48  76 115 156 213 260 340 393 480
#     4  11  25  46  70 115 153 206 262 328 388 506
#     4  10  24  49  77 108 152 200 263 319 415 466
#     4  10  23  52  77 111 149 211 257 345 394 485
#
# _framework density 26.832432000000001
#
# number of rings (size 3 to 8) (size 9 to 14) (size 15 to 20)
#    0.000    1.143    1.429    2.571    6.000    3.429 
#   25.714    2.857    0.000    0.000    0.000    0.000 
#    0.000    0.000    0.000    0.000    0.000    0.000 
#
# Total GULP energy -156103.808274 kJ/mol
# GULP energy per Si atom -5575.136010 kJ/mol
# Density = 2.677136 g / cm^3
# Si number density = 26.832432 Si / 1000 Ang^3
#
#
#
# Elastic Constant Matrix: (Units=GPa)
#
#
# Indices 1 2 3 4 5 6 
#
# 1 102.4923 9.2942 35.3636 0.0000 0.0000 0.0000
# 2 9.2942 71.9831 32.1269 0.0000 0.0000 0.0000
# 3 35.3636 32.1269 122.7535 0.0000 0.0000 0.0000
# 4 0.0000 0.0000 0.0000 29.4027 0.0000 0.0000
# 5 0.0000 0.0000 0.0000 0.0000 23.4947 0.0000
# 6 0.0000 0.0000 0.0000 0.0000 0.0000 11.8261
#
#
#
# Elastic Compliance Matrix: (Units=1/GPa)
#
#
# Indices 1 2 3 4 5 6 
#
# 1 0.010834 -0.000007 -0.003119 0.000000 0.000000 0.000000
# 2 -0.000007 0.015729 -0.004115 0.000000 0.000000 0.000000
# 3 -0.003119 -0.004115 0.010122 0.000000 0.000000 0.000000
# 4 0.000000 0.000000 0.000000 0.034010 0.000000 0.000000
# 5 0.000000 0.000000 0.000000 0.000000 0.042563 0.000000
# 6 0.000000 0.000000 0.000000 0.000000 0.000000 0.084559
#
#
# Mechanical properties :
#
#
# Convention : Reuss Voigt Hill
#
# Bulk Modulus (GPa) = 45.03755 50.08869 47.56312
# Shear Modulus (GPa) = 22.75833 27.64099 25.19966
#
# Velocity S-wave (km/s) = 2.91549 3.21305 3.06788
# Velocity P-wave (km/s) = 5.30609 5.69848 5.50578
#
# Compressibility (1/GPa) = 0.02220369
#
# Stress axis : x y z
#
# Youngs Moduli (GPa) = 92.30449 63.57489 98.79517
#
# Poissons Ratio (x) = 0.00042 0.30817
# Poissons Ratio (y) = 0.00061 0.40652
# Poissons Ratio (z) = 0.28793 0.26160
#
# Static dielectric constant tensor:
#      x y z
#    x 2.172280 0.000000 0.000000 
#    y 0.000000 2.432130 0.000000 
#    z 0.000000 0.000000 2.380340 
# 
# From -- ./inp_files/5670.got.cif
#   From: 2010.05.17/outbox.cif.g08.bks.cpg/sg29_3_cif.got.tgz:5670.got - 2010.06.04 01:19:37.
