data_PCOD9341569
_publ_section_title
;
Structure prediction by ZEFSAII (Michael W. Deem and Ramdas Pophale) SiO2 
 PCOD9341569
Probable space group: P C A 21
;
_chemical_formula_sum "Si O2"
_cell_formula_units_Z 24
_cell_length_a 20.823151
_cell_length_b 5.346397
_cell_length_c 8.637037
_cell_angle_alpha 90.000000
_cell_angle_beta 90.000000
_cell_angle_gamma 90.000000
_cell_volume 961.551241
_symmetry_space_group_name_H-M "P C A 21"
_symmetry_group_IT_number 29
_symmetry_cell_setting 'orthorhombic'
loop_
_space_group_symop_operation_xyz
x,y,z
-x,-y,1/2+z
1/2-x,y,1/2+z
1/2+x,-y,z
loop_
_atom_site_type_symbol
_atom_site_label
_atom_site_fract_x
_atom_site_fract_y
_atom_site_fract_z
Si Si1 0.152747 0.938110 0.654770
Si Si2 0.611618 0.121123 0.305980
Si Si3 0.779770 0.572087 0.267370
Si Si4 0.455601 0.513911 0.600572
Si Si5 0.476298 0.829947 0.300297
Si Si6 0.330223 0.260012 0.591721
O O1 0.142195 0.878763 0.474388
O O2 0.187006 0.695969 0.734609
O O3 0.084853 0.982331 0.742112
O O4 0.190932 0.197013 0.669142
O O5 0.580153 0.376448 0.249916
O O6 0.546263 0.953551 0.306683
O O7 0.659665 0.006153 0.176277
O O8 0.705192 0.570559 0.220931
O O9 0.789826 0.674333 0.440005
O O10 0.465677 0.716607 0.469272
O O11 0.518068 0.381579 0.666032
O O12 0.402299 0.325743 0.537752
#
# Coordination Sequence:
#
# PCOD9341569 Si02
#       6
#     4   4   4   4   4   4
#     4  12  28  47  77 110 150 197 250 308 382 445
#     4  11  26  43  75 106 151 193 256 307 383 451
#     4  12  29  49  76 105 150 196 252 308 371 447
#     4  11  24  44  73 105 151 193 251 309 377 448
#     4  11  24  43  72 108 150 197 247 317 381 452
#     4  11  27  48  73 106 144 200 250 311 372 447
#
# _framework density 24.959669000000002
#
# number of rings (size 3 to 8) (size 9 to 14) (size 15 to 20)
#    0.000    0.667    1.667    4.000   14.000    2.667 
#    0.000    0.000    0.000    0.000    0.000    0.000 
#    0.000    0.000    0.000    0.000    0.000    0.000 
#
# Total GULP energy -134236.311860 kJ/mol
# GULP energy per Si atom -5593.179661 kJ/mol
# Density = 2.490286 g / cm^3
# Si number density = 24.959669 Si / 1000 Ang^3
#
#
#
# Elastic Constant Matrix: (Units=GPa)
#
#
# Indices 1 2 3 4 5 6 
#
# 1 68.9755 20.7038 20.8383 0.0000 0.0000 0.0000
# 2 20.7038 73.2745 26.7480 0.0000 0.0000 0.0000
# 3 20.8383 26.7480 102.9509 0.0000 0.0000 0.0000
# 4 0.0000 0.0000 0.0000 28.2027 0.0000 0.0000
# 5 0.0000 0.0000 0.0000 0.0000 32.5257 0.0000
# 6 0.0000 0.0000 0.0000 0.0000 0.0000 34.8676
#
#
#
# Elastic Compliance Matrix: (Units=1/GPa)
#
#
# Indices 1 2 3 4 5 6 
#
# 1 0.016331 -0.003765 -0.002327 0.000000 0.000000 0.000000
# 2 -0.003765 0.015945 -0.003381 0.000000 0.000000 0.000000
# 3 -0.002327 -0.003381 0.011063 0.000000 0.000000 0.000000
# 4 0.000000 0.000000 0.000000 0.035458 0.000000 0.000000
# 5 0.000000 0.000000 0.000000 0.000000 0.030745 0.000000
# 6 0.000000 0.000000 0.000000 0.000000 0.000000 0.028680
#
#
# Mechanical properties :
#
#
# Convention : Reuss Voigt Hill
#
# Bulk Modulus (GPa) = 40.99506 42.42012 41.70759
# Shear Modulus (GPa) = 30.24830 30.91323 30.58076
#
# Velocity S-wave (km/s) = 3.48499 3.52309 3.50409
# Velocity P-wave (km/s) = 5.71435 5.79499 5.75481
#
# Compressibility (1/GPa) = 0.02439318
#
# Stress axis : x y z
#
# Youngs Moduli (GPa) = 61.23286 62.71499 90.39278
#
# Poissons Ratio (x) = 0.23611 0.21038
# Poissons Ratio (y) = 0.23053 0.30559
# Poissons Ratio (z) = 0.14252 0.21202
#
# Static dielectric constant tensor:
#      x y z
#    x 2.077850 0.000000 0.000000 
#    y 0.000000 2.062710 0.000000 
#    z 0.000000 0.000000 1.944460 
# 
# From -- ./inp_files/2383.got.cif
#   From: 2010.05.17/outbox.cif.g08.bks.cpg/sg29_2_cif.got.tgz:2383.got - 2010.06.04 01:19:37.
