data_PCOD9341058
_publ_section_title
;
Structure prediction by ZEFSAII (Michael W. Deem and Ramdas Pophale) SiO2 
 PCOD9341058
Probable space group: P C A 21
;
_chemical_formula_sum "Si O2"
_cell_formula_units_Z 24
_cell_length_a 13.605766
_cell_length_b 7.261143
_cell_length_c 9.619004
_cell_angle_alpha 90.000000
_cell_angle_beta 90.000000
_cell_angle_gamma 90.000000
_cell_volume 950.294230
_symmetry_space_group_name_H-M "P C A 21"
_symmetry_group_IT_number 29
_symmetry_cell_setting 'orthorhombic'
loop_
_space_group_symop_operation_xyz
x,y,z
-x,-y,1/2+z
1/2-x,y,1/2+z
1/2+x,-y,z
loop_
_atom_site_type_symbol
_atom_site_label
_atom_site_fract_x
_atom_site_fract_y
_atom_site_fract_z
Si Si1 0.543747 0.822746 0.535500
Si Si2 0.848035 0.308999 0.463262
Si Si3 0.148042 0.534905 0.471082
Si Si4 0.363752 0.232264 0.753524
Si Si5 0.334893 0.016038 0.258922
Si Si6 0.945941 0.692403 0.451936
O O1 0.428397 0.795212 0.558712
O O2 0.599647 0.627490 0.565430
O O3 0.417858 0.278799 0.612415
O O4 0.597967 0.976705 0.622731
O O5 0.745875 0.373686 0.528576
O O6 0.824678 0.176137 0.335639
O O7 0.904931 0.490814 0.413324
O O8 0.062375 0.676929 0.435513
O O9 0.173390 0.418048 0.331729
O O10 0.271300 0.101881 0.727325
O O11 0.436258 0.150200 0.871311
O O12 0.390965 0.154100 0.364178
#
# Coordination Sequence:
#
# PCOD9341058 Si02
#       6
#     4   4   4   4   4   4
#     4   9  24  46  70 106 156 184 250 312 370 438
#     4  11  24  46  72 113 141 202 250 295 382 452
#     4   9  22  45  77 104 145 197 249 303 380 442
#     4  10  22  47  72 104 148 191 238 312 371 437
#     4  12  24  45  76 105 153 194 246 310 373 447
#     4  11  24  47  71 108 151 192 245 316 370 446
#
# _framework density 25.255336
#
# number of rings (size 3 to 8) (size 9 to 14) (size 15 to 20)
#    1.000    0.667    1.667    2.000    4.667    2.667 
#    9.000    0.000    0.000    0.000    0.000    0.000 
#    0.000    0.000    0.000    0.000    0.000    0.000 
#
# Total GULP energy -134464.240717 kJ/mol
# GULP energy per Si atom -5602.676697 kJ/mol
# Density = 2.519785 g / cm^3
# Si number density = 25.255336 Si / 1000 Ang^3
#
#
#
# Elastic Constant Matrix: (Units=GPa)
#
#
# Indices 1 2 3 4 5 6 
#
# 1 184.8493 36.9220 3.8410 0.0000 0.0000 0.0000
# 2 36.9220 108.9254 24.1109 0.0000 0.0000 0.0000
# 3 3.8410 24.1109 79.7490 0.0000 0.0000 0.0000
# 4 0.0000 0.0000 0.0000 17.3516 0.0000 0.0000
# 5 0.0000 0.0000 0.0000 0.0000 21.9171 0.0000
# 6 0.0000 0.0000 0.0000 0.0000 0.0000 27.1378
#
#
#
# Elastic Compliance Matrix: (Units=1/GPa)
#
#
# Indices 1 2 3 4 5 6 
#
# 1 0.005811 -0.002045 0.000338 0.000000 0.000000 0.000000
# 2 -0.002045 0.010558 -0.003094 0.000000 0.000000 0.000000
# 3 0.000338 -0.003094 0.013458 0.000000 0.000000 0.000000
# 4 0.000000 0.000000 0.000000 0.057631 0.000000 0.000000
# 5 0.000000 0.000000 0.000000 0.000000 0.045626 0.000000
# 6 0.000000 0.000000 0.000000 0.000000 0.000000 0.036849
#
#
# Mechanical properties :
#
#
# Convention : Reuss Voigt Hill
#
# Bulk Modulus (GPa) = 49.43682 55.91906 52.67794
# Shear Modulus (GPa) = 26.84163 33.85795 30.34979
#
# Velocity S-wave (km/s) = 3.26361 3.66543 3.47034
# Velocity P-wave (km/s) = 5.81540 6.33272 6.07957
#
# Compressibility (1/GPa) = 0.02022784
#
# Stress axis : x y z
#
# Youngs Moduli (GPa) = 172.08178 94.71059 74.30309
#
# Poissons Ratio (x) = 0.19365 -0.02514
# Poissons Ratio (y) = 0.35185 0.22987
# Poissons Ratio (z) = -0.05821 0.29301
#
# Static dielectric constant tensor:
#      x y z
#    x 1.971550 0.000000 0.000000 
#    y 0.000000 1.996120 0.000000 
#    z 0.000000 0.000000 1.955000 
# 
# From -- ./inp_files/4641.got.cif
#   From: 2010.05.17/outbox.cif.g08.bks.cpg/sg29_3_cif.got.tgz:4641.got - 2010.06.04 01:19:37.
