data_PCOD9341331
_publ_section_title
;
Structure prediction by ZEFSAII (Michael W. Deem and Ramdas Pophale) SiO2 
 PCOD9341331
Probable space group: P C A 21
;
_chemical_formula_sum "Si O2"
_cell_formula_units_Z 32
_cell_length_a 13.060886
_cell_length_b 4.684279
_cell_length_c 17.897142
_cell_angle_alpha 90.000000
_cell_angle_beta 90.000000
_cell_angle_gamma 90.000000
_cell_volume 1094.962074
_symmetry_space_group_name_H-M "P C A 21"
_symmetry_group_IT_number 29
_symmetry_cell_setting 'orthorhombic'
loop_
_space_group_symop_operation_xyz
x,y,z
-x,-y,1/2+z
1/2-x,y,1/2+z
1/2+x,-y,z
loop_
_atom_site_type_symbol
_atom_site_label
_atom_site_fract_x
_atom_site_fract_y
_atom_site_fract_z
Si Si1 0.284562 0.175646 0.864910
Si Si2 0.891241 0.913580 0.517802
Si Si3 0.676160 0.628104 0.222003
Si Si4 0.809549 0.907606 0.098489
Si Si5 0.671297 0.352044 0.468504
Si Si6 0.858871 0.226983 0.278782
Si Si7 0.452587 0.560679 0.429285
Si Si8 0.521035 0.426705 0.637815
O O1 0.364137 0.231605 0.797941
O O2 0.258046 0.456276 0.912715
O O3 0.327333 0.934499 0.919435
O O4 0.189285 0.050961 0.817337
O O5 0.779513 0.800167 0.541108
O O6 0.927264 0.768698 0.442443
O O7 0.970700 0.792086 0.577946
O O8 0.675896 0.215059 0.554113
O O9 0.737309 0.860147 0.171278
O O10 0.760558 0.412275 0.253557
O O11 0.584546 0.471866 0.178307
O O12 0.906169 0.694371 0.112718
O O13 0.929311 0.546963 0.956121
O O14 0.896937 0.244212 0.494094
O O15 0.927257 0.353982 0.345615
O O16 0.920786 0.233387 0.200361
#
# Coordination Sequence:
#
# PCOD9341331 Si02
#       8
#     4   4   4   4   4   4   4   4
#     4  12  26  51  84 127 177 232 304 377 463 549
#     4  11  28  55  82 129 180 228 302 376 459 549
#     4  10  24  55  84 132 176 237 307 388 460 556
#     4  10  26  54  92 124 180 240 301 378 472 555
#     4  12  28  52  87 129 179 239 305 378 464 563
#     4  11  26  50  90 128 177 243 305 379 472 546
#     4  12  29  53  82 130 176 231 299 372 451 556
#     4  10  25  58  89 129 179 238 311 378 463 562
#
# _framework density 29.224754000000001
#
# number of rings (size 3 to 8) (size 9 to 14) (size 15 to 20)
#    0.000    1.000    1.250    2.250    7.000    1.000 
#   20.250    1.250    0.000    0.000    0.000    0.000 
#    0.000    0.000    0.000    0.000    0.000    0.000 
#
# Total GULP energy -178662.661916 kJ/mol
# GULP energy per Si atom -5583.208185 kJ/mol
# Density = 2.915824 g / cm^3
# Si number density = 29.224754 Si / 1000 Ang^3
#
#
#
# Elastic Constant Matrix: (Units=GPa)
#
#
# Indices 1 2 3 4 5 6 
#
# 1 151.5988 52.4388 71.6677 0.0000 0.0000 0.0000
# 2 52.4388 183.3438 100.7115 0.0000 0.0000 0.0000
# 3 71.6677 100.7115 222.6996 0.0000 0.0000 0.0000
# 4 0.0000 0.0000 0.0000 57.0639 0.0000 0.0000
# 5 0.0000 0.0000 0.0000 0.0000 50.1408 0.0000
# 6 0.0000 0.0000 0.0000 0.0000 0.0000 44.3409
#
#
#
# Elastic Compliance Matrix: (Units=1/GPa)
#
#
# Indices 1 2 3 4 5 6 
#
# 1 0.007960 -0.001157 -0.002038 0.000000 0.000000 0.000000
# 2 -0.001157 0.007425 -0.002986 0.000000 0.000000 0.000000
# 3 -0.002038 -0.002986 0.006497 0.000000 0.000000 0.000000
# 4 0.000000 0.000000 0.000000 0.017524 0.000000 0.000000
# 5 0.000000 0.000000 0.000000 0.000000 0.019944 0.000000
# 6 0.000000 0.000000 0.000000 0.000000 0.000000 0.022553
#
#
# Mechanical properties :
#
#
# Convention : Reuss Voigt Hill
#
# Bulk Modulus (GPa) = 105.04349 111.91982 108.48165
# Shear Modulus (GPa) = 51.31479 52.49739 51.90609
#
# Velocity S-wave (km/s) = 4.19485 4.24291 4.21895
# Velocity P-wave (km/s) = 7.71257 7.89826 7.80597
#
# Compressibility (1/GPa) = 0.00951987
#
# Stress axis : x y z
#
# Youngs Moduli (GPa) = 125.62411 134.67816 153.92872
#
# Poissons Ratio (x) = 0.15582 0.31378
# Poissons Ratio (y) = 0.14535 0.45956
# Poissons Ratio (z) = 0.25608 0.40209
#
# Static dielectric constant tensor:
#      x y z
#    x 2.505360 0.000000 0.000000 
#    y 0.000000 2.398000 0.000000 
#    z 0.000000 0.000000 2.364710 
# 
# From -- ./inp_files/5511.got.cif
#   From: 2010.05.17/outbox.cif.g08.bks.cpg/sg29_3_cif.got.tgz:5511.got - 2010.06.04 01:19:37.
