data_PCOD9341197
_publ_section_title
;
Structure prediction by ZEFSAII (Michael W. Deem and Ramdas Pophale) SiO2 
 PCOD9341197
Probable space group: P C A 21
;
_chemical_formula_sum "Si O2"
_cell_formula_units_Z 32
_cell_length_a 13.710069
_cell_length_b 11.431757
_cell_length_c 8.495066
_cell_angle_alpha 90.000000
_cell_angle_beta 90.000000
_cell_angle_gamma 90.000000
_cell_volume 1331.433200
_symmetry_space_group_name_H-M "P C A 21"
_symmetry_group_IT_number 29
_symmetry_cell_setting 'orthorhombic'
loop_
_space_group_symop_operation_xyz
x,y,z
-x,-y,1/2+z
1/2-x,y,1/2+z
1/2+x,-y,z
loop_
_atom_site_type_symbol
_atom_site_label
_atom_site_fract_x
_atom_site_fract_y
_atom_site_fract_z
Si Si1 0.751563 0.421382 0.446130
Si Si2 0.085150 0.756332 0.482825
Si Si3 0.041379 0.618139 0.802703
Si Si4 0.146851 0.469958 0.207051
Si Si5 0.901252 0.018635 0.178208
Si Si6 0.775265 0.860253 0.736457
Si Si7 0.969616 0.851338 0.936309
Si Si8 0.864332 0.738511 0.449591
O O1 0.679407 0.311714 0.417084
O O2 0.858118 0.421959 0.371731
O O3 0.783568 0.433733 0.627532
O O4 0.693792 0.534021 0.380457
O O5 0.064127 0.687961 0.644933
O O6 0.107187 0.887631 0.536849
O O7 0.978118 0.750260 0.403940
O O8 0.966540 0.516821 0.752257
O O9 0.994314 0.713832 0.920785
O O10 0.145908 0.368093 0.075676
O O11 0.954922 0.079832 0.324049
O O12 0.796275 0.970046 0.226800
O O13 0.964159 0.912042 0.105297
O O14 0.862829 0.866265 0.859921
O O15 0.827143 0.840905 0.568042
O O16 0.703963 0.754718 0.796869
#
# Coordination Sequence:
#
# PCOD9341197 Si02
#       8
#     4   4   4   4   4   4   4   4
#     4  12  25  46  71 104 137 188 235 284 378 408
#     4  10  23  47  65  99 148 175 229 299 340 425
#     4  10  24  46  65  98 147 169 232 301 336 434
#     4  11  25  43  74 100 136 183 235 293 356 422
#     4  11  24  40  73  99 141 192 233 288 358 423
#     4  12  22  42  69 101 137 183 235 287 357 422
#     4  11  24  46  65 102 139 183 239 289 352 420
#     4  11  23  46  68 101 141 179 238 299 343 428
#
# _framework density 24.034251000000001
#
# number of rings (size 3 to 8) (size 9 to 14) (size 15 to 20)
#    0.000    1.000    6.250    1.500    3.500    3.000 
#    4.500    0.000    0.000    0.000    0.000    0.000 
#    0.000    0.000    0.000    0.000    0.000    0.000 
#
# Total GULP energy -178563.657918 kJ/mol
# GULP energy per Si atom -5580.114310 kJ/mol
# Density = 2.397955 g / cm^3
# Si number density = 24.034251 Si / 1000 Ang^3
#
#
#
# Elastic Constant Matrix: (Units=GPa)
#
#
# Indices 1 2 3 4 5 6 
#
# 1 177.1284 56.3982 23.7709 0.0000 0.0000 0.0000
# 2 56.3982 67.2608 16.6879 0.0000 0.0000 0.0000
# 3 23.7709 16.6879 46.4471 0.0000 0.0000 0.0000
# 4 0.0000 0.0000 0.0000 28.8349 0.0000 0.0000
# 5 0.0000 0.0000 0.0000 0.0000 33.4112 0.0000
# 6 0.0000 0.0000 0.0000 0.0000 0.0000 44.6871
#
#
#
# Elastic Compliance Matrix: (Units=1/GPa)
#
#
# Indices 1 2 3 4 5 6 
#
# 1 0.007838 -0.006123 -0.001812 0.000000 0.000000 0.000000
# 2 -0.006123 0.021106 -0.004449 0.000000 0.000000 0.000000
# 3 -0.001812 -0.004449 0.024056 0.000000 0.000000 0.000000
# 4 0.000000 0.000000 0.000000 0.034680 0.000000 0.000000
# 5 0.000000 0.000000 0.000000 0.000000 0.029930 0.000000
# 6 0.000000 0.000000 0.000000 0.000000 0.000000 0.022378
#
#
# Mechanical properties :
#
#
# Convention : Reuss Voigt Hill
#
# Bulk Modulus (GPa) = 35.42125 53.83894 44.63010
# Shear Modulus (GPa) = 28.70826 34.31859 31.51343
#
# Velocity S-wave (km/s) = 3.45986 3.78286 3.62496
# Velocity P-wave (km/s) = 5.54353 6.44435 6.01084
#
# Compressibility (1/GPa) = 0.02823164
#
# Stress axis : x y z
#
# Youngs Moduli (GPa) = 127.57849 47.38100 41.57029
#
# Poissons Ratio (x) = 0.29011 0.07531
# Poissons Ratio (y) = 0.78116 0.18496
# Poissons Ratio (z) = 0.23112 0.21081
#
# Static dielectric constant tensor:
#      x y z
#    x 1.906650 0.000000 0.000000 
#    y 0.000000 2.026400 0.000000 
#    z 0.000000 0.000000 2.039420 
# 
# From -- ./inp_files/1817.got.cif
#   From: 2010.05.17/outbox.cif.g08.bks.cpg/sg29_1_cif.got.tgz:1817.got - 2010.06.04 01:19:37.
