data_PCOD9341395
_publ_section_title
;
Structure prediction by ZEFSAII (Michael W. Deem and Ramdas Pophale) SiO2 
 PCOD9341395
Probable space group: P C A 21
;
_chemical_formula_sum "Si O2"
_cell_formula_units_Z 20
_cell_length_a 16.477811
_cell_length_b 9.139974
_cell_length_c 5.516515
_cell_angle_alpha 90.000000
_cell_angle_beta 90.000000
_cell_angle_gamma 90.000000
_cell_volume 830.824473
_symmetry_space_group_name_H-M "P C A 21"
_symmetry_group_IT_number 29
_symmetry_cell_setting 'orthorhombic'
loop_
_space_group_symop_operation_xyz
x,y,z
-x,-y,1/2+z
1/2-x,y,1/2+z
1/2+x,-y,z
loop_
_atom_site_type_symbol
_atom_site_label
_atom_site_fract_x
_atom_site_fract_y
_atom_site_fract_z
Si Si1 0.620325 0.916824 0.898460
Si Si2 0.081331 0.601440 0.468991
Si Si3 0.033866 0.826176 0.104644
Si Si4 0.797689 0.165753 0.155909
Si Si5 0.579405 0.679802 0.223849
O O1 0.530854 0.880106 0.800918
O O2 0.671246 0.996246 0.686610
O O3 0.640590 0.772708 0.054978
O O4 0.602613 0.053707 0.071514
O O5 0.076395 0.684825 0.213567
O O6 0.131960 0.710259 0.641848
O O7 0.113798 0.439108 0.413431
O O8 0.988653 0.595562 0.564228
O O9 0.976602 0.791395 0.876992
O O10 0.746813 0.187532 0.400532
#
# Coordination Sequence:
#
# PCOD9341395 Si02
#       5
#     4   4   4   4   4
#     4  11  22  39  66 103 136 177 240 296 369 428
#     4  11  23  41  66 107 140 179 240 293 391 437
#     4  11  19  36  69 101 137 170 215 310 370 429
#     4  12  28  47  71  93 143 207 250 287 345 456
#     4  11  22  37  70 108 140 171 225 328 379 428
#
# _framework density 24.072474
#
# number of rings (size 3 to 8) (size 9 to 14) (size 15 to 20)
#    0.000    0.800    6.000    2.400    2.800    0.000 
#    0.000    2.000    0.000    0.000    0.000    0.000 
#    0.000    0.000    0.000    0.000    0.000    0.000 
#
# Total GULP energy -111603.386102 kJ/mol
# GULP energy per Si atom -5580.169305 kJ/mol
# Density = 2.401768 g / cm^3
# Si number density = 24.072474 Si / 1000 Ang^3
#
#
#
# Elastic Constant Matrix: (Units=GPa)
#
#
# Indices 1 2 3 4 5 6 
#
# 1 45.9878 25.8182 25.1088 0.0000 0.0000 0.0000
# 2 25.8182 142.8659 42.1765 0.0000 0.0000 0.0000
# 3 25.1088 42.1765 104.1929 0.0000 0.0000 0.0000
# 4 0.0000 0.0000 0.0000 51.2850 0.0000 0.0000
# 5 0.0000 0.0000 0.0000 0.0000 32.0033 0.0000
# 6 0.0000 0.0000 0.0000 0.0000 0.0000 15.2722
#
#
#
# Elastic Compliance Matrix: (Units=1/GPa)
#
#
# Indices 1 2 3 4 5 6 
#
# 1 0.026324 -0.003276 -0.005018 0.000000 0.000000 0.000000
# 2 -0.003276 0.008357 -0.002594 0.000000 0.000000 0.000000
# 3 -0.005018 -0.002594 0.011857 0.000000 0.000000 0.000000
# 4 0.000000 0.000000 0.000000 0.019499 0.000000 0.000000
# 5 0.000000 0.000000 0.000000 0.000000 0.031247 0.000000
# 6 0.000000 0.000000 0.000000 0.000000 0.000000 0.065478
#
#
# Mechanical properties :
#
#
# Convention : Reuss Voigt Hill
#
# Bulk Modulus (GPa) = 40.38189 53.25039 46.81614
# Shear Modulus (GPa) = 25.93501 33.04165 29.48833
#
# Velocity S-wave (km/s) = 3.28590 3.70887 3.50377
# Velocity P-wave (km/s) = 5.58638 6.36473 5.98822
#
# Compressibility (1/GPa) = 0.02476357
#
# Stress axis : x y z
#
# Youngs Moduli (GPa) = 37.98885 119.65705 84.34151
#
# Poissons Ratio (x) = 0.39198 0.42318
# Poissons Ratio (y) = 0.12445 0.21874
# Poissons Ratio (z) = 0.19061 0.31033
#
# Static dielectric constant tensor:
#      x y z
#    x 1.963770 0.000000 0.000000 
#    y 0.000000 1.992220 0.000000 
#    z 0.000000 0.000000 1.994050 
# 
# From -- ./inp_files/322.got.cif
#   From: 2010.05.17/outbox.cif.g08.bks.cpg/sg29_1_cif.got.tgz:322.got - 2010.06.04 01:19:37.
