data_PCOD9341670
_publ_section_title
;
Structure prediction by ZEFSAII (Michael W. Deem and Ramdas Pophale) SiO2 
 PCOD9341670
Probable space group: P C A 21
;
_chemical_formula_sum "Si O2"
_cell_formula_units_Z 28
_cell_length_a 10.484294
_cell_length_b 12.020256
_cell_length_c 9.735369
_cell_angle_alpha 90.000000
_cell_angle_beta 90.000000
_cell_angle_gamma 90.000000
_cell_volume 1226.889148
_symmetry_space_group_name_H-M "P C A 21"
_symmetry_group_IT_number 29
_symmetry_cell_setting 'orthorhombic'
loop_
_space_group_symop_operation_xyz
x,y,z
-x,-y,1/2+z
1/2-x,y,1/2+z
1/2+x,-y,z
loop_
_atom_site_type_symbol
_atom_site_label
_atom_site_fract_x
_atom_site_fract_y
_atom_site_fract_z
Si Si1 0.927299 0.608443 0.473390
Si Si2 0.199843 0.267031 0.384884
Si Si3 0.235080 0.118294 0.639911
Si Si4 0.810823 0.213292 0.215734
Si Si5 0.999883 0.979991 0.756905
Si Si6 0.020341 0.591977 0.774664
Si Si7 0.905143 0.172543 0.922337
O O1 0.780572 0.633713 0.449238
O O2 0.955887 0.570945 0.627453
O O3 0.968172 0.518149 0.362800
O O4 0.995113 0.728402 0.449078
O O5 0.218070 0.161983 0.485545
O O6 0.252975 0.226145 0.238364
O O7 0.063181 0.319622 0.359667
O O8 0.106421 0.054288 0.680071
O O9 0.367812 0.052697 0.676912
O O10 0.677453 0.194447 0.287613
O O11 0.850885 0.340944 0.238554
O O12 0.919242 0.132314 0.280531
O O13 0.815491 0.179122 0.055935
O O14 0.965812 0.052595 0.891379
#
# Coordination Sequence:
#
# PCOD9341670 Si02
#       7
#     4   4   4   4   4   4   4
#     4  11  26  48  75 106 143 190 248 305 376 439
#     4  12  25  50  71 106 148 198 249 303 379 448
#     4  12  27  43  77 105 158 198 253 306 369 451
#     4  11  26  47  69 107 147 189 244 299 370 432
#     4  12  25  44  73 112 147 199 247 302 369 442
#     4  11  27  48  75 105 143 190 246 310 370 447
#     4  11  26  46  70 105 148 188 241 305 363 439
#
# _framework density 22.821946000000001
#
# number of rings (size 3 to 8) (size 9 to 14) (size 15 to 20)
#    0.000    0.571    5.714    0.857    6.000    3.429 
#    0.000    0.000    0.000    0.000    0.000    0.000 
#    0.000    0.000    0.000    0.000    0.000    0.000 
#
# Total GULP energy -156565.711659 kJ/mol
# GULP energy per Si atom -5591.632559 kJ/mol
# Density = 2.277000 g / cm^3
# Si number density = 22.821946 Si / 1000 Ang^3
#
#
#
# Elastic Constant Matrix: (Units=GPa)
#
#
# Indices 1 2 3 4 5 6 
#
# 1 46.8811 -9.5800 6.8880 0.0000 0.0000 0.0000
# 2 -9.5800 70.0891 24.0249 0.0000 0.0000 0.0000
# 3 6.8880 24.0249 65.7038 0.0000 0.0000 0.0000
# 4 0.0000 0.0000 0.0000 23.3551 0.0000 0.0000
# 5 0.0000 0.0000 0.0000 0.0000 27.1777 0.0000
# 6 0.0000 0.0000 0.0000 0.0000 0.0000 24.1168
#
#
#
# Elastic Compliance Matrix: (Units=1/GPa)
#
#
# Indices 1 2 3 4 5 6 
#
# 1 0.022846 0.004509 -0.004044 0.000000 0.000000 0.000000
# 2 0.004509 0.017202 -0.006763 0.000000 0.000000 0.000000
# 3 -0.004044 -0.006763 0.018117 0.000000 0.000000 0.000000
# 4 0.000000 0.000000 0.000000 0.042817 0.000000 0.000000
# 5 0.000000 0.000000 0.000000 0.000000 0.036795 0.000000
# 6 0.000000 0.000000 0.000000 0.000000 0.000000 0.041465
#
#
# Mechanical properties :
#
#
# Convention : Reuss Voigt Hill
#
# Bulk Modulus (GPa) = 21.94459 25.03776 23.49118
# Shear Modulus (GPa) = 24.15152 25.68599 24.91876
#
# Velocity S-wave (km/s) = 3.25662 3.35848 3.30794
# Velocity P-wave (km/s) = 4.87619 5.10234 4.99055
#
# Compressibility (1/GPa) = 0.04556931
#
# Stress axis : x y z
#
# Youngs Moduli (GPa) = 43.77125 58.13312 55.19824
#
# Poissons Ratio (x) = -0.26211 0.22321
# Poissons Ratio (y) = -0.19735 0.37328
# Poissons Ratio (z) = 0.17700 0.39313
#
# Static dielectric constant tensor:
#      x y z
#    x 1.847540 0.000000 0.000000 
#    y 0.000000 1.872170 0.000000 
#    z 0.000000 0.000000 1.860750 
# 
# From -- ./inp_files/1470.got.cif
#   From: 2010.05.17/outbox.cif.g08.bks.cpg/sg29_1_cif.got.tgz:1470.got - 2010.06.04 01:19:37.
