data_PCOD9341542
_publ_section_title
;
Structure prediction by ZEFSAII (Michael W. Deem and Ramdas Pophale) SiO2 
 PCOD9341542
Probable space group: P C A 21
;
_chemical_formula_sum "Si O2"
_cell_formula_units_Z 20
_cell_length_a 9.431792
_cell_length_b 7.487582
_cell_length_c 11.006718
_cell_angle_alpha 90.000000
_cell_angle_beta 90.000000
_cell_angle_gamma 90.000000
_cell_volume 777.308910
_symmetry_space_group_name_H-M "P C A 21"
_symmetry_group_IT_number 29
_symmetry_cell_setting 'orthorhombic'
loop_
_space_group_symop_operation_xyz
x,y,z
-x,-y,1/2+z
1/2-x,y,1/2+z
1/2+x,-y,z
loop_
_atom_site_type_symbol
_atom_site_label
_atom_site_fract_x
_atom_site_fract_y
_atom_site_fract_z
Si Si1 0.518142 0.417923 0.681480
Si Si2 0.152786 0.050121 0.203174
Si Si3 0.696936 0.847480 0.948094
Si Si4 0.775413 0.454208 0.517784
Si Si5 0.420353 0.725951 0.843160
O O1 0.450507 0.223061 0.702218
O O2 0.677838 0.413239 0.634981
O O3 0.260947 0.348843 0.967348
O O4 0.494771 0.544672 0.797006
O O5 0.250514 0.077254 0.321098
O O6 0.086100 0.859164 0.229761
O O7 0.227417 0.049170 0.072379
O O8 0.569294 0.483371 0.072817
O O9 0.527342 0.824035 0.935358
O O10 0.725712 0.320146 0.412298
#
# Coordination Sequence:
#
# PCOD9341542 Si02
#       5
#     4   4   4   4   4
#     4  11  25  46  72 107 151 200 253 322 378 467
#     4  11  26  45  72 107 153 194 259 318 383 456
#     4  11  25  51  71 114 154 199 260 329 370 480
#     4  11  23  46  74 103 153 199 253 308 395 446
#     4  12  25  44  77 107 143 210 253 313 392 459
#
# _framework density 25.729793999999998
#
# number of rings (size 3 to 8) (size 9 to 14) (size 15 to 20)
#    0.000    0.800    6.000    2.400    2.800    4.800 
#    0.000    0.000    0.000    0.000    0.000    0.000 
#    0.000    0.000    0.000    0.000    0.000    0.000 
#
# Total GULP energy -111993.506800 kJ/mol
# GULP energy per Si atom -5599.675340 kJ/mol
# Density = 2.567123 g / cm^3
# Si number density = 25.729794 Si / 1000 Ang^3
#
#
#
# Elastic Constant Matrix: (Units=GPa)
#
#
# Indices 1 2 3 4 5 6 
#
# 1 58.7398 21.7009 13.9521 0.0000 0.0000 0.0000
# 2 21.7009 119.8652 45.2375 0.0000 0.0000 0.0000
# 3 13.9521 45.2375 173.4970 0.0000 0.0000 0.0000
# 4 0.0000 0.0000 0.0000 55.3514 0.0000 0.0000
# 5 0.0000 0.0000 0.0000 0.0000 42.3095 0.0000
# 6 0.0000 0.0000 0.0000 0.0000 0.0000 8.0981
#
#
#
# Elastic Compliance Matrix: (Units=1/GPa)
#
#
# Indices 1 2 3 4 5 6 
#
# 1 0.018315 -0.003061 -0.000675 0.000000 0.000000 0.000000
# 2 -0.003061 0.009765 -0.002300 0.000000 0.000000 0.000000
# 3 -0.000675 -0.002300 0.006418 0.000000 0.000000 0.000000
# 4 0.000000 0.000000 0.000000 0.018066 0.000000 0.000000
# 5 0.000000 0.000000 0.000000 0.000000 0.023635 0.000000
# 6 0.000000 0.000000 0.000000 0.000000 0.000000 0.123486
#
#
# Mechanical properties :
#
#
# Convention : Reuss Voigt Hill
#
# Bulk Modulus (GPa) = 44.59042 57.09811 50.84427
# Shear Modulus (GPa) = 22.80677 39.23257 31.01967
#
# Velocity S-wave (km/s) = 2.98047 3.90909 3.47593
# Velocity P-wave (km/s) = 5.40483 6.52796 5.99276
#
# Compressibility (1/GPa) = 0.02242634
#
# Stress axis : x y z
#
# Youngs Moduli (GPa) = 54.59878 102.40729 155.81848
#
# Poissons Ratio (x) = 0.31350 0.10513
# Poissons Ratio (y) = 0.16714 0.35837
# Poissons Ratio (z) = 0.03684 0.23553
#
# Static dielectric constant tensor:
#      x y z
#    x 2.024070 0.000000 0.000000 
#    y 0.000000 2.001180 0.000000 
#    z 0.000000 0.000000 2.057750 
# 
# From -- ./inp_files/1369.got.cif
#   From: 2010.05.17/outbox.cif.g08.bks.cpg/sg29_1_cif.got.tgz:1369.got - 2010.06.04 01:19:37.
