data_PCOD9341555
_publ_section_title
;
Structure prediction by ZEFSAII (Michael W. Deem and Ramdas Pophale) SiO2 
 PCOD9341555
Probable space group: P C A 21
;
_chemical_formula_sum "Si O2"
_cell_formula_units_Z 32
_cell_length_a 9.237899
_cell_length_b 13.418521
_cell_length_c 12.575132
_cell_angle_alpha 90.000000
_cell_angle_beta 90.000000
_cell_angle_gamma 90.000000
_cell_volume 1558.800055
_symmetry_space_group_name_H-M "P C A 21"
_symmetry_group_IT_number 29
_symmetry_cell_setting 'orthorhombic'
loop_
_space_group_symop_operation_xyz
x,y,z
-x,-y,1/2+z
1/2-x,y,1/2+z
1/2+x,-y,z
loop_
_atom_site_type_symbol
_atom_site_label
_atom_site_fract_x
_atom_site_fract_y
_atom_site_fract_z
Si Si1 0.475481 0.204668 0.812990
Si Si2 0.502425 0.680902 0.844345
Si Si3 0.585430 0.935837 0.133980
Si Si4 0.816056 0.040792 0.245858
Si Si5 0.354468 0.437584 0.163464
Si Si6 0.812013 0.864282 0.411396
Si Si7 0.895909 0.521090 0.514320
Si Si8 0.684985 0.382540 0.828030
O O1 0.403239 0.167105 0.702453
O O2 0.350309 0.181452 0.898555
O O3 0.541848 0.314402 0.815680
O O4 0.616356 0.131288 0.814122
O O5 0.595963 0.650871 0.740665
O O6 0.568587 0.779530 0.894102
O O7 0.332589 0.680107 0.817870
O O8 0.527860 0.593528 0.930316
O O9 0.655678 0.026385 0.201463
O O10 0.415478 0.957941 0.139965
O O11 0.657654 0.917977 0.022346
O O12 0.834114 0.944797 0.319063
O O13 0.220569 0.420164 0.085209
O O14 0.489110 0.470728 0.091773
O O15 0.314438 0.530976 0.239577
O O16 0.820420 0.436285 0.442488
#
# Coordination Sequence:
#
# PCOD9341555 Si02
#       8
#     4   4   4   4   4   4   4   4
#     4   9  24  41  64  94 131 164 214 276 307 393
#     4  11  26  40  67  99 128 170 221 266 320 394
#     4   9  22  41  65  93 124 174 204 265 328 377
#     4   9  22  44  62  92 129 166 218 259 321 388
#     4  11  24  44  66  91 134 173 214 271 319 383
#     4  11  24  41  67  97 129 170 216 264 331 387
#     4  11  24  42  66  93 133 176 219 260 328 378
#     4  11  24  43  63 101 128 169 222 267 320 388
#
# _framework density 20.528611999999999
#
# number of rings (size 3 to 8) (size 9 to 14) (size 15 to 20)
#    0.750    1.000    2.500    0.000    8.750    1.000 
#    0.000    0.000    0.000    0.000    0.000    0.000 
#    0.000    0.000    0.000    0.000    0.000    0.000 
#
# Total GULP energy -178361.767867 kJ/mol
# GULP energy per Si atom -5573.805246 kJ/mol
# Density = 2.048189 g / cm^3
# Si number density = 20.528612 Si / 1000 Ang^3
#
#
#
# Elastic Constant Matrix: (Units=GPa)
#
#
# Indices 1 2 3 4 5 6 
#
# 1 58.1468 -9.4606 20.4435 0.0000 0.0000 0.0000
# 2 -9.4606 27.2440 -3.2958 0.0000 0.0000 0.0000
# 3 20.4435 -3.2958 70.0120 0.0000 0.0000 0.0000
# 4 0.0000 0.0000 0.0000 8.2361 0.0000 0.0000
# 5 0.0000 0.0000 0.0000 0.0000 20.9561 0.0000
# 6 0.0000 0.0000 0.0000 0.0000 0.0000 17.2914
#
#
#
# Elastic Compliance Matrix: (Units=1/GPa)
#
#
# Indices 1 2 3 4 5 6 
#
# 1 0.020197 0.006336 -0.005599 0.000000 0.000000 0.000000
# 2 0.006336 0.038903 -0.000019 0.000000 0.000000 0.000000
# 3 -0.005599 -0.000019 0.015917 0.000000 0.000000 0.000000
# 4 0.000000 0.000000 0.000000 0.121417 0.000000 0.000000
# 5 0.000000 0.000000 0.000000 0.000000 0.047719 0.000000
# 6 0.000000 0.000000 0.000000 0.000000 0.000000 0.057832
#
#
# Mechanical properties :
#
#
# Convention : Reuss Voigt Hill
#
# Bulk Modulus (GPa) = 13.07969 18.97521 16.02745
# Shear Modulus (GPa) = 15.33581 19.14445 17.24013
#
# Velocity S-wave (km/s) = 2.73618 3.05712 2.90109
# Velocity P-wave (km/s) = 4.04568 4.66097 4.36418
#
# Compressibility (1/GPa) = 0.07645439
#
# Stress axis : x y z
#
# Youngs Moduli (GPa) = 49.51128 25.70472 62.82443
#
# Poissons Ratio (x) = -0.16287 0.35178
# Poissons Ratio (y) = -0.31372 0.00118
# Poissons Ratio (z) = 0.27723 0.00048
#
# Static dielectric constant tensor:
#      x y z
#    x 1.754720 0.000000 0.000000 
#    y 0.000000 1.722480 0.000000 
#    z 0.000000 0.000000 1.712570 
# 
# From -- ./inp_files/2927.got.cif
#   From: 2010.05.17/outbox.cif.g08.bks.cpg/sg29_2_cif.got.tgz:2927.got - 2010.06.04 01:19:37.
