data_PCOD9341667
_publ_section_title
;
Structure prediction by ZEFSAII (Michael W. Deem and Ramdas Pophale) SiO2 
 PCOD9341667
Probable space group: P C A 21
;
_chemical_formula_sum "Si O2"
_cell_formula_units_Z 28
_cell_length_a 5.031614
_cell_length_b 22.493476
_cell_length_c 9.973902
_cell_angle_alpha 90.000000
_cell_angle_beta 90.000000
_cell_angle_gamma 90.000000
_cell_volume 1128.831155
_symmetry_space_group_name_H-M "P C A 21"
_symmetry_group_IT_number 29
_symmetry_cell_setting 'orthorhombic'
loop_
_space_group_symop_operation_xyz
x,y,z
-x,-y,1/2+z
1/2-x,y,1/2+z
1/2+x,-y,z
loop_
_atom_site_type_symbol
_atom_site_label
_atom_site_fract_x
_atom_site_fract_y
_atom_site_fract_z
Si Si1 0.999883 0.796839 0.145100
Si Si2 0.323035 0.383852 0.137479
Si Si3 0.975056 0.038137 0.257148
Si Si4 0.847619 0.306378 0.107920
Si Si5 0.389888 0.223599 0.422425
Si Si6 0.727077 0.106899 0.507996
Si Si7 0.091158 0.461360 0.897825
O O1 0.248779 0.754685 0.176158
O O2 0.065174 0.864073 0.112480
O O3 0.815511 0.788154 0.271046
O O4 0.867474 0.771814 0.012858
O O5 0.598877 0.350851 0.105638
O O6 0.369689 0.431584 0.253560
O O7 0.097392 0.336572 0.179671
O O8 0.189620 0.415898 0.010469
O O9 0.875550 0.080659 0.378289
O O10 0.931436 0.062429 0.105560
O O11 0.778738 0.981539 0.273020
O O12 0.945482 0.282533 0.962163
O O13 0.551743 0.163937 0.464254
O O14 0.287909 0.517793 0.911913
#
# Coordination Sequence:
#
# PCOD9341667 Si02
#       7
#     4   4   4   4   4   4   4
#     4  11  26  46  76 107 153 192 243 297 358 463
#     4  12  26  45  76 104 148 187 238 308 360 424
#     4  12  28  48  74 106 144 186 248 308 360 426
#     4  11  26  45  70 114 142 187 236 295 372 424
#     4  11  26  46  76 107 153 192 243 297 358 463
#     4  11  26  46  72 108 142 200 236 297 372 432
#     4  12  26  48  72 104 140 192 248 296 358 424
#
# _framework density 24.804414999999999
#
# number of rings (size 3 to 8) (size 9 to 14) (size 15 to 20)
#    0.000    0.571    2.857    3.429   10.000    1.143 
#    0.000    0.000    0.000    0.000    0.000    0.000 
#    0.000    0.000    0.000    0.000    0.000    0.000 
#
# Total GULP energy -156817.845256 kJ/mol
# GULP energy per Si atom -5600.637331 kJ/mol
# Density = 2.474796 g / cm^3
# Si number density = 24.804415 Si / 1000 Ang^3
#
#
#
# Elastic Constant Matrix: (Units=GPa)
#
#
# Indices 1 2 3 4 5 6 
#
# 1 89.5654 13.7249 -10.1950 0.0000 0.0000 0.0000
# 2 13.7249 73.9883 -5.4091 0.0000 0.0000 0.0000
# 3 -10.1950 -5.4091 49.6306 0.0000 0.0000 0.0000
# 4 0.0000 0.0000 0.0000 28.4329 0.0000 0.0000
# 5 0.0000 0.0000 0.0000 0.0000 21.5813 0.0000
# 6 0.0000 0.0000 0.0000 0.0000 0.0000 30.7872
#
#
#
# Elastic Compliance Matrix: (Units=1/GPa)
#
#
# Indices 1 2 3 4 5 6 
#
# 1 0.011723 -0.002015 0.002189 0.000000 0.000000 0.000000
# 2 -0.002015 0.013970 0.001109 0.000000 0.000000 0.000000
# 3 0.002189 0.001109 0.020719 0.000000 0.000000 0.000000
# 4 0.000000 0.000000 0.000000 0.035171 0.000000 0.000000
# 5 0.000000 0.000000 0.000000 0.000000 0.046336 0.000000
# 6 0.000000 0.000000 0.000000 0.000000 0.000000 0.032481
#
#
# Mechanical properties :
#
#
# Convention : Reuss Voigt Hill
#
# Bulk Modulus (GPa) = 20.41736 23.26953 21.84345
# Shear Modulus (GPa) = 28.70904 30.49784 29.60344
#
# Velocity S-wave (km/s) = 3.40577 3.51027 3.45842
# Velocity P-wave (km/s) = 4.86980 5.08241 4.97724
#
# Compressibility (1/GPa) = 0.04897792
#
# Stress axis : x y z
#
# Youngs Moduli (GPa) = 85.30350 71.57980 48.26427
#
# Poissons Ratio (x) = 0.14420 -0.10563
# Poissons Ratio (y) = 0.17185 -0.05351
# Poissons Ratio (z) = -0.18669 -0.07937
#
# Static dielectric constant tensor:
#      x y z
#    x 1.971820 0.000000 0.000000 
#    y 0.000000 2.016450 0.000000 
#    z 0.000000 0.000000 1.963480 
# 
# From -- ./inp_files/1005.got.cif
#   From: 2010.05.17/outbox.cif.g08.bks.cpg/sg29_1_cif.got.tgz:1005.got - 2010.06.04 01:19:37.
