data_PCOD9341513
_publ_section_title
;
Structure prediction by ZEFSAII (Michael W. Deem and Ramdas Pophale) SiO2 
 PCOD9341513
Probable space group: P C A 21
;
_chemical_formula_sum "Si O2"
_cell_formula_units_Z 32
_cell_length_a 12.981182
_cell_length_b 5.067442
_cell_length_c 20.209113
_cell_angle_alpha 90.000000
_cell_angle_beta 90.000000
_cell_angle_gamma 90.000000
_cell_volume 1329.383481
_symmetry_space_group_name_H-M "P C A 21"
_symmetry_group_IT_number 29
_symmetry_cell_setting 'orthorhombic'
loop_
_space_group_symop_operation_xyz
x,y,z
-x,-y,1/2+z
1/2-x,y,1/2+z
1/2+x,-y,z
loop_
_atom_site_type_symbol
_atom_site_label
_atom_site_fract_x
_atom_site_fract_y
_atom_site_fract_z
Si Si1 0.650850 0.425586 0.512560
Si Si2 0.893891 0.808758 0.826734
Si Si3 0.989516 0.755222 0.111479
Si Si4 0.680225 0.057937 0.045744
Si Si5 0.830831 0.421092 0.709730
Si Si6 0.979514 0.309636 0.892347
Si Si7 0.715283 0.893836 0.669320
Si Si8 0.712216 0.798333 0.918255
O O1 0.572165 0.565340 0.562152
O O2 0.735175 0.283387 0.558197
O O3 0.585055 0.249425 0.459843
O O4 0.719018 0.615369 0.465981
O O5 0.886081 0.611941 0.764399
O O6 0.951330 0.610924 0.876684
O O7 0.778860 0.856107 0.854247
O O8 0.947289 0.095308 0.835667
O O9 0.905767 0.921218 0.153424
O O10 0.061903 0.924307 0.063608
O O11 0.076191 0.618707 0.157315
O O12 0.724919 0.855950 0.099203
O O13 0.689896 0.037735 0.967309
O O14 0.731401 0.607262 0.700238
O O15 0.777414 0.125284 0.709121
O O16 0.100921 0.308387 0.901489
#
# Coordination Sequence:
#
# PCOD9341513 Si02
#       8
#     4   4   4   4   4   4   4   4
#     4  11  23  43  65 108 153 195 236 312 378 474
#     4  11  26  52  71 105 142 196 254 313 355 450
#     4  11  24  42  73 110 153 200 247 307 389 465
#     4  11  24  40  67 105 148 188 235 303 378 459
#     4  11  27  50  74 103 151 197 261 307 365 447
#     4  11  26  42  76 102 141 193 249 299 381 438
#     4  11  25  45  70 110 142 197 239 311 371 445
#     4  11  25  42  68 105 146 192 235 312 379 454
#
# _framework density 24.071307999999998
#
# number of rings (size 3 to 8) (size 9 to 14) (size 15 to 20)
#    0.000    1.000    2.500    3.000    8.750    4.000 
#    0.000    3.750    0.000    0.000    0.000    0.000 
#    0.000    0.000    0.000    0.000    0.000    0.000 
#
# Total GULP energy -178285.674446 kJ/mol
# GULP energy per Si atom -5571.427326 kJ/mol
# Density = 2.401652 g / cm^3
# Si number density = 24.071308 Si / 1000 Ang^3
#
#
#
# Elastic Constant Matrix: (Units=GPa)
#
#
# Indices 1 2 3 4 5 6 
#
# 1 149.7914 17.7172 13.9141 0.0000 0.0000 0.0000
# 2 17.7172 91.5933 8.2929 0.0000 0.0000 0.0000
# 3 13.9141 8.2929 53.6641 0.0000 0.0000 0.0000
# 4 0.0000 0.0000 0.0000 31.4483 0.0000 0.0000
# 5 0.0000 0.0000 0.0000 0.0000 21.5811 0.0000
# 6 0.0000 0.0000 0.0000 0.0000 0.0000 53.0063
#
#
#
# Elastic Compliance Matrix: (Units=1/GPa)
#
#
# Indices 1 2 3 4 5 6 
#
# 1 0.006969 -0.001201 -0.001621 0.000000 0.000000 0.000000
# 2 -0.001201 0.011280 -0.001432 0.000000 0.000000 0.000000
# 3 -0.001621 -0.001432 0.019276 0.000000 0.000000 0.000000
# 4 0.000000 0.000000 0.000000 0.031798 0.000000 0.000000
# 5 0.000000 0.000000 0.000000 0.000000 0.046337 0.000000
# 6 0.000000 0.000000 0.000000 0.000000 0.000000 0.018866
#
#
# Mechanical properties :
#
#
# Convention : Reuss Voigt Hill
#
# Bulk Modulus (GPa) = 34.46335 41.65524 38.05930
# Shear Modulus (GPa) = 32.74279 38.21546 35.47913
#
# Velocity S-wave (km/s) = 3.69215 3.98878 3.84333
# Velocity P-wave (km/s) = 5.70300 6.20938 5.96157
#
# Compressibility (1/GPa) = 0.02901633
#
# Stress axis : x y z
#
# Youngs Moduli (GPa) = 143.50046 88.65404 51.87795
#
# Poissons Ratio (x) = 0.10649 0.08410
# Poissons Ratio (y) = 0.17237 0.07427
# Poissons Ratio (z) = 0.23264 0.12692
#
# Static dielectric constant tensor:
#      x y z
#    x 1.896200 0.000000 0.000000 
#    y 0.000000 2.051930 0.000000 
#    z 0.000000 0.000000 2.115260 
# 
# From -- ./inp_files/5571.got.cif
#   From: 2010.05.17/outbox.cif.g08.bks.cpg/sg29_3_cif.got.tgz:5571.got - 2010.06.04 01:19:37.
