data_PCOD9341034
_publ_section_title
;
Structure prediction by ZEFSAII (Michael W. Deem and Ramdas Pophale) SiO2 
 PCOD9341034
Probable space group: P C A 21
;
_chemical_formula_sum "Si O2"
_cell_formula_units_Z 32
_cell_length_a 19.802504
_cell_length_b 5.339520
_cell_length_c 11.785744
_cell_angle_alpha 90.000000
_cell_angle_beta 90.000000
_cell_angle_gamma 90.000000
_cell_volume 1246.175850
_symmetry_space_group_name_H-M "P C A 21"
_symmetry_group_IT_number 29
_symmetry_cell_setting 'orthorhombic'
loop_
_space_group_symop_operation_xyz
x,y,z
-x,-y,1/2+z
1/2-x,y,1/2+z
1/2+x,-y,z
loop_
_atom_site_type_symbol
_atom_site_label
_atom_site_fract_x
_atom_site_fract_y
_atom_site_fract_z
Si Si1 0.429573 0.109908 0.921350
Si Si2 0.773670 0.679526 0.744296
Si Si3 0.169787 0.836514 0.258211
Si Si4 0.733691 0.396753 0.455086
Si Si5 0.461932 0.094725 0.583202
Si Si6 0.888157 0.388636 0.515255
Si Si7 0.531673 0.343071 0.783552
Si Si8 0.634846 0.594983 0.621831
O O1 0.461447 0.352548 0.855692
O O2 0.392046 0.939780 0.830524
O O3 0.387315 0.203989 0.028681
O O4 0.490734 0.955576 0.975308
O O5 0.775376 0.650651 0.880597
O O6 0.824046 0.446810 0.716082
O O7 0.696979 0.659882 0.703892
O O8 0.802368 0.929278 0.689206
O O9 0.227372 0.809023 0.357997
O O10 0.085101 0.846688 0.090666
O O11 0.808085 0.397961 0.502060
O O12 0.672868 0.381954 0.545199
O O13 0.422806 0.353033 0.556564
O O14 0.508982 0.127039 0.694229
O O15 0.915145 0.326153 0.386780
O O16 0.569033 0.527902 0.695427
#
# Coordination Sequence:
#
# PCOD9341034 Si02
#       8
#     4   4   4   4   4   4   4   4
#     4  11  25  45  76 108 157 200 264 312 374 474
#     4  10  24  43  73 111 144 192 243 319 384 443
#     4  10  22  45  69 107 146 189 247 319 376 443
#     4  10  24  45  75 106 147 184 252 318 368 453
#     4  11  27  45  70 108 147 206 244 308 377 453
#     4  11  26  47  71 105 151 189 258 312 375 460
#     4  11  24  46  71 105 147 198 246 306 373 448
#     4  12  24  48  79 112 149 204 250 314 389 448
#
# _framework density 25.678560000000001
#
# number of rings (size 3 to 8) (size 9 to 14) (size 15 to 20)
#    0.750    0.500    2.500    2.250    1.750   11.000 
#    0.000    0.000    0.000    0.000    0.000    0.000 
#    0.000    0.000    0.000    0.000    0.000    0.000 
#
# Total GULP energy -178509.948813 kJ/mol
# GULP energy per Si atom -5578.435900 kJ/mol
# Density = 2.562011 g / cm^3
# Si number density = 25.678560 Si / 1000 Ang^3
#
#
#
# Elastic Constant Matrix: (Units=GPa)
#
#
# Indices 1 2 3 4 5 6 
#
# 1 109.3750 59.1314 15.4060 0.0000 0.0000 0.0000
# 2 59.1314 141.8247 8.3422 0.0000 0.0000 0.0000
# 3 15.4060 8.3422 96.9232 0.0000 0.0000 0.0000
# 4 0.0000 0.0000 0.0000 28.4960 0.0000 0.0000
# 5 0.0000 0.0000 0.0000 0.0000 50.3912 0.0000
# 6 0.0000 0.0000 0.0000 0.0000 0.0000 34.9980
#
#
#
# Elastic Compliance Matrix: (Units=1/GPa)
#
#
# Indices 1 2 3 4 5 6 
#
# 1 0.012013 -0.004921 -0.001486 0.000000 0.000000 0.000000
# 2 -0.004921 0.009103 -0.000001 0.000000 0.000000 0.000000
# 3 -0.001486 -0.000001 0.010554 0.000000 0.000000 0.000000
# 4 0.000000 0.000000 0.000000 0.035093 0.000000 0.000000
# 5 0.000000 0.000000 0.000000 0.000000 0.019845 0.000000
# 6 0.000000 0.000000 0.000000 0.000000 0.000000 0.028573
#
#
# Mechanical properties :
#
#
# Convention : Reuss Voigt Hill
#
# Bulk Modulus (GPa) = 53.04264 57.09802 55.07033
# Shear Modulus (GPa) = 37.23558 40.45994 38.84776
#
# Velocity S-wave (km/s) = 3.81210 3.97373 3.89375
# Velocity P-wave (km/s) = 6.33067 6.58316 6.45815
#
# Compressibility (1/GPa) = 0.01885276
#
# Stress axis : x y z
#
# Youngs Moduli (GPa) = 83.24575 109.85647 94.75319
#
# Poissons Ratio (x) = 0.54061 0.14079
# Poissons Ratio (y) = 0.40966 0.00012
# Poissons Ratio (z) = 0.12369 0.00014
#
# Static dielectric constant tensor:
#      x y z
#    x 2.097190 0.000000 0.000000 
#    y 0.000000 2.120750 0.000000 
#    z 0.000000 0.000000 2.149240 
# 
# From -- ./inp_files/3844.got.cif
#   From: 2010.05.17/outbox.cif.g08.bks.cpg/sg29_2_cif.got.tgz:3844.got - 2010.06.04 01:19:37.
