data_PCOD9341063
_publ_section_title
;
Structure prediction by ZEFSAII (Michael W. Deem and Ramdas Pophale) SiO2 
 PCOD9341063
Probable space group: P C A 21
;
_chemical_formula_sum "Si O2"
_cell_formula_units_Z 28
_cell_length_a 11.905663
_cell_length_b 6.224627
_cell_length_c 16.150307
_cell_angle_alpha 90.000000
_cell_angle_beta 90.000000
_cell_angle_gamma 90.000000
_cell_volume 1196.871980
_symmetry_space_group_name_H-M "P C A 21"
_symmetry_group_IT_number 29
_symmetry_cell_setting 'orthorhombic'
loop_
_space_group_symop_operation_xyz
x,y,z
-x,-y,1/2+z
1/2-x,y,1/2+z
1/2+x,-y,z
loop_
_atom_site_type_symbol
_atom_site_label
_atom_site_fract_x
_atom_site_fract_y
_atom_site_fract_z
Si Si1 0.094891 0.750000 0.365160
Si Si2 0.270409 0.366798 0.782527
Si Si3 0.770409 0.866798 0.947793
Si Si4 0.972584 0.556947 0.003249
Si Si5 0.472584 0.056947 0.727071
Si Si6 0.355673 0.865399 0.571948
Si Si7 0.144327 0.634602 0.658372
O O1 0.172043 0.589000 0.311951
O O2 0.024042 0.606929 0.427764
O O3 0.172043 0.911000 0.418369
O O4 0.024042 0.893071 0.302556
O O5 0.226956 0.250000 0.865160
O O6 0.367991 0.215314 0.745944
O O7 0.183275 0.430646 0.711786
O O8 0.867991 0.715314 0.984376
O O9 0.683275 0.930646 0.018534
O O10 0.943280 0.434954 0.087942
O O11 0.083848 0.695304 0.012791
O O12 0.583848 0.195304 0.717529
O O13 0.443280 0.934954 0.642378
O O14 0.250000 0.750000 0.615160
#
# Coordination Sequence:
#
# PCOD9341063 Si02
#       7
#     4   4   4   4   4   4   4
#     4  10  22  50  68 108 144 180 248 310 372 440
#     4  10  23  48  71 105 144 189 248 305 368 445
#     4  10  23  48  71 105 144 189 248 305 368 445
#     4  11  25  46  74 106 148 188 248 311 364 448
#     4  11  25  46  74 106 148 188 248 311 364 448
#     4  12  24  47  74 104 145 198 244 301 375 448
#     4  12  24  47  74 104 145 198 244 301 375 448
#
# _framework density 23.394314999999999
#
# number of rings (size 3 to 8) (size 9 to 14) (size 15 to 20)
#    0.000    1.143    2.857    2.571    0.000    0.000 
#   10.286    0.000    0.000    0.000    0.000    0.000 
#    0.000    0.000    0.000    0.000    0.000    0.000 
#
# Total GULP energy -157049.894374 kJ/mol
# GULP energy per Si atom -5608.924799 kJ/mol
# Density = 2.334107 g / cm^3
# Si number density = 23.394315 Si / 1000 Ang^3
#
#
#
# Elastic Constant Matrix: (Units=GPa)
#
#
# Indices 1 2 3 4 5 6 
#
# 1 84.4223 33.8409 39.8226 0.0000 0.0000 0.0000
# 2 33.8409 102.8799 40.8668 0.0000 0.0000 0.0000
# 3 39.8226 40.8668 114.7269 0.0000 0.0000 0.0000
# 4 0.0000 0.0000 0.0000 58.7126 0.0000 0.0000
# 5 0.0000 0.0000 0.0000 0.0000 23.7082 0.0000
# 6 0.0000 0.0000 0.0000 0.0000 0.0000 24.1578
#
#
#
# Elastic Compliance Matrix: (Units=1/GPa)
#
#
# Indices 1 2 3 4 5 6 
#
# 1 0.015100 -0.003360 -0.004044 0.000000 0.000000 0.000000
# 2 -0.003360 0.012070 -0.003133 0.000000 0.000000 0.000000
# 3 -0.004044 -0.003133 0.011236 0.000000 0.000000 0.000000
# 4 0.000000 0.000000 0.000000 0.017032 0.000000 0.000000
# 5 0.000000 0.000000 0.000000 0.000000 0.042180 0.000000
# 6 0.000000 0.000000 0.000000 0.000000 0.000000 0.041394
#
#
# Mechanical properties :
#
#
# Convention : Reuss Voigt Hill
#
# Bulk Modulus (GPa) = 57.70125 59.00995 58.35560
# Shear Modulus (GPa) = 30.14509 33.81565 31.98037
#
# Velocity S-wave (km/s) = 3.59355 3.80605 3.70133
# Velocity P-wave (km/s) = 6.47583 6.67784 6.57761
#
# Compressibility (1/GPa) = 0.01733065
#
# Stress axis : x y z
#
# Youngs Moduli (GPa) = 66.22528 82.85042 88.99830
#
# Poissons Ratio (x) = 0.27841 0.35994
# Poissons Ratio (y) = 0.22254 0.27883
# Poissons Ratio (z) = 0.26784 0.25957
#
# Static dielectric constant tensor:
#      x y z
#    x 1.857450 0.000000 0.000000 
#    y 0.000000 1.896210 0.000000 
#    z 0.000000 0.000000 1.863180 
# 
# From -- ./inp_files/5092.got.cif
#   From: 2010.05.17/outbox.cif.g08.bks.cpg/sg29_3_cif.got.tgz:5092.got - 2010.06.04 01:19:37.
