data_PCOD9341608
_publ_section_title
;
Structure prediction by ZEFSAII (Michael W. Deem and Ramdas Pophale) SiO2 
 PCOD9341608
Probable space group: P C A 21
;
_chemical_formula_sum "Si O2"
_cell_formula_units_Z 28
_cell_length_a 14.657356
_cell_length_b 8.246740
_cell_length_c 9.242956
_cell_angle_alpha 90.000000
_cell_angle_beta 90.000000
_cell_angle_gamma 90.000000
_cell_volume 1117.246041
_symmetry_space_group_name_H-M "P C A 21"
_symmetry_group_IT_number 29
_symmetry_cell_setting 'orthorhombic'
loop_
_space_group_symop_operation_xyz
x,y,z
-x,-y,1/2+z
1/2-x,y,1/2+z
1/2+x,-y,z
loop_
_atom_site_type_symbol
_atom_site_label
_atom_site_fract_x
_atom_site_fract_y
_atom_site_fract_z
Si Si1 0.316462 0.489933 0.172350
Si Si2 0.708556 0.002417 0.347435
Si Si3 0.359840 0.118923 0.153136
Si Si4 0.475767 0.108804 0.694247
Si Si5 0.421490 0.661065 0.421372
Si Si6 0.539885 0.364243 0.477333
Si Si7 0.650874 0.316628 0.209257
O O1 0.345330 0.309494 0.132201
O O2 0.357955 0.546029 0.324571
O O3 0.208768 0.520388 0.183224
O O4 0.363409 0.612253 0.058434
O O5 0.683417 0.971297 0.513469
O O6 0.801981 0.923824 0.295656
O O7 0.624395 0.930210 0.252296
O O8 0.711014 0.188911 0.298461
O O9 0.461341 0.049127 0.170399
O O10 0.524326 0.218227 0.817823
O O11 0.485220 0.217156 0.549421
O O12 0.487480 0.531758 0.498162
O O13 0.370547 0.750383 0.550773
O O14 0.563386 0.344266 0.309593
#
# Coordination Sequence:
#
# PCOD9341608 Si02
#       7
#     4   4   4   4   4   4   4
#     4  11  27  45  73 105 151 195 254 312 378 463
#     4  12  30  47  80 109 155 202 257 327 397 471
#     4  12  30  49  74 115 153 204 260 326 393 466
#     4  11  27  52  75 111 155 198 257 320 392 468
#     4  11  26  44  77 106 146 197 253 310 387 466
#     4  11  24  47  74 105 146 195 252 305 385 458
#     4  12  26  46  73 105 148 201 245 316 380 462
#
# _framework density 25.061623999999998
#
# number of rings (size 3 to 8) (size 9 to 14) (size 15 to 20)
#    0.000    0.571    1.429    5.143   18.000    0.000 
#    0.000    0.000    0.000    0.000    0.000    0.000 
#    0.000    0.000    0.000    0.000    0.000    0.000 
#
# Total GULP energy -157012.419739 kJ/mol
# GULP energy per Si atom -5607.586419 kJ/mol
# Density = 2.500458 g / cm^3
# Si number density = 25.061624 Si / 1000 Ang^3
#
#
#
# Elastic Constant Matrix: (Units=GPa)
#
#
# Indices 1 2 3 4 5 6 
#
# 1 57.8427 17.8263 13.6977 0.0000 0.0000 0.0000
# 2 17.8263 110.7310 10.5349 0.0000 0.0000 0.0000
# 3 13.6977 10.5349 121.1459 0.0000 0.0000 0.0000
# 4 0.0000 0.0000 0.0000 36.5209 0.0000 0.0000
# 5 0.0000 0.0000 0.0000 0.0000 23.1600 0.0000
# 6 0.0000 0.0000 0.0000 0.0000 0.0000 43.0628
#
#
#
# Elastic Compliance Matrix: (Units=1/GPa)
#
#
# Indices 1 2 3 4 5 6 
#
# 1 0.018596 -0.002817 -0.001858 0.000000 0.000000 0.000000
# 2 -0.002817 0.009533 -0.000510 0.000000 0.000000 0.000000
# 3 -0.001858 -0.000510 0.008509 0.000000 0.000000 0.000000
# 4 0.000000 0.000000 0.000000 0.027382 0.000000 0.000000
# 5 0.000000 0.000000 0.000000 0.000000 0.043178 0.000000
# 6 0.000000 0.000000 0.000000 0.000000 0.000000 0.023222
#
#
# Mechanical properties :
#
#
# Convention : Reuss Voigt Hill
#
# Bulk Modulus (GPa) = 38.06931 41.53749 39.80340
# Shear Modulus (GPa) = 33.43452 37.05944 35.24698
#
# Velocity S-wave (km/s) = 3.65649 3.84960 3.75428
# Velocity P-wave (km/s) = 5.74889 6.03070 5.89148
#
# Compressibility (1/GPa) = 0.02626788
#
# Stress axis : x y z
#
# Youngs Moduli (GPa) = 53.77400 104.89910 117.52336
#
# Poissons Ratio (x) = 0.29551 0.21832
# Poissons Ratio (y) = 0.15148 0.05999
# Poissons Ratio (z) = 0.09989 0.05355
#
# Static dielectric constant tensor:
#      x y z
#    x 2.008960 0.000000 0.000000 
#    y 0.000000 1.964060 0.000000 
#    z 0.000000 0.000000 1.957940 
# 
# From -- ./inp_files/1768.got.cif
#   From: 2010.05.17/outbox.cif.g08.bks.cpg/sg29_1_cif.got.tgz:1768.got - 2010.06.04 01:19:37.
