data_PCOD9341993
_publ_section_title
;
Structure prediction by ZEFSAII (Michael W. Deem and Ramdas Pophale) SiO2 
 PCOD9341993
Probable space group: P N C 2
;
_chemical_formula_sum "Si O2"
_cell_formula_units_Z 20
_cell_length_a 9.806100
_cell_length_b 13.989842
_cell_length_c 5.487508
_cell_angle_alpha 90.000000
_cell_angle_beta 90.000000
_cell_angle_gamma 90.000000
_cell_volume 752.808118
_symmetry_space_group_name_H-M "P N C 2"
_symmetry_group_IT_number 30
_symmetry_cell_setting 'orthorhombic'
loop_
_space_group_symop_operation_xyz
x,y,z
-x,-y,z
-x,1/2+y,1/2+z
x,1/2-y,1/2+z
loop_
_atom_site_type_symbol
_atom_site_label
_atom_site_fract_x
_atom_site_fract_y
_atom_site_fract_z
Si Si1 0.486817 0.283682 0.631610
Si Si2 0.368222 0.028371 0.275099
Si Si3 0.850725 0.479640 0.461902
Si Si4 0.783672 0.656678 0.146271
Si Si5 0.906412 0.298704 0.137709
O O1 0.554667 0.239634 0.392317
O O2 0.450823 0.395256 0.607365
O O3 0.342279 0.227991 0.672179
O O4 0.259773 0.088987 0.425120
O O5 0.500000 0.000000 0.439231
O O6 0.273428 0.952424 0.138174
O O7 0.804586 0.582490 0.363965
O O8 0.869394 0.404067 0.242030
O O9 0.000000 0.500000 0.575220
O O10 0.928611 0.705799 0.114296
O O11 0.863535 0.231082 0.365258
#
# Coordination Sequence:
#
# PCOD9341993 Si02
#       5
#     4   4   4   4   4
#     4  10  19  38  65  96 126 180 245 289 334 425
#     4  11  24  42  69 106 150 194 245 316 379 444
#     4  10  24  42  70 105 141 192 244 314 374 445
#     4  10  22  40  70 100 139 195 257 303 355 453
#     4  11  25  42  71 106 149 192 244 310 373 449
#
# _framework density 26.567195000000002
#
# number of rings (size 3 to 8) (size 9 to 14) (size 15 to 20)
#    0.000    1.600    2.000    2.400   11.200    1.600 
#    0.000    4.000    0.000    0.000    0.000    0.000 
#    0.000    0.000    0.000    0.000    0.000    0.000 
#
# Total GULP energy -111714.927351 kJ/mol
# GULP energy per Si atom -5585.746368 kJ/mol
# Density = 2.650673 g / cm^3
# Si number density = 26.567195 Si / 1000 Ang^3
#
#
#
# Elastic Constant Matrix: (Units=GPa)
#
#
# Indices 1 2 3 4 5 6 
#
# 1 176.1583 26.6284 55.8180 0.0000 0.0000 0.0000
# 2 26.6284 63.7350 13.8645 0.0000 0.0000 0.0000
# 3 55.8180 13.8645 128.8970 0.0000 0.0000 0.0000
# 4 0.0000 0.0000 0.0000 41.9717 0.0000 0.0000
# 5 0.0000 0.0000 0.0000 0.0000 -207.1400 0.0000
# 6 0.0000 0.0000 0.0000 0.0000 0.0000 -5.7734
#
#
#
# Elastic Compliance Matrix: (Units=1/GPa)
#
#
# Indices 1 2 3 4 5 6 
#
# 1 0.006889 -0.002283 -0.002738 0.000000 0.000000 0.000000
# 2 -0.002283 0.016822 -0.000821 0.000000 0.000000 0.000000
# 3 -0.002738 -0.000821 0.009032 0.000000 0.000000 0.000000
# 4 0.000000 0.000000 0.000000 0.023826 0.000000 0.000000
# 5 0.000000 0.000000 0.000000 0.000000 -0.004828 0.000000
# 6 0.000000 0.000000 0.000000 0.000000 0.000000 -0.173208
#
#
# Mechanical properties :
#
#
# Convention : Reuss Voigt Hill
#
# Bulk Modulus (GPa) = 47.48204 62.37911 54.93057
# Shear Modulus (GPa) = -48.65535 -16.02304 -32.33920
#
# Velocity S-wave (km/s) = -4.28414 -2.45850 -3.49271
# Velocity P-wave (km/s) = 2.56136 3.93341 2.11083
#
# Compressibility (1/GPa) = 0.02106060
#
# Stress axis : x y z
#
# Youngs Moduli (GPa) = 145.15282 59.44500 110.71712
#
# Poissons Ratio (x) = 0.13570 0.30312
# Poissons Ratio (y) = 0.33135 0.09089
# Poissons Ratio (z) = 0.39740 0.04880
#
# Static dielectric constant tensor:
#      x y z
#    x 2.174930 0.000000 0.000000 
#    y 0.000000 2.163450 0.000000 
#    z 0.000000 0.000000 2.207650 
# 
# From -- ./inp_files/361.got.cif
#   From: 2010.05.17/outbox.cif.g08.bks.cpg/sg30_1_cif.got.tgz:361.got - 2010.06.03 17:03:02.
