data_PCOD9341283
_publ_section_title
;
Structure prediction by ZEFSAII (Michael W. Deem and Ramdas Pophale) SiO2 
 PCOD9341283
Probable space group: P C A 21
;
_chemical_formula_sum "Si O2"
_cell_formula_units_Z 28
_cell_length_a 8.607046
_cell_length_b 11.755264
_cell_length_c 12.107503
_cell_angle_alpha 90.000000
_cell_angle_beta 90.000000
_cell_angle_gamma 90.000000
_cell_volume 1225.014125
_symmetry_space_group_name_H-M "P C A 21"
_symmetry_group_IT_number 29
_symmetry_cell_setting 'orthorhombic'
loop_
_space_group_symop_operation_xyz
x,y,z
-x,-y,1/2+z
1/2-x,y,1/2+z
1/2+x,-y,z
loop_
_atom_site_type_symbol
_atom_site_label
_atom_site_fract_x
_atom_site_fract_y
_atom_site_fract_z
Si Si1 0.930063 0.816728 0.255890
Si Si2 0.660940 0.012934 0.925295
Si Si3 0.257271 0.406878 0.334851
Si Si4 0.090598 0.008576 0.579093
Si Si5 0.514496 0.445831 0.989016
Si Si6 0.804046 0.185791 0.247427
Si Si7 0.219546 0.583076 0.645925
O O1 0.841156 0.701546 0.282733
O O2 0.878476 0.873889 0.141061
O O3 0.116570 0.806215 0.255222
O O4 0.884470 0.909489 0.347626
O O5 0.637713 0.131731 0.862221
O O6 0.590402 0.005133 0.047862
O O7 0.841065 0.999914 0.956322
O O8 0.382008 0.471041 0.412970
O O9 0.106758 0.380942 0.410039
O O10 0.216686 0.495004 0.237027
O O11 0.137486 0.903634 0.655789
O O12 0.638982 0.379563 0.065007
O O13 0.407427 0.520223 0.070999
O O14 0.853518 0.310504 0.209872
#
# Coordination Sequence:
#
# PCOD9341283 Si02
#       7
#     4   4   4   4   4   4   4
#     4  11  24  42  71 101 138 181 234 289 344 423
#     4  11  24  45  69  98 137 179 234 286 355 422
#     4  11  24  47  69 108 145 182 242 293 346 427
#     4  11  24  46  67  99 136 182 232 286 355 422
#     4  10  24  44  71 101 143 192 231 285 363 415
#     4  11  24  42  71 101 135 184 230 288 353 416
#     4  11  24  46  70 102 144 182 239 291 346 431
#
# _framework density 22.856878999999999
#
# number of rings (size 3 to 8) (size 9 to 14) (size 15 to 20)
#    0.000    1.143    2.857    2.571    2.000    5.714 
#   10.286    0.000    0.000    0.000    0.000    0.000 
#    0.000    0.000    0.000    0.000    0.000    0.000 
#
# Total GULP energy -156553.286047 kJ/mol
# GULP energy per Si atom -5591.188787 kJ/mol
# Density = 2.280486 g / cm^3
# Si number density = 22.856879 Si / 1000 Ang^3
#
#
#
# Elastic Constant Matrix: (Units=GPa)
#
#
# Indices 1 2 3 4 5 6 
#
# 1 49.1147 7.2288 20.3480 0.0000 0.0000 0.0000
# 2 7.2288 100.6599 35.9128 0.0000 0.0000 0.0000
# 3 20.3480 35.9128 94.8544 0.0000 0.0000 0.0000
# 4 0.0000 0.0000 0.0000 31.2243 0.0000 0.0000
# 5 0.0000 0.0000 0.0000 0.0000 52.2444 0.0000
# 6 0.0000 0.0000 0.0000 0.0000 0.0000 18.4636
#
#
#
# Elastic Compliance Matrix: (Units=1/GPa)
#
#
# Indices 1 2 3 4 5 6 
#
# 1 0.022348 0.000122 -0.004840 0.000000 0.000000 0.000000
# 2 0.000122 0.011487 -0.004375 0.000000 0.000000 0.000000
# 3 -0.004840 -0.004375 0.013237 0.000000 0.000000 0.000000
# 4 0.000000 0.000000 0.000000 0.032026 0.000000 0.000000
# 5 0.000000 0.000000 0.000000 0.000000 0.019141 0.000000
# 6 0.000000 0.000000 0.000000 0.000000 0.000000 0.054161
#
#
# Mechanical properties :
#
#
# Convention : Reuss Voigt Hill
#
# Bulk Modulus (GPa) = 34.62004 41.28980 37.95492
# Shear Modulus (GPa) = 27.74475 32.46244 30.10360
#
# Velocity S-wave (km/s) = 3.48781 3.77271 3.63305
# Velocity P-wave (km/s) = 5.60349 6.08946 5.85152
#
# Compressibility (1/GPa) = 0.02888500
#
# Stress axis : x y z
#
# Youngs Moduli (GPa) = 44.74712 87.05796 75.54446
#
# Poissons Ratio (x) = -0.01062 0.36565
# Poissons Ratio (y) = -0.00546 0.33051
# Poissons Ratio (z) = 0.21658 0.38089
#
# Static dielectric constant tensor:
#      x y z
#    x 1.841920 0.000000 0.000000 
#    y 0.000000 1.792860 0.000000 
#    z 0.000000 0.000000 1.844270 
# 
# From -- ./inp_files/2863.got.cif
#   From: 2010.05.17/outbox.cif.g08.bks.cpg/sg29_2_cif.got.tgz:2863.got - 2010.06.04 01:19:37.
