data_PCOD9341540
_publ_section_title
;
Structure prediction by ZEFSAII (Michael W. Deem and Ramdas Pophale) SiO2 
 PCOD9341540
Probable space group: P C A 21
;
_chemical_formula_sum "Si O2"
_cell_formula_units_Z 24
_cell_length_a 9.606074
_cell_length_b 8.730291
_cell_length_c 13.998553
_cell_angle_alpha 90.000000
_cell_angle_beta 90.000000
_cell_angle_gamma 90.000000
_cell_volume 1173.972148
_symmetry_space_group_name_H-M "P C A 21"
_symmetry_group_IT_number 29
_symmetry_cell_setting 'orthorhombic'
loop_
_space_group_symop_operation_xyz
x,y,z
-x,-y,1/2+z
1/2-x,y,1/2+z
1/2+x,-y,z
loop_
_atom_site_type_symbol
_atom_site_label
_atom_site_fract_x
_atom_site_fract_y
_atom_site_fract_z
Si Si1 0.927978 0.678869 0.676280
Si Si2 0.661637 0.816150 0.767912
Si Si3 0.213068 0.654926 0.966166
Si Si4 0.678070 0.169354 0.786393
Si Si5 0.585929 0.322919 0.172868
Si Si6 0.048079 0.341041 0.956348
O O1 0.789300 0.710422 0.736255
O O2 0.963492 0.498354 0.682991
O O3 0.910692 0.713402 0.563408
O O4 0.046986 0.780423 0.723672
O O5 0.543930 0.787947 0.688018
O O6 0.595469 0.767660 0.869674
O O7 0.708243 0.991577 0.771642
O O8 0.160312 0.788459 0.896726
O O9 0.130510 0.499923 0.939503
O O10 0.380459 0.636676 0.959710
O O11 0.166170 0.690936 0.073524
O O12 0.804108 0.276400 0.752800
#
# Coordination Sequence:
#
# PCOD9341540 Si02
#       6
#     4   4   4   4   4   4
#     4  11  25  44  73  98 130 180 228 280 328 401
#     4  12  27  42  70 101 140 176 221 277 346 402
#     4  11  25  44  73  99 134 177 231 281 326 401
#     4  12  25  44  67 101 138 176 218 279 343 400
#     4  11  23  46  70  97 130 178 230 279 327 397
#     4  11  25  46  69 102 132 177 232 278 332 399
#
# _framework density 20.443415000000002
#
# number of rings (size 3 to 8) (size 9 to 14) (size 15 to 20)
#    0.000    0.667    3.333    4.000    9.333    2.667 
#    0.000    0.000    0.000    0.000    0.000    0.000 
#    0.000    0.000    0.000    0.000    0.000    0.000 
#
# Total GULP energy -134177.830155 kJ/mol
# GULP energy per Si atom -5590.742923 kJ/mol
# Density = 2.039689 g / cm^3
# Si number density = 20.443415 Si / 1000 Ang^3
#
#
#
# Elastic Constant Matrix: (Units=GPa)
#
#
# Indices 1 2 3 4 5 6 
#
# 1 30.5831 -5.1378 5.1729 0.0000 0.0000 0.0000
# 2 -5.1378 53.9000 46.4444 0.0000 0.0000 0.0000
# 3 5.1729 46.4444 82.7332 0.0000 0.0000 0.0000
# 4 0.0000 0.0000 0.0000 10.2617 0.0000 0.0000
# 5 0.0000 0.0000 0.0000 0.0000 32.9297 0.0000
# 6 0.0000 0.0000 0.0000 0.0000 0.0000 19.2834
#
#
#
# Elastic Compliance Matrix: (Units=1/GPa)
#
#
# Indices 1 2 3 4 5 6 
#
# 1 0.035796 0.010345 -0.008045 0.000000 0.000000 0.000000
# 2 0.010345 0.038925 -0.022499 0.000000 0.000000 0.000000
# 3 -0.008045 -0.022499 0.025220 0.000000 0.000000 0.000000
# 4 0.000000 0.000000 0.000000 0.097449 0.000000 0.000000
# 5 0.000000 0.000000 0.000000 0.000000 0.030368 0.000000
# 6 0.000000 0.000000 0.000000 0.000000 0.000000 0.051858
#
#
# Mechanical properties :
#
#
# Convention : Reuss Voigt Hill
#
# Bulk Modulus (GPa) = 16.79443 28.90836 22.85139
# Shear Modulus (GPa) = 14.71177 20.54408 17.62792
#
# Velocity S-wave (km/s) = 2.68551 3.17349 2.93964
# Velocity P-wave (km/s) = 4.22479 5.25352 4.76699
#
# Compressibility (1/GPa) = 0.05954354
#
# Stress axis : x y z
#
# Youngs Moduli (GPa) = 27.93571 25.69010 39.65066
#
# Poissons Ratio (x) = -0.26576 0.31901
# Poissons Ratio (y) = -0.28899 0.89209
# Poissons Ratio (z) = 0.22475 0.57799
#
# Static dielectric constant tensor:
#      x y z
#    x 1.740330 0.000000 0.000000 
#    y 0.000000 1.688230 0.000000 
#    z 0.000000 0.000000 1.741080 
# 
# From -- ./inp_files/2813.got.cif
#   From: 2010.05.17/outbox.cif.g08.bks.cpg/sg29_2_cif.got.tgz:2813.got - 2010.06.04 01:19:37.
