data_PCOD9341194
_publ_section_title
;
Structure prediction by ZEFSAII (Michael W. Deem and Ramdas Pophale) SiO2 
 PCOD9341194
Probable space group: P C A 21
;
_chemical_formula_sum "Si O2"
_cell_formula_units_Z 28
_cell_length_a 16.163491
_cell_length_b 13.763917
_cell_length_c 5.275936
_cell_angle_alpha 90.000000
_cell_angle_beta 90.000000
_cell_angle_gamma 90.000000
_cell_volume 1173.753038
_symmetry_space_group_name_H-M "P C A 21"
_symmetry_group_IT_number 29
_symmetry_cell_setting 'orthorhombic'
loop_
_space_group_symop_operation_xyz
x,y,z
-x,-y,1/2+z
1/2-x,y,1/2+z
1/2+x,-y,z
loop_
_atom_site_type_symbol
_atom_site_label
_atom_site_fract_x
_atom_site_fract_y
_atom_site_fract_z
Si Si1 0.194115 0.934906 0.756160
Si Si2 0.972502 0.381217 0.656645
Si Si3 0.301093 0.623183 0.115224
Si Si4 0.906129 0.702944 0.526414
Si Si5 0.800728 0.841783 0.203254
Si Si6 0.127051 0.455677 0.355898
Si Si7 0.437935 0.769086 0.280614
O O1 0.250259 0.917445 0.506647
O O2 0.114859 0.865854 0.762417
O O3 0.168530 0.048229 0.746149
O O4 0.894625 0.451507 0.681695
O O5 0.944671 0.275487 0.562220
O O6 0.030978 0.372911 0.898707
O O7 0.037019 0.422062 0.451982
O O8 0.247561 0.648268 0.869657
O O9 0.321410 0.507723 0.078612
O O10 0.384389 0.686647 0.131800
O O11 0.863117 0.760538 0.300530
O O12 0.844678 0.638167 0.699001
O O13 0.968208 0.773447 0.678907
O O14 0.726559 0.832823 0.411699
#
# Coordination Sequence:
#
# PCOD9341194 Si02
#       7
#     4   4   4   4   4   4   4
#     4  10  23  46  74  98 138 184 216 277 356 416
#     4  11  21  40  65  92 134 178 225 283 337 400
#     4  12  26  40  62  96 140 180 229 284 331 409
#     4  11  25  41  72  97 135 187 228 298 335 409
#     4  10  25  50  71 100 137 178 230 282 346 422
#     4  11  22  40  62  91 135 186 227 274 345 400
#     4  11  24  41  66 106 133 179 231 286 350 412
#
# _framework density 23.855101999999999
#
# number of rings (size 3 to 8) (size 9 to 14) (size 15 to 20)
#    0.000    1.143    2.857    2.571    8.000    1.143 
#    2.571    0.000    0.000    0.000    0.000    0.000 
#    0.000    0.000    0.000    0.000    0.000    0.000 
#
# Total GULP energy -156571.072455 kJ/mol
# GULP energy per Si atom -5591.824016 kJ/mol
# Density = 2.380081 g / cm^3
# Si number density = 23.855102 Si / 1000 Ang^3
#
#
#
# Elastic Constant Matrix: (Units=GPa)
#
#
# Indices 1 2 3 4 5 6 
#
# 1 39.6615 16.4202 0.0745 0.0000 0.0000 0.0000
# 2 16.4202 94.8588 4.0485 0.0000 0.0000 0.0000
# 3 0.0745 4.0485 88.0394 0.0000 0.0000 0.0000
# 4 0.0000 0.0000 0.0000 29.2267 0.0000 0.0000
# 5 0.0000 0.0000 0.0000 0.0000 36.3877 0.0000
# 6 0.0000 0.0000 0.0000 0.0000 0.0000 36.5632
#
#
#
# Elastic Compliance Matrix: (Units=1/GPa)
#
#
# Indices 1 2 3 4 5 6 
#
# 1 0.027163 -0.004710 0.000194 0.000000 0.000000 0.000000
# 2 -0.004710 0.011379 -0.000519 0.000000 0.000000 0.000000
# 3 0.000194 -0.000519 0.011382 0.000000 0.000000 0.000000
# 4 0.000000 0.000000 0.000000 0.034215 0.000000 0.000000
# 5 0.000000 0.000000 0.000000 0.000000 0.027482 0.000000
# 6 0.000000 0.000000 0.000000 0.000000 0.000000 0.027350
#
#
# Mechanical properties :
#
#
# Convention : Reuss Voigt Hill
#
# Bulk Modulus (GPa) = 25.09223 29.29403 27.19313
# Shear Modulus (GPa) = 30.80183 33.90329 32.35256
#
# Velocity S-wave (km/s) = 3.59723 3.77399 3.68667
# Velocity P-wave (km/s) = 5.27209 5.59440 5.43563
#
# Compressibility (1/GPa) = 0.03985297
#
# Stress axis : x y z
#
# Youngs Moduli (GPa) = 36.81471 87.87734 87.85601
#
# Poissons Ratio (x) = 0.41392 -0.01701
# Poissons Ratio (y) = 0.17341 0.04562
# Poissons Ratio (z) = -0.00713 0.04563
#
# Static dielectric constant tensor:
#      x y z
#    x 1.916430 0.000000 0.000000 
#    y 0.000000 1.912180 0.000000 
#    z 0.000000 0.000000 1.972790 
# 
# From -- ./inp_files/401.got.cif
#   From: 2010.05.17/outbox.cif.g08.bks.cpg/sg29_1_cif.got.tgz:401.got - 2010.06.04 01:19:37.
