data_PCOD9341573
_publ_section_title
;
Structure prediction by ZEFSAII (Michael W. Deem and Ramdas Pophale) SiO2 
 PCOD9341573
Probable space group: P C A 21
;
_chemical_formula_sum "Si O2"
_cell_formula_units_Z 28
_cell_length_a 23.831428
_cell_length_b 5.663997
_cell_length_c 7.119915
_cell_angle_alpha 90.000000
_cell_angle_beta 90.000000
_cell_angle_gamma 90.000000
_cell_volume 961.054220
_symmetry_space_group_name_H-M "P C A 21"
_symmetry_group_IT_number 29
_symmetry_cell_setting 'orthorhombic'
loop_
_space_group_symop_operation_xyz
x,y,z
-x,-y,1/2+z
1/2-x,y,1/2+z
1/2+x,-y,z
loop_
_atom_site_type_symbol
_atom_site_label
_atom_site_fract_x
_atom_site_fract_y
_atom_site_fract_z
Si Si1 0.959322 0.822620 0.792080
Si Si2 0.633527 0.614987 0.460411
Si Si3 0.651866 0.354717 0.124789
Si Si4 0.240025 0.940106 0.703359
Si Si5 0.241177 0.289274 0.956613
Si Si6 0.115473 0.722101 0.740748
Si Si7 0.986075 0.303140 0.956719
O O1 0.896764 0.842270 0.882055
O O2 0.983349 0.583664 0.902072
O O3 0.957507 0.739407 0.577465
O O4 0.984290 0.085308 0.812403
O O5 0.698787 0.596259 0.433506
O O6 0.619250 0.550608 0.670604
O O7 0.614717 0.423270 0.303478
O O8 0.702409 0.202004 0.205640
O O9 0.686249 0.564938 0.014125
O O10 0.614293 0.241210 0.962004
O O11 0.176917 0.833763 0.688306
O O12 0.237656 0.232423 0.710659
O O13 0.256314 0.996858 0.456030
O O14 0.059753 0.774419 0.620505
#
# Coordination Sequence:
#
# PCOD9341573 Si02
#       7
#     4   4   4   4   4   4   4
#     4  11  26  51  79 111 147 191 246 314 379 442
#     4  11  24  44  70 100 144 185 242 298 366 433
#     4  12  24  42  64 102 140 194 230 294 352 436
#     4  12  22  39  62  95 137 186 237 285 350 426
#     4  12  22  39  62  95 137 186 237 285 350 426
#     4  11  24  44  70 100 144 185 242 298 366 433
#     4  11  26  51  79 111 147 191 246 314 379 442
#
# _framework density 29.134671000000001
#
# number of rings (size 3 to 8) (size 9 to 14) (size 15 to 20)
#    0.000    0.571    4.286    4.286    2.000    2.286 
#    5.143    0.000    0.000    0.000    0.000    0.000 
#    0.000    0.000    0.000    0.000    0.000    0.000 
#
# Total GULP energy -155974.040978 kJ/mol
# GULP energy per Si atom -5570.501464 kJ/mol
# Density = 2.906836 g / cm^3
# Si number density = 29.134671 Si / 1000 Ang^3
#
#
#
# Elastic Constant Matrix: (Units=GPa)
#
#
# Indices 1 2 3 4 5 6 
#
# 1 48.8742 27.9020 12.7456 0.0000 0.0000 0.0000
# 2 27.9020 114.7347 48.6158 0.0000 0.0000 0.0000
# 3 12.7456 48.6158 133.8736 0.0000 0.0000 0.0000
# 4 0.0000 0.0000 0.0000 60.5385 0.0000 0.0000
# 5 0.0000 0.0000 0.0000 0.0000 44.5963 0.0000
# 6 0.0000 0.0000 0.0000 0.0000 0.0000 52.1297
#
#
#
# Elastic Compliance Matrix: (Units=1/GPa)
#
#
# Indices 1 2 3 4 5 6 
#
# 1 0.023764 -0.005697 -0.000194 0.000000 0.000000 0.000000
# 2 -0.005697 0.011667 -0.003694 0.000000 0.000000 0.000000
# 3 -0.000194 -0.003694 0.008830 0.000000 0.000000 0.000000
# 4 0.000000 0.000000 0.000000 0.016518 0.000000 0.000000
# 5 0.000000 0.000000 0.000000 0.000000 0.022423 0.000000
# 6 0.000000 0.000000 0.000000 0.000000 0.000000 0.019183
#
#
# Mechanical properties :
#
#
# Convention : Reuss Voigt Hill
#
# Bulk Modulus (GPa) = 39.85631 52.88992 46.37312
# Shear Modulus (GPa) = 38.48594 45.33419 41.91006
#
# Velocity S-wave (km/s) = 3.63845 3.94892 3.79686
# Velocity P-wave (km/s) = 5.60008 6.24380 5.93068
#
# Compressibility (1/GPa) = 0.02509013
#
# Stress axis : x y z
#
# Youngs Moduli (GPa) = 42.08128 85.71517 113.25373
#
# Poissons Ratio (x) = 0.48832 0.02193
# Poissons Ratio (y) = 0.23974 0.41839
# Poissons Ratio (z) = 0.00815 0.31666
#
# Static dielectric constant tensor:
#      x y z
#    x 2.318550 0.000000 0.000000 
#    y 0.000000 2.384480 0.000000 
#    z 0.000000 0.000000 3.426860 
# 
# From -- ./inp_files/2440.got.cif
#   From: 2010.05.17/outbox.cif.g08.bks.cpg/sg29_2_cif.got.tgz:2440.got - 2010.06.04 01:19:37.
