data_PCOD9341407
_publ_section_title
;
Structure prediction by ZEFSAII (Michael W. Deem and Ramdas Pophale) SiO2 
 PCOD9341407
Probable space group: P C A 21
;
_chemical_formula_sum "Si O2"
_cell_formula_units_Z 20
_cell_length_a 13.081710
_cell_length_b 8.351428
_cell_length_c 7.214163
_cell_angle_alpha 90.000000
_cell_angle_beta 90.000000
_cell_angle_gamma 90.000000
_cell_volume 788.154227
_symmetry_space_group_name_H-M "P C A 21"
_symmetry_group_IT_number 29
_symmetry_cell_setting 'orthorhombic'
loop_
_space_group_symop_operation_xyz
x,y,z
-x,-y,1/2+z
1/2-x,y,1/2+z
1/2+x,-y,z
loop_
_atom_site_type_symbol
_atom_site_label
_atom_site_fract_x
_atom_site_fract_y
_atom_site_fract_z
Si Si1 0.879964 0.080979 0.695970
Si Si2 0.661841 0.649847 0.864817
Si Si3 0.106255 0.712019 0.880810
Si Si4 0.372414 0.220195 0.973524
Si Si5 0.014639 0.816260 0.530814
O O1 0.931722 0.204471 0.835474
O O2 0.851096 0.940021 0.846073
O O3 0.961059 0.986647 0.565855
O O4 0.170575 0.807183 0.037622
O O5 0.640676 0.464995 0.830408
O O6 0.640787 0.775531 0.697069
O O7 0.779141 0.666480 0.917411
O O8 0.582780 0.698707 0.028127
O O9 0.985310 0.710375 0.936944
O O10 0.098672 0.804893 0.688569
#
# Coordination Sequence:
#
# PCOD9341407 Si02
#       5
#     4   4   4   4   4
#     4  11  21  43  74 106 136 195 251 305 365 453
#     4  12  25  46  71 111 155 198 248 312 389 456
#     4  11  24  44  78 107 148 195 252 308 383 449
#     4  11  24  45  75 107 154 200 253 312 385 453
#     4  11  20  40  74 103 145 188 244 299 378 449
#
# _framework density 25.375741999999999
#
# number of rings (size 3 to 8) (size 9 to 14) (size 15 to 20)
#    0.000    0.800    6.000    3.600    0.000    0.000 
#    3.600    4.000    0.000    0.000    0.000    0.000 
#    0.000    0.000    0.000    0.000    0.000    0.000 
#
# Total GULP energy -111494.675859 kJ/mol
# GULP energy per Si atom -5574.733793 kJ/mol
# Density = 2.531799 g / cm^3
# Si number density = 25.375742 Si / 1000 Ang^3
#
#
#
# Elastic Constant Matrix: (Units=GPa)
#
#
# Indices 1 2 3 4 5 6 
#
# 1 84.4255 20.2512 7.0876 0.0000 0.0000 0.0000
# 2 20.2512 99.3570 16.9742 0.0000 0.0000 0.0000
# 3 7.0876 16.9742 135.7452 0.0000 0.0000 0.0000
# 4 0.0000 0.0000 0.0000 21.4810 0.0000 0.0000
# 5 0.0000 0.0000 0.0000 0.0000 17.5907 0.0000
# 6 0.0000 0.0000 0.0000 0.0000 0.0000 14.8705
#
#
#
# Elastic Compliance Matrix: (Units=1/GPa)
#
#
# Indices 1 2 3 4 5 6 
#
# 1 0.012469 -0.002483 -0.000341 0.000000 0.000000 0.000000
# 2 -0.002483 0.010779 -0.001218 0.000000 0.000000 0.000000
# 3 -0.000341 -0.001218 0.007537 0.000000 0.000000 0.000000
# 4 0.000000 0.000000 0.000000 0.046553 0.000000 0.000000
# 5 0.000000 0.000000 0.000000 0.000000 0.056848 0.000000
# 6 0.000000 0.000000 0.000000 0.000000 0.000000 0.067247
#
#
# Mechanical properties :
#
#
# Convention : Reuss Voigt Hill
#
# Bulk Modulus (GPa) = 44.05124 45.35043 44.70083
# Shear Modulus (GPa) = 23.03257 29.13610 26.08433
#
# Velocity S-wave (km/s) = 3.01601 3.39217 3.20960
# Velocity P-wave (km/s) = 5.43375 5.76652 5.60261
#
# Compressibility (1/GPa) = 0.02270084
#
# Stress axis : x y z
#
# Youngs Moduli (GPa) = 80.19882 92.77314 132.68141
#
# Poissons Ratio (x) = 0.23038 0.04518
# Poissons Ratio (y) = 0.19916 0.16163
# Poissons Ratio (z) = 0.02731 0.11302
#
# Static dielectric constant tensor:
#      x y z
#    x 1.999300 0.000000 0.000000 
#    y 0.000000 2.049180 0.000000 
#    z 0.000000 0.000000 2.074330 
# 
# From -- ./inp_files/1409.got.cif
#   From: 2010.05.17/outbox.cif.g08.bks.cpg/sg29_1_cif.got.tgz:1409.got - 2010.06.04 01:19:37.
