data_PCOD9341379
_publ_section_title
;
Structure prediction by ZEFSAII (Michael W. Deem and Ramdas Pophale) SiO2 
 PCOD9341379
Probable space group: P C A 21
;
_chemical_formula_sum "Si O2"
_cell_formula_units_Z 20
_cell_length_a 8.964173
_cell_length_b 5.151625
_cell_length_c 15.879700
_cell_angle_alpha 90.000000
_cell_angle_beta 90.000000
_cell_angle_gamma 90.000000
_cell_volume 733.325463
_symmetry_space_group_name_H-M "P C A 21"
_symmetry_group_IT_number 29
_symmetry_cell_setting 'orthorhombic'
loop_
_space_group_symop_operation_xyz
x,y,z
-x,-y,1/2+z
1/2-x,y,1/2+z
1/2+x,-y,z
loop_
_atom_site_type_symbol
_atom_site_label
_atom_site_fract_x
_atom_site_fract_y
_atom_site_fract_z
Si Si1 0.961657 0.150469 0.496290
Si Si2 0.010155 0.176317 0.843148
Si Si3 0.748405 0.775177 0.100987
Si Si4 0.239765 0.531097 0.883450
Si Si5 0.284333 0.740503 0.711649
O O1 0.831473 0.348659 0.467295
O O2 0.098326 0.264865 0.549339
O O3 0.882881 0.905681 0.543813
O O4 0.027402 0.042634 0.409303
O O5 0.914849 0.419964 0.880932
O O6 0.944661 0.171588 0.749926
O O7 0.179972 0.250411 0.859067
O O8 0.707559 0.519183 0.155127
O O9 0.778854 0.019625 0.161714
O O10 0.192599 0.686287 0.797342
#
# Coordination Sequence:
#
# PCOD9341379 Si02
#       5
#     4   4   4   4   4
#     4  12  28  46  74 114 152 198 254 312 384 446
#     4  10  26  46  76 105 146 208 252 303 362 476
#     4  12  29  45  78 110 161 183 256 322 389 421
#     4  10  26  46  76 105 146 208 252 303 362 476
#     4  10  29  49  74 112 147 207 244 318 373 455
#
# _framework density 27.273019999999999
#
# number of rings (size 3 to 8) (size 9 to 14) (size 15 to 20)
#    1.200    0.000    2.000    0.000   19.600    0.000 
#    0.000    0.000    0.000    0.000    0.000    0.000 
#    0.000    0.000    0.000    0.000    0.000    0.000 
#
# Total GULP energy -111896.100958 kJ/mol
# GULP energy per Si atom -5594.805048 kJ/mol
# Density = 2.721095 g / cm^3
# Si number density = 27.273020 Si / 1000 Ang^3
#
#
#
# Elastic Constant Matrix: (Units=GPa)
#
#
# Indices 1 2 3 4 5 6 
#
# 1 129.5660 19.3841 51.5168 0.0000 0.0000 0.0000
# 2 19.3841 102.2289 82.7957 0.0000 0.0000 0.0000
# 3 51.5168 82.7957 155.3939 0.0000 0.0000 0.0000
# 4 0.0000 0.0000 0.0000 52.8860 0.0000 0.0000
# 5 0.0000 0.0000 0.0000 0.0000 54.9794 0.0000
# 6 0.0000 0.0000 0.0000 0.0000 0.0000 45.2485
#
#
#
# Elastic Compliance Matrix: (Units=1/GPa)
#
#
# Indices 1 2 3 4 5 6 
#
# 1 0.008979 0.001246 -0.003641 0.000000 0.000000 0.000000
# 2 0.001246 0.017380 -0.009674 0.000000 0.000000 0.000000
# 3 -0.003641 -0.009674 0.012796 0.000000 0.000000 0.000000
# 4 0.000000 0.000000 0.000000 0.018909 0.000000 0.000000
# 5 0.000000 0.000000 0.000000 0.000000 0.018189 0.000000
# 6 0.000000 0.000000 0.000000 0.000000 0.000000 0.022100
#
#
# Mechanical properties :
#
#
# Convention : Reuss Voigt Hill
#
# Bulk Modulus (GPa) = 66.57984 77.17580 71.87782
# Shear Modulus (GPa) = 39.21675 46.18894 42.70285
#
# Velocity S-wave (km/s) = 3.79612 4.11977 3.96125
# Velocity P-wave (km/s) = 6.60904 7.14066 6.87998
#
# Compressibility (1/GPa) = 0.01501956
#
# Stress axis : x y z
#
# Youngs Moduli (GPa) = 111.36783 57.53610 78.14663
#
# Poissons Ratio (x) = -0.07169 0.28451
# Poissons Ratio (y) = -0.13877 0.75596
# Poissons Ratio (z) = 0.40546 0.55658
#
# Static dielectric constant tensor:
#      x y z
#    x 2.110920 0.000000 0.000000 
#    y 0.000000 2.113900 0.000000 
#    z 0.000000 0.000000 2.211760 
# 
# From -- ./inp_files/5051.got.cif
#   From: 2010.05.17/outbox.cif.g08.bks.cpg/sg29_3_cif.got.tgz:5051.got - 2010.06.04 01:19:37.
