data_PCOD9341180
_publ_section_title
;
Structure prediction by ZEFSAII (Michael W. Deem and Ramdas Pophale) SiO2 
 PCOD9341180
Probable space group: P C A 21
;
_chemical_formula_sum "Si O2"
_cell_formula_units_Z 32
_cell_length_a 8.080716
_cell_length_b 14.408939
_cell_length_c 12.949547
_cell_angle_alpha 90.000000
_cell_angle_beta 90.000000
_cell_angle_gamma 90.000000
_cell_volume 1507.774599
_symmetry_space_group_name_H-M "P C A 21"
_symmetry_group_IT_number 29
_symmetry_cell_setting 'orthorhombic'
loop_
_space_group_symop_operation_xyz
x,y,z
-x,-y,1/2+z
1/2-x,y,1/2+z
1/2+x,-y,z
loop_
_atom_site_type_symbol
_atom_site_label
_atom_site_fract_x
_atom_site_fract_y
_atom_site_fract_z
Si Si1 0.594879 0.911183 0.223710
Si Si2 0.296840 0.285333 0.681587
Si Si3 0.985252 0.494522 0.931309
Si Si4 0.180209 0.971567 0.582447
Si Si5 0.740334 0.518089 0.782660
Si Si6 0.856067 0.365873 0.111945
Si Si7 0.966736 0.106480 0.446726
Si Si8 0.491921 0.697026 0.527654
O O1 0.694372 0.815068 0.234483
O O2 0.458955 0.906363 0.132103
O O3 0.507867 0.930140 0.332824
O O4 0.713046 0.991263 0.179149
O O5 0.247713 0.376662 0.745741
O O6 0.485731 0.306038 0.646439
O O7 0.153406 0.281477 0.595780
O O8 0.925728 0.483786 0.812503
O O9 0.178745 0.481926 0.902166
O O10 0.921215 0.418834 0.010179
O O11 0.979114 0.598179 0.974601
O O12 0.292335 0.923008 0.496348
O O13 0.096718 0.059577 0.525914
O O14 0.681734 0.445186 0.697161
O O15 0.683099 0.313229 0.089120
O O16 0.975019 0.217708 0.448931
#
# Coordination Sequence:
#
# PCOD9341180 Si02
#       8
#     4   4   4   4   4   4   4   4
#     4  11  23  43  71 100 133 179 224 284 351 422
#     4  12  24  43  67 100 137 176 229 283 338 405
#     4  12  23  41  66  92 131 184 226 272 338 395
#     4  10  23  45  70 101 133 174 223 280 362 414
#     4  12  23  41  66  92 131 183 225 276 336 397
#     4  12  25  43  64  93 139 179 226 282 335 395
#     4  11  23  43  71  97 136 174 220 286 342 422
#     4  12  24  43  65  99 136 175 225 285 334 400
#
# _framework density 21.223333
#
# number of rings (size 3 to 8) (size 9 to 14) (size 15 to 20)
#    0.000    0.500    5.000    4.500    0.000    0.000 
#    0.000    0.000    2.750    0.000    0.000    0.000 
#    0.000    0.000    0.000    0.000    0.000    0.000 
#
# Total GULP energy -178516.454362 kJ/mol
# GULP energy per Si atom -5578.639199 kJ/mol
# Density = 2.117503 g / cm^3
# Si number density = 21.223333 Si / 1000 Ang^3
#
#
#
# Elastic Constant Matrix: (Units=GPa)
#
#
# Indices 1 2 3 4 5 6 
#
# 1 34.4634 5.2452 14.0548 0.0000 0.0000 0.0000
# 2 5.2452 66.0528 -1.3744 0.0000 0.0000 0.0000
# 3 14.0548 -1.3744 64.4427 0.0000 0.0000 0.0000
# 4 0.0000 0.0000 0.0000 23.5626 0.0000 0.0000
# 5 0.0000 0.0000 0.0000 0.0000 38.4358 0.0000
# 6 0.0000 0.0000 0.0000 0.0000 0.0000 -28.9770
#
#
#
# Elastic Compliance Matrix: (Units=1/GPa)
#
#
# Indices 1 2 3 4 5 6 
#
# 1 0.032329 -0.002715 -0.007109 0.000000 0.000000 0.000000
# 2 -0.002715 0.015374 0.000920 0.000000 0.000000 0.000000
# 3 -0.007109 0.000920 0.017088 0.000000 0.000000 0.000000
# 4 0.000000 0.000000 0.000000 0.042440 0.000000 0.000000
# 5 0.000000 0.000000 0.000000 0.000000 0.026017 0.000000
# 6 0.000000 0.000000 0.000000 0.000000 0.000000 -0.034510
#
#
# Mechanical properties :
#
#
# Convention : Reuss Voigt Hill
#
# Bulk Modulus (GPa) = 21.28432 22.31222 21.79827
# Shear Modulus (GPa) = 37.81970 16.40650 27.11310
#
# Velocity S-wave (km/s) = 4.22594 2.78338 3.57811
# Velocity P-wave (km/s) = 5.81910 4.56787 5.23103
#
# Compressibility (1/GPa) = 0.04698294
#
# Stress axis : x y z
#
# Youngs Moduli (GPa) = 30.93237 65.04428 58.52172
#
# Poissons Ratio (x) = 0.17660 0.41601
# Poissons Ratio (y) = 0.08398 -0.05384
# Poissons Ratio (z) = 0.21989 -0.05984
#
# Static dielectric constant tensor:
#      x y z
#    x 1.887820 0.000000 0.000000 
#    y 0.000000 1.722700 0.000000 
#    z 0.000000 0.000000 1.749730 
# 
# From -- ./inp_files/2958.got.cif
#   From: 2010.05.17/outbox.cif.g08.bks.cpg/sg29_2_cif.got.tgz:2958.got - 2010.06.04 01:19:37.
