data_PCOD9341149
_publ_section_title
;
Structure prediction by ZEFSAII (Michael W. Deem and Ramdas Pophale) SiO2 
 PCOD9341149
Probable space group: P C A 21
;
_chemical_formula_sum "Si O2"
_cell_formula_units_Z 20
_cell_length_a 11.000013
_cell_length_b 7.240848
_cell_length_c 11.934865
_cell_angle_alpha 90.000000
_cell_angle_beta 90.000000
_cell_angle_gamma 90.000000
_cell_volume 950.605100
_symmetry_space_group_name_H-M "P C A 21"
_symmetry_group_IT_number 29
_symmetry_cell_setting 'orthorhombic'
loop_
_space_group_symop_operation_xyz
x,y,z
-x,-y,1/2+z
1/2-x,y,1/2+z
1/2+x,-y,z
loop_
_atom_site_type_symbol
_atom_site_label
_atom_site_fract_x
_atom_site_fract_y
_atom_site_fract_z
Si Si1 0.398602 0.160089 0.251270
Si Si2 0.918778 0.349104 0.908366
Si Si3 0.035011 0.626124 0.057706
Si Si4 0.336800 0.771012 0.343279
Si Si5 0.785069 0.543351 0.721689
O O1 0.463218 0.242621 0.362769
O O2 0.482101 0.231203 0.148573
O O3 0.269248 0.254871 0.226808
O O4 0.377756 0.945820 0.272293
O O5 0.800207 0.217658 0.897626
O O6 0.925050 0.268989 0.446018
O O7 0.944167 0.461361 0.021177
O O8 0.821911 0.405712 0.262448
O O9 0.653488 0.474199 0.108774
O O10 0.114232 0.493343 0.316665
#
# Coordination Sequence:
#
# PCOD9341149 Si02
#       5
#     4   4   4   4   4
#     4  11  22  43  68  97 132 182 222 278 339 398
#     4   9  20  43  66  94 135 179 215 277 336 399
#     4  11  21  45  71  97 135 191 212 279 360 391
#     4  10  23  44  62 102 137 165 236 283 321 414
#     4   9  22  43  65  96 137 169 227 273 326 420
#
# _framework density 21.039231999999998
#
# number of rings (size 3 to 8) (size 9 to 14) (size 15 to 20)
#    1.200    0.800    2.000    1.200    0.000    1.600 
#   14.400    0.000    0.000    0.000    0.000    0.000 
#    0.000    0.000    0.000    0.000    0.000    0.000 
#
# Total GULP energy -111477.459908 kJ/mol
# GULP energy per Si atom -5573.872995 kJ/mol
# Density = 2.099135 g / cm^3
# Si number density = 21.039232 Si / 1000 Ang^3
#
#
#
# Elastic Constant Matrix: (Units=GPa)
#
#
# Indices 1 2 3 4 5 6 
#
# 1 57.4503 11.1897 13.8100 0.0000 0.0000 0.0000
# 2 11.1897 41.7688 38.8705 0.0000 0.0000 0.0000
# 3 13.8100 38.8705 84.1815 0.0000 0.0000 0.0000
# 4 0.0000 0.0000 0.0000 31.0374 0.0000 0.0000
# 5 0.0000 0.0000 0.0000 0.0000 29.1722 0.0000
# 6 0.0000 0.0000 0.0000 0.0000 0.0000 1.5842
#
#
#
# Elastic Compliance Matrix: (Units=1/GPa)
#
#
# Indices 1 2 3 4 5 6 
#
# 1 0.018446 -0.003727 -0.001305 0.000000 0.000000 0.000000
# 2 -0.003727 0.042734 -0.019121 0.000000 0.000000 0.000000
# 3 -0.001305 -0.019121 0.020922 0.000000 0.000000 0.000000
# 4 0.000000 0.000000 0.000000 0.032219 0.000000 0.000000
# 5 0.000000 0.000000 0.000000 0.000000 0.034279 0.000000
# 6 0.000000 0.000000 0.000000 0.000000 0.000000 0.631217
#
#
# Mechanical properties :
#
#
# Convention : Reuss Voigt Hill
#
# Bulk Modulus (GPa) = 29.58925 34.57122 32.08024
# Shear Modulus (GPa) = 5.95672 20.32746 13.14209
#
# Velocity S-wave (km/s) = 1.68445 3.11170 2.50200
# Velocity P-wave (km/s) = 4.22819 5.42012 4.86083
#
# Compressibility (1/GPa) = 0.03379605
#
# Stress axis : x y z
#
# Youngs Moduli (GPa) = 54.21227 23.40073 47.79634
#
# Poissons Ratio (x) = 0.08722 0.06238
# Poissons Ratio (y) = 0.20205 0.91390
# Poissons Ratio (z) = 0.07075 0.44744
#
# Static dielectric constant tensor:
#      x y z
#    x 1.805030 0.000000 0.000000 
#    y 0.000000 1.715280 0.000000 
#    z 0.000000 0.000000 1.761030 
# 
# From -- ./inp_files/3370.got.cif
#   From: 2010.05.17/outbox.cif.g08.bks.cpg/sg29_2_cif.got.tgz:3370.got - 2010.06.04 01:19:37.
