data_PCOD9341054
_publ_section_title
;
Structure prediction by ZEFSAII (Michael W. Deem and Ramdas Pophale) SiO2 
 PCOD9341054
Probable space group: P C A 21
;
_chemical_formula_sum "Si O2"
_cell_formula_units_Z 28
_cell_length_a 17.602203
_cell_length_b 5.188034
_cell_length_c 12.572132
_cell_angle_alpha 90.000000
_cell_angle_beta 90.000000
_cell_angle_gamma 90.000000
_cell_volume 1148.097499
_symmetry_space_group_name_H-M "P C A 21"
_symmetry_group_IT_number 29
_symmetry_cell_setting 'orthorhombic'
loop_
_space_group_symop_operation_xyz
x,y,z
-x,-y,1/2+z
1/2-x,y,1/2+z
1/2+x,-y,z
loop_
_atom_site_type_symbol
_atom_site_label
_atom_site_fract_x
_atom_site_fract_y
_atom_site_fract_z
Si Si1 0.096145 0.449356 0.696450
Si Si2 0.008840 0.958711 0.775801
Si Si3 0.356658 0.523149 0.597839
Si Si4 0.224721 0.190374 0.829189
Si Si5 0.154468 0.849578 0.290425
Si Si6 0.191770 0.541108 0.491104
Si Si7 0.596391 0.987901 0.980138
O O1 0.047528 0.188660 0.708525
O O2 0.170543 0.396067 0.770914
O O3 0.126833 0.489997 0.577587
O O4 0.047520 0.690782 0.740174
O O5 0.027436 0.025614 0.898771
O O6 0.919088 0.979783 0.770284
O O7 0.355677 0.591164 0.721417
O O8 0.270953 0.565627 0.555126
O O9 0.390221 0.255992 0.555840
O O10 0.404959 0.748726 0.543048
O O11 0.285165 0.318042 0.908030
O O12 0.168289 0.019049 0.900027
O O13 0.271464 0.006526 0.750994
O O14 0.168199 0.771679 0.412538
#
# Coordination Sequence:
#
# PCOD9341054 Si02
#       7
#     4   4   4   4   4   4   4
#     4  11  27  48  77  99 155 195 240 289 381 430
#     4  11  27  48  71 110 148 198 232 301 363 448
#     4  11  25  42  73 106 141 188 244 302 351 423
#     4  10  24  44  74 105 136 189 247 302 343 430
#     4  12  28  43  77 109 150 178 257 302 358 425
#     4  11  25  44  73 109 139 190 249 303 354 430
#     4  10  22  47  69  98 145 192 233 285 376 422
#
# _framework density 24.388173999999999
#
# number of rings (size 3 to 8) (size 9 to 14) (size 15 to 20)
#    0.000    1.143    1.429    3.429   16.000    2.286 
#    0.000    0.000    0.000    0.000    0.000    0.000 
#    0.000    0.000    0.000    0.000    0.000    0.000 
#
# Total GULP energy -156818.938762 kJ/mol
# GULP energy per Si atom -5600.676384 kJ/mol
# Density = 2.433267 g / cm^3
# Si number density = 24.388174 Si / 1000 Ang^3
#
#
#
# Elastic Constant Matrix: (Units=GPa)
#
#
# Indices 1 2 3 4 5 6 
#
# 1 59.4197 37.8862 30.1225 0.0000 0.0000 0.0000
# 2 37.8862 109.6547 9.8056 0.0000 0.0000 0.0000
# 3 30.1225 9.8056 89.6649 0.0000 0.0000 0.0000
# 4 0.0000 0.0000 0.0000 37.5756 0.0000 0.0000
# 5 0.0000 0.0000 0.0000 0.0000 25.6658 0.0000
# 6 0.0000 0.0000 0.0000 0.0000 0.0000 21.3541
#
#
#
# Elastic Compliance Matrix: (Units=1/GPa)
#
#
# Indices 1 2 3 4 5 6 
#
# 1 0.026123 -0.008322 -0.007866 0.000000 0.000000 0.000000
# 2 -0.008322 0.011861 0.001499 0.000000 0.000000 0.000000
# 3 -0.007866 0.001499 0.013631 0.000000 0.000000 0.000000
# 4 0.000000 0.000000 0.000000 0.026613 0.000000 0.000000
# 5 0.000000 0.000000 0.000000 0.000000 0.038962 0.000000
# 6 0.000000 0.000000 0.000000 0.000000 0.000000 0.046830
#
#
# Mechanical properties :
#
#
# Convention : Reuss Voigt Hill
#
# Bulk Modulus (GPa) = 44.97098 46.04086 45.50592
# Shear Modulus (GPa) = 24.89897 28.98077 26.93987
#
# Velocity S-wave (km/s) = 3.19869 3.45093 3.32720
# Velocity P-wave (km/s) = 5.66761 5.89897 5.78445
#
# Compressibility (1/GPa) = 0.02223656
#
# Stress axis : x y z
#
# Youngs Moduli (GPa) = 38.27988 84.31046 73.36087
#
# Poissons Ratio (x) = 0.70166 0.57705
# Poissons Ratio (y) = 0.31858 -0.10995
# Poissons Ratio (z) = 0.30111 -0.12636
#
# Static dielectric constant tensor:
#      x y z
#    x 1.950540 0.000000 0.000000 
#    y 0.000000 1.939120 0.000000 
#    z 0.000000 0.000000 1.950310 
# 
# From -- ./inp_files/3620.got.cif
#   From: 2010.05.17/outbox.cif.g08.bks.cpg/sg29_2_cif.got.tgz:3620.got - 2010.06.04 01:19:37.
