data_PCOD9341018
_publ_section_title
;
Structure prediction by ZEFSAII (Michael W. Deem and Ramdas Pophale) SiO2 
 PCOD9341018
Probable space group: P C A 21
;
_chemical_formula_sum "Si O2"
_cell_formula_units_Z 28
_cell_length_a 10.793262
_cell_length_b 9.185662
_cell_length_c 10.468407
_cell_angle_alpha 90.000000
_cell_angle_beta 90.000000
_cell_angle_gamma 90.000000
_cell_volume 1037.871961
_symmetry_space_group_name_H-M "P C A 21"
_symmetry_group_IT_number 29
_symmetry_cell_setting 'orthorhombic'
loop_
_space_group_symop_operation_xyz
x,y,z
-x,-y,1/2+z
1/2-x,y,1/2+z
1/2+x,-y,z
loop_
_atom_site_type_symbol
_atom_site_label
_atom_site_fract_x
_atom_site_fract_y
_atom_site_fract_z
Si Si1 0.579569 0.372022 0.482480
Si Si2 0.528191 0.639435 0.321090
Si Si3 0.550506 0.919434 0.989128
Si Si4 0.892438 0.944936 0.208785
Si Si5 0.288919 0.505683 0.615796
Si Si6 0.709729 0.766060 0.513536
Si Si7 0.743775 0.234790 0.766500
O O1 0.507733 0.494181 0.404659
O O2 0.503339 0.236332 0.529678
O O3 0.640397 0.462998 0.598502
O O4 0.682235 0.293509 0.391216
O O5 0.626066 0.579964 0.216218
O O6 0.603876 0.752817 0.409227
O O7 0.396934 0.711551 0.293192
O O8 0.528932 0.938248 0.838398
O O9 0.698597 0.901331 0.993008
O O10 0.483389 0.019703 0.090652
O O11 0.835184 0.792376 0.159609
O O12 0.784944 0.067127 0.230822
O O13 0.283454 0.386437 0.501977
O O14 0.314573 0.675888 0.652188
#
# Coordination Sequence:
#
# PCOD9341018 Si02
#       7
#     4   4   4   4   4   4   4
#     4  10  25  43  73 109 151 195 260 322 397 451
#     4  10  23  43  75 106 146 195 257 320 388 466
#     4  12  28  50  77 112 160 210 267 330 398 493
#     4  12  28  47  78 111 160 212 258 333 397 481
#     4  10  22  44  70 106 140 198 247 327 379 464
#     4  11  26  46  73 108 149 206 259 320 402 474
#     4  11  24  45  72 108 150 196 258 320 389 479
#
# _framework density 26.978280999999999
#
# number of rings (size 3 to 8) (size 9 to 14) (size 15 to 20)
#    0.000    1.143    1.429    2.571   12.000    1.143 
#    5.143    0.000    0.000    0.000    0.000    0.000 
#    0.000    0.000    0.000    0.000    0.000    0.000 
#
# Total GULP energy -155932.276919 kJ/mol
# GULP energy per Si atom -5569.009890 kJ/mol
# Density = 2.691688 g / cm^3
# Si number density = 26.978281 Si / 1000 Ang^3
#
#
#
# Elastic Constant Matrix: (Units=GPa)
#
#
# Indices 1 2 3 4 5 6 
#
# 1 95.6519 47.6291 35.0375 0.0000 0.0000 0.0000
# 2 47.6291 99.0344 16.5290 0.0000 0.0000 0.0000
# 3 35.0375 16.5290 68.7466 0.0000 0.0000 0.0000
# 4 0.0000 0.0000 0.0000 42.8906 0.0000 0.0000
# 5 0.0000 0.0000 0.0000 0.0000 31.0722 0.0000
# 6 0.0000 0.0000 0.0000 0.0000 0.0000 34.2117
#
#
#
# Elastic Compliance Matrix: (Units=1/GPa)
#
#
# Indices 1 2 3 4 5 6 
#
# 1 0.016227 -0.006692 -0.006661 0.000000 0.000000 0.000000
# 2 -0.006692 0.013280 0.000218 0.000000 0.000000 0.000000
# 3 -0.006661 0.000218 0.017889 0.000000 0.000000 0.000000
# 4 0.000000 0.000000 0.000000 0.023315 0.000000 0.000000
# 5 0.000000 0.000000 0.000000 0.000000 0.032183 0.000000
# 6 0.000000 0.000000 0.000000 0.000000 0.000000 0.029230
#
#
# Mechanical properties :
#
#
# Convention : Reuss Voigt Hill
#
# Bulk Modulus (GPa) = 47.33908 51.31380 49.32644
# Shear Modulus (GPa) = 30.22315 32.58406 31.40361
#
# Velocity S-wave (km/s) = 3.35069 3.47910 3.41549
# Velocity P-wave (km/s) = 5.70567 5.93300 5.82045
#
# Compressibility (1/GPa) = 0.02112420
#
# Stress axis : x y z
#
# Youngs Moduli (GPa) = 61.62571 75.30287 55.90109
#
# Poissons Ratio (x) = 0.50395 0.37237
# Poissons Ratio (y) = 0.41242 -0.01218
# Poissons Ratio (z) = 0.41050 -0.01641
#
# Static dielectric constant tensor:
#      x y z
#    x 2.283860 0.000000 0.000000 
#    y 0.000000 2.137130 0.000000 
#    z 0.000000 0.000000 2.298790 
# 
# From -- ./inp_files/3121.got.cif
#   From: 2010.05.17/outbox.cif.g08.bks.cpg/sg29_2_cif.got.tgz:3121.got - 2010.06.04 01:19:37.
