data_PCOD9341510
_publ_section_title
;
Structure prediction by ZEFSAII (Michael W. Deem and Ramdas Pophale) SiO2 
 PCOD9341510
Probable space group: P C A 21
;
_chemical_formula_sum "Si O2"
_cell_formula_units_Z 24
_cell_length_a 12.244658
_cell_length_b 9.177141
_cell_length_c 8.162944
_cell_angle_alpha 90.000000
_cell_angle_beta 90.000000
_cell_angle_gamma 90.000000
_cell_volume 917.277796
_symmetry_space_group_name_H-M "P C A 21"
_symmetry_group_IT_number 29
_symmetry_cell_setting 'orthorhombic'
loop_
_space_group_symop_operation_xyz
x,y,z
-x,-y,1/2+z
1/2-x,y,1/2+z
1/2+x,-y,z
loop_
_atom_site_type_symbol
_atom_site_label
_atom_site_fract_x
_atom_site_fract_y
_atom_site_fract_z
Si Si1 0.839673 0.252429 0.686480
Si Si2 0.473630 0.976045 0.503002
Si Si3 0.161289 0.990730 0.692262
Si Si4 0.359601 0.587865 0.023399
Si Si5 0.909637 0.704786 0.590661
Si Si6 0.697017 0.670732 0.745860
O O1 0.940354 0.169771 0.600804
O O2 0.758911 0.345824 0.571698
O O3 0.873819 0.352747 0.838229
O O4 0.758175 0.118345 0.726316
O O5 0.600663 0.016686 0.517879
O O6 0.434278 0.952871 0.319864
O O7 0.409481 0.120455 0.563430
O O8 0.186467 0.158508 0.714960
O O9 0.466042 0.655854 0.112250
O O10 0.353959 0.426730 0.101320
O O11 0.828284 0.653542 0.733068
O O12 0.859640 0.640275 0.419923
#
# Coordination Sequence:
#
# PCOD9341510 Si02
#       6
#     4   4   4   4   4   4
#     4  12  23  45  71 106 149 197 255 314 374 458
#     4  11  23  42  74 110 145 197 260 313 384 445
#     4  11  24  43  72 107 143 200 251 317 372 457
#     4  12  27  48  73 110 156 201 252 317 394 462
#     4  11  25  47  74 108 148 200 253 319 384 455
#     4  11  26  47  72 107 153 197 255 314 384 459
#
# _framework density 26.164373999999999
#
# number of rings (size 3 to 8) (size 9 to 14) (size 15 to 20)
#    0.000    0.667    5.000    3.000    0.000    5.333 
#    3.000    0.000    0.000    0.000    0.000    0.000 
#    0.000    0.000    0.000    0.000    0.000    0.000 
#
# Total GULP energy -134310.470950 kJ/mol
# GULP energy per Si atom -5596.269623 kJ/mol
# Density = 2.610482 g / cm^3
# Si number density = 26.164374 Si / 1000 Ang^3
#
#
#
# Elastic Constant Matrix: (Units=GPa)
#
#
# Indices 1 2 3 4 5 6 
#
# 1 85.0640 8.4844 10.0433 0.0000 0.0000 0.0000
# 2 8.4844 150.0564 57.5388 0.0000 0.0000 0.0000
# 3 10.0433 57.5388 64.4965 0.0000 0.0000 0.0000
# 4 0.0000 0.0000 0.0000 38.7375 0.0000 0.0000
# 5 0.0000 0.0000 0.0000 0.0000 51.0486 0.0000
# 6 0.0000 0.0000 0.0000 0.0000 0.0000 33.7061
#
#
#
# Elastic Compliance Matrix: (Units=1/GPa)
#
#
# Indices 1 2 3 4 5 6 
#
# 1 0.011976 0.000058 -0.001916 0.000000 0.000000 0.000000
# 2 0.000058 0.010129 -0.009046 0.000000 0.000000 0.000000
# 3 -0.001916 -0.009046 0.023873 0.000000 0.000000 0.000000
# 4 0.000000 0.000000 0.000000 0.025815 0.000000 0.000000
# 5 0.000000 0.000000 0.000000 0.000000 0.019589 0.000000
# 6 0.000000 0.000000 0.000000 0.000000 0.000000 0.029668
#
#
# Mechanical properties :
#
#
# Convention : Reuss Voigt Hill
#
# Bulk Modulus (GPa) = 41.37361 50.19442 45.78401
# Shear Modulus (GPa) = 33.13091 39.60181 36.36636
#
# Velocity S-wave (km/s) = 3.56232 3.89469 3.73221
# Velocity P-wave (km/s) = 5.72428 6.28098 6.00908
#
# Compressibility (1/GPa) = 0.02417000
#
# Stress axis : x y z
#
# Youngs Moduli (GPa) = 83.49779 98.72204 41.88832
#
# Poissons Ratio (x) = -0.00569 0.08027
# Poissons Ratio (y) = -0.00482 0.37891
# Poissons Ratio (z) = 0.16001 0.89301
#
# Static dielectric constant tensor:
#      x y z
#    x 2.045780 0.000000 0.000000 
#    y 0.000000 2.056260 0.000000 
#    z 0.000000 0.000000 2.100860 
# 
# From -- ./inp_files/1400.got.cif
#   From: 2010.05.17/outbox.cif.g08.bks.cpg/sg29_1_cif.got.tgz:1400.got - 2010.06.04 01:19:37.
