data_PCOD9341831
_publ_section_title
;
Structure prediction by ZEFSAII (Michael W. Deem and Ramdas Pophale) SiO2 
 PCOD9341831
Probable space group: P N C 2
;
_chemical_formula_sum "Si O2"
_cell_formula_units_Z 26
_cell_length_a 5.321209
_cell_length_b 10.312841
_cell_length_c 25.611748
_cell_angle_alpha 90.000000
_cell_angle_beta 90.000000
_cell_angle_gamma 90.000000
_cell_volume 1405.490320
_symmetry_space_group_name_H-M "P N C 2"
_symmetry_group_IT_number 30
_symmetry_cell_setting 'orthorhombic'
loop_
_space_group_symop_operation_xyz
x,y,z
-x,-y,z
-x,1/2+y,1/2+z
x,1/2-y,1/2+z
loop_
_atom_site_type_symbol
_atom_site_label
_atom_site_fract_x
_atom_site_fract_y
_atom_site_fract_z
Si Si1 0.500000 0.500000 0.173510
Si Si2 0.441475 0.282662 0.638710
Si Si3 0.790457 0.652306 0.420851
Si Si4 0.703531 0.142397 0.878199
Si Si5 0.813842 0.108904 0.767724
Si Si6 0.251418 0.419813 0.534788
Si Si7 0.053632 0.853214 0.203284
O O1 0.540424 0.627191 0.139496
O O2 0.287746 0.541908 0.215119
O O3 0.366504 0.338871 0.582619
O O4 0.698368 0.340249 0.665145
O O5 0.200780 0.314222 0.673901
O O6 0.522281 0.712540 0.407457
O O7 0.747409 0.501813 0.402518
O O8 0.837190 0.653920 0.482634
O O9 0.025579 0.705514 0.388593
O O10 0.635441 0.134112 0.817047
O O11 0.911598 0.247721 0.748826
O O12 0.000000 0.000000 0.789766
O O13 0.500000 0.500000 0.517394
O O14 0.000000 0.500000 0.551751
O O15 0.000000 0.000000 0.220503
#
# Coordination Sequence:
#
# PCOD9341831 Si02
#       7
#     2   4   4   4   4   4   4
#     4  10  22  38  52  84 110 146 196 232 264 342
#     4  11  23  36  58  76 113 152 190 230 279 330
#     4  10  17  30  46  76 110 127 176 232 274 316
#     4  10  18  29  50  78 105 133 171 232 275 321
#     4  11  20  34  59  80 113 147 185 224 289 330
#     4  12  20  33  52  79 109 145 179 226 288 328
#     4  11  23  39  54  83 116 148 186 234 271 341
#
# _framework density 18.498884
#
# number of rings (size 3 to 8) (size 9 to 14) (size 15 to 20)
#    0.000    1.231    6.154    3.692    0.000    0.000 
#    0.000    0.000    0.000    0.000    4.000    0.000 
#    0.000    0.000    0.000    0.000    0.000    0.000 
#
# Total GULP energy -144734.649759 kJ/mol
# GULP energy per Si atom -5566.717298 kJ/mol
# Density = 1.845678 g / cm^3
# Si number density = 18.498884 Si / 1000 Ang^3
#
#
#
# Elastic Constant Matrix: (Units=GPa)
#
#
# Indices 1 2 3 4 5 6 
#
# 1 123.6056 24.1471 10.8376 0.0000 0.0000 0.0000
# 2 24.1471 84.7462 32.2379 0.0000 0.0000 0.0000
# 3 10.8376 32.2379 85.9491 0.0000 0.0000 0.0000
# 4 0.0000 0.0000 0.0000 8.3520 0.0000 0.0000
# 5 0.0000 0.0000 0.0000 0.0000 29.1719 0.0000
# 6 0.0000 0.0000 0.0000 0.0000 0.0000 16.8177
#
#
#
# Elastic Compliance Matrix: (Units=1/GPa)
#
#
# Indices 1 2 3 4 5 6 
#
# 1 0.008570 -0.002369 -0.000192 0.000000 0.000000 0.000000
# 2 -0.002369 0.014419 -0.005109 0.000000 0.000000 0.000000
# 3 -0.000192 -0.005109 0.013575 0.000000 0.000000 0.000000
# 4 0.000000 0.000000 0.000000 0.119732 0.000000 0.000000
# 5 0.000000 0.000000 0.000000 0.000000 0.034280 0.000000
# 6 0.000000 0.000000 0.000000 0.000000 0.000000 0.059461
#
#
# Mechanical properties :
#
#
# Convention : Reuss Voigt Hill
#
# Bulk Modulus (GPa) = 47.11820 47.63844 47.37832
# Shear Modulus (GPa) = 18.35187 26.00687 22.17937
#
# Velocity S-wave (km/s) = 3.15310 3.75355 3.46635
# Velocity P-wave (km/s) = 6.22754 6.67784 6.45661
#
# Compressibility (1/GPa) = 0.02122322
#
# Stress axis : x y z
#
# Youngs Moduli (GPa) = 116.68822 69.35521 73.66222
#
# Poissons Ratio (x) = 0.16429 0.01415
# Poissons Ratio (y) = 0.27641 0.37637
# Poissons Ratio (z) = 0.02242 0.35437
#
# Static dielectric constant tensor:
#      x y z
#    x 1.783790 0.000000 0.000000 
#    y 0.000000 1.644320 0.000000 
#    z 0.000000 0.000000 1.646070 
# 
# From -- ./inp_files/7507.got.cif
#   From: 2010.05.17/outbox.cif.g08.bks.cpg/sg30_4_cif.got.tgz:7507.got - 2010.06.03 17:03:02.
