data_PCOD9341811
_publ_section_title
;
Structure prediction by ZEFSAII (Michael W. Deem and Ramdas Pophale) SiO2 
 PCOD9341811
Probable space group: P N C 2
;
_chemical_formula_sum "Si O2"
_cell_formula_units_Z 32
_cell_length_a 9.528228
_cell_length_b 19.062832
_cell_length_c 7.078865
_cell_angle_alpha 90.000000
_cell_angle_beta 90.000000
_cell_angle_gamma 90.000000
_cell_volume 1285.769712
_symmetry_space_group_name_H-M "P N C 2"
_symmetry_group_IT_number 30
_symmetry_cell_setting 'orthorhombic'
loop_
_space_group_symop_operation_xyz
x,y,z
-x,-y,z
-x,1/2+y,1/2+z
x,1/2-y,1/2+z
loop_
_atom_site_type_symbol
_atom_site_label
_atom_site_fract_x
_atom_site_fract_y
_atom_site_fract_z
Si Si1 0.350533 0.529647 0.675760
Si Si2 0.276850 0.678097 0.988760
Si Si3 0.698495 0.680890 0.529274
Si Si4 0.897303 0.939459 0.004009
Si Si5 0.459729 0.928068 0.593381
Si Si6 0.375558 0.821994 0.076912
Si Si7 0.731163 0.656496 0.970154
Si Si8 0.008248 0.915973 0.396540
O O1 0.500000 0.500000 0.615567
O O2 0.222868 0.480974 0.621189
O O3 0.377880 0.543283 0.901067
O O4 0.322991 0.599685 0.559776
O O5 0.382199 0.818449 0.307897
O O6 0.267476 0.759911 0.033375
O O7 0.355835 0.634411 0.152712
O O8 0.139377 0.632901 0.949659
O O9 0.803653 0.626207 0.422033
O O10 0.531159 0.682185 0.487369
O O11 0.742276 0.762110 0.524912
O O12 0.992507 0.907226 0.170229
O O13 0.000000 0.000000 0.909328
O O14 0.603716 0.887190 0.556621
O O15 0.500000 0.000000 0.697193
O O16 0.704781 0.842847 0.245866
O O17 0.875402 0.616562 0.000001
O O18 0.000000 0.000000 0.432462
#
# Coordination Sequence:
#
# PCOD9341811 Si02
#       8
#     4   4   4   4   4   4   4   4
#     4  10  16  29  53  77 104 142 179 230 271 309
#     4  11  22  33  57  80 114 146 179 230 279 326
#     4  11  19  36  54  84 111 142 183 228 271 336
#     4  10  19  32  54  81 112 139 183 237 278 315
#     4  10  16  29  51  78  98 137 183 223 261 311
#     4  11  19  35  54  83 111 143 185 226 274 327
#     4  11  21  33  58  79 111 147 176 225 285 328
#     4  10  20  36  53  85 111 138 186 239 274 319
#
# _framework density 24.887816999999998
#
# number of rings (size 3 to 8) (size 9 to 14) (size 15 to 20)
#    0.000    1.500    5.000    6.000    0.000    3.000 
#    0.000    0.000    0.000    4.500    0.000    0.875 
#    0.000    0.000    0.000    0.000    0.000    0.000 
#
# Total GULP energy -178451.069172 kJ/mol
# GULP energy per Si atom -5576.595912 kJ/mol
# Density = 2.483117 g / cm^3
# Si number density = 24.887817 Si / 1000 Ang^3
#
#
#
# Elastic Constant Matrix: (Units=GPa)
#
#
# Indices 1 2 3 4 5 6 
#
# 1 167.8725 78.6903 3.9464 0.0000 0.0000 0.0000
# 2 78.6903 207.7193 -1.9975 0.0000 0.0000 0.0000
# 3 3.9464 -1.9975 54.0615 0.0000 0.0000 0.0000
# 4 0.0000 0.0000 0.0000 10.5088 0.0000 0.0000
# 5 0.0000 0.0000 0.0000 0.0000 9.8896 0.0000
# 6 0.0000 0.0000 0.0000 0.0000 0.0000 61.2624
#
#
#
# Elastic Compliance Matrix: (Units=1/GPa)
#
#
# Indices 1 2 3 4 5 6 
#
# 1 0.007265 -0.002758 -0.000632 0.000000 0.000000 0.000000
# 2 -0.002758 0.005863 0.000418 0.000000 0.000000 0.000000
# 3 -0.000632 0.000418 0.018559 0.000000 0.000000 0.000000
# 4 0.000000 0.000000 0.000000 0.095158 0.000000 0.000000
# 5 0.000000 0.000000 0.000000 0.000000 0.101116 0.000000
# 6 0.000000 0.000000 0.000000 0.000000 0.000000 0.016323
#
#
# Mechanical properties :
#
#
# Convention : Reuss Voigt Hill
#
# Bulk Modulus (GPa) = 38.84704 65.65909 52.25306
# Shear Modulus (GPa) = 19.31916 39.59975 29.45946
#
# Velocity S-wave (km/s) = 2.78915 3.99322 3.44421
# Velocity P-wave (km/s) = 5.10051 6.90655 6.07106
#
# Compressibility (1/GPa) = 0.02574199
#
# Stress axis : x y z
#
# Youngs Moduli (GPa) = 137.65288 170.55884 53.88207
#
# Poissons Ratio (x) = 0.47043 0.03407
# Poissons Ratio (y) = 0.37967 -0.02252
# Poissons Ratio (z) = 0.08703 -0.07129
#
# Static dielectric constant tensor:
#      x y z
#    x 1.969850 0.000000 0.000000 
#    y 0.000000 2.081740 0.000000 
#    z 0.000000 0.000000 2.093820 
# 
# From -- ./inp_files/3861.got.cif
#   From: 2010.05.17/outbox.cif.g08.bks.cpg/sg30_2_cif.got.tgz:3861.got - 2010.06.03 17:03:02.
