data_PCOD9341698
_publ_section_title
;
Structure prediction by ZEFSAII (Michael W. Deem and Ramdas Pophale) SiO2 
 PCOD9341698
Probable space group: P C A 21
;
_chemical_formula_sum "Si O2"
_cell_formula_units_Z 28
_cell_length_a 9.391945
_cell_length_b 5.513460
_cell_length_c 22.957438
_cell_angle_alpha 90.000000
_cell_angle_beta 90.000000
_cell_angle_gamma 90.000000
_cell_volume 1188.784651
_symmetry_space_group_name_H-M "P C A 21"
_symmetry_group_IT_number 29
_symmetry_cell_setting 'orthorhombic'
loop_
_space_group_symop_operation_xyz
x,y,z
-x,-y,1/2+z
1/2-x,y,1/2+z
1/2+x,-y,z
loop_
_atom_site_type_symbol
_atom_site_label
_atom_site_fract_x
_atom_site_fract_y
_atom_site_fract_z
Si Si1 0.046270 0.322929 0.784740
Si Si2 0.964968 0.780563 0.933850
Si Si3 0.930141 0.711704 0.607177
Si Si4 0.166263 0.314650 0.317155
Si Si5 0.887437 0.996498 0.706512
Si Si6 0.369907 0.278508 0.470964
Si Si7 0.185849 0.562908 0.675051
O O1 0.167854 0.311298 0.833135
O O2 0.097347 0.505026 0.733581
O O3 0.898290 0.418122 0.810460
O O4 0.014069 0.089889 0.747581
O O5 0.934891 0.804810 0.864530
O O6 0.801131 0.745338 0.957866
O O7 0.056549 0.534456 0.948757
O O8 0.045364 0.029365 0.952682
O O9 0.889032 0.715635 0.541028
O O10 0.804460 0.613651 0.648470
O O11 0.073527 0.572794 0.622363
O O12 0.955558 0.958929 0.642574
O O13 0.171808 0.197367 0.253296
O O14 0.770031 0.196158 0.692288
#
# Coordination Sequence:
#
# PCOD9341698 Si02
#       7
#     4   4   4   4   4   4   4
#     4  12  23  45  64 111 147 185 235 299 388 455
#     4  12  30  54  80 114 154 212 274 325 386 461
#     4  12  27  43  76 102 151 190 243 313 374 458
#     4  12  27  43  75 101 148 191 245 312 373 458
#     4  12  24  39  72 108 140 188 235 303 383 451
#     4  12  30  55  80 115 155 214 272 325 387 460
#     4  12  23  43  65 109 147 182 238 299 387 455
#
# _framework density 23.553467000000001
#
# number of rings (size 3 to 8) (size 9 to 14) (size 15 to 20)
#    0.000    0.000    5.714    3.429    8.000    0.000 
#    0.000    0.000    0.000    0.000    0.000    0.000 
#    0.000    0.000    0.000    0.000    0.000    0.000 
#
# Total GULP energy -156103.908230 kJ/mol
# GULP energy per Si atom -5575.139580 kJ/mol
# Density = 2.349986 g / cm^3
# Si number density = 23.553467 Si / 1000 Ang^3
#
#
#
# Elastic Constant Matrix: (Units=GPa)
#
#
# Indices 1 2 3 4 5 6 
#
# 1 117.5295 24.9929 9.1390 0.0000 0.0000 0.0000
# 2 24.9929 63.5196 21.9938 0.0000 0.0000 0.0000
# 3 9.1390 21.9938 112.3822 0.0000 0.0000 0.0000
# 4 0.0000 0.0000 0.0000 24.2912 0.0000 0.0000
# 5 0.0000 0.0000 0.0000 0.0000 39.3240 0.0000
# 6 0.0000 0.0000 0.0000 0.0000 0.0000 46.3481
#
#
#
# Elastic Compliance Matrix: (Units=1/GPa)
#
#
# Indices 1 2 3 4 5 6 
#
# 1 0.009286 -0.003639 -0.000043 0.000000 0.000000 0.000000
# 2 -0.003639 0.018313 -0.003288 0.000000 0.000000 0.000000
# 3 -0.000043 -0.003288 0.009545 0.000000 0.000000 0.000000
# 4 0.000000 0.000000 0.000000 0.041167 0.000000 0.000000
# 5 0.000000 0.000000 0.000000 0.000000 0.025430 0.000000
# 6 0.000000 0.000000 0.000000 0.000000 0.000000 0.021576
#
#
# Mechanical properties :
#
#
# Convention : Reuss Voigt Hill
#
# Bulk Modulus (GPa) = 43.09496 45.07585 44.08540
# Shear Modulus (GPa) = 34.01558 37.81304 35.91431
#
# Velocity S-wave (km/s) = 3.80437 4.01111 3.90910
# Velocity P-wave (km/s) = 6.13465 6.37426 6.25560
#
# Compressibility (1/GPa) = 0.02320457
#
# Stress axis : x y z
#
# Youngs Moduli (GPa) = 107.69340 54.60487 104.76464
#
# Poissons Ratio (x) = 0.19869 0.00450
# Poissons Ratio (y) = 0.39186 0.34448
# Poissons Ratio (z) = 0.00463 0.17955
#
# Static dielectric constant tensor:
#      x y z
#    x 2.108990 0.000000 0.000000 
#    y 0.000000 2.432110 0.000000 
#    z 0.000000 0.000000 1.863800 
# 
# From -- ./inp_files/5662.got.cif
#   From: 2010.05.17/outbox.cif.g08.bks.cpg/sg29_3_cif.got.tgz:5662.got - 2010.06.04 01:19:37.
