data_PCOD9341414
_publ_section_title
;
Structure prediction by ZEFSAII (Michael W. Deem and Ramdas Pophale) SiO2 
 PCOD9341414
Probable space group: P C A 21
;
_chemical_formula_sum "Si O2"
_cell_formula_units_Z 32
_cell_length_a 17.398162
_cell_length_b 11.191694
_cell_length_c 7.081993
_cell_angle_alpha 90.000000
_cell_angle_beta 90.000000
_cell_angle_gamma 90.000000
_cell_volume 1378.969596
_symmetry_space_group_name_H-M "P C A 21"
_symmetry_group_IT_number 29
_symmetry_cell_setting 'orthorhombic'
loop_
_space_group_symop_operation_xyz
x,y,z
-x,-y,1/2+z
1/2-x,y,1/2+z
1/2+x,-y,z
loop_
_atom_site_type_symbol
_atom_site_label
_atom_site_fract_x
_atom_site_fract_y
_atom_site_fract_z
Si Si1 0.138759 0.194163 0.895850
Si Si2 0.691950 0.842322 0.319637
Si Si3 0.377269 0.406682 0.932161
Si Si4 0.613121 0.073980 0.445140
Si Si5 0.537934 0.329014 0.022134
Si Si6 0.002815 0.093431 0.634245
Si Si7 0.429840 0.424009 0.495302
Si Si8 0.395818 0.661453 0.930729
O O1 0.216965 0.156760 0.796326
O O2 0.064560 0.146339 0.784288
O O3 0.130899 0.336884 0.900540
O O4 0.148926 0.158932 0.116692
O O5 0.670768 0.715919 0.422270
O O6 0.670386 0.962303 0.434158
O O7 0.408841 0.423948 0.717467
O O8 0.348235 0.540966 0.976904
O O9 0.452674 0.381933 0.058626
O O10 0.576976 0.076508 0.236870
O O11 0.633952 0.209509 0.501709
O O12 0.541615 0.026676 0.566794
O O13 0.515075 0.192979 0.972072
O O14 0.591971 0.322084 0.205128
O O15 0.572542 0.441727 0.911517
O O16 0.515037 0.365116 0.487319
#
# Coordination Sequence:
#
# PCOD9341414 Si02
#       8
#     4   4   4   4   4   4   4   4
#     4  11  22  39  57  85 117 157 203 251 296 361
#     4  11  23  36  59  84 114 158 202 245 294 363
#     4   9  18  32  52  83 112 146 188 233 289 345
#     4  11  21  34  56  87 115 160 194 245 295 352
#     4   9  16  30  54  82 111 144 183 234 297 343
#     4  11  21  35  57  85 123 150 203 251 302 347
#     4   9  17  32  53  82 112 145 184 239 294 348
#     4   9  18  32  54  80 114 150 179 240 287 343
#
# _framework density 23.205731
#
# number of rings (size 3 to 8) (size 9 to 14) (size 15 to 20)
#    0.000    2.000    3.750    1.500    1.750    0.000 
#    0.000    0.000    0.000   13.500    0.000    0.000 
#    0.000    0.000    0.000    0.000    0.000    0.000 
#
# Total GULP energy -178166.655979 kJ/mol
# GULP energy per Si atom -5567.707999 kJ/mol
# Density = 2.315291 g / cm^3
# Si number density = 23.205731 Si / 1000 Ang^3
#
#
#
# Elastic Constant Matrix: (Units=GPa)
#
#
# Indices 1 2 3 4 5 6 
#
# 1 50.2877 41.1018 -2.0712 0.0000 0.0000 0.0000
# 2 41.1018 209.3196 32.1324 0.0000 0.0000 0.0000
# 3 -2.0712 32.1324 32.6115 0.0000 0.0000 0.0000
# 4 0.0000 0.0000 0.0000 31.2923 0.0000 0.0000
# 5 0.0000 0.0000 0.0000 0.0000 16.5656 0.0000
# 6 0.0000 0.0000 0.0000 0.0000 0.0000 15.8904
#
#
#
# Elastic Compliance Matrix: (Units=1/GPa)
#
#
# Indices 1 2 3 4 5 6 
#
# 1 0.025202 -0.006120 0.007631 0.000000 0.000000 0.000000
# 2 -0.006120 0.007115 -0.007399 0.000000 0.000000 0.000000
# 3 0.007631 -0.007399 0.038439 0.000000 0.000000 0.000000
# 4 0.000000 0.000000 0.000000 0.031957 0.000000 0.000000
# 5 0.000000 0.000000 0.000000 0.000000 0.060366 0.000000
# 6 0.000000 0.000000 0.000000 0.000000 0.000000 0.062931
#
#
# Mechanical properties :
#
#
# Convention : Reuss Voigt Hill
#
# Bulk Modulus (GPa) = 16.95514 48.28275 32.61894
# Shear Modulus (GPa) = 19.42151 27.48671 23.45411
#
# Velocity S-wave (km/s) = 2.89611 3.44536 3.18261
# Velocity P-wave (km/s) = 4.30181 6.05631 5.25283
#
# Compressibility (1/GPa) = 0.05897916
#
# Stress axis : x y z
#
# Youngs Moduli (GPa) = 39.67946 140.54954 26.01523
#
# Poissons Ratio (x) = 0.86017 -0.19852
# Poissons Ratio (y) = 0.24284 0.19249
# Poissons Ratio (z) = -0.30278 1.03994
#
# Static dielectric constant tensor:
#      x y z
#    x 1.806860 0.000000 0.000000 
#    y 0.000000 2.000190 0.000000 
#    z 0.000000 0.000000 2.003450 
# 
# From -- ./inp_files/2183.got.cif
#   From: 2010.05.17/outbox.cif.g08.bks.cpg/sg29_2_cif.got.tgz:2183.got - 2010.06.04 01:19:37.
