data_PCOD9341742
_publ_section_title
;
Structure prediction by ZEFSAII (Michael W. Deem and Ramdas Pophale) SiO2 
 PCOD9341742
Probable space group: P C A 21
;
_chemical_formula_sum "Si O2"
_cell_formula_units_Z 24
_cell_length_a 9.346338
_cell_length_b 13.607976
_cell_length_c 7.574922
_cell_angle_alpha 90.000000
_cell_angle_beta 90.000000
_cell_angle_gamma 90.000000
_cell_volume 963.414509
_symmetry_space_group_name_H-M "P C A 21"
_symmetry_group_IT_number 29
_symmetry_cell_setting 'orthorhombic'
loop_
_space_group_symop_operation_xyz
x,y,z
-x,-y,1/2+z
1/2-x,y,1/2+z
1/2+x,-y,z
loop_
_atom_site_type_symbol
_atom_site_label
_atom_site_fract_x
_atom_site_fract_y
_atom_site_fract_z
Si Si1 0.521937 0.585657 0.838520
Si Si2 0.322631 0.903766 0.479060
Si Si3 0.706314 0.938671 0.752002
Si Si4 0.482718 0.804809 0.921922
Si Si5 0.567249 0.797051 0.335159
Si Si6 0.672083 0.587064 0.460446
O O1 0.455100 0.691912 0.874995
O O2 0.598614 0.586237 0.650378
O O3 0.406337 0.500769 0.858270
O O4 0.657984 0.571727 0.968049
O O5 0.426671 0.810886 0.456104
O O6 0.165450 0.863659 0.434443
O O7 0.387372 0.971769 0.325828
O O8 0.300609 0.990930 0.621717
O O9 0.587766 0.851480 0.772576
O O10 0.824624 0.886249 0.878153
O O11 0.545804 0.804426 0.122331
O O12 0.640586 0.693366 0.375742
#
# Coordination Sequence:
#
# PCOD9341742 Si02
#       6
#     4   4   4   4   4   4
#     4  12  28  52  83 114 152 201 259 325 393 466
#     4  12  28  46  75 110 156 207 258 317 378 462
#     4  12  26  48  73 108 155 204 260 309 380 452
#     4  12  27  49  75 113 154 203 260 317 387 463
#     4  12  27  49  75 112 156 203 259 317 389 461
#     4  12  28  52  83 113 153 202 258 325 395 464
#
# _framework density 24.911396
#
# number of rings (size 3 to 8) (size 9 to 14) (size 15 to 20)
#    0.000    0.000    5.000    4.000    7.000    0.000 
#    0.000    0.000    0.000    0.000    0.000    0.000 
#    0.000    0.000    0.000    0.000    0.000    0.000 
#
# Total GULP energy -133831.045658 kJ/mol
# GULP energy per Si atom -5576.293569 kJ/mol
# Density = 2.485470 g / cm^3
# Si number density = 24.911396 Si / 1000 Ang^3
#
#
#
# Elastic Constant Matrix: (Units=GPa)
#
#
# Indices 1 2 3 4 5 6 
#
# 1 76.3626 17.6936 -9.6571 0.0000 0.0000 0.0000
# 2 17.6936 125.5541 13.5126 0.0000 0.0000 0.0000
# 3 -9.6571 13.5126 81.6386 0.0000 0.0000 0.0000
# 4 0.0000 0.0000 0.0000 36.1562 0.0000 0.0000
# 5 0.0000 0.0000 0.0000 0.0000 26.1156 0.0000
# 6 0.0000 0.0000 0.0000 0.0000 0.0000 48.4099
#
#
#
# Elastic Compliance Matrix: (Units=1/GPa)
#
#
# Indices 1 2 3 4 5 6 
#
# 1 0.013850 -0.002167 0.001997 0.000000 0.000000 0.000000
# 2 -0.002167 0.008448 -0.001655 0.000000 0.000000 0.000000
# 3 0.001997 -0.001655 0.012759 0.000000 0.000000 0.000000
# 4 0.000000 0.000000 0.000000 0.027658 0.000000 0.000000
# 5 0.000000 0.000000 0.000000 0.000000 0.038291 0.000000
# 6 0.000000 0.000000 0.000000 0.000000 0.000000 0.020657
#
#
# Mechanical properties :
#
#
# Convention : Reuss Voigt Hill
#
# Bulk Modulus (GPa) = 31.83847 36.29485 34.06666
# Shear Modulus (GPa) = 36.82383 39.60341 38.21362
#
# Velocity S-wave (km/s) = 3.84890 3.99152 3.92086
# Velocity P-wave (km/s) = 5.70618 5.98700 5.84827
#
# Compressibility (1/GPa) = 0.03140854
#
# Stress axis : x y z
#
# Youngs Moduli (GPa) = 72.20222 118.36964 78.37482
#
# Poissons Ratio (x) = 0.25647 -0.15651
# Poissons Ratio (y) = 0.15644 0.12968
# Poissons Ratio (z) = -0.14418 0.19586
#
# Static dielectric constant tensor:
#      x y z
#    x 1.960570 0.000000 0.000000 
#    y 0.000000 1.868600 0.000000 
#    z 0.000000 0.000000 2.366170 
# 
# From -- ./inp_files/1125.got.cif
#   From: 2010.05.17/outbox.cif.g08.bks.cpg/sg29_1_cif.got.tgz:1125.got - 2010.06.04 01:19:37.
