data_PCOD9341923
_publ_section_title
;
Structure prediction by ZEFSAII (Michael W. Deem and Ramdas Pophale) SiO2 
 PCOD9341923
Probable space group: P N C 2
;
_chemical_formula_sum "Si O2"
_cell_formula_units_Z 32
_cell_length_a 18.454059
_cell_length_b 5.467671
_cell_length_c 14.316728
_cell_angle_alpha 90.000000
_cell_angle_beta 90.000000
_cell_angle_gamma 90.000000
_cell_volume 1444.568209
_symmetry_space_group_name_H-M "P N C 2"
_symmetry_group_IT_number 30
_symmetry_cell_setting 'orthorhombic'
loop_
_space_group_symop_operation_xyz
x,y,z
-x,-y,z
-x,1/2+y,1/2+z
x,1/2-y,1/2+z
loop_
_atom_site_type_symbol
_atom_site_label
_atom_site_fract_x
_atom_site_fract_y
_atom_site_fract_z
Si Si1 0.653033 0.606247 0.132870
Si Si2 0.807147 0.064550 0.233481
Si Si3 0.308898 0.586629 0.327725
Si Si4 0.541229 0.238279 0.339117
Si Si5 0.083301 0.939197 0.746895
Si Si6 0.813121 0.681161 0.091403
Si Si7 0.426996 0.613978 0.620601
Si Si8 0.179617 0.323241 0.393002
O O1 0.657107 0.589747 0.247367
O O2 0.733884 0.564381 0.094838
O O3 0.603745 0.382425 0.094552
O O4 0.626637 0.881929 0.112905
O O5 0.745375 0.253028 0.263332
O O6 0.889158 0.162261 0.241565
O O7 0.799682 0.952715 0.131835
O O8 0.798801 0.858971 0.310858
O O9 0.376464 0.722417 0.373807
O O10 0.253875 0.475969 0.403203
O O11 0.500000 0.500000 0.346822
O O12 0.553771 0.171344 0.229519
O O13 0.500000 0.000000 0.379340
O O14 0.130963 0.061003 0.663896
O O15 0.114521 0.026435 0.846763
O O16 0.000000 0.000000 0.736573
O O17 0.841483 0.692013 0.987285
O O18 0.500000 0.500000 0.575821
#
# Coordination Sequence:
#
# PCOD9341923 Si02
#       8
#     4   4   4   4   4   4   4   4
#     4  11  19  33  61  85 130 171 216 277 331 396
#     4  10  20  41  67  85 132 168 210 281 324 405
#     4  10  19  35  58  87 125 168 217 270 336 387
#     4  10  19  28  50  87 124 162 219 274 328 396
#     4  10  23  45  64  96 132 172 213 271 348 409
#     4  11  22  39  63 100 127 168 231 266 341 400
#     4  10  19  31  53  91 126 165 222 273 331 397
#     4  10  23  39  62  97 125 171 224 272 329 415
#
# _framework density 22.151948999999998
#
# number of rings (size 3 to 8) (size 9 to 14) (size 15 to 20)
#    0.000    1.750    3.750    4.875    1.750    4.000 
#    4.500    0.000    0.000    0.750    3.250    0.875 
#    0.000    0.000    0.000    0.000    0.000    0.000 
#
# Total GULP energy -178436.653914 kJ/mol
# GULP energy per Si atom -5576.145435 kJ/mol
# Density = 2.210153 g / cm^3
# Si number density = 22.151949 Si / 1000 Ang^3
#
#
#
# Elastic Constant Matrix: (Units=GPa)
#
#
# Indices 1 2 3 4 5 6 
#
# 1 160.3839 38.9164 3.8797 0.0000 0.0000 0.0000
# 2 38.9164 89.6865 -9.8522 0.0000 0.0000 0.0000
# 3 3.8797 -9.8522 59.2187 0.0000 0.0000 0.0000
# 4 0.0000 0.0000 0.0000 -2.6888 0.0000 0.0000
# 5 0.0000 0.0000 0.0000 0.0000 6.8387 0.0000
# 6 0.0000 0.0000 0.0000 0.0000 0.0000 23.9661
#
#
#
# Elastic Compliance Matrix: (Units=1/GPa)
#
#
# Indices 1 2 3 4 5 6 
#
# 1 0.007025 -0.003156 -0.000985 0.000000 0.000000 0.000000
# 2 -0.003156 0.012776 0.002332 0.000000 0.000000 0.000000
# 3 -0.000985 0.002332 0.017339 0.000000 0.000000 0.000000
# 4 0.000000 0.000000 0.000000 -0.371919 0.000000 0.000000
# 5 0.000000 0.000000 0.000000 0.000000 0.146227 0.000000
# 6 0.000000 0.000000 0.000000 0.000000 0.000000 0.041726
#
#
# Mechanical properties :
#
#
# Convention : Reuss Voigt Hill
#
# Bulk Modulus (GPa) = 29.83226 41.68631 35.75929
# Shear Modulus (GPa) = -37.86897 24.04622 -6.91137
#
# Velocity S-wave (km/s) = -4.13911 3.29829 -1.76826
# Velocity P-wave (km/s) = 3.05722 5.77617 3.46537
#
# Compressibility (1/GPa) = 0.03352075
#
# Stress axis : x y z
#
# Youngs Moduli (GPa) = 142.35362 78.27313 57.67301
#
# Poissons Ratio (x) = 0.24706 0.05683
# Poissons Ratio (y) = 0.44932 -0.13451
# Poissons Ratio (z) = 0.14027 -0.18256
#
# Static dielectric constant tensor:
#      x y z
#    x 1.833690 0.000000 0.000000 
#    y 0.000000 1.939000 0.000000 
#    z 0.000000 0.000000 1.810260 
# 
# From -- ./inp_files/5682.got.cif
#   From: 2010.05.17/outbox.cif.g08.bks.cpg/sg30_3_cif.got.tgz:5682.got - 2010.06.03 17:03:02.
