data_PCOD9341788
_publ_section_title
;
Structure prediction by ZEFSAII (Michael W. Deem and Ramdas Pophale) SiO2 
 PCOD9341788
Probable space group: P C A 21
;
_chemical_formula_sum "Si O2"
_cell_formula_units_Z 32
_cell_length_a 12.000000
_cell_length_b 15.000000
_cell_length_c 9.000000
_cell_angle_alpha 90.000000
_cell_angle_beta 90.000000
_cell_angle_gamma 90.000000
_cell_volume 1620.000000
_symmetry_space_group_name_H-M "P C A 21"
_symmetry_group_IT_number 29
_symmetry_cell_setting 'orthorhombic'
loop_
_space_group_symop_operation_xyz
x,y,z
-x,-y,1/2+z
1/2-x,y,1/2+z
1/2+x,-y,z
loop_
_atom_site_type_symbol
_atom_site_label
_atom_site_fract_x
_atom_site_fract_y
_atom_site_fract_z
Si Si1 0.403826 0.967720 0.563400
Si Si2 0.744633 0.439910 0.171265
Si Si3 0.589253 0.346475 0.430066
Si Si4 0.697463 0.058581 0.741550
Si Si5 0.135717 0.128655 0.588726
Si Si6 0.783958 0.761141 0.805151
Si Si7 0.000935 0.173276 0.105839
Si Si8 0.838334 0.574530 0.412608
O O1 0.331718 0.956905 0.413438
O O2 0.328471 0.934024 0.702599
O O3 0.507216 0.897988 0.557344
O O4 0.443395 0.073463 0.569723
O O5 0.660455 0.377358 0.277057
O O6 0.815175 0.501510 0.284501
O O7 0.828561 0.382275 0.064015
O O8 0.688258 0.516062 0.062731
O O9 0.548279 0.244208 0.480994
O O10 0.467993 0.395014 0.418576
O O11 0.612263 0.137080 0.688989
O O12 0.675086 0.967047 0.650574
O O13 0.188888 0.170510 0.439697
O O14 0.178657 0.199524 0.712587
O O15 0.742076 0.663261 0.872531
O O16 0.898407 0.773574 0.699468
#
# Coordination Sequence:
#
# PCOD9341788 Si02
#       8
#     4   4   4   4   4   4   4   4
#     4  11  25  45  67  98 141 202 247 294 364 427
#     4  10  24  47  70 105 143 183 228 291 391 449
#     4  11  24  45  72 103 143 183 235 302 358 453
#     4  11  24  43  69  94 148 190 247 293 358 422
#     4  11  24  41  65 100 139 189 239 315 350 423
#     4  12  23  45  70 110 141 180 258 306 359 429
#     4  11  25  43  70 103 143 190 245 305 356 419
#     4  11  23  43  77 105 138 185 233 300 364 448
#
# _framework density 19.753086
#
# number of rings (size 3 to 8) (size 9 to 14) (size 15 to 20)
#    0.000    1.000    2.500    3.750    1.750    3.000 
#    2.250    2.500    0.000    0.000    0.000    0.000 
#    0.000    0.000    0.000    0.000    0.000    0.000 
#
# Total GULP energy -178170.348306 kJ/mol
# GULP energy per Si atom -5567.823385 kJ/mol
# Density = 1.970813 g / cm^3
# Si number density = 19.753086 Si / 1000 Ang^3
#
#
#
# Elastic Constant Matrix: (Units=GPa)
#
#
# Indices 1 2 3 4 5 6 
#
# 1 121.6575 44.8012 53.3824 0.0000 0.0000 0.0000
# 2 44.8012 104.4149 40.3346 0.0000 0.0000 0.0000
# 3 53.3824 40.3346 129.6044 0.0000 0.0000 0.0000
# 4 0.0000 0.0000 0.0000 43.2789 0.0000 0.0000
# 5 0.0000 0.0000 0.0000 0.0000 42.4776 0.0000
# 6 0.0000 0.0000 0.0000 0.0000 0.0000 44.0163
#
#
#
# Elastic Compliance Matrix: (Units=1/GPa)
#
#
# Indices 1 2 3 4 5 6 
#
# 1 0.010987 -0.003371 -0.003476 0.000000 0.000000 0.000000
# 2 -0.003371 0.011920 -0.002321 0.000000 0.000000 0.000000
# 3 -0.003476 -0.002321 0.009870 0.000000 0.000000 0.000000
# 4 0.000000 0.000000 0.000000 0.023106 0.000000 0.000000
# 5 0.000000 0.000000 0.000000 0.000000 0.023542 0.000000
# 6 0.000000 0.000000 0.000000 0.000000 0.000000 0.022719
#
#
# Mechanical properties :
#
#
# Convention : Reuss Voigt Hill
#
# Bulk Modulus (GPa) = 69.25280 70.30145 69.77712
# Shear Modulus (GPa) = 39.90628 40.43181 40.16905
#
# Velocity S-wave (km/s) = 4.49960 4.52913 4.51439
# Velocity P-wave (km/s) = 7.88229 7.93839 7.91039
#
# Compressibility (1/GPa) = 0.01443985
#
# Stress axis : x y z
#
# Youngs Moduli (GPa) = 91.02056 83.89035 101.31795
#
# Poissons Ratio (x) = 0.28281 0.35219
# Poissons Ratio (y) = 0.30685 0.23518
# Poissons Ratio (z) = 0.31639 0.19473
#
# Static dielectric constant tensor:
#      x y z
#    x 1.769320 0.000000 0.000000 
#    y 0.000000 1.706580 0.000000 
#    z 0.000000 0.000000 1.763910 
# 
# From -- ./inp_files/1526.got.cif
#   From: 2010.05.17/outbox.ucp.g08.bks.cvg/sg29_1_cif.got.tgz:1526.got - 2010.06.11 15:24:14.
