data_PCOD9341637
_publ_section_title
;
Structure prediction by ZEFSAII (Michael W. Deem and Ramdas Pophale) SiO2 
 PCOD9341637
Probable space group: P C A 21
;
_chemical_formula_sum "Si O2"
_cell_formula_units_Z 28
_cell_length_a 15.746498
_cell_length_b 9.476000
_cell_length_c 8.653815
_cell_angle_alpha 90.000000
_cell_angle_beta 90.000000
_cell_angle_gamma 90.000000
_cell_volume 1291.268751
_symmetry_space_group_name_H-M "P C A 21"
_symmetry_group_IT_number 29
_symmetry_cell_setting 'orthorhombic'
loop_
_space_group_symop_operation_xyz
x,y,z
-x,-y,1/2+z
1/2-x,y,1/2+z
1/2+x,-y,z
loop_
_atom_site_type_symbol
_atom_site_label
_atom_site_fract_x
_atom_site_fract_y
_atom_site_fract_z
Si Si1 0.418046 0.102521 0.719220
Si Si2 0.465969 0.643858 0.732258
Si Si3 0.854996 0.160609 0.898977
Si Si4 0.938346 0.127523 0.468634
Si Si5 0.688946 0.217644 0.743824
Si Si6 0.162690 0.401109 0.150071
Si Si7 0.652546 0.534420 0.787929
O O1 0.495329 0.140762 0.830711
O O2 0.367702 0.240955 0.672074
O O3 0.364439 0.991886 0.822184
O O4 0.449573 0.011102 0.572933
O O5 0.439405 0.745406 0.874992
O O6 0.446254 0.739192 0.581877
O O7 0.406185 0.505457 0.731015
O O8 0.565419 0.607868 0.734892
O O9 0.786134 0.239274 0.790960
O O10 0.825943 0.156135 0.075005
O O11 0.848805 0.123414 0.381228
O O12 0.644486 0.369002 0.750838
O O13 0.258907 0.417222 0.211201
O O14 0.161423 0.442870 0.970579
#
# Coordination Sequence:
#
# PCOD9341637 Si02
#       7
#     4   4   4   4   4   4   4
#     4  11  27  46  71 110 150 188 250 311 371 447
#     4  11  26  47  75 105 143 194 247 301 378 434
#     4  11  25  46  73 105 144 195 249 298 372 448
#     4  11  25  47  72 106 143 199 244 300 376 448
#     4  12  23  46  77 103 144 198 249 300 362 459
#     4  12  28  48  71 113 148 191 246 311 374 437
#     4  12  28  44  77 108 148 189 249 315 365 439
#
# _framework density 21.684099
#
# number of rings (size 3 to 8) (size 9 to 14) (size 15 to 20)
#    0.000    0.571    2.857    4.286   10.000    2.286 
#    0.000    0.000    0.000    0.000    0.000    0.000 
#    0.000    0.000    0.000    0.000    0.000    0.000 
#
# Total GULP energy -156685.592475 kJ/mol
# GULP energy per Si atom -5595.914017 kJ/mol
# Density = 2.163475 g / cm^3
# Si number density = 21.684099 Si / 1000 Ang^3
#
#
#
# Elastic Constant Matrix: (Units=GPa)
#
#
# Indices 1 2 3 4 5 6 
#
# 1 110.9747 14.6367 23.7506 0.0000 0.0000 0.0000
# 2 14.6367 71.1883 7.7728 0.0000 0.0000 0.0000
# 3 23.7506 7.7728 8.7353 0.0000 0.0000 0.0000
# 4 0.0000 0.0000 0.0000 25.6643 0.0000 0.0000
# 5 0.0000 0.0000 0.0000 0.0000 36.4182 0.0000
# 6 0.0000 0.0000 0.0000 0.0000 0.0000 25.8352
#
#
#
# Elastic Compliance Matrix: (Units=1/GPa)
#
#
# Indices 1 2 3 4 5 6 
#
# 1 0.021862 0.002210 -0.061407 0.000000 0.000000 0.000000
# 2 0.002210 0.015782 -0.020052 0.000000 0.000000 0.000000
# 3 -0.061407 -0.020052 0.299284 0.000000 0.000000 0.000000
# 4 0.000000 0.000000 0.000000 0.038965 0.000000 0.000000
# 5 0.000000 0.000000 0.000000 0.000000 0.027459 0.000000
# 6 0.000000 0.000000 0.000000 0.000000 0.000000 0.038707
#
#
# Mechanical properties :
#
#
# Convention : Reuss Voigt Hill
#
# Bulk Modulus (GPa) = 5.60449 31.46875 18.53662
# Shear Modulus (GPa) = 7.57537 27.23276 17.40407
#
# Velocity S-wave (km/s) = 1.87112 3.54769 2.83613
# Velocity P-wave (km/s) = 2.69413 5.59691 4.39225
#
# Compressibility (1/GPa) = 0.17842850
#
# Stress axis : x y z
#
# Youngs Moduli (GPa) = 45.74166 63.36208 3.34131
#
# Poissons Ratio (x) = -0.14003 0.20518
# Poissons Ratio (y) = -0.10109 0.06700
# Poissons Ratio (z) = 2.80888 1.27055
#
# Static dielectric constant tensor:
#      x y z
#    x 1.923790 0.000000 0.000000 
#    y 0.000000 1.780090 0.000000 
#    z 0.000000 0.000000 1.765830 
# 
# From -- ./inp_files/1770.got.cif
#   From: 2010.05.17/outbox.cif.g08.bks.cpg/sg29_1_cif.got.tgz:1770.got - 2010.06.04 01:19:37.
