data_PCOD9341578
_publ_section_title
;
Structure prediction by ZEFSAII (Michael W. Deem and Ramdas Pophale) SiO2 
 PCOD9341578
Probable space group: P C A 21
;
_chemical_formula_sum "Si O2"
_cell_formula_units_Z 24
_cell_length_a 11.690026
_cell_length_b 4.941945
_cell_length_c 16.376010
_cell_angle_alpha 90.000000
_cell_angle_beta 90.000000
_cell_angle_gamma 90.000000
_cell_volume 946.066097
_symmetry_space_group_name_H-M "P C A 21"
_symmetry_group_IT_number 29
_symmetry_cell_setting 'orthorhombic'
loop_
_space_group_symop_operation_xyz
x,y,z
-x,-y,1/2+z
1/2-x,y,1/2+z
1/2+x,-y,z
loop_
_atom_site_type_symbol
_atom_site_label
_atom_site_fract_x
_atom_site_fract_y
_atom_site_fract_z
Si Si1 0.612093 0.440076 0.138910
Si Si2 0.753879 0.381415 0.300628
Si Si3 0.345956 0.100190 0.374570
Si Si4 0.572263 0.352187 0.436435
Si Si5 0.779824 0.778571 0.031739
Si Si6 0.042513 0.926977 0.608427
O O1 0.696373 0.377789 0.213135
O O2 0.690624 0.557212 0.066243
O O3 0.547389 0.165684 0.118228
O O4 0.511928 0.667306 0.153928
O O5 0.770815 0.695134 0.321340
O O6 0.663018 0.280108 0.367536
O O7 0.857537 0.174383 0.322075
O O8 0.454470 0.292857 0.390768
O O9 0.292130 0.054441 0.464821
O O10 0.620424 0.625479 0.479474
O O11 0.557806 0.167662 0.515434
O O12 0.832393 0.929294 0.111461
#
# Coordination Sequence:
#
# PCOD9341578 Si02
#       6
#     4   4   4   4   4   4
#     4  12  28  46  73 111 156 188 246 314 384 432
#     4  11  27  48  68 107 149 191 236 311 372 447
#     4  11  24  44  73  98 143 187 251 292 369 436
#     4  11  25  45  75 106 135 201 250 304 350 455
#     4  11  24  44  76 109 144 194 257 305 369 446
#     4  12  24  45  73 109 139 195 248 306 356 450
#
# _framework density 25.368206000000001
#
# number of rings (size 3 to 8) (size 9 to 14) (size 15 to 20)
#    0.000    0.667    5.000    1.000    9.333    1.333 
#    3.000    0.000    0.000    0.000    0.000    0.000 
#    0.000    0.000    0.000    0.000    0.000    0.000 
#
# Total GULP energy -133977.705729 kJ/mol
# GULP energy per Si atom -5582.404405 kJ/mol
# Density = 2.531047 g / cm^3
# Si number density = 25.368206 Si / 1000 Ang^3
#
#
#
# Elastic Constant Matrix: (Units=GPa)
#
#
# Indices 1 2 3 4 5 6 
#
# 1 30.8171 4.8634 -10.8299 0.0000 0.0000 0.0000
# 2 4.8634 134.1325 16.4555 0.0000 0.0000 0.0000
# 3 -10.8299 16.4555 65.3604 0.0000 0.0000 0.0000
# 4 0.0000 0.0000 0.0000 30.1239 0.0000 0.0000
# 5 0.0000 0.0000 0.0000 0.0000 10.3863 0.0000
# 6 0.0000 0.0000 0.0000 0.0000 0.0000 31.0624
#
#
#
# Elastic Compliance Matrix: (Units=1/GPa)
#
#
# Indices 1 2 3 4 5 6 
#
# 1 0.034990 -0.002043 0.006312 0.000000 0.000000 0.000000
# 2 -0.002043 0.007812 -0.002305 0.000000 0.000000 0.000000
# 3 0.006312 -0.002305 0.016926 0.000000 0.000000 0.000000
# 4 0.000000 0.000000 0.000000 0.033196 0.000000 0.000000
# 5 0.000000 0.000000 0.000000 0.000000 0.096281 0.000000
# 6 0.000000 0.000000 0.000000 0.000000 0.000000 0.032193
#
#
# Mechanical properties :
#
#
# Convention : Reuss Voigt Hill
#
# Bulk Modulus (GPa) = 15.70950 27.92089 21.81520
# Shear Modulus (GPa) = 20.94764 28.96925 24.95845
#
# Velocity S-wave (km/s) = 2.87669 3.38294 3.14004
# Velocity P-wave (km/s) = 4.15209 5.12730 4.66525
#
# Compressibility (1/GPa) = 0.06365573
#
# Stress axis : x y z
#
# Youngs Moduli (GPa) = 28.57944 128.00459 59.08049
#
# Poissons Ratio (x) = 0.26152 -0.37292
# Poissons Ratio (y) = 0.05839 0.13620
# Poissons Ratio (z) = -0.18039 0.29510
#
# Static dielectric constant tensor:
#      x y z
#    x 2.230980 0.000000 0.000000 
#    y 0.000000 2.163490 0.000000 
#    z 0.000000 0.000000 1.933950 
# 
# From -- ./inp_files/5057.got.cif
#   From: 2010.05.17/outbox.cif.g08.bks.cpg/sg29_3_cif.got.tgz:5057.got - 2010.06.04 01:19:37.
