data_PCOD9341486
_publ_section_title
;
Structure prediction by ZEFSAII (Michael W. Deem and Ramdas Pophale) SiO2 
 PCOD9341486
Probable space group: P C A 21
;
_chemical_formula_sum "Si O2"
_cell_formula_units_Z 16
_cell_length_a 9.977576
_cell_length_b 6.851880
_cell_length_c 10.213935
_cell_angle_alpha 90.000000
_cell_angle_beta 90.000000
_cell_angle_gamma 90.000000
_cell_volume 698.277234
_symmetry_space_group_name_H-M "P C A 21"
_symmetry_group_IT_number 29
_symmetry_cell_setting 'orthorhombic'
loop_
_space_group_symop_operation_xyz
x,y,z
-x,-y,1/2+z
1/2-x,y,1/2+z
1/2+x,-y,z
loop_
_atom_site_type_symbol
_atom_site_label
_atom_site_fract_x
_atom_site_fract_y
_atom_site_fract_z
Si Si1 0.015433 0.893199 0.536830
Si Si2 0.204889 0.840223 0.156661
Si Si3 0.797929 0.615828 0.600198
Si Si4 0.191504 0.155703 0.838856
O O1 0.950049 0.701427 0.605908
O O2 0.959337 0.881613 0.389266
O O3 0.169803 0.903329 0.565137
O O4 0.930166 0.066745 0.600680
O O5 0.199747 0.609858 0.135895
O O6 0.244219 0.948740 0.292799
O O7 0.753229 0.705068 0.458175
O O8 0.708912 0.716884 0.710225
#
# Coordination Sequence:
#
# PCOD9341486 Si02
#       4
#     4   4   4   4
#     4   9  24  42  65 107 132 184 235 283 360 428
#     4  11  22  46  72  98 147 185 229 310 344 421
#     4   9  22  42  65 102 139 183 233 290 355 427
#     4   9  22  44  64 109 134 186 243 281 365 434
#
# _framework density 22.913535
#
# number of rings (size 3 to 8) (size 9 to 14) (size 15 to 20)
#    1.500    1.000    0.000    0.000    3.500    8.000 
#    9.000    0.000    0.000    0.000    0.000    0.000 
#    0.000    0.000    0.000    0.000    0.000    0.000 
#
# Total GULP energy -89080.778632 kJ/mol
# GULP energy per Si atom -5567.548664 kJ/mol
# Density = 2.286138 g / cm^3
# Si number density = 22.913535 Si / 1000 Ang^3
#
#
#
# Elastic Constant Matrix: (Units=GPa)
#
#
# Indices 1 2 3 4 5 6 
#
# 1 56.8876 29.2386 41.0915 0.0000 0.0000 0.0000
# 2 29.2386 227.4337 74.3884 0.0000 0.0000 0.0000
# 3 41.0915 74.3884 152.0657 0.0000 0.0000 0.0000
# 4 0.0000 0.0000 0.0000 26.0988 0.0000 0.0000
# 5 0.0000 0.0000 0.0000 0.0000 34.8549 0.0000
# 6 0.0000 0.0000 0.0000 0.0000 0.0000 13.2926
#
#
#
# Elastic Compliance Matrix: (Units=1/GPa)
#
#
# Indices 1 2 3 4 5 6 
#
# 1 0.022052 -0.001055 -0.005443 0.000000 0.000000 0.000000
# 2 -0.001055 0.005285 -0.002300 0.000000 0.000000 0.000000
# 3 -0.005443 -0.002300 0.009172 0.000000 0.000000 0.000000
# 4 0.000000 0.000000 0.000000 0.038316 0.000000 0.000000
# 5 0.000000 0.000000 0.000000 0.000000 0.028690 0.000000
# 6 0.000000 0.000000 0.000000 0.000000 0.000000 0.075230
#
#
# Mechanical properties :
#
#
# Convention : Reuss Voigt Hill
#
# Bulk Modulus (GPa) = 52.87301 80.64711 66.76006
# Shear Modulus (GPa) = 24.67359 34.29383 29.48371
#
# Velocity S-wave (km/s) = 3.28504 3.87287 3.59100
# Velocity P-wave (km/s) = 6.12485 7.43448 6.81121
#
# Compressibility (1/GPa) = 0.01891324
#
# Stress axis : x y z
#
# Youngs Moduli (GPa) = 45.34680 189.22044 109.02510
#
# Poissons Ratio (x) = 0.19957 0.59343
# Poissons Ratio (y) = 0.04783 0.25079
# Poissons Ratio (z) = 0.24683 0.43526
#
# Static dielectric constant tensor:
#      x y z
#    x 1.887010 0.000000 0.000000 
#    y 0.000000 1.897080 0.000000 
#    z 0.000000 0.000000 1.930670 
# 
# From -- ./inp_files/1321.got.cif
#   From: 2010.05.17/outbox.cif.g08.bks.cpg/sg29_1_cif.got.tgz:1321.got - 2010.06.04 01:19:37.
