data_PCOD9341624
_publ_section_title
;
Structure prediction by ZEFSAII (Michael W. Deem and Ramdas Pophale) SiO2 
 PCOD9341624
Probable space group: P C A 21
;
_chemical_formula_sum "Si O2"
_cell_formula_units_Z 24
_cell_length_a 12.045483
_cell_length_b 10.597603
_cell_length_c 7.860423
_cell_angle_alpha 90.000000
_cell_angle_beta 90.000000
_cell_angle_gamma 90.000000
_cell_volume 1003.408517
_symmetry_space_group_name_H-M "P C A 21"
_symmetry_group_IT_number 29
_symmetry_cell_setting 'orthorhombic'
loop_
_space_group_symop_operation_xyz
x,y,z
-x,-y,1/2+z
1/2-x,y,1/2+z
1/2+x,-y,z
loop_
_atom_site_type_symbol
_atom_site_label
_atom_site_fract_x
_atom_site_fract_y
_atom_site_fract_z
Si Si1 0.389358 0.675018 0.899330
Si Si2 0.498680 0.835908 0.481874
Si Si3 0.797494 0.181744 0.220806
Si Si4 0.374418 0.026366 0.691524
Si Si5 0.374356 0.285507 0.502019
Si Si6 0.860877 0.616999 0.882070
O O1 0.305528 0.724210 0.755922
O O2 0.520922 0.687488 0.883104
O O3 0.363949 0.528914 0.929637
O O4 0.360199 0.766316 0.057210
O O5 0.384976 0.821658 0.373866
O O6 0.466262 0.922605 0.639480
O O7 0.552456 0.698396 0.492671
O O8 0.586663 0.912764 0.367186
O O9 0.741961 0.045435 0.200838
O O10 0.370870 0.138891 0.555456
O O11 0.261065 0.328245 0.415793
O O12 0.388803 0.360011 0.682349
#
# Coordination Sequence:
#
# PCOD9341624 Si02
#       6
#     4   4   4   4   4   4
#     4  12  26  49  73 104 146 188 248 295 360 433
#     4  11  26  45  70 108 138 191 232 300 355 430
#     4  12  25  46  72 108 140 191 234 304 358 427
#     4  11  25  43  73 101 148 174 243 289 368 423
#     4  11  27  46  71 108 138 194 235 299 358 429
#     4  11  27  45  73  99 148 182 244 289 361 420
#
# _framework density 23.918472000000001
#
# number of rings (size 3 to 8) (size 9 to 14) (size 15 to 20)
#    0.000    0.667    5.000    2.000    9.333    4.000 
#    0.000    0.000    0.000    0.000    0.000    0.000 
#    0.000    0.000    0.000    0.000    0.000    0.000 
#
# Total GULP energy -134548.857281 kJ/mol
# GULP energy per Si atom -5606.202387 kJ/mol
# Density = 2.386403 g / cm^3
# Si number density = 23.918472 Si / 1000 Ang^3
#
#
#
# Elastic Constant Matrix: (Units=GPa)
#
#
# Indices 1 2 3 4 5 6 
#
# 1 150.1400 42.9522 5.2069 0.0000 0.0000 0.0000
# 2 42.9522 119.6189 -4.4220 0.0000 0.0000 0.0000
# 3 5.2069 -4.4220 56.8452 0.0000 0.0000 0.0000
# 4 0.0000 0.0000 0.0000 13.9288 0.0000 0.0000
# 5 0.0000 0.0000 0.0000 0.0000 36.5461 0.0000
# 6 0.0000 0.0000 0.0000 0.0000 0.0000 30.7394
#
#
#
# Elastic Compliance Matrix: (Units=1/GPa)
#
#
# Indices 1 2 3 4 5 6 
#
# 1 0.007468 -0.002715 -0.000895 0.000000 0.000000 0.000000
# 2 -0.002715 0.009371 0.000978 0.000000 0.000000 0.000000
# 3 -0.000895 0.000978 0.017750 0.000000 0.000000 0.000000
# 4 0.000000 0.000000 0.000000 0.071794 0.000000 0.000000
# 5 0.000000 0.000000 0.000000 0.000000 0.027363 0.000000
# 6 0.000000 0.000000 0.000000 0.000000 0.000000 0.032531
#
#
# Mechanical properties :
#
#
# Convention : Reuss Voigt Hill
#
# Bulk Modulus (GPa) = 34.10185 46.00873 40.05529
# Shear Modulus (GPa) = 27.57619 35.10067 31.33843
#
# Velocity S-wave (km/s) = 3.39916 3.83497 3.62362
# Velocity P-wave (km/s) = 5.44924 6.23592 5.85581
#
# Compressibility (1/GPa) = 0.02932392
#
# Stress axis : x y z
#
# Youngs Moduli (GPa) = 133.90243 106.71439 56.33904
#
# Poissons Ratio (x) = 0.28970 0.05044
# Poissons Ratio (y) = 0.36351 -0.05508
# Poissons Ratio (z) = 0.11988 -0.10433
#
# Static dielectric constant tensor:
#      x y z
#    x 1.876540 0.000000 0.000000 
#    y 0.000000 1.874160 0.000000 
#    z 0.000000 0.000000 1.954440 
# 
# From -- ./inp_files/1399.got.cif
#   From: 2010.05.17/outbox.cif.g08.bks.cpg/sg29_1_cif.got.tgz:1399.got - 2010.06.04 01:19:37.
