data_PCOD9341123
_publ_section_title
;
Structure prediction by ZEFSAII (Michael W. Deem and Ramdas Pophale) SiO2 
 PCOD9341123
Probable space group: P C A 21
;
_chemical_formula_sum "Si O2"
_cell_formula_units_Z 28
_cell_length_a 10.347267
_cell_length_b 7.562432
_cell_length_c 14.548263
_cell_angle_alpha 90.000000
_cell_angle_beta 90.000000
_cell_angle_gamma 90.000000
_cell_volume 1138.408899
_symmetry_space_group_name_H-M "P C A 21"
_symmetry_group_IT_number 29
_symmetry_cell_setting 'orthorhombic'
loop_
_space_group_symop_operation_xyz
x,y,z
-x,-y,1/2+z
1/2-x,y,1/2+z
1/2+x,-y,z
loop_
_atom_site_type_symbol
_atom_site_label
_atom_site_fract_x
_atom_site_fract_y
_atom_site_fract_z
Si Si1 0.050973 0.227815 0.449980
Si Si2 0.656014 0.067296 0.690316
Si Si3 0.062632 0.884854 0.496749
Si Si4 0.183588 0.348785 0.985861
Si Si5 0.811996 0.676604 0.265511
Si Si6 0.691829 0.280063 0.057983
Si Si7 0.018881 0.388972 0.259358
O O1 0.918870 0.184548 0.501307
O O2 0.169944 0.298132 0.509158
O O3 0.024896 0.366710 0.369882
O O4 0.088640 0.028505 0.417280
O O5 0.595216 0.017668 0.592224
O O6 0.675742 0.886688 0.745702
O O7 0.780079 0.184293 0.655060
O O8 0.558573 0.212122 0.731130
O O9 0.924584 0.796891 0.502021
O O10 0.174125 0.736394 0.500305
O O11 0.187279 0.362398 0.874935
O O12 0.148845 0.519226 0.045115
O O13 0.669554 0.617412 0.231091
O O14 0.931832 0.556802 0.229762
#
# Coordination Sequence:
#
# PCOD9341123 Si02
#       7
#     4   4   4   4   4   4   4
#     4  11  22  42  72 105 141 191 256 312 379 468
#     4  10  27  45  71 108 153 199 250 319 398 462
#     4  10  24  41  70 103 145 190 246 316 387 454
#     4  11  22  44  75 107 145 195 257 321 385 470
#     4  11  26  49  75 107 157 205 262 321 400 483
#     4  10  23  42  71 105 145 191 252 318 381 458
#     4  11  26  47  74 107 146 207 255 315 396 481
#
# _framework density 24.595731000000001
#
# number of rings (size 3 to 8) (size 9 to 14) (size 15 to 20)
#    0.857    0.571    1.429    2.571    4.000    4.571 
#    0.000    0.000    0.000    0.000    0.000    0.000 
#    0.000    0.000    0.000    0.000    0.000    0.000 
#
# Total GULP energy -156203.683567 kJ/mol
# GULP energy per Si atom -5578.702985 kJ/mol
# Density = 2.453975 g / cm^3
# Si number density = 24.595731 Si / 1000 Ang^3
#
#
#
# Elastic Constant Matrix: (Units=GPa)
#
#
# Indices 1 2 3 4 5 6 
#
# 1 93.9399 26.4627 11.4799 0.0000 0.0000 0.0000
# 2 26.4627 154.5587 14.5591 0.0000 0.0000 0.0000
# 3 11.4799 14.5591 45.5699 0.0000 0.0000 0.0000
# 4 0.0000 0.0000 0.0000 37.7264 0.0000 0.0000
# 5 0.0000 0.0000 0.0000 0.0000 25.8251 0.0000
# 6 0.0000 0.0000 0.0000 0.0000 0.0000 -241.0488
#
#
#
# Elastic Compliance Matrix: (Units=1/GPa)
#
#
# Indices 1 2 3 4 5 6 
#
# 1 0.011418 -0.001736 -0.002322 0.000000 0.000000 0.000000
# 2 -0.001736 0.006935 -0.001778 0.000000 0.000000 0.000000
# 3 -0.002322 -0.001778 0.023097 0.000000 0.000000 0.000000
# 4 0.000000 0.000000 0.000000 0.026507 0.000000 0.000000
# 5 0.000000 0.000000 0.000000 0.000000 0.038722 0.000000
# 6 0.000000 0.000000 0.000000 0.000000 0.000000 -0.004149
#
#
# Mechanical properties :
#
#
# Convention : Reuss Voigt Hill
#
# Bulk Modulus (GPa) = 33.58205 44.34132 38.96168
# Shear Modulus (GPa) = 40.28090 -19.39500 10.44295
#
# Velocity S-wave (km/s) = 4.05126 -2.81116 2.06278
# Velocity P-wave (km/s) = 5.96380 2.74415 4.64205
#
# Compressibility (1/GPa) = 0.02977781
#
# Stress axis : x y z
#
# Youngs Moduli (GPa) = 87.58176 144.20017 43.29509
#
# Poissons Ratio (x) = 0.25036 0.10052
# Poissons Ratio (y) = 0.15206 0.07699
# Poissons Ratio (z) = 0.20334 0.25642
#
# Static dielectric constant tensor:
#      x y z
#    x 1.984120 0.000000 0.000000 
#    y 0.000000 2.052200 0.000000 
#    z 0.000000 0.000000 2.066260 
# 
# From -- ./inp_files/5001.got.cif
#   From: 2010.05.17/outbox.cif.g08.bks.cpg/sg29_3_cif.got.tgz:5001.got - 2010.06.04 01:19:37.
