data_PCOD9341162
_publ_section_title
;
Structure prediction by ZEFSAII (Michael W. Deem and Ramdas Pophale) SiO2 
 PCOD9341162
Probable space group: P C A 21
;
_chemical_formula_sum "Si O2"
_cell_formula_units_Z 24
_cell_length_a 14.096563
_cell_length_b 9.689955
_cell_length_c 7.054936
_cell_angle_alpha 90.000000
_cell_angle_beta 90.000000
_cell_angle_gamma 90.000000
_cell_volume 963.669414
_symmetry_space_group_name_H-M "P C A 21"
_symmetry_group_IT_number 29
_symmetry_cell_setting 'orthorhombic'
loop_
_space_group_symop_operation_xyz
x,y,z
-x,-y,1/2+z
1/2-x,y,1/2+z
1/2+x,-y,z
loop_
_atom_site_type_symbol
_atom_site_label
_atom_site_fract_x
_atom_site_fract_y
_atom_site_fract_z
Si Si1 0.356303 0.531400 0.217230
Si Si2 0.424063 0.828693 0.167493
Si Si3 0.865906 0.513158 0.772066
Si Si4 0.488691 0.299180 0.287366
Si Si5 0.622504 0.834362 0.211111
Si Si6 0.665634 0.907051 0.786437
O O1 0.383679 0.688486 0.254365
O O2 0.244974 0.509471 0.238437
O O3 0.416781 0.424646 0.340564
O O4 0.381334 0.497347 0.998803
O O5 0.518534 0.883193 0.275358
O O6 0.346798 0.947819 0.183391
O O7 0.458347 0.784020 0.956274
O O8 0.890062 0.668423 0.711746
O O9 0.927857 0.386915 0.688804
O O10 0.411714 0.196843 0.191631
O O11 0.725371 0.859652 0.298948
O O12 0.634844 0.903516 0.005072
#
# Coordination Sequence:
#
# PCOD9341162 Si02
#       6
#     4   4   4   4   4   4
#     4  11  23  41  71 105 142 190 243 310 353 436
#     4  10  25  45  65 106 148 187 245 297 371 439
#     4  11  23  41  73 107 143 187 250 301 364 430
#     4  10  23  44  70 102 142 191 240 303 359 431
#     4  11  23  44  71  97 141 192 241 297 368 436
#     4  11  25  43  70 101 148 191 241 302 365 446
#
# _framework density 24.904806000000001
#
# number of rings (size 3 to 8) (size 9 to 14) (size 15 to 20)
#    0.000    1.333    3.333    1.000    2.333    6.667 
#    0.000    0.000    0.000    0.000    0.000    0.000 
#    0.000    0.000    0.000    0.000    0.000    0.000 
#
# Total GULP energy -134069.456042 kJ/mol
# GULP energy per Si atom -5586.227335 kJ/mol
# Density = 2.484812 g / cm^3
# Si number density = 24.904806 Si / 1000 Ang^3
#
#
#
# Elastic Constant Matrix: (Units=GPa)
#
#
# Indices 1 2 3 4 5 6 
#
# 1 96.9215 15.9550 -4.5991 0.0000 0.0000 0.0000
# 2 15.9550 148.9322 15.0810 0.0000 0.0000 0.0000
# 3 -4.5991 15.0810 33.0420 0.0000 0.0000 0.0000
# 4 0.0000 0.0000 0.0000 27.8785 0.0000 0.0000
# 5 0.0000 0.0000 0.0000 0.0000 23.4903 0.0000
# 6 0.0000 0.0000 0.0000 0.0000 0.0000 47.6187
#
#
#
# Elastic Compliance Matrix: (Units=1/GPa)
#
#
# Indices 1 2 3 4 5 6 
#
# 1 0.010640 -0.001352 0.002098 0.000000 0.000000 0.000000
# 2 -0.001352 0.007212 -0.003480 0.000000 0.000000 0.000000
# 3 0.002098 -0.003480 0.032145 0.000000 0.000000 0.000000
# 4 0.000000 0.000000 0.000000 0.035870 0.000000 0.000000
# 5 0.000000 0.000000 0.000000 0.000000 0.042571 0.000000
# 6 0.000000 0.000000 0.000000 0.000000 0.000000 0.021000
#
#
# Mechanical properties :
#
#
# Convention : Reuss Voigt Hill
#
# Bulk Modulus (GPa) = 22.45757 36.86328 29.66043
# Shear Modulus (GPa) = 29.45546 36.62808 33.04177
#
# Velocity S-wave (km/s) = 3.44280 3.83916 3.64637
# Velocity P-wave (km/s) = 4.98405 5.87248 5.44641
#
# Compressibility (1/GPa) = 0.04452842
#
# Stress axis : x y z
#
# Youngs Moduli (GPa) = 93.98676 138.66352 31.10927
#
# Poissons Ratio (x) = 0.18751 -0.06527
# Poissons Ratio (y) = 0.12710 0.10825
# Poissons Ratio (z) = -0.19720 0.48252
#
# Static dielectric constant tensor:
#      x y z
#    x 1.953590 0.000000 0.000000 
#    y 0.000000 1.958180 0.000000 
#    z 0.000000 0.000000 2.119220 
# 
# From -- ./inp_files/1730.got.cif
#   From: 2010.05.17/outbox.cif.g08.bks.cpg/sg29_1_cif.got.tgz:1730.got - 2010.06.04 01:19:37.
