data_PCOD9341833
_publ_section_title
;
Structure prediction by ZEFSAII (Michael W. Deem and Ramdas Pophale) SiO2 
 PCOD9341833
Probable space group: P N C 2
;
_chemical_formula_sum "Si O2"
_cell_formula_units_Z 16
_cell_length_a 4.834674
_cell_length_b 12.744113
_cell_length_c 10.921929
_cell_angle_alpha 90.000000
_cell_angle_beta 90.000000
_cell_angle_gamma 90.000000
_cell_volume 672.939712
_symmetry_space_group_name_H-M "P N C 2"
_symmetry_group_IT_number 30
_symmetry_cell_setting 'orthorhombic'
loop_
_space_group_symop_operation_xyz
x,y,z
-x,-y,z
-x,1/2+y,1/2+z
x,1/2-y,1/2+z
loop_
_atom_site_type_symbol
_atom_site_label
_atom_site_fract_x
_atom_site_fract_y
_atom_site_fract_z
Si Si1 0.765924 0.932783 0.531510
Si Si2 0.730014 0.070916 0.946602
Si Si3 0.565256 0.802560 0.745227
Si Si4 0.100994 0.776959 0.378276
O O1 0.629760 0.839019 0.609615
O O2 0.960887 0.879938 0.430458
O O3 0.500000 0.000000 0.492715
O O4 0.000000 0.000000 0.604560
O O5 0.586707 0.102690 0.817199
O O6 0.809592 0.191112 0.982885
O O7 0.500000 0.000000 0.014200
O O8 0.000000 0.000000 0.938403
O O9 0.858965 0.781255 0.805516
O O10 0.359509 0.709380 0.786688
#
# Coordination Sequence:
#
# PCOD9341833 Si02
#       4
#     4   4   4   4
#     4  12  25  38  64  99 132 177 236 282 332 409
#     4  10  17  31  57  85 123 162 207 267 337 386
#     4  10  21  35  60  88 130 162 216 277 341 379
#     4  10  22  37  55  94 134 165 211 285 342 393
#
# _framework density 23.776274000000001
#
# number of rings (size 3 to 8) (size 9 to 14) (size 15 to 20)
#    1.500    0.000    2.500    3.750    3.500    0.000 
#    0.000    0.000    0.000    1.500   13.000    0.000 
#    0.000    0.000    0.000    0.000    0.000    1.750 
#
# Total GULP energy -89085.979267 kJ/mol
# GULP energy per Si atom -5567.873704 kJ/mol
# Density = 2.372216 g / cm^3
# Si number density = 23.776274 Si / 1000 Ang^3
#
#
#
# Elastic Constant Matrix: (Units=GPa)
#
#
# Indices 1 2 3 4 5 6 
#
# 1 168.3757 41.5669 12.6427 0.0000 0.0000 0.0000
# 2 41.5669 80.6043 19.3601 0.0000 0.0000 0.0000
# 3 12.6427 19.3601 24.3301 0.0000 0.0000 0.0000
# 4 0.0000 0.0000 0.0000 15.8055 0.0000 0.0000
# 5 0.0000 0.0000 0.0000 0.0000 -31.9393 0.0000
# 6 0.0000 0.0000 0.0000 0.0000 0.0000 64.3982
#
#
#
# Elastic Compliance Matrix: (Units=1/GPa)
#
#
# Indices 1 2 3 4 5 6 
#
# 1 0.006822 -0.003297 -0.000922 0.000000 0.000000 0.000000
# 2 -0.003297 0.016931 -0.011759 0.000000 0.000000 0.000000
# 3 -0.000922 -0.011759 0.050937 0.000000 0.000000 0.000000
# 4 0.000000 0.000000 0.000000 0.063269 0.000000 0.000000
# 5 0.000000 0.000000 0.000000 0.000000 -0.031309 0.000000
# 6 0.000000 0.000000 0.000000 0.000000 0.000000 0.015528
#
#
# Mechanical properties :
#
#
# Convention : Reuss Voigt Hill
#
# Bulk Modulus (GPa) = 23.39999 46.71663 35.05831
# Shear Modulus (GPa) = 29.69498 22.96892 26.33195
#
# Velocity S-wave (km/s) = 3.53786 3.11150 3.33151
# Velocity P-wave (km/s) = 5.15283 5.70961 5.43835
#
# Compressibility (1/GPa) = 0.04273506
#
# Stress axis : x y z
#
# Youngs Moduli (GPa) = 146.58081 59.06402 19.63195
#
# Poissons Ratio (x) = 0.19472 0.01810
# Poissons Ratio (y) = 0.48324 0.23086
# Poissons Ratio (z) = 0.13511 0.69454
#
# Static dielectric constant tensor:
#      x y z
#    x 1.918360 0.000000 0.000000 
#    y 0.000000 2.091990 0.000000 
#    z 0.000000 0.000000 1.924600 
# 
# From -- ./inp_files/3003.got.cif
#   From: 2010.05.17/outbox.cif.g08.bks.cpg/sg30_2_cif.got.tgz:3003.got - 2010.06.03 17:03:02.
