data_PCOD9341842
_publ_section_title
;
Structure prediction by ZEFSAII (Michael W. Deem and Ramdas Pophale) SiO2 
 PCOD9341842
Probable space group: P N C 2
;
_chemical_formula_sum "Si O2"
_cell_formula_units_Z 18
_cell_length_a 7.206015
_cell_length_b 6.640944
_cell_length_c 17.396133
_cell_angle_alpha 90.000000
_cell_angle_beta 90.000000
_cell_angle_gamma 90.000000
_cell_volume 832.487458
_symmetry_space_group_name_H-M "P N C 2"
_symmetry_group_IT_number 30
_symmetry_cell_setting 'orthorhombic'
loop_
_space_group_symop_operation_xyz
x,y,z
-x,-y,z
-x,1/2+y,1/2+z
x,1/2-y,1/2+z
loop_
_atom_site_type_symbol
_atom_site_label
_atom_site_fract_x
_atom_site_fract_y
_atom_site_fract_z
Si Si1 0.500000 0.000000 0.024961
Si Si2 0.764310 0.821771 0.606134
Si Si3 0.696550 0.115279 0.470304
Si Si4 0.690747 0.123282 0.301678
Si Si5 0.000000 0.500000 0.680205
Si Si6 0.500000 0.000000 0.736537
O O1 0.374281 0.152668 0.072779
O O2 0.643288 0.151026 0.982864
O O3 0.944624 0.696092 0.630924
O O4 0.786963 0.997152 0.542130
O O5 0.654315 0.905285 0.679822
O O6 0.781921 0.095424 0.385582
O O7 0.500000 0.000000 0.464241
O O8 0.616815 0.347764 0.288319
O O9 0.500000 0.000000 0.296481
O O10 0.827834 0.056489 0.234538
#
# Coordination Sequence:
#
# PCOD9341842 Si02
#       6
#     2   4   4   4   2   2
#     4  10  17  40  70  97 132 180 238 272 345 402
#     4  11  22  40  67 104 132 181 236 283 339 419
#     4   9  20  39  69  95 135 186 231 280 346 414
#     4  11  24  45  67  98 144 181 226 287 352 408
#     4  12  26  44  68 104 140 180 234 290 348 410
#     4  12  21  42  74  99 134 182 228 284 351 410
#
# _framework density 21.621946999999999
#
# number of rings (size 3 to 8) (size 9 to 14) (size 15 to 20)
#    0.000    1.333    5.556    2.000    0.000    0.889 
#    4.000    0.000    0.000    0.000    0.000    0.000 
#    0.000    0.000    0.000    0.000    0.000    0.000 
#
# Total GULP energy -100500.444302 kJ/mol
# GULP energy per Si atom -5583.358017 kJ/mol
# Density = 2.157273 g / cm^3
# Si number density = 21.621947 Si / 1000 Ang^3
#
#
#
# Elastic Constant Matrix: (Units=GPa)
#
#
# Indices 1 2 3 4 5 6 
#
# 1 80.7883 33.5084 47.5687 0.0000 0.0000 0.0000
# 2 33.5084 126.4198 61.0525 0.0000 0.0000 0.0000
# 3 47.5687 61.0525 136.5502 0.0000 0.0000 0.0000
# 4 0.0000 0.0000 0.0000 10.2395 0.0000 0.0000
# 5 0.0000 0.0000 0.0000 0.0000 34.4685 0.0000
# 6 0.0000 0.0000 0.0000 0.0000 0.0000 41.1567
#
#
#
# Elastic Compliance Matrix: (Units=1/GPa)
#
#
# Indices 1 2 3 4 5 6 
#
# 1 0.015947 -0.001969 -0.004675 0.000000 0.000000 0.000000
# 2 -0.001969 0.010332 -0.003933 0.000000 0.000000 0.000000
# 3 -0.004675 -0.003933 0.010711 0.000000 0.000000 0.000000
# 4 0.000000 0.000000 0.000000 0.097661 0.000000 0.000000
# 5 0.000000 0.000000 0.000000 0.000000 0.029012 0.000000
# 6 0.000000 0.000000 0.000000 0.000000 0.000000 0.024297
#
#
# Mechanical properties :
#
#
# Convention : Reuss Voigt Hill
#
# Bulk Modulus (GPa) = 63.15344 69.77973 66.46658
# Shear Modulus (GPa) = 23.32163 30.61485 26.96824
#
# Velocity S-wave (km/s) = 3.28778 3.76695 3.53549
# Velocity P-wave (km/s) = 6.60940 7.15979 6.89009
#
# Compressibility (1/GPa) = 0.01583445
#
# Stress axis : x y z
#
# Youngs Moduli (GPa) = 62.70584 96.78980 93.36612
#
# Poissons Ratio (x) = 0.19061 0.43649
# Poissons Ratio (y) = 0.12348 0.36724
# Poissons Ratio (z) = 0.29315 0.38071
#
# Static dielectric constant tensor:
#      x y z
#    x 1.662480 0.000000 0.000000 
#    y 0.000000 1.855040 0.000000 
#    z 0.000000 0.000000 1.814320 
# 
# From -- ./inp_files/6190.got.cif
#   From: 2010.05.17/outbox.cif.g08.bks.cpg/sg30_4_cif.got.tgz:6190.got - 2010.06.03 17:03:02.
