data_PCOD9341081
_publ_section_title
;
Structure prediction by ZEFSAII (Michael W. Deem and Ramdas Pophale) SiO2 
 PCOD9341081
Probable space group: P C A 21
;
_chemical_formula_sum "Si O2"
_cell_formula_units_Z 24
_cell_length_a 4.909426
_cell_length_b 17.812667
_cell_length_c 11.084264
_cell_angle_alpha 90.000000
_cell_angle_beta 90.000000
_cell_angle_gamma 90.000000
_cell_volume 969.318560
_symmetry_space_group_name_H-M "P C A 21"
_symmetry_group_IT_number 29
_symmetry_cell_setting 'orthorhombic'
loop_
_space_group_symop_operation_xyz
x,y,z
-x,-y,1/2+z
1/2-x,y,1/2+z
1/2+x,-y,z
loop_
_atom_site_type_symbol
_atom_site_label
_atom_site_fract_x
_atom_site_fract_y
_atom_site_fract_z
Si Si1 0.334755 0.683298 0.240400
Si Si2 0.375221 0.169342 0.461046
Si Si3 0.660773 0.664567 0.878594
Si Si4 0.063162 0.552117 0.558557
Si Si5 0.745288 0.052712 0.550896
Si Si6 0.547248 0.850541 0.219239
O O1 0.012383 0.674948 0.256258
O O2 0.446897 0.622491 0.148039
O O3 0.398792 0.770085 0.217843
O O4 0.515841 0.664091 0.359620
O O5 0.408590 0.258577 0.448532
O O6 0.658771 0.123388 0.468025
O O7 0.264606 0.153387 0.597033
O O8 0.212093 0.143669 0.342739
O O9 0.538602 0.589720 0.934873
O O10 0.358457 0.516763 0.575277
O O11 0.665352 0.083864 0.684459
O O12 0.028797 0.013808 0.529204
#
# Coordination Sequence:
#
# PCOD9341081 Si02
#       6
#     4   4   4   4   4   4
#     4  11  24  44  68  94 129 175 223 276 327 396
#     4   9  21  44  68  98 130 177 226 274 328 392
#     4  11  24  44  68  94 129 175 223 276 327 396
#     4  12  25  42  65  98 136 170 218 276 335 404
#     4  10  23  40  65  96 138 172 218 272 335 398
#     4   9  21  44  68  98 130 177 226 274 328 392
#
# _framework density 24.759665999999999
#
# number of rings (size 3 to 8) (size 9 to 14) (size 15 to 20)
#    1.000    0.667    1.667    2.000    0.000   10.667 
#    3.000    0.000    0.000    0.000    0.000    0.000 
#    0.000    0.000    0.000    0.000    0.000    0.000 
#
# Total GULP energy -134033.579119 kJ/mol
# GULP energy per Si atom -5584.732463 kJ/mol
# Density = 2.470331 g / cm^3
# Si number density = 24.759666 Si / 1000 Ang^3
#
#
#
# Elastic Constant Matrix: (Units=GPa)
#
#
# Indices 1 2 3 4 5 6 
#
# 1 59.6894 6.9160 19.7723 0.0000 0.0000 0.0000
# 2 6.9160 96.0592 5.7842 0.0000 0.0000 0.0000
# 3 19.7723 5.7842 78.2113 0.0000 0.0000 0.0000
# 4 0.0000 0.0000 0.0000 34.0430 0.0000 0.0000
# 5 0.0000 0.0000 0.0000 0.0000 15.2951 0.0000
# 6 0.0000 0.0000 0.0000 0.0000 0.0000 38.1920
#
#
#
# Elastic Compliance Matrix: (Units=1/GPa)
#
#
# Indices 1 2 3 4 5 6 
#
# 1 0.018389 -0.001049 -0.004571 0.000000 0.000000 0.000000
# 2 -0.001049 0.010517 -0.000513 0.000000 0.000000 0.000000
# 3 -0.004571 -0.000513 0.013979 0.000000 0.000000 0.000000
# 4 0.000000 0.000000 0.000000 0.029375 0.000000 0.000000
# 5 0.000000 0.000000 0.000000 0.000000 0.065381 0.000000
# 6 0.000000 0.000000 0.000000 0.000000 0.000000 0.026184
#
#
# Mechanical properties :
#
#
# Convention : Reuss Voigt Hill
#
# Bulk Modulus (GPa) = 32.65853 33.21164 32.93508
# Shear Modulus (GPa) = 26.83901 30.93850 28.88876
#
# Velocity S-wave (km/s) = 3.29596 3.53874 3.41950
# Velocity P-wave (km/s) = 5.26339 5.48995 5.37787
#
# Compressibility (1/GPa) = 0.03061987
#
# Stress axis : x y z
#
# Youngs Moduli (GPa) = 54.37981 95.08762 71.53359
#
# Poissons Ratio (x) = 0.09972 0.32700
# Poissons Ratio (y) = 0.05703 0.03667
# Poissons Ratio (z) = 0.24859 0.04875
#
# Static dielectric constant tensor:
#      x y z
#    x 1.999570 0.000000 0.000000 
#    y 0.000000 1.965640 0.000000 
#    z 0.000000 0.000000 2.068350 
# 
# From -- ./inp_files/2685.got.cif
#   From: 2010.05.17/outbox.cif.g08.bks.cpg/sg29_2_cif.got.tgz:2685.got - 2010.06.04 01:19:37.
