data_PCOD9341011
_publ_section_title
;
Structure prediction by ZEFSAII (Michael W. Deem and Ramdas Pophale) SiO2 
 PCOD9341011
Probable space group: P C A 21
;
_chemical_formula_sum "Si O2"
_cell_formula_units_Z 32
_cell_length_a 10.279559
_cell_length_b 11.832889
_cell_length_c 11.084290
_cell_angle_alpha 90.000000
_cell_angle_beta 90.000000
_cell_angle_gamma 90.000000
_cell_volume 1348.258459
_symmetry_space_group_name_H-M "P C A 21"
_symmetry_group_IT_number 29
_symmetry_cell_setting 'orthorhombic'
loop_
_space_group_symop_operation_xyz
x,y,z
-x,-y,1/2+z
1/2-x,y,1/2+z
1/2+x,-y,z
loop_
_atom_site_type_symbol
_atom_site_label
_atom_site_fract_x
_atom_site_fract_y
_atom_site_fract_z
Si Si1 0.293386 0.866775 0.505960
Si Si2 0.274345 0.504956 0.273143
Si Si3 0.473540 0.506728 0.935710
Si Si4 0.049879 0.267942 0.487742
Si Si5 0.459691 0.260695 0.380317
Si Si6 0.691894 0.874007 0.042697
Si Si7 0.216845 0.756350 0.249159
Si Si8 0.682443 0.719905 0.247901
O O1 0.442147 0.824017 0.516364
O O2 0.254278 0.807623 0.380117
O O3 0.236836 0.825746 0.634039
O O4 0.271612 0.000230 0.507997
O O5 0.419553 0.496201 0.326853
O O6 0.261959 0.629524 0.222574
O O7 0.212670 0.404548 0.190913
O O8 0.174176 0.503448 0.387009
O O9 0.486486 0.397968 0.023105
O O10 0.499738 0.637131 0.970309
O O11 0.186875 0.213516 0.525914
O O12 0.066387 0.286553 0.343736
O O13 0.435538 0.153430 0.463747
O O14 0.561440 0.250574 0.272691
O O15 0.318646 0.273038 0.319916
O O16 0.658794 0.835600 0.177412
#
# Coordination Sequence:
#
# PCOD9341011 Si02
#       8
#     4   4   4   4   4   4   4   4
#     4  12  28  43  70  96 143 190 240 291 346 429
#     4   9  18  39  67  99 140 175 234 294 364 422
#     4   9  17  38  69  97 136 177 228 294 362 427
#     4  10  22  44  67  96 136 187 232 296 357 423
#     4   9  21  41  69  95 136 173 234 288 350 425
#     4  11  25  41  65 105 132 191 237 289 357 429
#     4  11  25  47  65 103 137 185 238 294 352 419
#     4   9  20  41  68  99 138 178 231 290 364 430
#
# _framework density 23.734321000000001
#
# number of rings (size 3 to 8) (size 9 to 14) (size 15 to 20)
#    0.000    2.000    1.250    1.500    5.250    2.000 
#    6.750    1.250    0.000    0.000    0.000    0.000 
#    0.000    0.000    0.000    0.000    0.000    0.000 
#
# Total GULP energy -178179.572428 kJ/mol
# GULP energy per Si atom -5568.111638 kJ/mol
# Density = 2.368030 g / cm^3
# Si number density = 23.734321 Si / 1000 Ang^3
#
#
#
# Elastic Constant Matrix: (Units=GPa)
#
#
# Indices 1 2 3 4 5 6 
#
# 1 42.7502 3.9062 15.7809 0.0000 0.0000 0.0000
# 2 3.9062 118.1262 27.7728 0.0000 0.0000 0.0000
# 3 15.7809 27.7728 69.0662 0.0000 0.0000 0.0000
# 4 0.0000 0.0000 0.0000 25.6561 0.0000 0.0000
# 5 0.0000 0.0000 0.0000 0.0000 19.3545 0.0000
# 6 0.0000 0.0000 0.0000 0.0000 0.0000 14.8870
#
#
#
# Elastic Compliance Matrix: (Units=1/GPa)
#
#
# Indices 1 2 3 4 5 6 
#
# 1 0.025583 0.000584 -0.006080 0.000000 0.000000 0.000000
# 2 0.000584 0.009363 -0.003898 0.000000 0.000000 0.000000
# 3 -0.006080 -0.003898 0.017436 0.000000 0.000000 0.000000
# 4 0.000000 0.000000 0.000000 0.038977 0.000000 0.000000
# 5 0.000000 0.000000 0.000000 0.000000 0.051668 0.000000
# 6 0.000000 0.000000 0.000000 0.000000 0.000000 0.067173
#
#
# Mechanical properties :
#
#
# Convention : Reuss Voigt Hill
#
# Bulk Modulus (GPa) = 29.76933 36.09583 32.93258
# Shear Modulus (GPa) = 20.81724 24.14501 22.48113
#
# Velocity S-wave (km/s) = 2.96479 3.19298 3.08100
# Velocity P-wave (km/s) = 4.92848 5.36980 5.15387
#
# Compressibility (1/GPa) = 0.03359161
#
# Stress axis : x y z
#
# Youngs Moduli (GPa) = 39.08879 106.80614 57.35376
#
# Poissons Ratio (x) = -0.06232 0.34871
# Poissons Ratio (y) = -0.02281 0.22358
# Poissons Ratio (z) = 0.23766 0.41636
#
# Static dielectric constant tensor:
#      x y z
#    x 1.928900 0.000000 0.000000 
#    y 0.000000 2.022990 0.000000 
#    z 0.000000 0.000000 2.078610 
# 
# From -- ./inp_files/3250.got.cif
#   From: 2010.05.17/outbox.cif.g08.bks.cpg/sg29_2_cif.got.tgz:3250.got - 2010.06.04 01:19:37.
