data_PCOD9341136
_publ_section_title
;
Structure prediction by ZEFSAII (Michael W. Deem and Ramdas Pophale) SiO2 
 PCOD9341136
Probable space group: P C A 21
;
_chemical_formula_sum "Si O2"
_cell_formula_units_Z 32
_cell_length_a 10.963927
_cell_length_b 14.297421
_cell_length_c 8.862975
_cell_angle_alpha 90.000000
_cell_angle_beta 90.000000
_cell_angle_gamma 90.000000
_cell_volume 1389.323447
_symmetry_space_group_name_H-M "P C A 21"
_symmetry_group_IT_number 29
_symmetry_cell_setting 'orthorhombic'
loop_
_space_group_symop_operation_xyz
x,y,z
-x,-y,1/2+z
1/2-x,y,1/2+z
1/2+x,-y,z
loop_
_atom_site_type_symbol
_atom_site_label
_atom_site_fract_x
_atom_site_fract_y
_atom_site_fract_z
Si Si1 0.859981 0.353603 0.700850
Si Si2 0.885079 0.571329 0.758284
Si Si3 0.238743 0.911841 0.485439
Si Si4 0.426309 0.973300 0.740184
Si Si5 0.579929 0.781655 0.763063
Si Si6 0.895509 0.336444 0.344284
Si Si7 0.581222 0.156901 0.726738
Si Si8 0.251975 0.305871 0.509429
O O1 0.857904 0.462335 0.743488
O O2 0.875126 0.342216 0.521308
O O3 0.730742 0.319023 0.760979
O O4 0.968890 0.292666 0.770612
O O5 0.836322 0.627977 0.613899
O O6 0.030760 0.576007 0.782422
O O7 0.822002 0.622364 0.901301
O O8 0.327033 0.955652 0.609869
O O9 0.146884 0.979543 0.397611
O O10 0.324024 0.868519 0.358968
O O11 0.154215 0.837014 0.570572
O O12 0.519079 0.884632 0.749231
O O13 0.494098 0.069081 0.710779
O O14 0.660909 0.752484 0.617488
O O15 0.666044 0.763351 0.907365
O O16 0.979761 0.250080 0.288145
#
# Coordination Sequence:
#
# PCOD9341136 Si02
#       8
#     4   4   4   4   4   4   4   4
#     4  12  27  44  76 104 144 191 243 306 371 435
#     4  11  26  46  72  99 144 185 242 301 374 434
#     4  10  23  43  67 100 140 185 242 297 356 429
#     4  11  24  45  70 104 143 194 239 300 365 432
#     4  11  25  45  70 102 144 188 245 300 369 435
#     4  12  27  45  72 110 140 189 247 302 364 444
#     4  11  23  44  69  99 142 182 238 296 359 434
#     4  10  25  48  66 102 145 184 242 306 364 445
#
# _framework density 23.032793999999999
#
# number of rings (size 3 to 8) (size 9 to 14) (size 15 to 20)
#    0.000    1.000    1.250    4.500    8.750    1.000 
#    9.000    0.000    0.000    0.000    0.000    0.000 
#    0.000    0.000    0.000    0.000    0.000    0.000 
#
# Total GULP energy -179148.084944 kJ/mol
# GULP energy per Si atom -5598.377654 kJ/mol
# Density = 2.298037 g / cm^3
# Si number density = 23.032794 Si / 1000 Ang^3
#
#
#
# Elastic Constant Matrix: (Units=GPa)
#
#
# Indices 1 2 3 4 5 6 
#
# 1 114.5788 40.8721 46.9532 0.0000 0.0000 0.0000
# 2 40.8721 104.6775 22.2744 0.0000 0.0000 0.0000
# 3 46.9532 22.2744 105.7243 0.0000 0.0000 0.0000
# 4 0.0000 0.0000 0.0000 38.7961 0.0000 0.0000
# 5 0.0000 0.0000 0.0000 0.0000 40.7099 0.0000
# 6 0.0000 0.0000 0.0000 0.0000 0.0000 64.5509
#
#
#
# Elastic Compliance Matrix: (Units=1/GPa)
#
#
# Indices 1 2 3 4 5 6 
#
# 1 0.011887 -0.003683 -0.004503 0.000000 0.000000 0.000000
# 2 -0.003683 0.011143 -0.000712 0.000000 0.000000 0.000000
# 3 -0.004503 -0.000712 0.011608 0.000000 0.000000 0.000000
# 4 0.000000 0.000000 0.000000 0.025776 0.000000 0.000000
# 5 0.000000 0.000000 0.000000 0.000000 0.024564 0.000000
# 6 0.000000 0.000000 0.000000 0.000000 0.000000 0.015492
#
#
# Mechanical properties :
#
#
# Convention : Reuss Voigt Hill
#
# Bulk Modulus (GPa) = 59.37602 60.57554 59.97578
# Shear Modulus (GPa) = 40.36186 43.13675 41.74931
#
# Velocity S-wave (km/s) = 4.19067 4.33233 4.26209
# Velocity P-wave (km/s) = 7.01787 7.16814 7.09340
#
# Compressibility (1/GPa) = 0.01684182
#
# Stress axis : x y z
#
# Youngs Moduli (GPa) = 84.12746 89.74473 86.14451
#
# Poissons Ratio (x) = 0.33053 0.38791
# Poissons Ratio (y) = 0.30985 0.06133
# Poissons Ratio (z) = 0.37883 0.06389
#
# Static dielectric constant tensor:
#      x y z
#    x 1.904020 0.000000 0.000000 
#    y 0.000000 1.877720 0.000000 
#    z 0.000000 0.000000 1.844690 
# 
# From -- ./inp_files/1576.got.cif
#   From: 2010.05.17/outbox.cif.g08.bks.cpg/sg29_1_cif.got.tgz:1576.got - 2010.06.04 01:19:37.
