data_PCOD9341259
_publ_section_title
;
Structure prediction by ZEFSAII (Michael W. Deem and Ramdas Pophale) SiO2 
 PCOD9341259
Probable space group: P C A 21
;
_chemical_formula_sum "Si O2"
_cell_formula_units_Z 32
_cell_length_a 11.196602
_cell_length_b 8.783868
_cell_length_c 14.138606
_cell_angle_alpha 90.000000
_cell_angle_beta 90.000000
_cell_angle_gamma 90.000000
_cell_volume 1390.524463
_symmetry_space_group_name_H-M "P C A 21"
_symmetry_group_IT_number 29
_symmetry_cell_setting 'orthorhombic'
loop_
_space_group_symop_operation_xyz
x,y,z
-x,-y,1/2+z
1/2-x,y,1/2+z
1/2+x,-y,z
loop_
_atom_site_type_symbol
_atom_site_label
_atom_site_fract_x
_atom_site_fract_y
_atom_site_fract_z
Si Si1 0.356146 0.372689 0.745720
Si Si2 0.721926 0.297218 0.269103
Si Si3 0.088920 0.652024 0.613141
Si Si4 0.967030 0.071580 0.697914
Si Si5 0.117559 0.908718 0.858283
Si Si6 0.034821 0.104773 0.008527
Si Si7 0.235648 0.177764 0.419576
Si Si8 0.364533 0.314622 0.104189
O O1 0.346443 0.545321 0.784659
O O2 0.478304 0.347961 0.688077
O O3 0.327818 0.261981 0.833306
O O4 0.248639 0.342335 0.672161
O O5 0.637745 0.151335 0.256297
O O6 0.828677 0.257595 0.342554
O O7 0.790341 0.318252 0.169876
O O8 0.072218 0.786471 0.538031
O O9 0.091592 0.481350 0.573048
O O10 0.038644 0.217603 0.660013
O O11 0.923419 0.969801 0.608766
O O12 0.058076 0.973154 0.762238
O O13 0.232574 0.006892 0.890975
O O14 0.024167 0.960586 0.938608
O O15 0.126338 0.216792 0.951985
O O16 0.170276 0.213833 0.515618
#
# Coordination Sequence:
#
# PCOD9341259 Si02
#       8
#     4   4   4   4   4   4   4   4
#     4  11  22  47  71  97 144 180 243 291 363 421
#     4  11  26  43  71 104 136 190 237 290 353 435
#     4  11  23  46  71 101 138 187 234 297 362 419
#     4  12  24  45  71 101 148 182 233 303 349 431
#     4  10  24  45  67 103 135 190 235 285 360 418
#     4  10  24  43  69 101 138 181 235 286 357 414
#     4  10  24  43  73  99 136 192 235 292 354 433
#     4  11  23  44  71 102 137 186 234 294 360 425
#
# _framework density 23.012900999999999
#
# number of rings (size 3 to 8) (size 9 to 14) (size 15 to 20)
#    0.750    0.500    5.000    0.000    3.500    3.000 
#   13.500    0.000    0.000    0.000    0.000    0.000 
#    0.000    0.000    0.000    0.000    0.000    0.000 
#
# Total GULP energy -178492.975195 kJ/mol
# GULP energy per Si atom -5577.905475 kJ/mol
# Density = 2.296052 g / cm^3
# Si number density = 23.012901 Si / 1000 Ang^3
#
#
#
# Elastic Constant Matrix: (Units=GPa)
#
#
# Indices 1 2 3 4 5 6 
#
# 1 42.4064 15.2432 2.9303 0.0000 0.0000 0.0000
# 2 15.2432 85.5959 10.6625 0.0000 0.0000 0.0000
# 3 2.9303 10.6625 80.1128 0.0000 0.0000 0.0000
# 4 0.0000 0.0000 0.0000 -58.6892 0.0000 0.0000
# 5 0.0000 0.0000 0.0000 0.0000 25.9309 0.0000
# 6 0.0000 0.0000 0.0000 0.0000 0.0000 31.7846
#
#
#
# Elastic Compliance Matrix: (Units=1/GPa)
#
#
# Indices 1 2 3 4 5 6 
#
# 1 0.025203 -0.004447 -0.000330 0.000000 0.000000 0.000000
# 2 -0.004447 0.012664 -0.001523 0.000000 0.000000 0.000000
# 3 -0.000330 -0.001523 0.012697 0.000000 0.000000 0.000000
# 4 0.000000 0.000000 0.000000 -0.017039 0.000000 0.000000
# 5 0.000000 0.000000 0.000000 0.000000 0.038564 0.000000
# 6 0.000000 0.000000 0.000000 0.000000 0.000000 0.031462
#
#
# Mechanical properties :
#
#
# Convention : Reuss Voigt Hill
#
# Bulk Modulus (GPa) = 26.34043 29.53188 27.93615
# Shear Modulus (GPa) = 38.81809 11.75719 25.28764
#
# Velocity S-wave (km/s) = 4.11152 2.26275 3.31848
# Velocity P-wave (km/s) = 5.83183 4.43704 5.18158
#
# Compressibility (1/GPa) = 0.03796446
#
# Stress axis : x y z
#
# Youngs Moduli (GPa) = 39.67831 78.96121 78.75778
#
# Poissons Ratio (x) = 0.35115 0.02599
# Poissons Ratio (y) = 0.17645 0.11994
# Poissons Ratio (z) = 0.01309 0.12025
#
# Static dielectric constant tensor:
#      x y z
#    x 1.965480 0.000000 0.000000 
#    y 0.000000 1.872450 0.000000 
#    z 0.000000 0.000000 1.858360 
# 
# From -- ./inp_files/4602.got.cif
#   From: 2010.05.17/outbox.cif.g08.bks.cpg/sg29_3_cif.got.tgz:4602.got - 2010.06.04 01:19:37.
