data_PCOD9341758
_publ_section_title
;
Structure prediction by ZEFSAII (Michael W. Deem and Ramdas Pophale) SiO2 
 PCOD9341758
Probable space group: P C A 21
;
_chemical_formula_sum "Si O2"
_cell_formula_units_Z 20
_cell_length_a 15.648717
_cell_length_b 5.296635
_cell_length_c 10.127166
_cell_angle_alpha 90.000000
_cell_angle_beta 90.000000
_cell_angle_gamma 90.000000
_cell_volume 839.395645
_symmetry_space_group_name_H-M "P C A 21"
_symmetry_group_IT_number 29
_symmetry_cell_setting 'orthorhombic'
loop_
_space_group_symop_operation_xyz
x,y,z
-x,-y,1/2+z
1/2-x,y,1/2+z
1/2+x,-y,z
loop_
_atom_site_type_symbol
_atom_site_label
_atom_site_fract_x
_atom_site_fract_y
_atom_site_fract_z
Si Si1 0.351029 0.684129 0.197030
Si Si2 0.942498 0.463839 0.943516
Si Si3 0.226298 0.350883 0.342599
Si Si4 0.551197 0.033801 0.903424
Si Si5 0.789086 0.980459 0.583574
O O1 0.312468 0.501528 0.307864
O O2 0.394810 0.919466 0.270077
O O3 0.269381 0.778393 0.114001
O O4 0.417354 0.559663 0.097467
O O5 0.853454 0.464968 0.864511
O O6 0.988865 0.727266 0.916173
O O7 0.999888 0.225711 0.905592
O O8 0.205359 0.173487 0.218897
O O9 0.240564 0.187049 0.473630
O O10 0.619014 0.039125 0.022862
#
# Coordination Sequence:
#
# PCOD9341758 Si02
#       5
#     4   4   4   4   4
#     4  12  28  52  82 112 166 208 282 318 402 490
#     4  12  30  51  78 122 160 208 262 341 404 464
#     4  12  27  53  83 113 157 215 274 323 400 494
#     4  12  30  51  78 122 160 208 262 341 404 464
#     4  12  27  53  83 113 157 215 274 323 400 494
#
# _framework density 23.826668000000002
#
# number of rings (size 3 to 8) (size 9 to 14) (size 15 to 20)
#    0.000    0.000    4.000    3.600    8.400    0.000 
#    0.000    0.000    0.000    0.000    0.000    0.000 
#    0.000    0.000    0.000    0.000    0.000    0.000 
#
# Total GULP energy -112264.848041 kJ/mol
# GULP energy per Si atom -5613.242402 kJ/mol
# Density = 2.377244 g / cm^3
# Si number density = 23.826668 Si / 1000 Ang^3
#
#
#
# Elastic Constant Matrix: (Units=GPa)
#
#
# Indices 1 2 3 4 5 6 
#
# 1 91.5450 34.5295 15.8028 0.0000 0.0000 0.0000
# 2 34.5295 91.8997 16.6056 0.0000 0.0000 0.0000
# 3 15.8028 16.6056 88.2763 0.0000 0.0000 0.0000
# 4 0.0000 0.0000 0.0000 46.9595 0.0000 0.0000
# 5 0.0000 0.0000 0.0000 0.0000 50.2199 0.0000
# 6 0.0000 0.0000 0.0000 0.0000 0.0000 57.6159
#
#
#
# Elastic Compliance Matrix: (Units=1/GPa)
#
#
# Indices 1 2 3 4 5 6 
#
# 1 0.012903 -0.004587 -0.001447 0.000000 0.000000 0.000000
# 2 -0.004587 0.012895 -0.001605 0.000000 0.000000 0.000000
# 3 -0.001447 -0.001605 0.011889 0.000000 0.000000 0.000000
# 4 0.000000 0.000000 0.000000 0.021295 0.000000 0.000000
# 5 0.000000 0.000000 0.000000 0.000000 0.019912 0.000000
# 6 0.000000 0.000000 0.000000 0.000000 0.000000 0.017356
#
#
# Mechanical properties :
#
#
# Convention : Reuss Voigt Hill
#
# Bulk Modulus (GPa) = 44.62215 45.06631 44.84423
# Shear Modulus (GPa) = 42.01762 44.61126 43.31444
#
# Velocity S-wave (km/s) = 4.20392 4.33173 4.26831
# Velocity P-wave (km/s) = 6.50634 6.63128 6.56910
#
# Compressibility (1/GPa) = 0.02241040
#
# Stress axis : x y z
#
# Youngs Moduli (GPa) = 77.49861 77.55104 84.11176
#
# Poissons Ratio (x) = 0.35571 0.12172
# Poissons Ratio (y) = 0.35547 0.13496
# Poissons Ratio (z) = 0.11215 0.12443
#
# Static dielectric constant tensor:
#      x y z
#    x 1.888970 0.000000 0.000000 
#    y 0.000000 1.890600 0.000000 
#    z 0.000000 0.000000 1.889680 
# 
# From -- ./inp_files/3312.got.cif
#   From: 2010.05.17/outbox.cif.g08.bks.cpg/sg29_2_cif.got.tgz:3312.got - 2010.06.04 01:19:37.
