data_PCOD9341289
_publ_section_title
;
Structure prediction by ZEFSAII (Michael W. Deem and Ramdas Pophale) SiO2 
 PCOD9341289
Probable space group: P C A 21
;
_chemical_formula_sum "Si O2"
_cell_formula_units_Z 24
_cell_length_a 10.032589
_cell_length_b 4.952312
_cell_length_c 17.798379
_cell_angle_alpha 90.000000
_cell_angle_beta 90.000000
_cell_angle_gamma 90.000000
_cell_volume 884.303755
_symmetry_space_group_name_H-M "P C A 21"
_symmetry_group_IT_number 29
_symmetry_cell_setting 'orthorhombic'
loop_
_space_group_symop_operation_xyz
x,y,z
-x,-y,1/2+z
1/2-x,y,1/2+z
1/2+x,-y,z
loop_
_atom_site_type_symbol
_atom_site_label
_atom_site_fract_x
_atom_site_fract_y
_atom_site_fract_z
Si Si1 0.617017 0.653855 0.960780
Si Si2 0.252774 0.616577 0.828937
Si Si3 0.572761 0.695785 0.219025
Si Si4 0.479282 0.672807 0.588178
Si Si5 0.909476 0.873192 0.310489
Si Si6 0.755814 0.959733 0.097421
O O1 0.724841 0.477041 0.914038
O O2 0.542822 0.832349 0.897122
O O3 0.517478 0.465462 0.007072
O O4 0.693188 0.827865 0.022497
O O5 0.379591 0.508877 0.784703
O O6 0.000038 0.951547 0.756186
O O7 0.219481 0.928645 0.820368
O O8 0.492720 0.537992 0.154154
O O9 0.359024 0.424275 0.290184
O O10 0.697922 0.811632 0.171000
O O11 0.586266 0.913696 0.592915
O O12 0.324436 0.759505 0.599979
#
# Coordination Sequence:
#
# PCOD9341289 Si02
#       6
#     4   4   4   4   4   4
#     4   9  24  48  74 110 154 210 277 334 410 478
#     4  10  24  44  75 112 154 205 266 336 403 482
#     4  11  26  45  76 114 163 213 274 337 417 496
#     4  11  26  48  80 120 166 220 273 341 418 499
#     4  10  24  46  74 115 154 207 271 338 409 484
#     4  11  26  47  75 115 161 213 269 336 407 499
#
# _framework density 27.139997000000001
#
# number of rings (size 3 to 8) (size 9 to 14) (size 15 to 20)
#    1.000    0.667    0.000    2.000    7.000    8.000 
#    3.000    0.000    0.000    0.000    0.000    0.000 
#    0.000    0.000    0.000    0.000    0.000    0.000 
#
# Total GULP energy -134287.715424 kJ/mol
# GULP energy per Si atom -5595.321476 kJ/mol
# Density = 2.707823 g / cm^3
# Si number density = 27.139997 Si / 1000 Ang^3
#
#
#
# Elastic Constant Matrix: (Units=GPa)
#
#
# Indices 1 2 3 4 5 6 
#
# 1 115.8635 25.7872 36.1089 0.0000 0.0000 0.0000
# 2 25.7872 114.4324 31.5356 0.0000 0.0000 0.0000
# 3 36.1089 31.5356 180.7250 0.0000 0.0000 0.0000
# 4 0.0000 0.0000 0.0000 53.0997 0.0000 0.0000
# 5 0.0000 0.0000 0.0000 0.0000 41.6744 0.0000
# 6 0.0000 0.0000 0.0000 0.0000 0.0000 34.7734
#
#
#
# Elastic Compliance Matrix: (Units=1/GPa)
#
#
# Indices 1 2 3 4 5 6 
#
# 1 0.009509 -0.001701 -0.001603 0.000000 0.000000 0.000000
# 2 -0.001701 0.009485 -0.001315 0.000000 0.000000 0.000000
# 3 -0.001603 -0.001315 0.006083 0.000000 0.000000 0.000000
# 4 0.000000 0.000000 0.000000 0.018832 0.000000 0.000000
# 5 0.000000 0.000000 0.000000 0.000000 0.023996 0.000000
# 6 0.000000 0.000000 0.000000 0.000000 0.000000 0.028758
#
#
# Mechanical properties :
#
#
# Convention : Reuss Voigt Hill
#
# Bulk Modulus (GPa) = 63.13899 66.43160 64.78529
# Shear Modulus (GPa) = 44.97204 47.08213 46.02708
#
# Velocity S-wave (km/s) = 4.07509 4.16960 4.12261
# Velocity P-wave (km/s) = 6.74214 6.90733 6.82524
#
# Compressibility (1/GPa) = 0.01583807
#
# Stress axis : x y z
#
# Youngs Moduli (GPa) = 105.16301 105.43464 164.39127
#
# Poissons Ratio (x) = 0.17935 0.26353
# Poissons Ratio (y) = 0.17889 0.21620
# Poissons Ratio (z) = 0.16859 0.13866
#
# Static dielectric constant tensor:
#      x y z
#    x 2.282820 0.000000 0.000000 
#    y 0.000000 2.086430 0.000000 
#    z 0.000000 0.000000 2.075420 
# 
# From -- ./inp_files/1129.got.cif
#   From: 2010.05.17/outbox.cif.g08.bks.cpg/sg29_1_cif.got.tgz:1129.got - 2010.06.04 01:19:37.
