data_PCOD9341746
_publ_section_title
;
Structure prediction by ZEFSAII (Michael W. Deem and Ramdas Pophale) SiO2 
 PCOD9341746
Probable space group: P C A 21
;
_chemical_formula_sum "Si O2"
_cell_formula_units_Z 20
_cell_length_a 7.826750
_cell_length_b 11.339527
_cell_length_c 8.263727
_cell_angle_alpha 90.000000
_cell_angle_beta 90.000000
_cell_angle_gamma 90.000000
_cell_volume 733.419348
_symmetry_space_group_name_H-M "P C A 21"
_symmetry_group_IT_number 29
_symmetry_cell_setting 'orthorhombic'
loop_
_space_group_symop_operation_xyz
x,y,z
-x,-y,1/2+z
1/2-x,y,1/2+z
1/2+x,-y,z
loop_
_atom_site_type_symbol
_atom_site_label
_atom_site_fract_x
_atom_site_fract_y
_atom_site_fract_z
Si Si1 0.832440 0.864279 0.754420
Si Si2 0.447105 0.882774 0.725142
Si Si3 0.079224 0.521643 0.580189
Si Si4 0.654611 0.226571 0.546848
Si Si5 0.289988 0.377960 0.378082
O O1 0.644662 0.887032 0.676579
O O2 0.778016 0.754767 0.866793
O O3 0.994254 0.821732 0.649593
O O4 0.893468 0.993652 0.807531
O O5 0.321814 0.851792 0.578610
O O6 0.404391 0.785218 0.861556
O O7 0.195780 0.638919 0.595822
O O8 0.122600 0.453866 0.414588
O O9 0.111910 0.427765 0.721477
O O10 0.902191 0.587001 0.535737
#
# Coordination Sequence:
#
# PCOD9341746 Si02
#       5
#     4   4   4   4   4
#     4  12  28  52  77 121 161 209 269 331 396 480
#     4  12  29  49  84 114 160 213 264 331 402 471
#     4  12  26  50  75 117 154 209 263 331 404 476
#     4  12  28  51  79 119 158 210 268 330 402 477
#     4  12  27  48  81 113 161 205 268 329 404 478
#
# _framework density 27.269528000000001
#
# number of rings (size 3 to 8) (size 9 to 14) (size 15 to 20)
#    0.000    0.000    4.000    4.800    5.600    1.600 
#    0.000    0.000    0.000    0.000    0.000    0.000 
#    0.000    0.000    0.000    0.000    0.000    0.000 
#
# Total GULP energy -111924.515977 kJ/mol
# GULP energy per Si atom -5596.225799 kJ/mol
# Density = 2.720746 g / cm^3
# Si number density = 27.269528 Si / 1000 Ang^3
#
#
#
# Elastic Constant Matrix: (Units=GPa)
#
#
# Indices 1 2 3 4 5 6 
#
# 1 124.4939 36.8680 6.9257 0.0000 0.0000 0.0000
# 2 36.8680 198.9360 31.5637 0.0000 0.0000 0.0000
# 3 6.9257 31.5637 78.0233 0.0000 0.0000 0.0000
# 4 0.0000 0.0000 0.0000 46.8348 0.0000 0.0000
# 5 0.0000 0.0000 0.0000 0.0000 48.9320 0.0000
# 6 0.0000 0.0000 0.0000 0.0000 0.0000 48.2185
#
#
#
# Elastic Compliance Matrix: (Units=1/GPa)
#
#
# Indices 1 2 3 4 5 6 
#
# 1 0.008500 -0.001555 -0.000125 0.000000 0.000000 0.000000
# 2 -0.001555 0.005656 -0.002150 0.000000 0.000000 0.000000
# 3 -0.000125 -0.002150 0.013698 0.000000 0.000000 0.000000
# 4 0.000000 0.000000 0.000000 0.021352 0.000000 0.000000
# 5 0.000000 0.000000 0.000000 0.000000 0.020437 0.000000
# 6 0.000000 0.000000 0.000000 0.000000 0.000000 0.020739
#
#
# Mechanical properties :
#
#
# Convention : Reuss Voigt Hill
#
# Bulk Modulus (GPa) = 49.52379 61.35199 55.43789
# Shear Modulus (GPa) = 47.72210 50.53679 49.12945
#
# Velocity S-wave (km/s) = 4.18786 4.30959 4.24916
# Velocity P-wave (km/s) = 6.44860 6.87827 6.66690
#
# Compressibility (1/GPa) = 0.02019232
#
# Stress axis : x y z
#
# Youngs Moduli (GPa) = 117.64546 176.79915 73.00545
#
# Poissons Ratio (x) = 0.27500 0.00915
# Poissons Ratio (y) = 0.18299 0.15697
# Poissons Ratio (z) = 0.01474 0.38013
#
# Static dielectric constant tensor:
#      x y z
#    x 2.223230 0.000000 0.000000 
#    y 0.000000 2.107010 0.000000 
#    z 0.000000 0.000000 2.096760 
# 
# From -- ./inp_files/1089.got.cif
#   From: 2010.05.17/outbox.cif.g08.bks.cpg/sg29_1_cif.got.tgz:1089.got - 2010.06.04 01:19:37.
