data_PCOD9341743
_publ_section_title
;
Structure prediction by ZEFSAII (Michael W. Deem and Ramdas Pophale) SiO2 
 PCOD9341743
Probable space group: P C A 21
;
_chemical_formula_sum "Si O2"
_cell_formula_units_Z 24
_cell_length_a 12.969862
_cell_length_b 9.046497
_cell_length_c 8.465210
_cell_angle_alpha 90.000000
_cell_angle_beta 90.000000
_cell_angle_gamma 90.000000
_cell_volume 993.238476
_symmetry_space_group_name_H-M "P C A 21"
_symmetry_group_IT_number 29
_symmetry_cell_setting 'orthorhombic'
loop_
_space_group_symop_operation_xyz
x,y,z
-x,-y,1/2+z
1/2-x,y,1/2+z
1/2+x,-y,z
loop_
_atom_site_type_symbol
_atom_site_label
_atom_site_fract_x
_atom_site_fract_y
_atom_site_fract_z
Si Si1 0.465022 0.138392 0.046760
Si Si2 0.512168 0.410597 0.819635
Si Si3 0.680094 0.608125 0.996812
Si Si4 0.753665 0.824071 0.722781
Si Si5 0.635809 0.397412 0.495597
Si Si6 0.616258 0.099380 0.335650
O O1 0.350235 0.156609 0.119590
O O2 0.548804 0.146581 0.184989
O O3 0.488853 0.262753 0.917252
O O4 0.461576 0.983076 0.955737
O O5 0.558383 0.388950 0.645142
O O6 0.596398 0.503970 0.918861
O O7 0.414495 0.517955 0.845580
O O8 0.659024 0.728186 0.132865
O O9 0.770235 0.498242 0.051713
O O10 0.719819 0.718674 0.862922
O O11 0.799664 0.979259 0.779727
O O12 0.664178 0.236746 0.429744
#
# Coordination Sequence:
#
# PCOD9341743 Si02
#       6
#     4   4   4   4   4   4
#     4  12  28  51  74 115 151 209 252 318 397 462
#     4  12  26  48  80 108 157 198 271 319 385 463
#     4  12  26  48  77 106 147 203 259 316 387 461
#     4  12  26  52  73 109 155 203 251 319 397 465
#     4  12  27  47  75 119 147 205 262 326 378 471
#     4  12  29  46  77 109 161 198 259 316 396 460
#
# _framework density 24.163383
#
# number of rings (size 3 to 8) (size 9 to 14) (size 15 to 20)
#    0.000    0.000    5.000    3.000   11.667    4.000 
#    0.000    0.000    0.000    0.000    0.000    0.000 
#    0.000    0.000    0.000    0.000    0.000    0.000 
#
# Total GULP energy -134452.064688 kJ/mol
# GULP energy per Si atom -5602.169362 kJ/mol
# Density = 2.410839 g / cm^3
# Si number density = 24.163383 Si / 1000 Ang^3
#
#
#
# Elastic Constant Matrix: (Units=GPa)
#
#
# Indices 1 2 3 4 5 6 
#
# 1 80.3779 31.0788 29.7103 0.0000 0.0000 0.0000
# 2 31.0788 164.2649 55.8926 0.0000 0.0000 0.0000
# 3 29.7103 55.8926 131.5464 0.0000 0.0000 0.0000
# 4 0.0000 0.0000 0.0000 55.6922 0.0000 0.0000
# 5 0.0000 0.0000 0.0000 0.0000 36.8680 0.0000
# 6 0.0000 0.0000 0.0000 0.0000 0.0000 30.3512
#
#
#
# Elastic Compliance Matrix: (Units=1/GPa)
#
#
# Indices 1 2 3 4 5 6 
#
# 1 0.014036 -0.001843 -0.002387 0.000000 0.000000 0.000000
# 2 -0.001843 0.007359 -0.002710 0.000000 0.000000 0.000000
# 3 -0.002387 -0.002710 0.009293 0.000000 0.000000 0.000000
# 4 0.000000 0.000000 0.000000 0.017956 0.000000 0.000000
# 5 0.000000 0.000000 0.000000 0.000000 0.027124 0.000000
# 6 0.000000 0.000000 0.000000 0.000000 0.000000 0.032948
#
#
# Mechanical properties :
#
#
# Convention : Reuss Voigt Hill
#
# Bulk Modulus (GPa) = 59.50169 67.72806 63.61487
# Shear Modulus (GPa) = 39.00211 41.88278 40.44244
#
# Velocity S-wave (km/s) = 4.02194 4.16783 4.09554
# Velocity P-wave (km/s) = 6.80046 7.15899 6.98203
#
# Compressibility (1/GPa) = 0.01680625
#
# Stress axis : x y z
#
# Youngs Moduli (GPa) = 71.24385 135.89343 107.61328
#
# Poissons Ratio (x) = 0.25052 0.25686
# Poissons Ratio (y) = 0.13134 0.29166
# Poissons Ratio (z) = 0.17005 0.36831
#
# Static dielectric constant tensor:
#      x y z
#    x 2.007570 0.000000 0.000000 
#    y 0.000000 1.877780 0.000000 
#    z 0.000000 0.000000 1.965650 
# 
# From -- ./inp_files/1735.got.cif
#   From: 2010.05.17/outbox.cif.g08.bks.cpg/sg29_1_cif.got.tgz:1735.got - 2010.06.04 01:19:37.
