data_PCOD9341851
_publ_section_title
;
Structure prediction by ZEFSAII (Michael W. Deem and Ramdas Pophale) SiO2 
 PCOD9341851
Probable space group: P N C 2
;
_chemical_formula_sum "Si O2"
_cell_formula_units_Z 32
_cell_length_a 8.678069
_cell_length_b 30.200209
_cell_length_c 5.450882
_cell_angle_alpha 90.000000
_cell_angle_beta 90.000000
_cell_angle_gamma 90.000000
_cell_volume 1428.564416
_symmetry_space_group_name_H-M "P N C 2"
_symmetry_group_IT_number 30
_symmetry_cell_setting 'orthorhombic'
loop_
_space_group_symop_operation_xyz
x,y,z
-x,-y,z
-x,1/2+y,1/2+z
x,1/2-y,1/2+z
loop_
_atom_site_type_symbol
_atom_site_label
_atom_site_fract_x
_atom_site_fract_y
_atom_site_fract_z
Si Si1 0.283494 0.581705 0.731490
Si Si2 0.504779 0.765570 0.701034
Si Si3 0.089296 0.857263 0.915761
Si Si4 0.494497 0.049461 0.872800
Si Si5 0.994372 0.950060 0.463884
Si Si6 0.380264 0.638590 0.107941
Si Si7 0.149359 0.419991 0.463667
Si Si8 0.848617 0.270055 0.702456
O O1 0.164682 0.598381 0.528195
O O2 0.396685 0.546678 0.613441
O O3 0.171078 0.566020 0.946850
O O4 0.376498 0.624687 0.823703
O O5 0.582383 0.753257 0.956981
O O6 0.476687 0.817996 0.672810
O O7 0.335845 0.740587 0.714130
O O8 0.205825 0.848315 0.692160
O O9 0.113930 0.818952 0.111984
O O10 0.911897 0.870821 0.884327
O O11 0.559089 0.092791 0.728695
O O12 0.324540 0.064983 0.942688
O O13 0.500000 0.000000 0.756522
O O14 0.930010 0.947325 0.738569
O O15 0.895720 0.925773 0.251462
O O16 0.000000 0.000000 0.376607
O O17 0.909321 0.258771 0.971852
#
# Coordination Sequence:
#
# PCOD9341851 Si02
#       8
#     4   4   4   4   4   4   4   4
#     4  10  22  38  62  91 122 171 220 284 323 402
#     4  10  19  32  58  94 127 153 206 273 334 388
#     4  10  20  37  60  94 126 160 215 277 327 394
#     4  11  27  43  62  90 138 186 235 276 345 410
#     4  11  23  40  67  89 123 159 224 279 332 377
#     4  11  21  37  64  93 126 170 220 276 330 409
#     4  11  25  42  62  93 128 173 212 274 338 398
#     4  10  18  29  56  92 126 154 200 263 330 385
#
# _framework density 22.400109
#
# number of rings (size 3 to 8) (size 9 to 14) (size 15 to 20)
#    0.000    1.500    3.750    2.625    5.250    0.500 
#    0.000    0.000    0.000    1.500    0.000    0.000 
#    0.000    0.000    0.000    0.000    0.000    0.000 
#
# Total GULP energy -178218.356391 kJ/mol
# GULP energy per Si atom -5569.323637 kJ/mol
# Density = 2.234913 g / cm^3
# Si number density = 22.400109 Si / 1000 Ang^3
#
#
#
# Elastic Constant Matrix: (Units=GPa)
#
#
# Indices 1 2 3 4 5 6 
#
# 1 66.7098 29.9066 13.2453 0.0000 0.0000 0.0000
# 2 29.9066 96.1249 14.5497 0.0000 0.0000 0.0000
# 3 13.2453 14.5497 94.2707 0.0000 0.0000 0.0000
# 4 0.0000 0.0000 0.0000 283.9600 0.0000 0.0000
# 5 0.0000 0.0000 0.0000 0.0000 0.2740 0.0000
# 6 0.0000 0.0000 0.0000 0.0000 0.0000 18.5837
#
#
#
# Elastic Compliance Matrix: (Units=1/GPa)
#
#
# Indices 1 2 3 4 5 6 
#
# 1 0.017674 -0.005246 -0.001674 0.000000 0.000000 0.000000
# 2 -0.005246 0.012209 -0.001147 0.000000 0.000000 0.000000
# 3 -0.001674 -0.001147 0.011020 0.000000 0.000000 0.000000
# 4 0.000000 0.000000 0.000000 0.003522 0.000000 0.000000
# 5 0.000000 0.000000 0.000000 0.000000 3.649487 0.000000
# 6 0.000000 0.000000 0.000000 0.000000 0.000000 0.053811
#
#
# Mechanical properties :
#
#
# Convention : Reuss Voigt Hill
#
# Bulk Modulus (GPa) = 40.37138 41.38983 40.88060
# Shear Modulus (GPa) = 1.32552 73.85714 37.59133
#
# Velocity S-wave (km/s) = 0.77008 5.74834 4.10100
# Velocity P-wave (km/s) = 4.34197 7.91046 6.38076
#
# Compressibility (1/GPa) = 0.02477002
#
# Stress axis : x y z
#
# Youngs Moduli (GPa) = 56.57958 81.90826 90.74434
#
# Poissons Ratio (x) = 0.42965 0.15188
# Poissons Ratio (y) = 0.29679 0.10411
# Poissons Ratio (z) = 0.09470 0.09397
#
# Static dielectric constant tensor:
#      x y z
#    x 1.970840 0.000000 0.000000 
#    y 0.000000 1.836500 0.000000 
#    z 0.000000 0.000000 1.935680 
# 
# From -- ./inp_files/578.got.cif
#   From: 2010.05.17/outbox.cif.g08.bks.cpg/sg30_1_cif.got.tgz:578.got - 2010.06.03 17:03:02.
