data_PCOD9341438
_publ_section_title
;
Structure prediction by ZEFSAII (Michael W. Deem and Ramdas Pophale) SiO2 
 PCOD9341438
Probable space group: P C A 21
;
_chemical_formula_sum "Si O2"
_cell_formula_units_Z 32
_cell_length_a 14.743696
_cell_length_b 7.814695
_cell_length_c 11.996068
_cell_angle_alpha 90.000000
_cell_angle_beta 90.000000
_cell_angle_gamma 90.000000
_cell_volume 1382.156814
_symmetry_space_group_name_H-M "P C A 21"
_symmetry_group_IT_number 29
_symmetry_cell_setting 'orthorhombic'
loop_
_space_group_symop_operation_xyz
x,y,z
-x,-y,1/2+z
1/2-x,y,1/2+z
1/2+x,-y,z
loop_
_atom_site_type_symbol
_atom_site_label
_atom_site_fract_x
_atom_site_fract_y
_atom_site_fract_z
Si Si1 0.091246 0.107765 0.557520
Si Si2 0.682952 0.759263 0.766326
Si Si3 0.846804 0.548917 0.690192
Si Si4 0.815985 0.022536 0.849030
Si Si5 0.881715 0.532443 0.941313
Si Si6 0.791141 0.295341 0.441424
Si Si7 0.612403 0.151773 0.130920
Si Si8 0.574912 0.593952 0.957291
O O1 0.146108 0.110578 0.673336
O O2 0.124844 0.980399 0.461079
O O3 0.110306 0.297571 0.511721
O O4 0.984478 0.103856 0.580597
O O5 0.741656 0.603608 0.711803
O O6 0.754156 0.856574 0.844161
O O7 0.604159 0.700609 0.849436
O O8 0.890434 0.582310 0.810766
O O9 0.875641 0.351079 0.668648
O O10 0.881235 0.642009 0.577370
O O11 0.749723 0.186310 0.841919
O O12 0.873031 0.032441 0.736709
O O13 0.787880 0.433471 0.964359
O O14 0.967860 0.415968 0.969609
O O15 0.811711 0.151668 0.534680
O O16 0.882149 0.405560 0.429663
#
# Coordination Sequence:
#
# PCOD9341438 Si02
#       8
#     4   4   4   4   4   4   4   4
#     4  12  25  45  69 105 140 185 243 297 353 431
#     4  12  24  42  72 100 139 187 238 293 360 426
#     4  11  21  43  67 102 135 177 239 294 351 416
#     4  12  25  46  67 100 150 191 233 286 367 443
#     4  12  22  45  72 104 139 177 245 300 350 422
#     4  11  23  44  69 101 139 186 230 294 356 420
#     4  11  24  46  68  98 145 183 236 298 354 428
#     4  11  24  43  74 102 137 184 236 306 353 412
#
# _framework density 23.152221999999998
#
# number of rings (size 3 to 8) (size 9 to 14) (size 15 to 20)
#    0.000    0.500    6.250    3.750    0.000    1.000 
#    2.250    0.000    0.000    0.000    0.000    0.000 
#    0.000    0.000    0.000    0.000    0.000    0.000 
#
# Total GULP energy -178732.889550 kJ/mol
# GULP energy per Si atom -5585.402798 kJ/mol
# Density = 2.309953 g / cm^3
# Si number density = 23.152222 Si / 1000 Ang^3
#
#
#
# Elastic Constant Matrix: (Units=GPa)
#
#
# Indices 1 2 3 4 5 6 
#
# 1 95.2188 4.2432 22.0938 0.0000 0.0000 0.0000
# 2 4.2432 31.5196 -11.2109 0.0000 0.0000 0.0000
# 3 22.0938 -11.2109 108.5618 0.0000 0.0000 0.0000
# 4 0.0000 0.0000 0.0000 42.9228 0.0000 0.0000
# 5 0.0000 0.0000 0.0000 0.0000 38.8479 0.0000
# 6 0.0000 0.0000 0.0000 0.0000 0.0000 15.1653
#
#
#
# Elastic Compliance Matrix: (Units=1/GPa)
#
#
# Indices 1 2 3 4 5 6 
#
# 1 0.011196 -0.002406 -0.002527 0.000000 0.000000 0.000000
# 2 -0.002406 0.033453 0.003944 0.000000 0.000000 0.000000
# 3 -0.002527 0.003944 0.010133 0.000000 0.000000 0.000000
# 4 0.000000 0.000000 0.000000 0.023298 0.000000 0.000000
# 5 0.000000 0.000000 0.000000 0.000000 0.025741 0.000000
# 6 0.000000 0.000000 0.000000 0.000000 0.000000 0.065940
#
#
# Mechanical properties :
#
#
# Convention : Reuss Voigt Hill
#
# Bulk Modulus (GPa) = 18.93782 29.50583 24.22182
# Shear Modulus (GPa) = 26.40757 34.06546 30.23652
#
# Velocity S-wave (km/s) = 3.38095 3.84000 3.61777
# Velocity P-wave (km/s) = 4.84134 5.69498 5.28542
#
# Compressibility (1/GPa) = 0.05280439
#
# Stress axis : x y z
#
# Youngs Moduli (GPa) = 89.32018 29.89264 98.68812
#
# Poissons Ratio (x) = 0.07192 0.24938
# Poissons Ratio (y) = 0.21490 -0.38925
# Poissons Ratio (z) = 0.22571 -0.11790
#
# Static dielectric constant tensor:
#      x y z
#    x 1.841040 0.000000 0.000000 
#    y 0.000000 1.920750 0.000000 
#    z 0.000000 0.000000 1.969530 
# 
# From -- ./inp_files/3497.got.cif
#   From: 2010.05.17/outbox.cif.g08.bks.cpg/sg29_2_cif.got.tgz:3497.got - 2010.06.04 01:19:37.
