data_PCOD9341097
_publ_section_title
;
Structure prediction by ZEFSAII (Michael W. Deem and Ramdas Pophale) SiO2 
 PCOD9341097
Probable space group: P C A 21
;
_chemical_formula_sum "Si O2"
_cell_formula_units_Z 32
_cell_length_a 5.799179
_cell_length_b 16.273218
_cell_length_c 12.914077
_cell_angle_alpha 90.000000
_cell_angle_beta 90.000000
_cell_angle_gamma 90.000000
_cell_volume 1218.718288
_symmetry_space_group_name_H-M "P C A 21"
_symmetry_group_IT_number 29
_symmetry_cell_setting 'orthorhombic'
loop_
_space_group_symop_operation_xyz
x,y,z
-x,-y,1/2+z
1/2-x,y,1/2+z
1/2+x,-y,z
loop_
_atom_site_type_symbol
_atom_site_label
_atom_site_fract_x
_atom_site_fract_y
_atom_site_fract_z
Si Si1 0.961556 0.725250 0.729970
Si Si2 0.914847 0.779435 0.356785
Si Si3 0.177092 0.983993 0.533031
Si Si4 0.420301 0.333990 0.072789
Si Si5 0.849732 0.388408 0.769745
Si Si6 0.353202 0.478589 0.949786
Si Si7 0.196277 0.800760 0.555931
Si Si8 0.406867 0.038122 0.271294
O O1 0.850589 0.761716 0.831689
O O2 0.772864 0.709776 0.641239
O O3 0.088615 0.639316 0.748461
O O4 0.121950 0.791752 0.675003
O O5 0.046099 0.696503 0.317804
O O6 0.993621 0.787474 0.473650
O O7 0.952371 0.865578 0.296250
O O8 0.276817 0.891702 0.536084
O O9 0.411294 0.027630 0.490423
O O10 0.124704 0.020396 0.647597
O O11 0.521335 0.396122 0.161002
O O12 0.340090 0.381478 0.970645
O O13 0.618430 0.270664 0.043320
O O14 0.863452 0.466528 0.844645
O O15 0.606135 0.496653 0.995386
O O16 0.645583 0.990959 0.306106
#
# Coordination Sequence:
#
# PCOD9341097 Si02
#       8
#     4   4   4   4   4   4   4   4
#     4  10  24  47  78 108 158 214 275 332 419 506
#     4  11  25  44  76 116 159 217 277 343 416 505
#     4  10  23  41  69 106 156 212 267 338 409 485
#     4  10  26  49  80 113 156 215 270 338 424 503
#     4  10  26  49  78 116 153 214 271 336 418 506
#     4  12  30  50  80 115 164 201 266 344 406 493
#     4  11  25  45  76 116 162 217 283 345 417 512
#     4  10  23  41  69 106 156 210 265 338 409 482
#
# _framework density 26.257095
#
# number of rings (size 3 to 8) (size 9 to 14) (size 15 to 20)
#    0.000    1.500    0.000    2.250   22.750    3.000 
#    0.000    0.000    0.000    0.000    0.000    0.000 
#    0.000    0.000    0.000    0.000    0.000    0.000 
#
# Total GULP energy -178597.187337 kJ/mol
# GULP energy per Si atom -5581.162104 kJ/mol
# Density = 2.619733 g / cm^3
# Si number density = 26.257095 Si / 1000 Ang^3
#
#
#
# Elastic Constant Matrix: (Units=GPa)
#
#
# Indices 1 2 3 4 5 6 
#
# 1 121.2443 10.9261 40.8474 0.0000 0.0000 0.0000
# 2 10.9261 80.3601 43.1280 0.0000 0.0000 0.0000
# 3 40.8474 43.1280 89.1630 0.0000 0.0000 0.0000
# 4 0.0000 0.0000 0.0000 43.8157 0.0000 0.0000
# 5 0.0000 0.0000 0.0000 0.0000 102.7970 0.0000
# 6 0.0000 0.0000 0.0000 0.0000 0.0000 24.6490
#
#
#
# Elastic Compliance Matrix: (Units=1/GPa)
#
#
# Indices 1 2 3 4 5 6 
#
# 1 0.009879 0.001466 -0.005235 0.000000 0.000000 0.000000
# 2 0.001466 0.017025 -0.008907 0.000000 0.000000 0.000000
# 3 -0.005235 -0.008907 0.017922 0.000000 0.000000 0.000000
# 4 0.000000 0.000000 0.000000 0.022823 0.000000 0.000000
# 5 0.000000 0.000000 0.000000 0.000000 0.009728 0.000000
# 6 0.000000 0.000000 0.000000 0.000000 0.000000 0.040570
#
#
# Mechanical properties :
#
#
# Convention : Reuss Voigt Hill
#
# Bulk Modulus (GPa) = 51.34759 53.39670 52.37215
# Shear Modulus (GPa) = 33.38029 47.31008 40.34518
#
# Velocity S-wave (km/s) = 3.56938 4.24937 3.92413
# Velocity P-wave (km/s) = 6.04859 6.66757 6.36561
#
# Compressibility (1/GPa) = 0.01947511
#
# Stress axis : x y z
#
# Youngs Moduli (GPa) = 101.22035 58.73841 55.79760
#
# Poissons Ratio (x) = -0.08614 0.29212
# Poissons Ratio (y) = -0.14843 0.49697
# Poissons Ratio (z) = 0.52992 0.52316
#
# Static dielectric constant tensor:
#      x y z
#    x 2.143700 0.000000 0.000000 
#    y 0.000000 2.039170 0.000000 
#    z 0.000000 0.000000 2.094510 
# 
# From -- ./inp_files/4117.got.cif
#   From: 2010.05.17/outbox.cif.g08.bks.cpg/sg29_3_cif.got.tgz:4117.got - 2010.06.04 01:19:37.
