data_PCOD9341773
_publ_section_title
;
Structure prediction by ZEFSAII (Michael W. Deem and Ramdas Pophale) SiO2 
 PCOD9341773
Probable space group: P C A 21
;
_chemical_formula_sum "Si O2"
_cell_formula_units_Z 28
_cell_length_a 12.000000
_cell_length_b 12.000000
_cell_length_c 9.000000
_cell_angle_alpha 90.000000
_cell_angle_beta 90.000000
_cell_angle_gamma 90.000000
_cell_volume 1296.000000
_symmetry_space_group_name_H-M "P C A 21"
_symmetry_group_IT_number 29
_symmetry_cell_setting 'orthorhombic'
loop_
_space_group_symop_operation_xyz
x,y,z
-x,-y,1/2+z
1/2-x,y,1/2+z
1/2+x,-y,z
loop_
_atom_site_type_symbol
_atom_site_label
_atom_site_fract_x
_atom_site_fract_y
_atom_site_fract_z
Si Si1 0.411059 0.831814 0.174690
Si Si2 0.488462 0.915104 0.647103
Si Si3 0.310143 0.136161 0.928863
Si Si4 0.286678 0.291400 0.669197
Si Si5 0.224786 0.902128 0.946833
Si Si6 0.011674 0.413505 0.079464
Si Si7 0.033449 0.346985 0.741441
O O1 0.331733 0.828058 0.319855
O O2 0.459224 0.704339 0.149370
O O3 0.480293 0.953782 0.199307
O O4 0.334195 0.855924 0.029255
O O5 0.584013 0.895724 0.525627
O O6 0.367931 0.922817 0.573005
O O7 0.490012 0.786153 0.723220
O O8 0.341493 0.220773 0.800620
O O9 0.253759 0.022501 0.875413
O O10 0.226595 0.204459 0.034508
O O11 0.358825 0.395244 0.619912
O O12 0.165303 0.326852 0.724005
O O13 0.985581 0.541962 0.132791
O O14 0.998117 0.393472 0.902841
#
# Coordination Sequence:
#
# PCOD9341773 Si02
#       7
#     4   4   4   4   4   4   4
#     4  11  27  43  73 106 144 191 236 297 363 422
#     4  10  24  42  73 100 143 184 241 296 353 420
#     4  10  20  39  68 104 135 184 238 282 351 421
#     4  11  22  44  71  97 139 185 239 287 340 431
#     4  11  23  42  66 108 145 184 233 298 364 415
#     4  12  28  49  73 105 145 185 242 294 356 426
#     4  11  28  47  72 106 137 191 237 290 359 419
#
# _framework density 21.604938000000001
#
# number of rings (size 3 to 8) (size 9 to 14) (size 15 to 20)
#    0.000    1.143    1.429    4.286   10.000    2.286 
#    0.000    0.000    0.000    0.000    0.000    0.000 
#    0.000    0.000    0.000    0.000    0.000    0.000 
#
# Total GULP energy -155898.251844 kJ/mol
# GULP energy per Si atom -5567.794709 kJ/mol
# Density = 2.155576 g / cm^3
# Si number density = 21.604938 Si / 1000 Ang^3
#
#
#
# Elastic Constant Matrix: (Units=GPa)
#
#
# Indices 1 2 3 4 5 6 
#
# 1 41.6006 20.9700 -5.2067 0.0000 0.0000 0.0000
# 2 20.9700 130.3696 32.2753 0.0000 0.0000 0.0000
# 3 -5.2067 32.2753 89.7238 0.0000 0.0000 0.0000
# 4 0.0000 0.0000 0.0000 51.4811 0.0000 0.0000
# 5 0.0000 0.0000 0.0000 0.0000 28.9429 0.0000
# 6 0.0000 0.0000 0.0000 0.0000 0.0000 38.6120
#
#
#
# Elastic Compliance Matrix: (Units=1/GPa)
#
#
# Indices 1 2 3 4 5 6 
#
# 1 0.027097 -0.005212 0.003447 0.000000 0.000000 0.000000
# 2 -0.005212 0.009423 -0.003692 0.000000 0.000000 0.000000
# 3 0.003447 -0.003692 0.012673 0.000000 0.000000 0.000000
# 4 0.000000 0.000000 0.000000 0.019425 0.000000 0.000000
# 5 0.000000 0.000000 0.000000 0.000000 0.034551 0.000000
# 6 0.000000 0.000000 0.000000 0.000000 0.000000 0.025899
#
#
# Mechanical properties :
#
#
# Convention : Reuss Voigt Hill
#
# Bulk Modulus (GPa) = 26.12349 39.75234 32.93792
# Shear Modulus (GPa) = 32.73523 38.05089 35.39306
#
# Velocity S-wave (km/s) = 3.89675 4.20123 4.05185
# Velocity P-wave (km/s) = 5.68892 6.47869 6.09661
#
# Compressibility (1/GPa) = 0.03827973
#
# Stress axis : x y z
#
# Youngs Moduli (GPa) = 36.90465 106.12465 78.90506
#
# Poissons Ratio (x) = 0.55312 -0.27201
# Poissons Ratio (y) = 0.19235 0.29132
# Poissons Ratio (z) = -0.12722 0.39182
#
# Static dielectric constant tensor:
#      x y z
#    x 1.833070 0.000000 0.000000 
#    y 0.000000 1.800120 0.000000 
#    z 0.000000 0.000000 1.854190 
# 
# From -- ./inp_files/1472.got.cif
#   From: 2010.05.17/outbox.ucp.g08.bks.cvg/sg29_1_cif.got.tgz:1472.got - 2010.06.11 15:24:14.
