data_PCOD9341138
_publ_section_title
;
Structure prediction by ZEFSAII (Michael W. Deem and Ramdas Pophale) SiO2 
 PCOD9341138
Probable space group: P C A 21
;
_chemical_formula_sum "Si O2"
_cell_formula_units_Z 28
_cell_length_a 9.907110
_cell_length_b 9.719188
_cell_length_c 10.989967
_cell_angle_alpha 90.000000
_cell_angle_beta 90.000000
_cell_angle_gamma 90.000000
_cell_volume 1058.213643
_symmetry_space_group_name_H-M "P C A 21"
_symmetry_group_IT_number 29
_symmetry_cell_setting 'orthorhombic'
loop_
_space_group_symop_operation_xyz
x,y,z
-x,-y,1/2+z
1/2-x,y,1/2+z
1/2+x,-y,z
loop_
_atom_site_type_symbol
_atom_site_label
_atom_site_fract_x
_atom_site_fract_y
_atom_site_fract_z
Si Si1 0.993072 0.733942 0.483550
Si Si2 0.617589 0.402667 0.710144
Si Si3 0.962873 0.220149 0.570695
Si Si4 0.290867 0.154458 0.894971
Si Si5 0.457443 0.062425 0.692255
Si Si6 0.194905 0.858751 0.849988
Si Si7 0.101674 0.574112 0.269799
O O1 0.844786 0.759247 0.423730
O O2 0.004019 0.869546 0.566572
O O3 0.037461 0.620949 0.584955
O O4 0.092423 0.691956 0.374054
O O5 0.686887 0.256386 0.744100
O O6 0.754776 0.488350 0.729873
O O7 0.504613 0.455124 0.804124
O O8 0.101562 0.195492 0.498302
O O9 0.850276 0.225923 0.467662
O O10 0.965759 0.352020 0.654410
O O11 0.919574 0.090615 0.654437
O O12 0.347771 0.163175 0.755986
O O13 0.282712 0.986471 0.896739
O O14 0.570744 0.049475 0.794715
#
# Coordination Sequence:
#
# PCOD9341138 Si02
#       7
#     4   4   4   4   4   4   4
#     4  11  27  49  80 116 156 207 270 343 414 489
#     4  11  30  51  80 110 160 214 279 335 401 489
#     4  11  25  41  76 116 158 207 266 329 408 489
#     4  11  24  44  80 116 164 209 266 336 423 488
#     4  10  23  43  68 120 161 202 251 332 409 495
#     4  10  23  43  71 110 157 203 257 329 404 478
#     4  12  30  51  81 110 156 216 273 336 405 486
#
# _framework density 26.459686000000001
#
# number of rings (size 3 to 8) (size 9 to 14) (size 15 to 20)
#    0.000    1.143    1.429    1.714   14.000    3.429 
#    0.000    0.000    0.000    0.000    0.000    0.000 
#    0.000    0.000    0.000    0.000    0.000    0.000 
#
# Total GULP energy -156180.651178 kJ/mol
# GULP energy per Si atom -5577.880399 kJ/mol
# Density = 2.639946 g / cm^3
# Si number density = 26.459686 Si / 1000 Ang^3
#
#
#
# Elastic Constant Matrix: (Units=GPa)
#
#
# Indices 1 2 3 4 5 6 
#
# 1 136.6037 16.2838 36.3273 0.0000 0.0000 0.0000
# 2 16.2838 86.0168 26.0328 0.0000 0.0000 0.0000
# 3 36.3273 26.0328 118.5639 0.0000 0.0000 0.0000
# 4 0.0000 0.0000 0.0000 37.3333 0.0000 0.0000
# 5 0.0000 0.0000 0.0000 0.0000 37.5494 0.0000
# 6 0.0000 0.0000 0.0000 0.0000 0.0000 -58.8873
#
#
#
# Elastic Compliance Matrix: (Units=1/GPa)
#
#
# Indices 1 2 3 4 5 6 
#
# 1 0.008025 -0.000830 -0.002276 0.000000 0.000000 0.000000
# 2 -0.000830 0.012539 -0.002499 0.000000 0.000000 0.000000
# 3 -0.002276 -0.002499 0.009680 0.000000 0.000000 0.000000
# 4 0.000000 0.000000 0.000000 0.026786 0.000000 0.000000
# 5 0.000000 0.000000 0.000000 0.000000 0.026632 0.000000
# 6 0.000000 0.000000 0.000000 0.000000 0.000000 -0.016982
#
#
# Mechanical properties :
#
#
# Convention : Reuss Voigt Hill
#
# Bulk Modulus (GPa) = 52.53941 55.38581 53.96261
# Shear Modulus (GPa) = 59.35750 20.70180 40.02965
#
# Velocity S-wave (km/s) = 4.74151 2.80016 3.89376
# Velocity P-wave (km/s) = 7.06225 5.60643 6.37603
#
# Compressibility (1/GPa) = 0.01903333
#
# Stress axis : x y z
#
# Youngs Moduli (GPa) = 124.61380 79.75075 103.30122
#
# Poissons Ratio (x) = 0.06621 0.23516
# Poissons Ratio (y) = 0.10345 0.25813
# Poissons Ratio (z) = 0.28368 0.19928
#
# Static dielectric constant tensor:
#      x y z
#    x 2.357240 0.000000 0.000000 
#    y 0.000000 2.224820 0.000000 
#    z 0.000000 0.000000 2.026030 
# 
# From -- ./inp_files/3163.got.cif
#   From: 2010.05.17/outbox.cif.g08.bks.cpg/sg29_2_cif.got.tgz:3163.got - 2010.06.04 01:19:37.
