data_PCOD9341654
_publ_section_title
;
Structure prediction by ZEFSAII (Michael W. Deem and Ramdas Pophale) SiO2 
 PCOD9341654
Probable space group: P C A 21
;
_chemical_formula_sum "Si O2"
_cell_formula_units_Z 20
_cell_length_a 10.253480
_cell_length_b 8.817416
_cell_length_c 9.431705
_cell_angle_alpha 90.000000
_cell_angle_beta 90.000000
_cell_angle_gamma 90.000000
_cell_volume 852.712891
_symmetry_space_group_name_H-M "P C A 21"
_symmetry_group_IT_number 29
_symmetry_cell_setting 'orthorhombic'
loop_
_space_group_symop_operation_xyz
x,y,z
-x,-y,1/2+z
1/2-x,y,1/2+z
1/2+x,-y,z
loop_
_atom_site_type_symbol
_atom_site_label
_atom_site_fract_x
_atom_site_fract_y
_atom_site_fract_z
Si Si1 0.130423 0.726189 0.790400
Si Si2 0.487563 0.828023 0.826251
Si Si3 0.586688 0.717933 0.098473
Si Si4 0.758990 0.957926 0.743989
Si Si5 0.159205 0.620503 0.102126
O O1 0.212221 0.607119 0.698843
O O2 0.980131 0.704708 0.753335
O O3 0.182199 0.884226 0.725510
O O4 0.162272 0.714922 0.955875
O O5 0.641558 0.860927 0.811266
O O6 0.441171 0.708372 0.707034
O O7 0.393136 0.975120 0.813104
O O8 0.478365 0.763982 0.983971
O O9 0.690876 0.852726 0.116137
O O10 0.629764 0.550816 0.057904
#
# Coordination Sequence:
#
# PCOD9341654 Si02
#       5
#     4   4   4   4   4
#     4  11  25  49  72 108 151 199 254 322 378 462
#     4  11  27  49  74 113 150 199 258 318 386 457
#     4  12  27  45  80 106 152 201 259 313 393 458
#     4  11  26  45  75 107 149 196 256 310 383 457
#     4  11  27  48  75 108 156 195 257 317 394 458
#
# _framework density 23.454553000000001
#
# number of rings (size 3 to 8) (size 9 to 14) (size 15 to 20)
#    0.000    0.800    2.000    3.600   14.000    1.600 
#    0.000    0.000    0.000    0.000    0.000    0.000 
#    0.000    0.000    0.000    0.000    0.000    0.000 
#
# Total GULP energy -111514.440041 kJ/mol
# GULP energy per Si atom -5575.722002 kJ/mol
# Density = 2.340117 g / cm^3
# Si number density = 23.454553 Si / 1000 Ang^3
#
#
#
# Elastic Constant Matrix: (Units=GPa)
#
#
# Indices 1 2 3 4 5 6 
#
# 1 53.4534 25.8412 30.2670 0.0000 0.0000 0.0000
# 2 25.8412 118.8172 36.1088 0.0000 0.0000 0.0000
# 3 30.2670 36.1088 113.5119 0.0000 0.0000 0.0000
# 4 0.0000 0.0000 0.0000 11.3334 0.0000 0.0000
# 5 0.0000 0.0000 0.0000 0.0000 30.6906 0.0000
# 6 0.0000 0.0000 0.0000 0.0000 0.0000 23.7488
#
#
#
# Elastic Compliance Matrix: (Units=1/GPa)
#
#
# Indices 1 2 3 4 5 6 
#
# 1 0.023292 -0.003518 -0.005091 0.000000 0.000000 0.000000
# 2 -0.003518 0.009848 -0.002195 0.000000 0.000000 0.000000
# 3 -0.005091 -0.002195 0.010865 0.000000 0.000000 0.000000
# 4 0.000000 0.000000 0.000000 0.088235 0.000000 0.000000
# 5 0.000000 0.000000 0.000000 0.000000 0.032583 0.000000
# 6 0.000000 0.000000 0.000000 0.000000 0.000000 0.042107
#
#
# Mechanical properties :
#
#
# Convention : Reuss Voigt Hill
#
# Bulk Modulus (GPa) = 44.64945 52.24628 48.44787
# Shear Modulus (GPa) = 21.18597 26.05892 23.62245
#
# Velocity S-wave (km/s) = 3.00872 3.33684 3.17702
# Velocity P-wave (km/s) = 5.58102 6.09671 5.84456
#
# Compressibility (1/GPa) = 0.02239669
#
# Stress axis : x y z
#
# Youngs Moduli (GPa) = 42.93385 101.53864 92.03570
#
# Poissons Ratio (x) = 0.35725 0.46858
# Poissons Ratio (y) = 0.15106 0.20199
# Poissons Ratio (z) = 0.21859 0.22285
#
# Static dielectric constant tensor:
#      x y z
#    x 2.017410 0.000000 0.000000 
#    y 0.000000 1.970890 0.000000 
#    z 0.000000 0.000000 1.892010 
# 
# From -- ./inp_files/1339.got.cif
#   From: 2010.05.17/outbox.cif.g08.bks.cpg/sg29_1_cif.got.tgz:1339.got - 2010.06.04 01:19:37.
