data_PCOD9341397
_publ_section_title
;
Structure prediction by ZEFSAII (Michael W. Deem and Ramdas Pophale) SiO2 
 PCOD9341397
Probable space group: P C A 21
;
_chemical_formula_sum "Si O2"
_cell_formula_units_Z 24
_cell_length_a 17.363175
_cell_length_b 7.837149
_cell_length_c 8.696943
_cell_angle_alpha 90.000000
_cell_angle_beta 90.000000
_cell_angle_gamma 90.000000
_cell_volume 1183.460780
_symmetry_space_group_name_H-M "P C A 21"
_symmetry_group_IT_number 29
_symmetry_cell_setting 'orthorhombic'
loop_
_space_group_symop_operation_xyz
x,y,z
-x,-y,1/2+z
1/2-x,y,1/2+z
1/2+x,-y,z
loop_
_atom_site_type_symbol
_atom_site_label
_atom_site_fract_x
_atom_site_fract_y
_atom_site_fract_z
Si Si1 0.360697 0.760607 0.133700
Si Si2 0.208376 0.257652 0.991109
Si Si3 0.241611 0.631012 0.368492
Si Si4 0.606228 0.533051 0.194606
Si Si5 0.040377 0.439732 0.531187
Si Si6 0.357549 0.140411 0.169902
O O1 0.315680 0.709408 0.288132
O O2 0.422707 0.617329 0.090952
O O3 0.390524 0.952008 0.145975
O O4 0.296882 0.745284 0.998895
O O5 0.238326 0.443976 0.935113
O O6 0.170468 0.168581 0.844524
O O7 0.145646 0.300560 0.121463
O O8 0.281368 0.164076 0.064594
O O9 0.175098 0.592958 0.243349
O O10 0.548965 0.449027 0.072384
O O11 0.559954 0.572424 0.351084
O O12 0.083177 0.287274 0.620072
#
# Coordination Sequence:
#
# PCOD9341397 Si02
#       6
#     4   4   4   4   4   4
#     4  11  23  38  63  93 127 165 210 262 313 370
#     4  12  19  40  67  91 122 166 217 260 315 367
#     4  11  19  40  65  91 121 163 215 261 307 368
#     4  11  22  39  70  90 124 177 203 260 326 372
#     4  11  23  42  61  92 132 165 212 256 319 392
#     4  12  22  39  64  93 128 166 213 261 314 379
#
# _framework density 20.279506999999999
#
# number of rings (size 3 to 8) (size 9 to 14) (size 15 to 20)
#    0.000    0.667    8.333    2.000    0.000    0.000 
#    0.000    6.667    0.000    0.000    0.000    0.000 
#    0.000    0.000    0.000    0.000    0.000    0.000 
#
# Total GULP energy -134201.714527 kJ/mol
# GULP energy per Si atom -5591.738105 kJ/mol
# Density = 2.023335 g / cm^3
# Si number density = 20.279507 Si / 1000 Ang^3
#
#
#
# Elastic Constant Matrix: (Units=GPa)
#
#
# Indices 1 2 3 4 5 6 
#
# 1 51.2265 13.0027 20.5495 0.0000 0.0000 0.0000
# 2 13.0027 122.9557 24.7640 0.0000 0.0000 0.0000
# 3 20.5495 24.7640 31.4142 0.0000 0.0000 0.0000
# 4 0.0000 0.0000 0.0000 20.1814 0.0000 0.0000
# 5 0.0000 0.0000 0.0000 0.0000 46.0746 0.0000
# 6 0.0000 0.0000 0.0000 0.0000 0.0000 1.1068
#
#
#
# Elastic Compliance Matrix: (Units=1/GPa)
#
#
# Indices 1 2 3 4 5 6 
#
# 1 0.026536 0.000820 -0.018005 0.000000 0.000000 0.000000
# 2 0.000820 0.009693 -0.008178 0.000000 0.000000 0.000000
# 3 -0.018005 -0.008178 0.050057 0.000000 0.000000 0.000000
# 4 0.000000 0.000000 0.000000 0.049551 0.000000 0.000000
# 5 0.000000 0.000000 0.000000 0.000000 0.021704 0.000000
# 6 0.000000 0.000000 0.000000 0.000000 0.000000 0.903537
#
#
# Mechanical properties :
#
#
# Convention : Reuss Voigt Hill
#
# Bulk Modulus (GPa) = 28.12046 35.80319 31.96182
# Shear Modulus (GPa) = 4.44976 23.29124 13.87050
#
# Velocity S-wave (km/s) = 1.48290 3.39265 2.61811
# Velocity P-wave (km/s) = 4.10226 5.74804 4.99342
#
# Compressibility (1/GPa) = 0.03556130
#
# Stress axis : x y z
#
# Youngs Moduli (GPa) = 37.68534 103.16359 19.97721
#
# Poissons Ratio (x) = -0.08460 0.35968
# Poissons Ratio (y) = -0.03090 0.16337
# Poissons Ratio (z) = 0.67851 0.84365
#
# Static dielectric constant tensor:
#      x y z
#    x 1.709730 0.000000 0.000000 
#    y 0.000000 1.697250 0.000000 
#    z 0.000000 0.000000 1.750740 
# 
# From -- ./inp_files/2029.got.cif
#   From: 2010.05.17/outbox.cif.g08.bks.cpg/sg29_2_cif.got.tgz:2029.got - 2010.06.04 01:19:37.
