data_PCOD9341130
_publ_section_title
;
Structure prediction by ZEFSAII (Michael W. Deem and Ramdas Pophale) SiO2 
 PCOD9341130
Probable space group: P C A 21
;
_chemical_formula_sum "Si O2"
_cell_formula_units_Z 32
_cell_length_a 5.056427
_cell_length_b 17.162563
_cell_length_c 15.199012
_cell_angle_alpha 90.000000
_cell_angle_beta 90.000000
_cell_angle_gamma 90.000000
_cell_volume 1318.989214
_symmetry_space_group_name_H-M "P C A 21"
_symmetry_group_IT_number 29
_symmetry_cell_setting 'orthorhombic'
loop_
_space_group_symop_operation_xyz
x,y,z
-x,-y,1/2+z
1/2-x,y,1/2+z
1/2+x,-y,z
loop_
_atom_site_type_symbol
_atom_site_label
_atom_site_fract_x
_atom_site_fract_y
_atom_site_fract_z
Si Si1 0.530997 0.180593 0.673800
Si Si2 0.249562 0.338636 0.462629
Si Si3 0.309030 0.052301 0.887815
Si Si4 0.769234 0.680252 0.261798
Si Si5 0.576540 0.171946 0.316145
Si Si6 0.315647 0.052293 0.096133
Si Si7 0.401933 0.449408 0.118022
Si Si8 0.741552 0.237231 0.993323
O O1 0.441232 0.263279 0.714470
O O2 0.724215 0.140952 0.743767
O O3 0.280731 0.127721 0.648279
O O4 0.686956 0.195968 0.583653
O O5 0.196057 0.351392 0.358870
O O6 0.170474 0.409660 0.525004
O O7 0.547384 0.308068 0.479696
O O8 0.053605 0.269347 0.491947
O O9 0.191992 0.125370 0.835596
O O10 0.091635 0.985045 0.869553
O O11 0.299476 0.070245 0.991957
O O12 0.845089 0.612795 0.194703
O O13 0.001204 0.741535 0.283679
O O14 0.716442 0.180989 0.410504
O O15 0.597936 0.014639 0.114175
O O16 0.701835 0.478098 0.125750
#
# Coordination Sequence:
#
# PCOD9341130 Si02
#       8
#     4   4   4   4   4   4   4   4
#     4  12  24  43  73 102 139 187 245 293 360 412
#     4  11  24  46  72 102 145 177 237 280 354 414
#     4  10  23  43  65  95 142 193 241 298 361 419
#     4  11  27  46  74 111 142 184 240 301 343 428
#     4  11  25  43  70 109 137 191 246 295 361 417
#     4  10  24  43  65  97 140 189 237 294 359 418
#     4  12  28  48  76 107 146 190 224 280 360 432
#     4  11  23  42  71 101 139 183 232 299 342 420
#
# _framework density 24.261002999999999
#
# number of rings (size 3 to 8) (size 9 to 14) (size 15 to 20)
#    0.000    1.000    3.750    1.500    5.250    2.000 
#    0.000    0.000    0.000    0.000    0.000    0.000 
#    0.000    0.000    0.000    0.000    0.000    0.000 
#
# Total GULP energy -179516.251308 kJ/mol
# GULP energy per Si atom -5609.882853 kJ/mol
# Density = 2.420578 g / cm^3
# Si number density = 24.261003 Si / 1000 Ang^3
#
#
#
# Elastic Constant Matrix: (Units=GPa)
#
#
# Indices 1 2 3 4 5 6 
#
# 1 54.7068 -1.0409 15.9957 0.0000 0.0000 0.0000
# 2 -1.0409 76.0691 51.2911 0.0000 0.0000 0.0000
# 3 15.9957 51.2911 175.8577 0.0000 0.0000 0.0000
# 4 0.0000 0.0000 0.0000 38.3192 0.0000 0.0000
# 5 0.0000 0.0000 0.0000 0.0000 32.5827 0.0000
# 6 0.0000 0.0000 0.0000 0.0000 0.0000 40.7148
#
#
#
# Elastic Compliance Matrix: (Units=1/GPa)
#
#
# Indices 1 2 3 4 5 6 
#
# 1 0.018968 0.001771 -0.002242 0.000000 0.000000 0.000000
# 2 0.001771 0.016530 -0.004982 0.000000 0.000000 0.000000
# 3 -0.002242 -0.004982 0.007343 0.000000 0.000000 0.000000
# 4 0.000000 0.000000 0.000000 0.026097 0.000000 0.000000
# 5 0.000000 0.000000 0.000000 0.000000 0.030691 0.000000
# 6 0.000000 0.000000 0.000000 0.000000 0.000000 0.024561
#
#
# Mechanical properties :
#
#
# Convention : Reuss Voigt Hill
#
# Bulk Modulus (GPa) = 31.31291 48.79172 40.05232
# Shear Modulus (GPa) = 34.30740 38.34919 36.32829
#
# Velocity S-wave (km/s) = 3.76453 3.98011 3.87382
# Velocity P-wave (km/s) = 5.64183 6.42468 6.04594
#
# Compressibility (1/GPa) = 0.03193571
#
# Stress axis : x y z
#
# Youngs Moduli (GPa) = 52.71902 60.49789 136.17581
#
# Poissons Ratio (x) = -0.10716 0.30530
# Poissons Ratio (y) = -0.09338 0.67845
# Poissons Ratio (z) = 0.11819 0.30141
#
# Static dielectric constant tensor:
#      x y z
#    x 1.935590 0.000000 0.000000 
#    y 0.000000 1.915500 0.000000 
#    z 0.000000 0.000000 1.930620 
# 
# From -- ./inp_files/4139.got.cif
#   From: 2010.05.17/outbox.cif.g08.bks.cpg/sg29_3_cif.got.tgz:4139.got - 2010.06.04 01:19:37.
