data_PCOD9341495
_publ_section_title
;
Structure prediction by ZEFSAII (Michael W. Deem and Ramdas Pophale) SiO2 
 PCOD9341495
Probable space group: P C A 21
;
_chemical_formula_sum "Si O2"
_cell_formula_units_Z 32
_cell_length_a 14.677897
_cell_length_b 10.326913
_cell_length_c 8.793801
_cell_angle_alpha 90.000000
_cell_angle_beta 90.000000
_cell_angle_gamma 90.000000
_cell_volume 1332.941187
_symmetry_space_group_name_H-M "P C A 21"
_symmetry_group_IT_number 29
_symmetry_cell_setting 'orthorhombic'
loop_
_space_group_symop_operation_xyz
x,y,z
-x,-y,1/2+z
1/2-x,y,1/2+z
1/2+x,-y,z
loop_
_atom_site_type_symbol
_atom_site_label
_atom_site_fract_x
_atom_site_fract_y
_atom_site_fract_z
Si Si1 0.276163 0.787869 0.939300
Si Si2 0.941636 0.645019 0.890536
Si Si3 0.290961 0.301715 0.110542
Si Si4 0.255504 0.604672 0.675052
Si Si5 0.929252 0.490666 0.580334
Si Si6 0.546582 0.081697 0.499583
Si Si7 0.621192 0.736825 0.926131
Si Si8 0.421739 0.871142 0.347699
O O1 0.270151 0.653563 0.844582
O O2 0.180720 0.862092 0.914049
O O3 0.299777 0.723328 0.102364
O O4 0.361415 0.881838 0.907545
O O5 0.924203 0.562856 0.740640
O O6 0.027149 0.733498 0.848574
O O7 0.852459 0.711210 0.958748
O O8 0.973237 0.559797 0.034534
O O9 0.273608 0.456196 0.147163
O O10 0.338397 0.240844 0.258642
O O11 0.195727 0.238163 0.058335
O O12 0.354914 0.619818 0.598375
O O13 0.898555 0.584322 0.444945
O O14 0.472822 0.194071 0.465034
O O15 0.572365 0.072700 0.677035
O O16 0.490268 0.956677 0.449228
#
# Coordination Sequence:
#
# PCOD9341495 Si02
#       8
#     4   4   4   4   4   4   4   4
#     4  12  26  49  76 108 148 196 253 322 371 461
#     4  12  25  42  73 111 156 199 257 313 392 466
#     4  11  25  43  72 116 159 206 246 317 391 473
#     4  11  23  42  71 108 154 195 246 304 388 457
#     4  11  23  39  69 109 151 195 242 320 382 469
#     4  12  31  53  81 107 154 205 268 321 384 453
#     4  11  25  47  71 110 152 203 254 312 387 456
#     4  12  30  53  77 113 148 207 266 323 383 455
#
# _framework density 24.007062999999999
#
# number of rings (size 3 to 8) (size 9 to 14) (size 15 to 20)
#    0.000    0.500    3.750    4.500   10.500    1.000 
#    0.000    0.000    0.000    0.000    0.000    0.000 
#    0.000    0.000    0.000    0.000    0.000    0.000 
#
# Total GULP energy -178809.193546 kJ/mol
# GULP energy per Si atom -5587.787298 kJ/mol
# Density = 2.395242 g / cm^3
# Si number density = 24.007063 Si / 1000 Ang^3
#
#
#
# Elastic Constant Matrix: (Units=GPa)
#
#
# Indices 1 2 3 4 5 6 
#
# 1 160.1365 31.6652 31.8152 0.0000 0.0000 0.0000
# 2 31.6652 33.7351 20.7445 0.0000 0.0000 0.0000
# 3 31.8152 20.7445 97.1471 0.0000 0.0000 0.0000
# 4 0.0000 0.0000 0.0000 28.0351 0.0000 0.0000
# 5 0.0000 0.0000 0.0000 0.0000 38.2982 0.0000
# 6 0.0000 0.0000 0.0000 0.0000 0.0000 36.7908
#
#
#
# Elastic Compliance Matrix: (Units=1/GPa)
#
#
# Indices 1 2 3 4 5 6 
#
# 1 0.007776 -0.006599 -0.001137 0.000000 0.000000 0.000000
# 2 -0.006599 0.039724 -0.006321 0.000000 0.000000 0.000000
# 3 -0.001137 -0.006321 0.012016 0.000000 0.000000 0.000000
# 4 0.000000 0.000000 0.000000 0.035670 0.000000 0.000000
# 5 0.000000 0.000000 0.000000 0.000000 0.026111 0.000000
# 6 0.000000 0.000000 0.000000 0.000000 0.000000 0.027181
#
#
# Mechanical properties :
#
#
# Convention : Reuss Voigt Hill
#
# Bulk Modulus (GPa) = 31.84710 51.05204 41.44957
# Shear Modulus (GPa) = 26.72953 34.41107 30.57030
#
# Velocity S-wave (km/s) = 3.34039 3.79010 3.57233
# Velocity P-wave (km/s) = 5.30774 6.36119 5.85819
#
# Compressibility (1/GPa) = 0.03140004
#
# Stress axis : x y z
#
# Youngs Moduli (GPa) = 128.60879 25.17362 83.22246
#
# Poissons Ratio (x) = 0.16612 0.09465
# Poissons Ratio (y) = 0.84870 0.52608
# Poissons Ratio (z) = 0.14627 0.15913
#
# Static dielectric constant tensor:
#      x y z
#    x 1.963560 0.000000 0.000000 
#    y 0.000000 1.975770 0.000000 
#    z 0.000000 0.000000 1.994720 
# 
# From -- ./inp_files/1903.got.cif
#   From: 2010.05.17/outbox.cif.g08.bks.cpg/sg29_1_cif.got.tgz:1903.got - 2010.06.04 01:19:37.
