data_PCOD9341709
_publ_section_title
;
Structure prediction by ZEFSAII (Michael W. Deem and Ramdas Pophale) SiO2 
 PCOD9341709
Probable space group: P C A 21
;
_chemical_formula_sum "Si O2"
_cell_formula_units_Z 20
_cell_length_a 9.077440
_cell_length_b 10.946071
_cell_length_c 7.634131
_cell_angle_alpha 90.000000
_cell_angle_beta 90.000000
_cell_angle_gamma 90.000000
_cell_volume 758.544836
_symmetry_space_group_name_H-M "P C A 21"
_symmetry_group_IT_number 29
_symmetry_cell_setting 'orthorhombic'
loop_
_space_group_symop_operation_xyz
x,y,z
-x,-y,1/2+z
1/2-x,y,1/2+z
1/2+x,-y,z
loop_
_atom_site_type_symbol
_atom_site_label
_atom_site_fract_x
_atom_site_fract_y
_atom_site_fract_z
Si Si1 0.099023 0.557802 0.990920
Si Si2 0.198118 0.397131 0.309160
Si Si3 0.152755 0.767822 0.451280
Si Si4 0.432215 0.167037 0.738758
Si Si5 0.909234 0.104088 0.595156
O O1 0.145050 0.445743 0.866158
O O2 0.932015 0.597727 0.956532
O O3 0.135701 0.496284 0.174111
O O4 0.223477 0.661326 0.951600
O O5 0.206060 0.257275 0.247615
O O6 0.087447 0.804178 0.262531
O O7 0.247566 0.885054 0.510407
O O8 0.040896 0.753429 0.612680
O O9 0.424832 0.034958 0.653032
O O10 0.485923 0.141244 0.935783
#
# Coordination Sequence:
#
# PCOD9341709 Si02
#       5
#     4   4   4   4   4
#     4  12  26  49  78 111 153 198 257 312 390 463
#     4  12  26  48  75 111 151 200 247 321 382 455
#     4  12  24  47  76 105 149 210 249 318 396 463
#     4  12  26  46  72 112 150 196 259 320 379 462
#     4  12  24  44  75 103 145 198 258 307 383 463
#
# _framework density 26.366271000000001
#
# number of rings (size 3 to 8) (size 9 to 14) (size 15 to 20)
#    0.000    0.000    6.000    4.800    0.000    1.600 
#    3.600    0.000    0.000    0.000    0.000    0.000 
#    0.000    0.000    0.000    0.000    0.000    0.000 
#
# Total GULP energy -111974.452835 kJ/mol
# GULP energy per Si atom -5598.722642 kJ/mol
# Density = 2.630626 g / cm^3
# Si number density = 26.366271 Si / 1000 Ang^3
#
#
#
# Elastic Constant Matrix: (Units=GPa)
#
#
# Indices 1 2 3 4 5 6 
#
# 1 51.4645 33.9592 24.1733 0.0000 0.0000 0.0000
# 2 33.9592 128.7992 39.4490 0.0000 0.0000 0.0000
# 3 24.1733 39.4490 163.0774 0.0000 0.0000 0.0000
# 4 0.0000 0.0000 0.0000 35.3563 0.0000 0.0000
# 5 0.0000 0.0000 0.0000 0.0000 30.7701 0.0000
# 6 0.0000 0.0000 0.0000 0.0000 0.0000 38.4177
#
#
#
# Elastic Compliance Matrix: (Units=1/GPa)
#
#
# Indices 1 2 3 4 5 6 
#
# 1 0.024240 -0.005714 -0.002211 0.000000 0.000000 0.000000
# 2 -0.005714 0.009732 -0.001507 0.000000 0.000000 0.000000
# 3 -0.002211 -0.001507 0.006824 0.000000 0.000000 0.000000
# 4 0.000000 0.000000 0.000000 0.028284 0.000000 0.000000
# 5 0.000000 0.000000 0.000000 0.000000 0.032499 0.000000
# 6 0.000000 0.000000 0.000000 0.000000 0.000000 0.026030
#
#
# Mechanical properties :
#
#
# Convention : Reuss Voigt Hill
#
# Bulk Modulus (GPa) = 45.59504 59.83377 52.71441
# Shear Modulus (GPa) = 32.51326 37.29279 34.90302
#
# Velocity S-wave (km/s) = 3.51542 3.76495 3.64232
# Velocity P-wave (km/s) = 5.81447 6.45309 6.14208
#
# Compressibility (1/GPa) = 0.02193221
#
# Stress axis : x y z
#
# Youngs Moduli (GPa) = 41.25465 102.75176 146.53308
#
# Poissons Ratio (x) = 0.58711 0.32397
# Poissons Ratio (y) = 0.23572 0.22087
# Poissons Ratio (z) = 0.09121 0.15487
#
# Static dielectric constant tensor:
#      x y z
#    x 2.037620 0.000000 0.000000 
#    y 0.000000 2.075590 0.000000 
#    z 0.000000 0.000000 2.179810 
# 
# From -- ./inp_files/1074.got.cif
#   From: 2010.05.17/outbox.cif.g08.bks.cpg/sg29_1_cif.got.tgz:1074.got - 2010.06.04 01:19:37.
