data_PCOD9341220
_publ_section_title
;
Structure prediction by ZEFSAII (Michael W. Deem and Ramdas Pophale) SiO2 
 PCOD9341220
Probable space group: P C A 21
;
_chemical_formula_sum "Si O2"
_cell_formula_units_Z 20
_cell_length_a 8.864883
_cell_length_b 5.257959
_cell_length_c 17.860749
_cell_angle_alpha 90.000000
_cell_angle_beta 90.000000
_cell_angle_gamma 90.000000
_cell_volume 832.510789
_symmetry_space_group_name_H-M "P C A 21"
_symmetry_group_IT_number 29
_symmetry_cell_setting 'orthorhombic'
loop_
_space_group_symop_operation_xyz
x,y,z
-x,-y,1/2+z
1/2-x,y,1/2+z
1/2+x,-y,z
loop_
_atom_site_type_symbol
_atom_site_label
_atom_site_fract_x
_atom_site_fract_y
_atom_site_fract_z
Si Si1 0.325163 0.743560 0.825510
Si Si2 0.858472 0.323870 0.539113
Si Si3 0.007128 0.243895 0.378436
Si Si4 0.487348 0.158397 0.178901
Si Si5 0.703307 0.822895 0.111868
O O1 0.384378 0.482569 0.862366
O O2 0.405736 0.755729 0.744945
O O3 0.143065 0.758557 0.825306
O O4 0.397522 0.985825 0.868723
O O5 0.787735 0.597315 0.552750
O O6 0.932031 0.275556 0.459751
O O7 0.981155 0.322756 0.605095
O O8 0.760424 0.080970 0.565046
O O9 0.310426 0.189758 0.184774
O O10 0.541793 0.882363 0.149978
#
# Coordination Sequence:
#
# PCOD9341220 Si02
#       5
#     4   4   4   4   4
#     4  12  28  46  73 104 151 188 238 292 367 423
#     4  10  26  41  72  98 140 176 240 280 347 410
#     4  12  28  46  73 104 149 189 236 293 366 425
#     4  10  26  42  73  97 141 176 241 278 348 410
#     4  10  24  39  71  95 133 173 237 285 340 396
#
# _framework density 24.023710000000001
#
# number of rings (size 3 to 8) (size 9 to 14) (size 15 to 20)
#    1.200    0.000    0.000    3.600   14.000    0.000 
#    0.000    0.000    0.000    0.000    0.000    0.000 
#    0.000    0.000    0.000    0.000    0.000    0.000 
#
# Total GULP energy -111599.144256 kJ/mol
# GULP energy per Si atom -5579.957213 kJ/mol
# Density = 2.396903 g / cm^3
# Si number density = 24.023710 Si / 1000 Ang^3
#
#
#
# Elastic Constant Matrix: (Units=GPa)
#
#
# Indices 1 2 3 4 5 6 
#
# 1 75.6554 28.6166 -35.2519 0.0000 0.0000 0.0000
# 2 28.6166 144.9791 -3.6858 0.0000 0.0000 0.0000
# 3 -35.2519 -3.6858 70.6655 0.0000 0.0000 0.0000
# 4 0.0000 0.0000 0.0000 14.5827 0.0000 0.0000
# 5 0.0000 0.0000 0.0000 0.0000 36.5247 0.0000
# 6 0.0000 0.0000 0.0000 0.0000 0.0000 -0.3094
#
#
#
# Elastic Compliance Matrix: (Units=1/GPa)
#
#
# Indices 1 2 3 4 5 6 
#
# 1 0.018826 -0.003482 0.009210 0.000000 0.000000 0.000000
# 2 -0.003482 0.007551 -0.001343 0.000000 0.000000 0.000000
# 3 0.009210 -0.001343 0.018676 0.000000 0.000000 0.000000
# 4 0.000000 0.000000 0.000000 0.068574 0.000000 0.000000
# 5 0.000000 0.000000 0.000000 0.000000 0.027379 0.000000
# 6 0.000000 0.000000 0.000000 0.000000 0.000000 -3.231816
#
#
# Mechanical properties :
#
#
# Convention : Reuss Voigt Hill
#
# Bulk Modulus (GPa) = 18.57958 30.07311 24.32634
# Shear Modulus (GPa) = -1.62251 30.26767 14.32258
#
# Velocity S-wave (km/s) = -0.82271 3.55337 2.44434
# Velocity P-wave (km/s) = 2.61690 5.42038 4.25610
#
# Compressibility (1/GPa) = 0.05382254
#
# Stress axis : x y z
#
# Youngs Moduli (GPa) = 53.11721 132.43864 53.54583
#
# Poissons Ratio (x) = 0.46114 -0.49316
# Poissons Ratio (y) = 0.18495 0.07192
# Poissons Ratio (z) = -0.48921 0.17788
#
# Static dielectric constant tensor:
#      x y z
#    x 1.962770 0.000000 0.000000 
#    y 0.000000 2.563800 0.000000 
#    z 0.000000 0.000000 1.910200 
# 
# From -- ./inp_files/4925.got.cif
#   From: 2010.05.17/outbox.cif.g08.bks.cpg/sg29_3_cif.got.tgz:4925.got - 2010.06.04 01:19:37.
