data_PCOD9341218
_publ_section_title
;
Structure prediction by ZEFSAII (Michael W. Deem and Ramdas Pophale) SiO2 
 PCOD9341218
Probable space group: P C A 21
;
_chemical_formula_sum "Si O2"
_cell_formula_units_Z 28
_cell_length_a 18.190072
_cell_length_b 5.943694
_cell_length_c 9.219576
_cell_angle_alpha 90.000000
_cell_angle_beta 90.000000
_cell_angle_gamma 90.000000
_cell_volume 996.785724
_symmetry_space_group_name_H-M "P C A 21"
_symmetry_group_IT_number 29
_symmetry_cell_setting 'orthorhombic'
loop_
_space_group_symop_operation_xyz
x,y,z
-x,-y,1/2+z
1/2-x,y,1/2+z
1/2+x,-y,z
loop_
_atom_site_type_symbol
_atom_site_label
_atom_site_fract_x
_atom_site_fract_y
_atom_site_fract_z
Si Si1 0.587162 0.437905 0.859900
Si Si2 0.713578 0.394353 0.333297
Si Si3 0.707204 0.087733 0.598172
Si Si4 0.450571 0.936229 0.543911
Si Si5 0.558086 0.824463 0.329885
Si Si6 0.096757 0.270340 0.617639
Si Si7 0.817960 0.677089 0.551356
O O1 0.606495 0.221391 0.958585
O O2 0.503908 0.368286 0.818081
O O3 0.619327 0.514015 0.706486
O O4 0.604675 0.652075 0.962733
O O5 0.679826 0.221899 0.454093
O O6 0.757622 0.231869 0.224791
O O7 0.768727 0.532389 0.436785
O O8 0.676903 0.552387 0.207447
O O9 0.639411 0.949447 0.667804
O O10 0.770232 0.903099 0.560812
O O11 0.510522 0.012556 0.422195
O O12 0.509532 0.766994 0.623248
O O13 0.419032 0.075612 0.677545
O O14 0.614652 0.727156 0.447114
#
# Coordination Sequence:
#
# PCOD9341218 Si02
#       7
#     4   4   4   4   4   4   4
#     4   9  20  38  64  89 126 167 207 272 335 390
#     4  10  24  38  60  92 130 172 222 276 326 392
#     4  11  22  40  64  94 131 173 227 270 334 402
#     4   8  20  38  60  92 119 160 214 264 327 405
#     4   8  20  38  60  92 119 160 214 264 327 405
#     4   9  20  38  64  89 126 167 207 272 335 390
#     4  11  22  40  64  94 131 173 227 270 334 402
#
# _framework density 28.09029
#
# number of rings (size 3 to 8) (size 9 to 14) (size 15 to 20)
#    1.714    0.571    0.000    2.571    4.000    0.000 
#    5.143   11.429    0.000    0.000    0.000    0.000 
#    0.000    0.000    0.000    0.000    0.000    0.000 
#
# Total GULP energy -156139.761475 kJ/mol
# GULP energy per Si atom -5576.420053 kJ/mol
# Density = 2.802636 g / cm^3
# Si number density = 28.090290 Si / 1000 Ang^3
#
#
#
# Elastic Constant Matrix: (Units=GPa)
#
#
# Indices 1 2 3 4 5 6 
#
# 1 70.7225 37.0477 30.6262 0.0000 0.0000 0.0000
# 2 37.0477 88.6742 90.7051 0.0000 0.0000 0.0000
# 3 30.6262 90.7051 253.8592 0.0000 0.0000 0.0000
# 4 0.0000 0.0000 0.0000 89.1217 0.0000 0.0000
# 5 0.0000 0.0000 0.0000 0.0000 31.0105 0.0000
# 6 0.0000 0.0000 0.0000 0.0000 0.0000 50.8411
#
#
#
# Elastic Compliance Matrix: (Units=1/GPa)
#
#
# Indices 1 2 3 4 5 6 
#
# 1 0.018210 -0.008449 0.000822 0.000000 0.000000 0.000000
# 2 -0.008449 0.021693 -0.006732 0.000000 0.000000 0.000000
# 3 0.000822 -0.006732 0.006245 0.000000 0.000000 0.000000
# 4 0.000000 0.000000 0.000000 0.011221 0.000000 0.000000
# 5 0.000000 0.000000 0.000000 0.000000 0.032247 0.000000
# 6 0.000000 0.000000 0.000000 0.000000 0.000000 0.019669
#
#
# Mechanical properties :
#
#
# Convention : Reuss Voigt Hill
#
# Bulk Modulus (GPa) = 57.36917 81.11266 69.24092
# Shear Modulus (GPa) = 34.76762 51.18646 42.97704
#
# Velocity S-wave (km/s) = 3.52193 4.27337 3.91571
# Velocity P-wave (km/s) = 6.08326 7.29981 6.71913
#
# Compressibility (1/GPa) = 0.01743096
#
# Stress axis : x y z
#
# Youngs Moduli (GPa) = 54.91601 46.09796 160.11992
#
# Poissons Ratio (x) = 0.38946 -0.13160
# Poissons Ratio (y) = 0.46396 1.07788
# Poissons Ratio (z) = -0.04513 0.31032
#
# Static dielectric constant tensor:
#      x y z
#    x 2.201850 0.000000 0.000000 
#    y 0.000000 2.311760 0.000000 
#    z 0.000000 0.000000 2.175150 
# 
# From -- ./inp_files/2530.got.cif
#   From: 2010.05.17/outbox.cif.g08.bks.cpg/sg29_2_cif.got.tgz:2530.got - 2010.06.04 01:19:37.
