data_PCOD9341899
_publ_section_title
;
Structure prediction by ZEFSAII (Michael W. Deem and Ramdas Pophale) SiO2 
 PCOD9341899
Probable space group: P N C 2
;
_chemical_formula_sum "Si O2"
_cell_formula_units_Z 32
_cell_length_a 11.284387
_cell_length_b 9.535523
_cell_length_c 14.589782
_cell_angle_alpha 90.000000
_cell_angle_beta 90.000000
_cell_angle_gamma 90.000000
_cell_volume 1569.897481
_symmetry_space_group_name_H-M "P N C 2"
_symmetry_group_IT_number 30
_symmetry_cell_setting 'orthorhombic'
loop_
_space_group_symop_operation_xyz
x,y,z
-x,-y,z
-x,1/2+y,1/2+z
x,1/2-y,1/2+z
loop_
_atom_site_type_symbol
_atom_site_label
_atom_site_fract_x
_atom_site_fract_y
_atom_site_fract_z
Si Si1 0.357271 0.301045 0.148410
Si Si2 0.111188 0.422919 0.178654
Si Si3 0.184168 0.842323 0.814500
Si Si4 0.530922 0.162173 0.482497
Si Si5 0.958572 0.338452 0.684198
Si Si6 0.627610 0.489190 0.647384
Si Si7 0.557554 0.268260 0.280840
Si Si8 0.778901 0.199170 0.024932
O O1 0.242323 0.398393 0.137549
O O2 0.433468 0.289432 0.055757
O O3 0.328870 0.140884 0.178982
O O4 0.454191 0.342904 0.224449
O O5 0.126555 0.522648 0.267112
O O6 0.000000 0.500000 0.127612
O O7 0.067726 0.266205 0.198881
O O8 0.129534 0.702326 0.767564
O O9 0.321370 0.852301 0.787713
O O10 0.175857 0.830214 0.923204
O O11 0.519724 0.234084 0.383906
O O12 0.666452 0.192837 0.517776
O O13 0.500000 0.000000 0.470191
O O14 0.887947 0.280545 0.594552
O O15 0.000000 0.500000 0.677964
O O16 0.500000 0.500000 0.599869
O O17 0.597644 0.375407 0.726903
O O18 0.718187 0.433223 0.573398
#
# Coordination Sequence:
#
# PCOD9341899 Si02
#       8
#     4   4   4   4   4   4   4   4
#     4  11  22  37  65  94 131 173 216 273 329 402
#     4  10  25  42  62  94 131 175 228 282 317 380
#     4  10  23  43  68  97 134 167 220 290 343 394
#     4  11  23  36  63 103 134 167 210 269 351 408
#     4  11  23  45  71  92 128 188 233 264 336 397
#     4  10  18  37  63  95 129 167 213 257 330 423
#     4  10  21  40  65  95 136 169 206 271 349 411
#     4  11  22  42  71  96 131 176 217 280 340 410
#
# _framework density 20.383497999999999
#
# number of rings (size 3 to 8) (size 9 to 14) (size 15 to 20)
#    0.000    1.500    3.750    1.875    5.250    2.500 
#    0.000    4.375    0.000    0.000    0.000    0.000 
#    0.000    0.000    0.000    0.000    0.000    0.000 
#
# Total GULP energy -178257.712435 kJ/mol
# GULP energy per Si atom -5570.553514 kJ/mol
# Density = 2.033710 g / cm^3
# Si number density = 20.383498 Si / 1000 Ang^3
#
#
#
# Elastic Constant Matrix: (Units=GPa)
#
#
# Indices 1 2 3 4 5 6 
#
# 1 118.8004 48.7548 68.8114 0.0000 0.0000 0.0000
# 2 48.7548 90.1121 33.8736 0.0000 0.0000 0.0000
# 3 68.8114 33.8736 124.8378 0.0000 0.0000 0.0000
# 4 0.0000 0.0000 0.0000-3430.8345 0.0000 0.0000
# 5 0.0000 0.0000 0.0000 0.0000 59.7361 0.0000
# 6 0.0000 0.0000 0.0000 0.0000 0.0000 46.3801
#
#
#
# Elastic Compliance Matrix: (Units=1/GPa)
#
#
# Indices 1 2 3 4 5 6 
#
# 1 0.014350 -0.005335 -0.006462 0.000000 0.000000 0.000000
# 2 -0.005335 0.014341 -0.000951 0.000000 0.000000 0.000000
# 3 -0.006462 -0.000951 0.011830 0.000000 0.000000 0.000000
# 4 0.000000 0.000000 0.000000 -0.000291 0.000000 0.000000
# 5 0.000000 0.000000 0.000000 0.000000 0.016740 0.000000
# 6 0.000000 0.000000 0.000000 0.000000 0.000000 0.021561
#
#
# Mechanical properties :
#
#
# Convention : Reuss Voigt Hill
#
# Bulk Modulus (GPa) = 66.55198 70.73666 68.64432
# Shear Modulus (GPa) = 45.85679 -652.78963 -303.46642
#
# Velocity S-wave (km/s) = 4.74825 -17.91506 -12.21481
# Velocity P-wave (km/s) = 7.92351 19.82811 12.85247
#
# Compressibility (1/GPa) = 0.01502585
#
# Stress axis : x y z
#
# Youngs Moduli (GPa) = 69.68710 69.72995 84.52813
#
# Poissons Ratio (x) = 0.37199 0.54624
# Poissons Ratio (y) = 0.37176 0.08036
# Poissons Ratio (z) = 0.45033 0.06630
#
# Static dielectric constant tensor:
#      x y z
#    x 1.800220 0.000000 0.000000 
#    y 0.000000 2.399530 0.000000 
#    z 0.000000 0.000000 1.736300 
# 
# From -- ./inp_files/5533.got.cif
#   From: 2010.05.17/outbox.cif.g08.bks.cpg/sg30_3_cif.got.tgz:5533.got - 2010.06.03 17:03:02.
