data_PCOD9341502
_publ_section_title
;
Structure prediction by ZEFSAII (Michael W. Deem and Ramdas Pophale) SiO2 
 PCOD9341502
Probable space group: P C A 21
;
_chemical_formula_sum "Si O2"
_cell_formula_units_Z 24
_cell_length_a 9.066758
_cell_length_b 5.227680
_cell_length_c 20.921641
_cell_angle_alpha 90.000000
_cell_angle_beta 90.000000
_cell_angle_gamma 90.000000
_cell_volume 991.646230
_symmetry_space_group_name_H-M "P C A 21"
_symmetry_group_IT_number 29
_symmetry_cell_setting 'orthorhombic'
loop_
_space_group_symop_operation_xyz
x,y,z
-x,-y,1/2+z
1/2-x,y,1/2+z
1/2+x,-y,z
loop_
_atom_site_type_symbol
_atom_site_label
_atom_site_fract_x
_atom_site_fract_y
_atom_site_fract_z
Si Si1 0.506711 0.147989 0.109990
Si Si2 0.938690 0.191717 0.469205
Si Si3 0.508470 0.958641 0.844491
Si Si4 0.246752 0.307444 0.291395
Si Si5 0.693154 0.456407 0.414926
Si Si6 0.318834 0.343672 0.650720
O O1 0.606183 0.404988 0.119698
O O2 0.337890 0.236734 0.123425
O O3 0.570066 0.902030 0.148409
O O4 0.525826 0.063165 0.035776
O O5 0.797564 0.373121 0.472694
O O6 0.083827 0.337790 0.445482
O O7 0.894542 0.032105 0.406424
O O8 0.614906 0.880287 0.786946
O O9 0.405989 0.749977 0.878346
O O10 0.400594 0.169988 0.815545
O O11 0.293471 0.464040 0.354283
O O12 0.214600 0.428949 0.223867
#
# Coordination Sequence:
#
# PCOD9341502 Si02
#       6
#     4   4   4   4   4   4
#     4  12  29  50  75 110 147 208 246 303 361 446
#     4  11  25  41  73  97 147 172 246 287 366 426
#     4  11  23  41  66 105 130 180 222 305 359 411
#     4  11  25  42  70  99 142 176 242 291 362 430
#     4  11  23  41  66 105 129 183 220 305 357 415
#     4  12  29  49  76 106 151 203 250 299 365 442
#
# _framework density 24.202179999999998
#
# number of rings (size 3 to 8) (size 9 to 14) (size 15 to 20)
#    0.000    0.667    3.333    3.000    9.333    0.000 
#    0.000    0.000    0.000    0.000    0.000    0.000 
#    0.000    0.000    0.000    0.000    0.000    0.000 
#
# Total GULP energy -133979.974217 kJ/mol
# GULP energy per Si atom -5582.498926 kJ/mol
# Density = 2.414709 g / cm^3
# Si number density = 24.202180 Si / 1000 Ang^3
#
#
#
# Elastic Constant Matrix: (Units=GPa)
#
#
# Indices 1 2 3 4 5 6 
#
# 1 94.6277 7.8853 -1.3740 0.0000 0.0000 0.0000
# 2 7.8853 56.8429 -0.3325 0.0000 0.0000 0.0000
# 3 -1.3740 -0.3325 60.1313 0.0000 0.0000 0.0000
# 4 0.0000 0.0000 0.0000 23.6331 0.0000 0.0000
# 5 0.0000 0.0000 0.0000 0.0000 26.9875 0.0000
# 6 0.0000 0.0000 0.0000 0.0000 0.0000 42.0294
#
#
#
# Elastic Compliance Matrix: (Units=1/GPa)
#
#
# Indices 1 2 3 4 5 6 
#
# 1 0.010695 -0.001482 0.000236 0.000000 0.000000 0.000000
# 2 -0.001482 0.017798 0.000065 0.000000 0.000000 0.000000
# 3 0.000236 0.000065 0.016636 0.000000 0.000000 0.000000
# 4 0.000000 0.000000 0.000000 0.042314 0.000000 0.000000
# 5 0.000000 0.000000 0.000000 0.000000 0.037054 0.000000
# 6 0.000000 0.000000 0.000000 0.000000 0.000000 0.023793
#
#
# Mechanical properties :
#
#
# Convention : Reuss Voigt Hill
#
# Bulk Modulus (GPa) = 23.38302 24.88440 24.13371
# Shear Modulus (GPa) = 30.31995 32.22488 31.27241
#
# Velocity S-wave (km/s) = 3.54330 3.65291 3.59852
# Velocity P-wave (km/s) = 5.14028 5.30056 5.22103
#
# Compressibility (1/GPa) = 0.04276608
#
# Stress axis : x y z
#
# Youngs Moduli (GPa) = 93.50451 56.18504 60.11055
#
# Poissons Ratio (x) = 0.08328 -0.01420
# Poissons Ratio (y) = 0.13859 -0.00388
# Poissons Ratio (z) = -0.02208 -0.00363
#
# Static dielectric constant tensor:
#      x y z
#    x 2.020520 0.000000 0.000000 
#    y 0.000000 2.415550 0.000000 
#    z 0.000000 0.000000 1.990640 
# 
# From -- ./inp_files/5651.got.cif
#   From: 2010.05.17/outbox.cif.g08.bks.cpg/sg29_3_cif.got.tgz:5651.got - 2010.06.04 01:19:37.
