data_PCOD9341531
_publ_section_title
;
Structure prediction by ZEFSAII (Michael W. Deem and Ramdas Pophale) SiO2 
 PCOD9341531
Probable space group: P C A 21
;
_chemical_formula_sum "Si O2"
_cell_formula_units_Z 32
_cell_length_a 18.436444
_cell_length_b 6.575558
_cell_length_c 12.826937
_cell_angle_alpha 90.000000
_cell_angle_beta 90.000000
_cell_angle_gamma 90.000000
_cell_volume 1555.008377
_symmetry_space_group_name_H-M "P C A 21"
_symmetry_group_IT_number 29
_symmetry_cell_setting 'orthorhombic'
loop_
_space_group_symop_operation_xyz
x,y,z
-x,-y,1/2+z
1/2-x,y,1/2+z
1/2+x,-y,z
loop_
_atom_site_type_symbol
_atom_site_label
_atom_site_fract_x
_atom_site_fract_y
_atom_site_fract_z
Si Si1 0.395751 0.713091 0.189320
Si Si2 0.496995 0.095195 0.163277
Si Si3 0.245652 0.825529 0.280777
Si Si4 0.851007 0.863722 0.649659
Si Si5 0.552804 0.623720 0.841107
Si Si6 0.301458 0.176824 0.414262
Si Si7 0.043990 0.445777 0.505283
Si Si8 0.664203 0.570785 0.334726
O O1 0.434830 0.590072 0.282596
O O2 0.431657 0.933470 0.174408
O O3 0.311214 0.724926 0.216674
O O4 0.411385 0.580962 0.087007
O O5 0.570663 0.970489 0.148182
O O6 0.496826 0.234372 0.267580
O O7 0.483537 0.248410 0.067114
O O8 0.282855 0.951226 0.374248
O O9 0.203990 0.984013 0.207789
O O10 0.189201 0.660664 0.322501
O O11 0.852865 0.663952 0.721613
O O12 0.821587 0.820227 0.535053
O O13 0.629862 0.734418 0.852136
O O14 0.519959 0.578402 0.954141
O O15 0.231900 0.311692 0.386086
O O16 0.095885 0.395152 0.408849
#
# Coordination Sequence:
#
# PCOD9341531 Si02
#       8
#     4   4   4   4   4   4   4   4
#     4  11  24  42  70  97 136 188 229 287 348 423
#     4  11  25  46  69 100 145 181 235 289 353 423
#     4  11  25  44  69  97 139 182 227 287 349 413
#     4  11  27  42  69 103 134 177 233 285 344 421
#     4  11  23  45  66 100 138 180 234 284 349 416
#     4  11  25  42  70  99 134 181 229 284 347 415
#     4  11  27  41  73 102 138 185 231 291 355 419
#     4  11  26  46  66 102 142 178 232 293 341 420
#
# _framework density 20.578666999999999
#
# number of rings (size 3 to 8) (size 9 to 14) (size 15 to 20)
#    0.000    1.000    2.500    2.250    7.000    7.000 
#    0.000    0.000    0.000    0.000    0.000    0.000 
#    0.000    0.000    0.000    0.000    0.000    0.000 
#
# Total GULP energy -179070.544928 kJ/mol
# GULP energy per Si atom -5595.954529 kJ/mol
# Density = 2.053183 g / cm^3
# Si number density = 20.578667 Si / 1000 Ang^3
#
#
#
# Elastic Constant Matrix: (Units=GPa)
#
#
# Indices 1 2 3 4 5 6 
#
# 1 65.9867 4.1377 20.5753 0.0000 0.0000 0.0000
# 2 4.1377 73.2197 42.5904 0.0000 0.0000 0.0000
# 3 20.5753 42.5904 103.5851 0.0000 0.0000 0.0000
# 4 0.0000 0.0000 0.0000 18.1829 0.0000 0.0000
# 5 0.0000 0.0000 0.0000 0.0000 29.7915 0.0000
# 6 0.0000 0.0000 0.0000 0.0000 0.0000 23.2913
#
#
#
# Elastic Compliance Matrix: (Units=1/GPa)
#
#
# Indices 1 2 3 4 5 6 
#
# 1 0.016243 0.001260 -0.003745 0.000000 0.000000 0.000000
# 2 0.001260 0.018048 -0.007671 0.000000 0.000000 0.000000
# 3 -0.003745 -0.007671 0.013552 0.000000 0.000000 0.000000
# 4 0.000000 0.000000 0.000000 0.054997 0.000000 0.000000
# 5 0.000000 0.000000 0.000000 0.000000 0.033567 0.000000
# 6 0.000000 0.000000 0.000000 0.000000 0.000000 0.042934
#
#
# Mechanical properties :
#
#
# Convention : Reuss Voigt Hill
#
# Bulk Modulus (GPa) = 36.32091 41.93317 39.12704
# Shear Modulus (GPa) = 23.94294 25.95235 24.94764
#
# Velocity S-wave (km/s) = 3.41469 3.55509 3.48560
# Velocity P-wave (km/s) = 5.76497 6.10515 5.93749
#
# Compressibility (1/GPa) = 0.02753235
#
# Stress axis : x y z
#
# Youngs Moduli (GPa) = 61.56447 55.40628 73.79090
#
# Poissons Ratio (x) = -0.06982 0.27631
# Poissons Ratio (y) = -0.07759 0.56607
# Poissons Ratio (z) = 0.23053 0.42503
#
# Static dielectric constant tensor:
#      x y z
#    x 1.729690 0.000000 0.000000 
#    y 0.000000 1.721610 0.000000 
#    z 0.000000 0.000000 1.712810 
# 
# From -- ./inp_files/3886.got.cif
#   From: 2010.05.17/outbox.cif.g08.bks.cpg/sg29_2_cif.got.tgz:3886.got - 2010.06.04 01:19:37.
