data_PCOD9341922
_publ_section_title
;
Structure prediction by ZEFSAII (Michael W. Deem and Ramdas Pophale) SiO2 
 PCOD9341922
Probable space group: P N C 2
;
_chemical_formula_sum "Si O2"
_cell_formula_units_Z 18
_cell_length_a 8.254999
_cell_length_b 10.744215
_cell_length_c 8.922193
_cell_angle_alpha 90.000000
_cell_angle_beta 90.000000
_cell_angle_gamma 90.000000
_cell_volume 791.340383
_symmetry_space_group_name_H-M "P N C 2"
_symmetry_group_IT_number 30
_symmetry_cell_setting 'orthorhombic'
loop_
_space_group_symop_operation_xyz
x,y,z
-x,-y,z
-x,1/2+y,1/2+z
x,1/2-y,1/2+z
loop_
_atom_site_type_symbol
_atom_site_label
_atom_site_fract_x
_atom_site_fract_y
_atom_site_fract_z
Si Si1 0.280350 0.902866 0.466160
Si Si2 0.500000 0.000000 0.723891
Si Si3 0.000000 0.500000 0.809331
Si Si4 0.734066 0.580115 0.461412
Si Si5 0.065667 0.836573 0.024274
Si Si6 0.500000 0.500000 0.721494
O O1 0.377406 0.930523 0.615483
O O2 0.155727 0.010544 0.414581
O O3 0.170489 0.784236 0.498631
O O4 0.408446 0.902372 0.329476
O O5 0.604673 0.910392 0.830172
O O6 0.961213 0.386331 0.694951
O O7 0.830760 0.448332 0.449332
O O8 0.630241 0.567253 0.613844
O O9 0.882765 0.675012 0.463406
#
# Coordination Sequence:
#
# PCOD9341922 Si02
#       6
#     4   2   2   4   4   2
#     4  11  23  41  71 103 144 188 240 289 371 420
#     4  10  24  40  68 108 142 170 234 324 334 436
#     4  10  22  46  66 104 144 190 234 306 340 460
#     4   9  20  43  71  99 147 173 238 300 361 430
#     4  10  21  42  75  97 134 203 227 287 373 438
#     4  10  18  42  70  94 150 186 226 314 352 418
#
# _framework density 22.746217999999999
#
# number of rings (size 3 to 8) (size 9 to 14) (size 15 to 20)
#    0.000    2.222    4.444    0.000    3.111    1.778 
#    0.000   13.333    0.000    0.000    0.000    0.000 
#    0.000    0.000    0.000    0.000    0.000    0.000 
#
# Total GULP energy -100525.796967 kJ/mol
# GULP energy per Si atom -5584.766498 kJ/mol
# Density = 2.269445 g / cm^3
# Si number density = 22.746218 Si / 1000 Ang^3
#
#
#
# Elastic Constant Matrix: (Units=GPa)
#
#
# Indices 1 2 3 4 5 6 
#
# 1 194.3900 59.8099 95.8782 0.0000 0.0000 0.0000
# 2 59.8099 92.8125 45.0380 0.0000 0.0000 0.0000
# 3 95.8782 45.0380 152.2721 0.0000 0.0000 0.0000
# 4 0.0000 0.0000 0.0000 6.7465 0.0000 0.0000
# 5 0.0000 0.0000 0.0000 0.0000 49.0559 0.0000
# 6 0.0000 0.0000 0.0000 0.0000 0.0000 48.8057
#
#
#
# Elastic Compliance Matrix: (Units=1/GPa)
#
#
# Indices 1 2 3 4 5 6 
#
# 1 0.008225 -0.003254 -0.004216 0.000000 0.000000 0.000000
# 2 -0.003254 0.013868 -0.002053 0.000000 0.000000 0.000000
# 3 -0.004216 -0.002053 0.009829 0.000000 0.000000 0.000000
# 4 0.000000 0.000000 0.000000 0.148224 0.000000 0.000000
# 5 0.000000 0.000000 0.000000 0.000000 0.020385 0.000000
# 6 0.000000 0.000000 0.000000 0.000000 0.000000 0.020489
#
#
# Mechanical properties :
#
#
# Convention : Reuss Voigt Hill
#
# Bulk Modulus (GPa) = 77.66852 93.43632 85.55242
# Shear Modulus (GPa) = 20.46166 36.83818 28.64992
#
# Velocity S-wave (km/s) = 3.00253 4.02870 3.55286
# Velocity P-wave (km/s) = 6.80000 7.92512 7.38402
#
# Compressibility (1/GPa) = 0.01287523
#
# Stress axis : x y z
#
# Youngs Moduli (GPa) = 121.57603 72.11039 101.73778
#
# Poissons Ratio (x) = 0.23468 0.42898
# Poissons Ratio (y) = 0.39566 0.20882
# Poissons Ratio (z) = 0.51262 0.14801
#
# Static dielectric constant tensor:
#      x y z
#    x 1.879100 0.000000 0.000000 
#    y 0.000000 1.878210 0.000000 
#    z 0.000000 0.000000 1.873540 
# 
# From -- ./inp_files/1691.got.cif
#   From: 2010.05.17/outbox.cif.g08.bks.cpg/sg30_1_cif.got.tgz:1691.got - 2010.06.03 17:03:02.
