data_PCOD9341591
_publ_section_title
;
Structure prediction by ZEFSAII (Michael W. Deem and Ramdas Pophale) SiO2 
 PCOD9341591
Probable space group: P C A 21
;
_chemical_formula_sum "Si O2"
_cell_formula_units_Z 16
_cell_length_a 9.559889
_cell_length_b 7.866356
_cell_length_c 7.595806
_cell_angle_alpha 90.000000
_cell_angle_beta 90.000000
_cell_angle_gamma 90.000000
_cell_volume 571.215930
_symmetry_space_group_name_H-M "P C A 21"
_symmetry_group_IT_number 29
_symmetry_cell_setting 'orthorhombic'
loop_
_space_group_symop_operation_xyz
x,y,z
-x,-y,1/2+z
1/2-x,y,1/2+z
1/2+x,-y,z
loop_
_atom_site_type_symbol
_atom_site_label
_atom_site_fract_x
_atom_site_fract_y
_atom_site_fract_z
Si Si1 0.891336 0.056414 0.016640
Si Si2 0.282728 0.481488 0.025494
Si Si3 0.963342 0.644180 0.696821
Si Si4 0.115181 0.825405 0.120189
O O1 0.729980 0.036205 0.062516
O O2 0.957364 0.177402 0.168245
O O3 0.902272 0.154505 0.830080
O O4 0.971390 0.879061 0.030024
O O5 0.160129 0.347656 0.052387
O O6 0.408606 0.512566 0.164242
O O7 0.188118 0.654929 0.045190
O O8 0.371479 0.433632 0.854327
#
# Coordination Sequence:
#
# PCOD9341591 Si02
#       4
#     4   4   4   4
#     4  11  26  48  75 110 152 206 259 319 388 464
#     4  11  24  46  72 106 151 200 255 321 386 462
#     4  11  25  44  71 105 146 197 255 318 387 459
#     4  11  25  48  76 113 157 203 259 322 387 465
#
# _framework density 28.010427
#
# number of rings (size 3 to 8) (size 9 to 14) (size 15 to 20)
#    0.000    1.000    0.000    6.000    0.000   14.000 
#    0.000    0.000    0.000    0.000    0.000    0.000 
#    0.000    0.000    0.000    0.000    0.000    0.000 
#
# Total GULP energy -89528.326345 kJ/mol
# GULP energy per Si atom -5595.520397 kJ/mol
# Density = 2.794667 g / cm^3
# Si number density = 28.010427 Si / 1000 Ang^3
#
#
#
# Elastic Constant Matrix: (Units=GPa)
#
#
# Indices 1 2 3 4 5 6 
#
# 1 147.1425 30.1923 -13.7023 0.0000 0.0000 0.0000
# 2 30.1923 124.1724 23.7878 0.0000 0.0000 0.0000
# 3 -13.7023 23.7878 134.2752 0.0000 0.0000 0.0000
# 4 0.0000 0.0000 0.0000 30.0842 0.0000 0.0000
# 5 0.0000 0.0000 0.0000 0.0000 58.7852 0.0000
# 6 0.0000 0.0000 0.0000 0.0000 0.0000 66.1167
#
#
#
# Elastic Compliance Matrix: (Units=1/GPa)
#
#
# Indices 1 2 3 4 5 6 
#
# 1 0.007306 -0.001987 0.001098 0.000000 0.000000 0.000000
# 2 -0.001987 0.008876 -0.001775 0.000000 0.000000 0.000000
# 3 0.001098 -0.001775 0.007874 0.000000 0.000000 0.000000
# 4 0.000000 0.000000 0.000000 0.033240 0.000000 0.000000
# 5 0.000000 0.000000 0.000000 0.000000 0.017011 0.000000
# 6 0.000000 0.000000 0.000000 0.000000 0.000000 0.015125
#
#
# Mechanical properties :
#
#
# Convention : Reuss Voigt Hill
#
# Bulk Modulus (GPa) = 53.39754 54.01618 53.70686
# Shear Modulus (GPa) = 49.50318 55.35137 52.42728
#
# Velocity S-wave (km/s) = 4.20850 4.45016 4.33101
# Velocity P-wave (km/s) = 6.53607 6.76250 6.65025
#
# Compressibility (1/GPa) = 0.01872745
#
# Stress axis : x y z
#
# Youngs Moduli (GPa) = 136.87403 112.65737 127.00199
#
# Poissons Ratio (x) = 0.22382 -0.13939
# Poissons Ratio (y) = 0.27193 0.22546
# Poissons Ratio (z) = -0.15022 0.20000
#
# Static dielectric constant tensor:
#      x y z
#    x 2.113040 0.000000 0.000000 
#    y 0.000000 2.299250 0.000000 
#    z 0.000000 0.000000 2.400950 
# 
# From -- ./inp_files/1040.got.cif
#   From: 2010.05.17/outbox.cif.g08.bks.cpg/sg29_1_cif.got.tgz:1040.got - 2010.06.04 01:19:37.
