data_PCOD9341355
_publ_section_title
;
Structure prediction by ZEFSAII (Michael W. Deem and Ramdas Pophale) SiO2 
 PCOD9341355
Probable space group: P C A 21
;
_chemical_formula_sum "Si O2"
_cell_formula_units_Z 20
_cell_length_a 9.080231
_cell_length_b 5.157017
_cell_length_c 17.633722
_cell_angle_alpha 90.000000
_cell_angle_beta 90.000000
_cell_angle_gamma 90.000000
_cell_volume 825.732636
_symmetry_space_group_name_H-M "P C A 21"
_symmetry_group_IT_number 29
_symmetry_cell_setting 'orthorhombic'
loop_
_space_group_symop_operation_xyz
x,y,z
-x,-y,1/2+z
1/2-x,y,1/2+z
1/2+x,-y,z
loop_
_atom_site_type_symbol
_atom_site_label
_atom_site_fract_x
_atom_site_fract_y
_atom_site_fract_z
Si Si1 0.406920 0.715227 0.132370
Si Si2 0.926999 0.201120 0.953721
Si Si3 0.901514 0.302846 0.395838
Si Si4 0.342108 0.005608 0.724851
Si Si5 0.093534 0.360378 0.757196
O O1 0.553216 0.829163 0.170496
O O2 0.401663 0.425015 0.167194
O O3 0.265960 0.846838 0.170616
O O4 0.409050 0.769968 0.044170
O O5 0.765603 0.246490 0.918910
O O6 0.038604 0.430373 0.931235
O O7 0.997168 0.930496 0.925899
O O8 0.908992 0.378033 0.306550
O O9 0.238800 0.193434 0.774716
O O10 0.448029 0.809012 0.769618
#
# Coordination Sequence:
#
# PCOD9341355 Si02
#       5
#     4   4   4   4   4
#     4  11  25  45  81 109 157 207 272 329 402 483
#     4  12  30  52  82 118 165 217 269 332 417 485
#     4  12  31  53  80 117 169 212 270 339 412 487
#     4  10  25  46  77 114 155 204 278 333 396 480
#     4  11  27  46  80 114 164 210 279 335 409 481
#
# _framework density 24.220914
#
# number of rings (size 3 to 8) (size 9 to 14) (size 15 to 20)
#    0.000    0.800    0.000    3.600   22.400    0.000 
#    0.000    0.000    0.000    0.000    0.000    0.000 
#    0.000    0.000    0.000    0.000    0.000    0.000 
#
# Total GULP energy -112153.001371 kJ/mol
# GULP energy per Si atom -5607.650069 kJ/mol
# Density = 2.416579 g / cm^3
# Si number density = 24.220914 Si / 1000 Ang^3
#
#
#
# Elastic Constant Matrix: (Units=GPa)
#
#
# Indices 1 2 3 4 5 6 
#
# 1 175.2502 53.1015 48.5429 0.0000 0.0000 0.0000
# 2 53.1015 142.5009 47.3301 0.0000 0.0000 0.0000
# 3 48.5429 47.3301 168.1736 0.0000 0.0000 0.0000
# 4 0.0000 0.0000 0.0000 29.3961 0.0000 0.0000
# 5 0.0000 0.0000 0.0000 0.0000 12.1543 0.0000
# 6 0.0000 0.0000 0.0000 0.0000 0.0000 50.4259
#
#
#
# Elastic Compliance Matrix: (Units=1/GPa)
#
#
# Indices 1 2 3 4 5 6 
#
# 1 0.006703 -0.002046 -0.001359 0.000000 0.000000 0.000000
# 2 -0.002046 0.008366 -0.001764 0.000000 0.000000 0.000000
# 3 -0.001359 -0.001764 0.006835 0.000000 0.000000 0.000000
# 4 0.000000 0.000000 0.000000 0.034018 0.000000 0.000000
# 5 0.000000 0.000000 0.000000 0.000000 0.082275 0.000000
# 6 0.000000 0.000000 0.000000 0.000000 0.000000 0.019831
#
#
# Mechanical properties :
#
#
# Convention : Reuss Voigt Hill
#
# Bulk Modulus (GPa) = 86.46423 87.09708 86.78065
# Shear Modulus (GPa) = 29.03253 40.85861 34.94557
#
# Velocity S-wave (km/s) = 3.46592 4.11166 3.80252
# Velocity P-wave (km/s) = 7.19670 7.65366 7.42869
#
# Compressibility (1/GPa) = 0.01156548
#
# Stress axis : x y z
#
# Youngs Moduli (GPa) = 149.19717 119.53330 146.30932
#
# Poissons Ratio (x) = 0.24461 0.19880
# Poissons Ratio (y) = 0.30531 0.25806
# Poissons Ratio (z) = 0.20272 0.21083
#
# Static dielectric constant tensor:
#      x y z
#    x 1.886640 0.000000 0.000000 
#    y 0.000000 1.979610 0.000000 
#    z 0.000000 0.000000 1.966650 
# 
# From -- ./inp_files/4929.got.cif
#   From: 2010.05.17/outbox.cif.g08.bks.cpg/sg29_3_cif.got.tgz:4929.got - 2010.06.04 01:19:37.
