data_PCOD9341616
_publ_section_title
;
Structure prediction by ZEFSAII (Michael W. Deem and Ramdas Pophale) SiO2 
 PCOD9341616
Probable space group: P C A 21
;
_chemical_formula_sum "Si O2"
_cell_formula_units_Z 28
_cell_length_a 8.347732
_cell_length_b 11.445851
_cell_length_c 12.955439
_cell_angle_alpha 90.000000
_cell_angle_beta 90.000000
_cell_angle_gamma 90.000000
_cell_volume 1237.851991
_symmetry_space_group_name_H-M "P C A 21"
_symmetry_group_IT_number 29
_symmetry_cell_setting 'orthorhombic'
loop_
_space_group_symop_operation_xyz
x,y,z
-x,-y,1/2+z
1/2-x,y,1/2+z
1/2+x,-y,z
loop_
_atom_site_type_symbol
_atom_site_label
_atom_site_fract_x
_atom_site_fract_y
_atom_site_fract_z
Si Si1 0.234521 0.636994 0.870870
Si Si2 0.756755 0.100625 0.141929
Si Si3 0.441210 0.082123 0.265644
Si Si4 0.704092 0.734323 0.363668
Si Si5 0.561747 0.561657 0.971615
Si Si6 0.418224 0.875198 0.429824
Si Si7 0.046515 0.666062 0.684984
O O1 0.411401 0.600478 0.901894
O O2 0.184249 0.604834 0.754207
O O3 0.113753 0.570407 0.949046
O O4 0.196412 0.773436 0.884452
O O5 0.613976 0.117092 0.224139
O O6 0.877963 0.211003 0.144866
O O7 0.848571 0.983262 0.173115
O O8 0.668271 0.088037 0.033569
O O9 0.341329 0.187943 0.311529
O O10 0.446322 0.982399 0.353174
O O11 0.590877 0.813413 0.436089
O O12 0.592631 0.690451 0.269021
O O13 0.786743 0.635299 0.431298
O O14 0.515111 0.592693 0.088290
#
# Coordination Sequence:
#
# PCOD9341616 Si02
#       7
#     4   4   4   4   4   4   4
#     4  11  24  50  72 111 143 190 248 309 372 448
#     4  12  24  44  73 105 148 199 249 295 377 438
#     4  12  25  44  70 109 149 197 239 307 363 439
#     4  11  26  46  68 110 149 187 255 300 371 446
#     4  12  27  48  81 106 147 198 243 314 382 447
#     4  11  25  45  70 103 151 192 244 305 360 447
#     4  11  25  51  72 110 151 193 250 306 375 451
#
# _framework density 22.61983
#
# number of rings (size 3 to 8) (size 9 to 14) (size 15 to 20)
#    0.000    0.571    5.714    2.571    4.000    3.429 
#    2.571    0.000    0.000    0.000    0.000    0.000 
#    0.000    0.000    0.000    0.000    0.000    0.000 
#
# Total GULP energy -156775.109754 kJ/mol
# GULP energy per Si atom -5599.111063 kJ/mol
# Density = 2.256835 g / cm^3
# Si number density = 22.619830 Si / 1000 Ang^3
#
#
#
# Elastic Constant Matrix: (Units=GPa)
#
#
# Indices 1 2 3 4 5 6 
#
# 1 90.0797 5.5483 27.1744 0.0000 0.0000 0.0000
# 2 5.5483 41.7935 42.9581 0.0000 0.0000 0.0000
# 3 27.1744 42.9581 135.0160 0.0000 0.0000 0.0000
# 4 0.0000 0.0000 0.0000 29.8829 0.0000 0.0000
# 5 0.0000 0.0000 0.0000 0.0000 30.9904 0.0000
# 6 0.0000 0.0000 0.0000 0.0000 0.0000 28.7426
#
#
#
# Elastic Compliance Matrix: (Units=1/GPa)
#
#
# Indices 1 2 3 4 5 6 
#
# 1 0.011867 0.001307 -0.002804 0.000000 0.000000 0.000000
# 2 0.001307 0.035699 -0.011621 0.000000 0.000000 0.000000
# 3 -0.002804 -0.011621 0.011669 0.000000 0.000000 0.000000
# 4 0.000000 0.000000 0.000000 0.033464 0.000000 0.000000
# 5 0.000000 0.000000 0.000000 0.000000 0.032268 0.000000
# 6 0.000000 0.000000 0.000000 0.000000 0.000000 0.034792
#
#
# Mechanical properties :
#
#
# Convention : Reuss Voigt Hill
#
# Bulk Modulus (GPa) = 30.30586 46.47231 38.38909
# Shear Modulus (GPa) = 25.38147 30.67039 28.02593
#
# Velocity S-wave (km/s) = 3.35339 3.68626 3.52376
# Velocity P-wave (km/s) = 5.33110 6.22154 5.79345
#
# Compressibility (1/GPa) = 0.03299692
#
# Stress axis : x y z
#
# Youngs Moduli (GPa) = 84.26920 28.01204 85.70060
#
# Poissons Ratio (x) = -0.03661 0.24033
# Poissons Ratio (y) = -0.11014 0.99596
# Poissons Ratio (z) = 0.23631 0.32554
#
# Static dielectric constant tensor:
#      x y z
#    x 1.844100 0.000000 0.000000 
#    y 0.000000 1.834880 0.000000 
#    z 0.000000 0.000000 1.845500 
# 
# From -- ./inp_files/2866.got.cif
#   From: 2010.05.17/outbox.cif.g08.bks.cpg/sg29_2_cif.got.tgz:2866.got - 2010.06.04 01:19:37.
