data_PCOD9341375
_publ_section_title
;
Structure prediction by ZEFSAII (Michael W. Deem and Ramdas Pophale) SiO2 
 PCOD9341375
Probable space group: P C A 21
;
_chemical_formula_sum "Si O2"
_cell_formula_units_Z 24
_cell_length_a 12.431787
_cell_length_b 8.177901
_cell_length_c 10.839825
_cell_angle_alpha 90.000000
_cell_angle_beta 90.000000
_cell_angle_gamma 90.000000
_cell_volume 1102.040817
_symmetry_space_group_name_H-M "P C A 21"
_symmetry_group_IT_number 29
_symmetry_cell_setting 'orthorhombic'
loop_
_space_group_symop_operation_xyz
x,y,z
-x,-y,1/2+z
1/2-x,y,1/2+z
1/2+x,-y,z
loop_
_atom_site_type_symbol
_atom_site_label
_atom_site_fract_x
_atom_site_fract_y
_atom_site_fract_z
Si Si1 0.746628 0.140779 0.799460
Si Si2 0.421875 0.640028 0.735877
Si Si3 0.767271 0.949239 0.546093
Si Si4 0.587456 0.396282 0.841850
Si Si5 0.711743 0.579904 0.057063
Si Si6 0.431419 0.254987 0.028149
O O1 0.853987 0.245818 0.825458
O O2 0.773257 0.029101 0.681207
O O3 0.656288 0.272716 0.760325
O O4 0.705580 0.052576 0.923823
O O5 0.524715 0.548372 0.787334
O O6 0.340766 0.506623 0.675580
O O7 0.474140 0.747722 0.627416
O O8 0.823974 0.770557 0.546219
O O9 0.641121 0.904427 0.527730
O O10 0.667886 0.471899 0.944339
O O11 0.491148 0.293229 0.902660
O O12 0.841244 0.603046 0.054657
#
# Coordination Sequence:
#
# PCOD9341375 Si02
#       6
#     4   4   4   4   4   4
#     4  12  26  46  70 102 144 176 234 292 354 412
#     4  11  23  41  70 100 131 186 240 280 339 427
#     4  10  26  45  69  99 143 182 217 299 353 404
#     4  11  23  41  70 100 131 186 240 280 339 427
#     4   9  22  44  66  95 145 175 232 288 346 402
#     4   9  22  41  65  96 134 183 227 273 357 406
#
# _framework density 21.777777
#
# number of rings (size 3 to 8) (size 9 to 14) (size 15 to 20)
#    1.000    0.667    0.000    4.000    4.667    4.000 
#    6.000    0.000    0.000    0.000    0.000    0.000 
#    0.000    0.000    0.000    0.000    0.000    0.000 
#
# Total GULP energy -133740.307481 kJ/mol
# GULP energy per Si atom -5572.512812 kJ/mol
# Density = 2.172821 g / cm^3
# Si number density = 21.777777 Si / 1000 Ang^3
#
#
#
# Elastic Constant Matrix: (Units=GPa)
#
#
# Indices 1 2 3 4 5 6 
#
# 1 73.4912 9.1990 -4.6809 0.0000 0.0000 0.0000
# 2 9.1990 80.0870 22.6395 0.0000 0.0000 0.0000
# 3 -4.6809 22.6395 51.2952 0.0000 0.0000 0.0000
# 4 0.0000 0.0000 0.0000 19.4473 0.0000 0.0000
# 5 0.0000 0.0000 0.0000 0.0000 22.4859 0.0000
# 6 0.0000 0.0000 0.0000 0.0000 0.0000 51.5746
#
#
#
# Elastic Compliance Matrix: (Units=1/GPa)
#
#
# Indices 1 2 3 4 5 6 
#
# 1 0.014034 -0.002255 0.002276 0.000000 0.000000 0.000000
# 2 -0.002255 0.014629 -0.006662 0.000000 0.000000 0.000000
# 3 0.002276 -0.006662 0.022643 0.000000 0.000000 0.000000
# 4 0.000000 0.000000 0.000000 0.051421 0.000000 0.000000
# 5 0.000000 0.000000 0.000000 0.000000 0.044472 0.000000
# 6 0.000000 0.000000 0.000000 0.000000 0.000000 0.019389
#
#
# Mechanical properties :
#
#
# Convention : Reuss Voigt Hill
#
# Bulk Modulus (GPa) = 26.29983 28.79874 27.54928
# Shear Modulus (GPa) = 25.96769 30.54927 28.25848
#
# Velocity S-wave (km/s) = 3.45685 3.74942 3.60611
# Velocity P-wave (km/s) = 5.29488 5.65658 5.47871
#
# Compressibility (1/GPa) = 0.03802306
#
# Stress axis : x y z
#
# Youngs Moduli (GPa) = 71.25369 68.35806 44.16335
#
# Poissons Ratio (x) = 0.15418 -0.10052
# Poissons Ratio (y) = 0.16071 0.29423
# Poissons Ratio (z) = -0.16218 0.45543
#
# Static dielectric constant tensor:
#      x y z
#    x 1.776320 0.000000 0.000000 
#    y 0.000000 1.842590 0.000000 
#    z 0.000000 0.000000 1.817820 
# 
# From -- ./inp_files/3086.got.cif
#   From: 2010.05.17/outbox.cif.g08.bks.cpg/sg29_2_cif.got.tgz:3086.got - 2010.06.04 01:19:37.
