data_PCOD9341961
_publ_section_title
;
Structure prediction by ZEFSAII (Michael W. Deem and Ramdas Pophale) SiO2 
 PCOD9341961
Probable space group: P N C 2
;
_chemical_formula_sum "Si O2"
_cell_formula_units_Z 32
_cell_length_a 11.292531
_cell_length_b 7.479292
_cell_length_c 15.191177
_cell_angle_alpha 90.000000
_cell_angle_beta 90.000000
_cell_angle_gamma 90.000000
_cell_volume 1283.048887
_symmetry_space_group_name_H-M "P N C 2"
_symmetry_group_IT_number 30
_symmetry_cell_setting 'orthorhombic'
loop_
_space_group_symop_operation_xyz
x,y,z
-x,-y,z
-x,1/2+y,1/2+z
x,1/2-y,1/2+z
loop_
_atom_site_type_symbol
_atom_site_label
_atom_site_fract_x
_atom_site_fract_y
_atom_site_fract_z
Si Si1 0.265084 0.240432 0.867570
Si Si2 0.727970 0.684445 0.057863
Si Si3 0.765917 0.392644 0.585356
Si Si4 0.085109 0.640540 0.750567
Si Si5 0.527110 0.297116 0.331809
Si Si6 0.479162 0.785652 0.131734
Si Si7 0.896841 0.858067 0.704745
Si Si8 0.773523 0.319443 0.403494
O O1 0.399662 0.294795 0.844494
O O2 0.181705 0.233434 0.781650
O O3 0.255308 0.030237 0.891654
O O4 0.238670 0.350638 0.956457
O O5 0.588764 0.686526 0.084116
O O6 0.807577 0.580347 0.129329
O O7 0.756701 0.894659 0.071995
O O8 0.805236 0.381376 0.685886
O O9 0.640081 0.291830 0.576420
O O10 0.829668 0.308045 0.500556
O O11 0.136443 0.759307 0.828828
O O12 0.000000 0.500000 0.798721
O O13 0.987124 0.703419 0.677582
O O14 0.500000 0.500000 0.362281
O O15 0.545869 0.297087 0.227021
O O16 0.645396 0.231771 0.380297
O O17 0.500000 0.000000 0.145116
O O18 0.000000 0.000000 0.730692
#
# Coordination Sequence:
#
# PCOD9341961 Si02
#       8
#     4   4   4   4   4   4   4   4
#     4  10  21  40  66  94 124 165 216 264 324 385
#     4  10  21  40  66  96 123 164 216 266 320 389
#     4  10  21  40  66  94 124 165 216 264 324 385
#     4  12  24  41  64  89 127 173 216 260 317 381
#     4  10  19  35  67  94 125 162 205 263 329 388
#     4  10  19  35  67  94 125 162 205 263 329 388
#     4  12  24  41  64  89 127 173 216 260 317 381
#     4  10  21  40  66  96 123 164 216 266 320 389
#
# _framework density 24.940593
#
# number of rings (size 3 to 8) (size 9 to 14) (size 15 to 20)
#    0.000    1.500    5.000    0.750    0.000    4.000 
#    0.000    2.500    0.000    1.500    0.000    0.000 
#    0.000    0.000    0.000    0.000    0.000    0.000 
#
# Total GULP energy -178240.923890 kJ/mol
# GULP energy per Si atom -5570.028872 kJ/mol
# Density = 2.488383 g / cm^3
# Si number density = 24.940593 Si / 1000 Ang^3
#
#
#
# Elastic Constant Matrix: (Units=GPa)
#
#
# Indices 1 2 3 4 5 6 
#
# 1 104.7140 28.6468 37.6432 0.0000 0.0000 0.0000
# 2 28.6468 30.7063 17.5219 0.0000 0.0000 0.0000
# 3 37.6432 17.5219 146.7815 0.0000 0.0000 0.0000
# 4 0.0000 0.0000 0.0000 11.4560 0.0000 0.0000
# 5 0.0000 0.0000 0.0000 0.0000 9.4930 0.0000
# 6 0.0000 0.0000 0.0000 0.0000 0.0000 27.0615
#
#
#
# Elastic Compliance Matrix: (Units=1/GPa)
#
#
# Indices 1 2 3 4 5 6 
#
# 1 0.013392 -0.011304 -0.002085 0.000000 0.000000 0.000000
# 2 -0.011304 0.044488 -0.002412 0.000000 0.000000 0.000000
# 3 -0.002085 -0.002412 0.007635 0.000000 0.000000 0.000000
# 4 0.000000 0.000000 0.000000 0.087291 0.000000 0.000000
# 5 0.000000 0.000000 0.000000 0.000000 0.105341 0.000000
# 6 0.000000 0.000000 0.000000 0.000000 0.000000 0.036953
#
#
# Mechanical properties :
#
#
# Convention : Reuss Voigt Hill
#
# Bulk Modulus (GPa) = 29.48599 49.98063 39.73331
# Shear Modulus (GPa) = 14.79263 22.82809 18.81036
#
# Velocity S-wave (km/s) = 2.43804 3.02867 2.74926
# Velocity P-wave (km/s) = 4.44674 5.68453 5.10330
#
# Compressibility (1/GPa) = 0.03391441
#
# Stress axis : x y z
#
# Youngs Moduli (GPa) = 74.67275 22.47773 130.96746
#
# Poissons Ratio (x) = 0.25408 0.27307
# Poissons Ratio (y) = 0.84408 0.31587
# Poissons Ratio (z) = 0.15570 0.05421
#
# Static dielectric constant tensor:
#      x y z
#    x 2.095510 0.000000 0.000000 
#    y 0.000000 2.595430 0.000000 
#    z 0.000000 0.000000 1.947990 
# 
# From -- ./inp_files/5530.got.cif
#   From: 2010.05.17/outbox.cif.g08.bks.cpg/sg30_3_cif.got.tgz:5530.got - 2010.06.03 17:03:02.
