data_PCOD9341376
_publ_section_title
;
Structure prediction by ZEFSAII (Michael W. Deem and Ramdas Pophale) SiO2 
 PCOD9341376
Probable space group: P C A 21
;
_chemical_formula_sum "Si O2"
_cell_formula_units_Z 20
_cell_length_a 8.293107
_cell_length_b 11.916669
_cell_length_c 7.720790
_cell_angle_alpha 90.000000
_cell_angle_beta 90.000000
_cell_angle_gamma 90.000000
_cell_volume 763.016422
_symmetry_space_group_name_H-M "P C A 21"
_symmetry_group_IT_number 29
_symmetry_cell_setting 'orthorhombic'
loop_
_space_group_symop_operation_xyz
x,y,z
-x,-y,1/2+z
1/2-x,y,1/2+z
1/2+x,-y,z
loop_
_atom_site_type_symbol
_atom_site_label
_atom_site_fract_x
_atom_site_fract_y
_atom_site_fract_z
Si Si1 0.518825 0.325339 0.643280
Si Si2 0.387813 0.485780 0.348358
Si Si3 0.517719 0.874206 0.727118
Si Si4 0.617298 0.884961 0.327315
Si Si5 0.634337 0.354482 0.218183
O O1 0.418757 0.401600 0.507819
O O2 0.526513 0.392692 0.825570
O O3 0.454953 0.204228 0.691289
O O4 0.711102 0.327394 0.598052
O O5 0.456275 0.408599 0.191459
O O6 0.210956 0.536530 0.317439
O O7 0.549637 0.864916 0.520543
O O8 0.690487 0.872826 0.820102
O O9 0.412581 0.768106 0.786446
O O10 0.429815 0.990090 0.769394
#
# Coordination Sequence:
#
# PCOD9341376 Si02
#       5
#     4   4   4   4   4
#     4  10  27  46  79 119 165 220 278 348 422 509
#     4  10  26  45  74 113 167 214 278 349 417 513
#     4  12  29  54  84 126 164 234 281 368 422 519
#     4  12  29  52  90 119 173 217 294 348 440 510
#     4  10  27  45  81 113 171 215 287 335 431 501
#
# _framework density 26.211758
#
# number of rings (size 3 to 8) (size 9 to 14) (size 15 to 20)
#    1.200    0.000    0.000    2.400   16.800    0.000 
#    0.000    0.000    0.000    0.000    0.000    0.000 
#    0.000    0.000    0.000    0.000    0.000    0.000 
#
# Total GULP energy -111416.181068 kJ/mol
# GULP energy per Si atom -5570.809053 kJ/mol
# Density = 2.615210 g / cm^3
# Si number density = 26.211758 Si / 1000 Ang^3
#
#
#
# Elastic Constant Matrix: (Units=GPa)
#
#
# Indices 1 2 3 4 5 6 
#
# 1 148.9287 77.7697 43.9970 0.0000 0.0000 0.0000
# 2 77.7697 192.5253 40.9869 0.0000 0.0000 0.0000
# 3 43.9970 40.9869 138.1915 0.0000 0.0000 0.0000
# 4 0.0000 0.0000 0.0000 44.2668 0.0000 0.0000
# 5 0.0000 0.0000 0.0000 0.0000 34.2449 0.0000
# 6 0.0000 0.0000 0.0000 0.0000 0.0000 60.4152
#
#
#
# Elastic Compliance Matrix: (Units=1/GPa)
#
#
# Indices 1 2 3 4 5 6 
#
# 1 0.008953 -0.003212 -0.001898 0.000000 0.000000 0.000000
# 2 -0.003212 0.006697 -0.000963 0.000000 0.000000 0.000000
# 3 -0.001898 -0.000963 0.008126 0.000000 0.000000 0.000000
# 4 0.000000 0.000000 0.000000 0.022590 0.000000 0.000000
# 5 0.000000 0.000000 0.000000 0.000000 0.029201 0.000000
# 6 0.000000 0.000000 0.000000 0.000000 0.000000 0.016552
#
#
# Mechanical properties :
#
#
# Convention : Reuss Voigt Hill
#
# Bulk Modulus (GPa) = 85.99277 89.46140 87.72709
# Shear Modulus (GPa) = 46.23509 48.91150 47.57330
#
# Velocity S-wave (km/s) = 4.20445 4.32442 4.26486
# Velocity P-wave (km/s) = 7.51319 7.69016 7.60219
#
# Compressibility (1/GPa) = 0.01162888
#
# Stress axis : x y z
#
# Youngs Moduli (GPa) = 111.69790 149.32292 123.05818
#
# Poissons Ratio (x) = 0.47969 0.23351
# Poissons Ratio (y) = 0.35882 0.11857
# Poissons Ratio (z) = 0.21195 0.14387
#
# Static dielectric constant tensor:
#      x y z
#    x 2.098860 0.000000 0.000000 
#    y 0.000000 1.937220 0.000000 
#    z 0.000000 0.000000 2.338220 
# 
# From -- ./inp_files/1103.got.cif
#   From: 2010.05.17/outbox.cif.g08.bks.cpg/sg29_1_cif.got.tgz:1103.got - 2010.06.04 01:19:37.
