data_PCOD9341807
_publ_section_title
;
Structure prediction by ZEFSAII (Michael W. Deem and Ramdas Pophale) SiO2 
 PCOD9341807
Probable space group: P N C 2
;
_chemical_formula_sum "Si O2"
_cell_formula_units_Z 28
_cell_length_a 5.185083
_cell_length_b 7.223278
_cell_length_c 32.183967
_cell_angle_alpha 90.000000
_cell_angle_beta 90.000000
_cell_angle_gamma 90.000000
_cell_volume 1205.395641
_symmetry_space_group_name_H-M "P N C 2"
_symmetry_group_IT_number 30
_symmetry_cell_setting 'orthorhombic'
loop_
_space_group_symop_operation_xyz
x,y,z
-x,-y,z
-x,1/2+y,1/2+z
x,1/2-y,1/2+z
loop_
_atom_site_type_symbol
_atom_site_label
_atom_site_fract_x
_atom_site_fract_y
_atom_site_fract_z
Si Si1 0.999995 0.278336 0.253810
Si Si2 0.991415 0.781506 0.351233
Si Si3 0.006126 0.724722 0.060921
Si Si4 0.514846 0.224905 0.395390
Si Si5 0.499990 0.773996 0.608541
Si Si6 0.506507 0.773982 0.704236
Si Si7 0.750568 0.370605 0.978721
O O1 0.041796 0.237290 0.302164
O O2 0.241140 0.209881 0.227887
O O3 0.000000 0.500000 0.250845
O O4 0.739560 0.215253 0.231276
O O5 0.762968 0.707030 0.380509
O O6 0.270103 0.706522 0.363529
O O7 0.000000 0.000000 0.359726
O O8 0.222389 0.788653 0.092810
O O9 0.000000 0.500000 0.062273
O O10 0.726549 0.785088 0.076866
O O11 0.124475 0.753441 0.015100
O O12 0.629622 0.249341 0.441449
O O13 0.500000 0.000000 0.392975
O O14 0.527186 0.717465 0.656266
O O15 0.500000 0.000000 0.607945
O O16 0.500000 0.000000 0.703623
O O17 0.500000 0.500000 0.992465
O O18 0.000000 0.500000 0.965354
#
# Coordination Sequence:
#
# PCOD9341807 Si02
#       7
#     4   4   4   4   4   4   4
#     4  10  19  31  46  64  85 113 148 183 220 261
#     4  10  19  31  46  64  85 113 148 183 220 260
#     4   9  15  21  32  51  76 107 141 171 200 241
#     4   9  17  28  42  59  82 113 147 178 213 261
#     4   9  15  23  34  51  76 107 141 171 201 246
#     4   9  17  28  42  59  82 113 147 178 213 261
#     4  10  16  24  36  54  80 112 147 178 208 254
#
# _framework density 23.228885999999999
#
# number of rings (size 3 to 8) (size 9 to 14) (size 15 to 20)
#    0.000    2.571    0.000    6.000    0.000    3.429 
#    0.000    0.000    0.000    0.000    0.000    0.000 
#    0.000    0.000    0.000   19.286    0.000   56.429 
#
# Total GULP energy -156259.466807 kJ/mol
# GULP energy per Si atom -5580.695243 kJ/mol
# Density = 2.317602 g / cm^3
# Si number density = 23.228886 Si / 1000 Ang^3
#
#
#
# Elastic Constant Matrix: (Units=GPa)
#
#
# Indices 1 2 3 4 5 6 
#
# 1 163.2783 -11.1362 62.3796 0.0000 0.0000 0.0000
# 2 -11.1362 78.5159 -16.8409 0.0000 0.0000 0.0000
# 3 62.3796 -16.8409 173.9699 0.0000 0.0000 0.0000
# 4 0.0000 0.0000 0.0000 23.5307 0.0000 0.0000
# 5 0.0000 0.0000 0.0000 0.0000 45.5048 0.0000
# 6 0.0000 0.0000 0.0000 0.0000 0.0000 -22.3386
#
#
#
# Elastic Compliance Matrix: (Units=1/GPa)
#
#
# Indices 1 2 3 4 5 6 
#
# 1 0.007114 0.000472 -0.002505 0.000000 0.000000 0.000000
# 2 0.000472 0.013038 0.001093 0.000000 0.000000 0.000000
# 3 -0.002505 0.001093 0.006752 0.000000 0.000000 0.000000
# 4 0.000000 0.000000 0.000000 0.042498 0.000000 0.000000
# 5 0.000000 0.000000 0.000000 0.000000 0.021976 0.000000
# 6 0.000000 0.000000 0.000000 0.000000 0.000000 -0.044766
#
#
# Mechanical properties :
#
#
# Convention : Reuss Voigt Hill
#
# Bulk Modulus (GPa) = 39.96390 53.84100 46.90245
# Shear Modulus (GPa) = 87.97688 34.76348 61.37018
#
# Velocity S-wave (km/s) = 6.16085 3.87274 5.14559
# Velocity P-wave (km/s) = 8.23711 6.57467 7.45239
#
# Compressibility (1/GPa) = 0.02502258
#
# Stress axis : x y z
#
# Youngs Moduli (GPa) = 140.57315 76.70119 148.10076
#
# Poissons Ratio (x) = -0.03618 0.37100
# Poissons Ratio (y) = -0.06630 -0.16187
# Poissons Ratio (z) = 0.35215 -0.08383
#
# Static dielectric constant tensor:
#      x y z
#    x 1.835650 0.000000 0.000000 
#    y 0.000000 1.908660 0.000000 
#    z 0.000000 0.000000 1.882460 
# 
# From -- ./inp_files/7522.got.cif
#   From: 2010.05.17/outbox.cif.g08.bks.cpg/sg30_4_cif.got.tgz:7522.got - 2010.06.03 17:03:02.
