data_PCOD9341092
_publ_section_title
;
Structure prediction by ZEFSAII (Michael W. Deem and Ramdas Pophale) SiO2 
 PCOD9341092
Probable space group: P C A 21
;
_chemical_formula_sum "Si O2"
_cell_formula_units_Z 32
_cell_length_a 5.453680
_cell_length_b 16.960230
_cell_length_c 15.163119
_cell_angle_alpha 90.000000
_cell_angle_beta 90.000000
_cell_angle_gamma 90.000000
_cell_volume 1402.522808
_symmetry_space_group_name_H-M "P C A 21"
_symmetry_group_IT_number 29
_symmetry_cell_setting 'orthorhombic'
loop_
_space_group_symop_operation_xyz
x,y,z
-x,-y,1/2+z
1/2-x,y,1/2+z
1/2+x,-y,z
loop_
_atom_site_type_symbol
_atom_site_label
_atom_site_fract_x
_atom_site_fract_y
_atom_site_fract_z
Si Si1 0.564083 0.804297 0.707300
Si Si2 0.935917 0.804297 0.013438
Si Si3 0.139318 0.341626 0.949291
Si Si4 0.280305 0.042829 0.753950
Si Si5 0.860682 0.658374 0.771447
Si Si6 0.780305 0.957171 0.466788
Si Si7 0.250000 0.774323 0.360369
Si Si8 0.506542 0.450926 0.610369
O O1 0.454576 0.807469 0.610369
O O2 0.777182 0.868374 0.716890
O O3 0.659903 0.716067 0.726821
O O4 0.383693 0.825007 0.786885
O O5 0.840097 0.716068 0.993917
O O6 0.722818 0.868374 0.003848
O O7 0.116308 0.825007 0.933853
O O8 0.250000 0.380905 0.860369
O O9 0.936514 0.281992 0.911886
O O10 0.032569 0.399004 0.022473
O O11 0.250000 0.045541 0.860369
O O12 0.528794 0.999960 0.725085
O O13 0.967431 0.600996 0.698264
O O14 0.063486 0.718007 0.808852
O O15 0.528794 0.999960 0.495653
O O16 0.778126 0.487883 0.610369
#
# Coordination Sequence:
#
# PCOD9341092 Si02
#       8
#     4   4   4   4   4   4   4   4
#     4  11  24  42  71 102 139 191 249 300 353 426
#     4  11  24  42  71 102 139 191 249 300 353 426
#     4  10  24  46  73 103 142 189 242 286 358 426
#     4  10  23  41  65  97 143 188 237 299 362 416
#     4  10  24  46  73 103 142 189 242 286 358 426
#     4  10  23  41  65  97 143 188 237 299 362 416
#     4  10  24  42  72 100 138 186 254 288 358 420
#     4  12  30  48  76 112 150 180 232 290 360 432
#
# _framework density 22.816030000000001
#
# number of rings (size 3 to 8) (size 9 to 14) (size 15 to 20)
#    0.000    1.500    1.250    2.250   17.500    2.000 
#    0.000    0.000    0.000    0.000    0.000    0.000 
#    0.000    0.000    0.000    0.000    0.000    0.000 
#
# Total GULP energy -179014.511202 kJ/mol
# GULP energy per Si atom -5594.203475 kJ/mol
# Density = 2.276410 g / cm^3
# Si number density = 22.816030 Si / 1000 Ang^3
#
#
#
# Elastic Constant Matrix: (Units=GPa)
#
#
# Indices 1 2 3 4 5 6 
#
# 1 74.3450 -2.3382 29.4886 0.0000 0.0000 0.0000
# 2 -2.3382 38.5482 35.8075 0.0000 0.0000 0.0000
# 3 29.4886 35.8075 139.2037 0.0000 0.0000 0.0000
# 4 0.0000 0.0000 0.0000 -16.4892 0.0000 0.0000
# 5 0.0000 0.0000 0.0000 0.0000 14.0380 0.0000
# 6 0.0000 0.0000 0.0000 0.0000 0.0000 28.3787
#
#
#
# Elastic Compliance Matrix: (Units=1/GPa)
#
#
# Indices 1 2 3 4 5 6 
#
# 1 0.015446 0.005225 -0.004616 0.000000 0.000000 0.000000
# 2 0.005225 0.035854 -0.010329 0.000000 0.000000 0.000000
# 3 -0.004616 -0.010329 0.010819 0.000000 0.000000 0.000000
# 4 0.000000 0.000000 0.000000 -0.060646 0.000000 0.000000
# 5 0.000000 0.000000 0.000000 0.000000 0.071235 0.000000
# 6 0.000000 0.000000 0.000000 0.000000 0.000000 0.035238
#
#
# Mechanical properties :
#
#
# Convention : Reuss Voigt Hill
#
# Bulk Modulus (GPa) = 23.43193 42.00140 32.71666
# Shear Modulus (GPa) = 35.30768 17.79477 26.55122
#
# Velocity S-wave (km/s) = 3.93809 2.79574 3.41502
# Velocity P-wave (km/s) = 5.56510 5.37310 5.46994
#
# Compressibility (1/GPa) = 0.04267682
#
# Stress axis : x y z
#
# Youngs Moduli (GPa) = 64.74140 27.89125 92.43327
#
# Poissons Ratio (x) = -0.14573 0.42667
# Poissons Ratio (y) = -0.33826 0.95478
# Poissons Ratio (z) = 0.29885 0.28810
#
# Static dielectric constant tensor:
#      x y z
#    x 1.896630 0.000000 0.000000 
#    y 0.000000 1.798850 0.000000 
#    z 0.000000 0.000000 1.840410 
# 
# From -- ./inp_files/4102.got.cif
#   From: 2010.05.17/outbox.cif.g08.bks.cpg/sg29_3_cif.got.tgz:4102.got - 2010.06.04 01:19:37.
