data_PCOD9341650
_publ_section_title
;
Structure prediction by ZEFSAII (Michael W. Deem and Ramdas Pophale) SiO2 
 PCOD9341650
Probable space group: P C A 21
;
_chemical_formula_sum "Si O2"
_cell_formula_units_Z 20
_cell_length_a 8.179627
_cell_length_b 9.846578
_cell_length_c 9.507631
_cell_angle_alpha 90.000000
_cell_angle_beta 90.000000
_cell_angle_gamma 90.000000
_cell_volume 765.757296
_symmetry_space_group_name_H-M "P C A 21"
_symmetry_group_IT_number 29
_symmetry_cell_setting 'orthorhombic'
loop_
_space_group_symop_operation_xyz
x,y,z
-x,-y,1/2+z
1/2-x,y,1/2+z
1/2+x,-y,z
loop_
_atom_site_type_symbol
_atom_site_label
_atom_site_fract_x
_atom_site_fract_y
_atom_site_fract_z
Si Si1 0.622480 0.448913 0.435220
Si Si2 0.300516 0.299905 0.320374
Si Si3 0.469754 0.836766 0.634349
Si Si4 0.441152 0.086776 0.836880
Si Si5 0.155457 0.679500 0.714928
O O1 0.459889 0.367334 0.390474
O O2 0.653629 0.594474 0.359520
O O3 0.776532 0.371475 0.364106
O O4 0.613011 0.440621 0.604697
O O5 0.370177 0.255522 0.167013
O O6 0.234458 0.153780 0.368648
O O7 0.476017 0.913960 0.487990
O O8 0.313712 0.742321 0.640873
O O9 0.441598 0.945468 0.758223
O O10 0.529193 0.198220 0.736371
#
# Coordination Sequence:
#
# PCOD9341650 Si02
#       5
#     4   4   4   4   4
#     4  11  26  47  78 112 156 201 251 321 393 477
#     4  11  28  48  81 116 155 203 261 318 401 465
#     4  11  28  48  78 113 153 209 263 330 386 465
#     4  12  27  49  78 112 157 204 268 323 390 464
#     4  11  25  48  73 111 155 203 255 318 394 467
#
# _framework density 26.117937999999999
#
# number of rings (size 3 to 8) (size 9 to 14) (size 15 to 20)
#    0.000    0.800    2.000    2.400   11.200    4.800 
#    0.000    0.000    0.000    0.000    0.000    0.000 
#    0.000    0.000    0.000    0.000    0.000    0.000 
#
# Total GULP energy -111781.871896 kJ/mol
# GULP energy per Si atom -5589.093595 kJ/mol
# Density = 2.605849 g / cm^3
# Si number density = 26.117938 Si / 1000 Ang^3
#
#
#
# Elastic Constant Matrix: (Units=GPa)
#
#
# Indices 1 2 3 4 5 6 
#
# 1 81.3985 11.2512 5.0040 0.0000 0.0000 0.0000
# 2 11.2512 66.8111 58.6981 0.0000 0.0000 0.0000
# 3 5.0040 58.6981 159.1322 0.0000 0.0000 0.0000
# 4 0.0000 0.0000 0.0000 47.3489 0.0000 0.0000
# 5 0.0000 0.0000 0.0000 0.0000 0.7051 0.0000
# 6 0.0000 0.0000 0.0000 0.0000 0.0000 39.9681
#
#
#
# Elastic Compliance Matrix: (Units=1/GPa)
#
#
# Indices 1 2 3 4 5 6 
#
# 1 0.012613 -0.002627 0.000572 0.000000 0.000000 0.000000
# 2 -0.002627 0.022691 -0.008287 0.000000 0.000000 0.000000
# 3 0.000572 -0.008287 0.009323 0.000000 0.000000 0.000000
# 4 0.000000 0.000000 0.000000 0.021120 0.000000 0.000000
# 5 0.000000 0.000000 0.000000 0.000000 1.418325 0.000000
# 6 0.000000 0.000000 0.000000 0.000000 0.000000 0.025020
#
#
# Mechanical properties :
#
#
# Convention : Reuss Voigt Hill
#
# Bulk Modulus (GPa) = 41.76531 50.80538 46.28534
# Shear Modulus (GPa) = 3.25149 33.09698 18.17424
#
# Velocity S-wave (km/s) = 1.11697 3.56366 2.64076
# Velocity P-wave (km/s) = 4.20586 6.03551 5.20176
#
# Compressibility (1/GPa) = 0.02394332
#
# Stress axis : x y z
#
# Youngs Moduli (GPa) = 79.28230 44.07070 107.26242
#
# Poissons Ratio (x) = 0.11577 -0.06139
# Poissons Ratio (y) = 0.20827 0.88891
# Poissons Ratio (z) = -0.04538 0.36522
#
# Static dielectric constant tensor:
#      x y z
#    x 2.113080 0.000000 0.000000 
#    y 0.000000 2.018750 0.000000 
#    z 0.000000 0.000000 2.004910 
# 
# From -- ./inp_files/1052.got.cif
#   From: 2010.05.17/outbox.cif.g08.bks.cpg/sg29_1_cif.got.tgz:1052.got - 2010.06.04 01:19:37.
