data_PCOD9341020
_publ_section_title
;
Structure prediction by ZEFSAII (Michael W. Deem and Ramdas Pophale) SiO2 
 PCOD9341020
Probable space group: P C A 21
;
_chemical_formula_sum "Si O2"
_cell_formula_units_Z 32
_cell_length_a 31.473119
_cell_length_b 5.180334
_cell_length_c 8.300629
_cell_angle_alpha 90.000000
_cell_angle_beta 90.000000
_cell_angle_gamma 90.000000
_cell_volume 1353.345081
_symmetry_space_group_name_H-M "P C A 21"
_symmetry_group_IT_number 29
_symmetry_cell_setting 'orthorhombic'
loop_
_space_group_symop_operation_xyz
x,y,z
-x,-y,1/2+z
1/2-x,y,1/2+z
1/2+x,-y,z
loop_
_atom_site_type_symbol
_atom_site_label
_atom_site_fract_x
_atom_site_fract_y
_atom_site_fract_z
Si Si1 0.517299 0.335986 0.884800
Si Si2 0.876913 0.108359 0.071815
Si Si3 0.528174 0.171261 0.511670
Si Si4 0.316249 0.972226 0.565170
Si Si5 0.254603 0.339527 0.065997
Si Si6 0.113797 0.655710 0.929809
Si Si7 0.290112 0.816074 0.899637
Si Si8 0.169875 0.247181 0.777297
O O1 0.521660 0.256966 0.697502
O O2 0.564216 0.388887 0.957739
O O3 0.489702 0.593585 0.905885
O O4 0.496475 0.092585 0.974542
O O5 0.921773 0.120669 0.984777
O O6 0.883793 0.238827 0.246003
O O7 0.861039 0.825934 0.130288
O O8 0.837507 0.220265 0.972523
O O9 0.364056 0.851893 0.556099
O O10 0.294156 0.813885 0.707697
O O11 0.292875 0.246733 0.608400
O O12 0.311679 0.994169 0.370131
O O13 0.259797 0.593342 0.961841
O O14 0.273700 0.088251 0.971411
O O15 0.288473 0.378005 0.208735
O O16 0.141963 0.398200 0.908780
#
# Coordination Sequence:
#
# PCOD9341020 Si02
#       8
#     4   4   4   4   4   4   4   4
#     4  11  26  44  72 105 149 187 247 295 370 431
#     4   9  22  44  72  96 138 188 241 274 366 438
#     4  11  25  44  73 108 143 192 239 307 356 440
#     4  11  26  41  68 105 134 181 233 307 345 415
#     4  11  25  45  67  96 138 179 235 283 357 421
#     4  10  23  44  72  97 143 194 237 283 368 445
#     4  11  25  44  68 100 134 177 230 295 345 414
#     4  10  22  44  72  97 135 198 234 284 361 450
#
# _framework density 23.645115000000001
#
# number of rings (size 3 to 8) (size 9 to 14) (size 15 to 20)
#    0.000    1.500    1.250    1.500   12.250    3.000 
#    0.000    0.000    0.000    0.000    0.000    0.000 
#    0.000    0.000    0.000    0.000    0.000    0.000 
#
# Total GULP energy -178441.607364 kJ/mol
# GULP energy per Si atom -5576.300230 kJ/mol
# Density = 2.359130 g / cm^3
# Si number density = 23.645115 Si / 1000 Ang^3
#
#
#
# Elastic Constant Matrix: (Units=GPa)
#
#
# Indices 1 2 3 4 5 6 
#
# 1 165.7799 64.0200 36.0496 0.0000 0.0000 0.0000
# 2 64.0200 123.4853 27.5898 0.0000 0.0000 0.0000
# 3 36.0496 27.5898 60.5139 0.0000 0.0000 0.0000
# 4 0.0000 0.0000 0.0000 32.5067 0.0000 0.0000
# 5 0.0000 0.0000 0.0000 0.0000 40.3035 0.0000
# 6 0.0000 0.0000 0.0000 0.0000 0.0000 36.4589
#
#
#
# Elastic Compliance Matrix: (Units=1/GPa)
#
#
# Indices 1 2 3 4 5 6 
#
# 1 0.008072 -0.003463 -0.003230 0.000000 0.000000 0.000000
# 2 -0.003463 0.010502 -0.002725 0.000000 0.000000 0.000000
# 3 -0.003230 -0.002725 0.019692 0.000000 0.000000 0.000000
# 4 0.000000 0.000000 0.000000 0.030763 0.000000 0.000000
# 5 0.000000 0.000000 0.000000 0.000000 0.024812 0.000000
# 6 0.000000 0.000000 0.000000 0.000000 0.000000 0.027428
#
#
# Mechanical properties :
#
#
# Convention : Reuss Voigt Hill
#
# Bulk Modulus (GPa) = 51.46735 67.23311 59.35023
# Shear Modulus (GPa) = 34.11077 36.66181 35.38629
#
# Velocity S-wave (km/s) = 3.80230 3.94191 3.87273
# Velocity P-wave (km/s) = 6.41018 7.01528 6.71955
#
# Compressibility (1/GPa) = 0.01942979
#
# Stress axis : x y z
#
# Youngs Moduli (GPa) = 123.88840 95.21563 50.78310
#
# Poissons Ratio (x) = 0.32975 0.16401
# Poissons Ratio (y) = 0.42905 0.13840
# Poissons Ratio (z) = 0.40011 0.25949
#
# Static dielectric constant tensor:
#      x y z
#    x 1.959450 0.000000 0.000000 
#    y 0.000000 2.027340 0.000000 
#    z 0.000000 0.000000 1.935770 
# 
# From -- ./inp_files/2585.got.cif
#   From: 2010.05.17/outbox.cif.g08.bks.cpg/sg29_2_cif.got.tgz:2585.got - 2010.06.04 01:19:37.
