data_PCOD9341729
_publ_section_title
;
Structure prediction by ZEFSAII (Michael W. Deem and Ramdas Pophale) SiO2 
 PCOD9341729
Probable space group: P C A 21
;
_chemical_formula_sum "Si O2"
_cell_formula_units_Z 16
_cell_length_a 10.135746
_cell_length_b 9.250308
_cell_length_c 5.958456
_cell_angle_alpha 90.000000
_cell_angle_beta 90.000000
_cell_angle_gamma 90.000000
_cell_volume 558.657519
_symmetry_space_group_name_H-M "P C A 21"
_symmetry_group_IT_number 29
_symmetry_cell_setting 'orthorhombic'
loop_
_space_group_symop_operation_xyz
x,y,z
-x,-y,1/2+z
1/2-x,y,1/2+z
1/2+x,-y,z
loop_
_atom_site_type_symbol
_atom_site_label
_atom_site_fract_x
_atom_site_fract_y
_atom_site_fract_z
Si Si1 0.067459 0.310710 0.108490
Si Si2 0.189791 0.598170 0.045022
Si Si3 0.091847 0.865174 0.267540
Si Si4 0.157580 0.146675 0.493532
O O1 0.073977 0.479794 0.070502
O O2 0.069058 0.265317 0.364646
O O3 0.207835 0.234658 0.036418
O O4 0.948741 0.239740 0.972268
O O5 0.265482 0.567433 0.286480
O O6 0.163129 0.767511 0.083811
O O7 0.171990 0.006822 0.334496
O O8 0.946040 0.909718 0.179194
#
# Coordination Sequence:
#
# PCOD9341729 Si02
#       4
#     4   4   4   4
#     4  12  26  49  75 106 159 200 256 326 397 456
#     4  12  30  51  77 116 160 208 262 329 391 470
#     4  12  29  44  83 111 154 206 273 312 400 476
#     4  12  25  48  73 111 149 206 255 329 388 464
#
# _framework density 28.640084999999999
#
# number of rings (size 3 to 8) (size 9 to 14) (size 15 to 20)
#    0.000    0.000    7.500    0.000   10.500    0.000 
#    0.000    0.000    0.000    0.000    0.000    0.000 
#    0.000    0.000    0.000    0.000    0.000    0.000 
#
# Total GULP energy -89488.404644 kJ/mol
# GULP energy per Si atom -5593.025290 kJ/mol
# Density = 2.857490 g / cm^3
# Si number density = 28.640085 Si / 1000 Ang^3
#
#
#
# Elastic Constant Matrix: (Units=GPa)
#
#
# Indices 1 2 3 4 5 6 
#
# 1 117.9436 30.8517 45.1832 0.0000 0.0000 0.0000
# 2 30.8517 189.8071 20.5788 0.0000 0.0000 0.0000
# 3 45.1832 20.5788 104.4208 0.0000 0.0000 0.0000
# 4 0.0000 0.0000 0.0000 49.5866 0.0000 0.0000
# 5 0.0000 0.0000 0.0000 0.0000 66.6150 0.0000
# 6 0.0000 0.0000 0.0000 0.0000 0.0000 55.0348
#
#
#
# Elastic Compliance Matrix: (Units=1/GPa)
#
#
# Indices 1 2 3 4 5 6 
#
# 1 0.010438 -0.001233 -0.004274 0.000000 0.000000 0.000000
# 2 -0.001233 0.005529 -0.000556 0.000000 0.000000 0.000000
# 3 -0.004274 -0.000556 0.011535 0.000000 0.000000 0.000000
# 4 0.000000 0.000000 0.000000 0.020167 0.000000 0.000000
# 5 0.000000 0.000000 0.000000 0.000000 0.015012 0.000000
# 6 0.000000 0.000000 0.000000 0.000000 0.000000 0.018170
#
#
# Mechanical properties :
#
#
# Convention : Reuss Voigt Hill
#
# Bulk Modulus (GPa) = 65.03182 67.26652 66.14917
# Shear Modulus (GPa) = 50.96652 55.28448 53.12550
#
# Velocity S-wave (km/s) = 4.22305 4.39831 4.31157
# Velocity P-wave (km/s) = 6.82164 7.02362 6.92337
#
# Compressibility (1/GPa) = 0.01537709
#
# Stress axis : x y z
#
# Youngs Moduli (GPa) = 95.79954 180.85604 86.68927
#
# Poissons Ratio (x) = 0.22306 0.37048
# Poissons Ratio (y) = 0.11815 0.04820
# Poissons Ratio (z) = 0.40942 0.10056
#
# Static dielectric constant tensor:
#      x y z
#    x 2.253270 0.000000 0.000000 
#    y 0.000000 2.080580 0.000000 
#    z 0.000000 0.000000 2.516040 
# 
# From -- ./inp_files/45.got.cif
#   From: 2010.05.17/outbox.cif.g08.bks.cpg/sg29_1_cif.got.tgz:45.got - 2010.06.04 01:19:37.
