data_PCOD9341570
_publ_section_title
;
Structure prediction by ZEFSAII (Michael W. Deem and Ramdas Pophale) SiO2 
 PCOD9341570
Probable space group: P C A 21
;
_chemical_formula_sum "Si O2"
_cell_formula_units_Z 32
_cell_length_a 10.235635
_cell_length_b 4.924159
_cell_length_c 23.467489
_cell_angle_alpha 90.000000
_cell_angle_beta 90.000000
_cell_angle_gamma 90.000000
_cell_volume 1182.805898
_symmetry_space_group_name_H-M "P C A 21"
_symmetry_group_IT_number 29
_symmetry_cell_setting 'orthorhombic'
loop_
_space_group_symop_operation_xyz
x,y,z
-x,-y,1/2+z
1/2-x,y,1/2+z
1/2+x,-y,z
loop_
_atom_site_type_symbol
_atom_site_label
_atom_site_fract_x
_atom_site_fract_y
_atom_site_fract_z
Si Si1 0.154039 0.261690 0.412650
Si Si2 0.973060 0.179381 0.186253
Si Si3 0.818625 0.599952 0.318771
Si Si4 0.508573 0.097354 0.808930
Si Si5 0.310097 0.957716 0.508385
Si Si6 0.286116 0.514724 0.697484
Si Si7 0.375171 0.201805 0.101539
Si Si8 0.480352 0.462236 0.507061
O O1 0.248955 0.461394 0.377836
O O2 0.230946 0.061358 0.453991
O O3 0.089000 0.090406 0.361403
O O4 0.054996 0.437547 0.450630
O O5 0.025722 0.029199 0.243372
O O6 0.816795 0.232832 0.194336
O O7 0.062319 0.450568 0.182416
O O8 0.982274 0.991312 0.131232
O O9 0.939818 0.404313 0.308337
O O10 0.728588 0.569315 0.263569
O O11 0.871942 0.902284 0.322919
O O12 0.221458 0.027945 0.562185
O O13 0.439932 0.148457 0.508041
O O14 0.348839 0.644221 0.508417
O O15 0.210932 0.328265 0.651759
O O16 0.438231 0.432106 0.061355
#
# Coordination Sequence:
#
# PCOD9341570 Si02
#       8
#     4   4   4   4   4   4   4   4
#     4  11  24  46  75 104 144 199 246 321 385 459
#     4  11  25  47  71 115 154 205 259 322 394 469
#     4  11  24  44  68 106 146 193 241 311 380 460
#     4  11  24  44  68 105 147 191 245 308 382 462
#     4  11  27  47  73 105 148 193 261 318 385 457
#     4  11  25  45  73 111 154 205 256 322 385 476
#     4  11  26  44  75 102 152 203 255 321 391 459
#     4  11  27  47  71 108 145 197 259 319 386 458
#
# _framework density 27.054314999999999
#
# number of rings (size 3 to 8) (size 9 to 14) (size 15 to 20)
#    0.000    1.000    2.500    2.250    5.250    7.000 
#    2.250    0.000    0.000    0.000    0.000    0.000 
#    0.000    0.000    0.000    0.000    0.000    0.000 
#
# Total GULP energy -179437.850815 kJ/mol
# GULP energy per Si atom -5607.432838 kJ/mol
# Density = 2.699274 g / cm^3
# Si number density = 27.054315 Si / 1000 Ang^3
#
#
#
# Elastic Constant Matrix: (Units=GPa)
#
#
# Indices 1 2 3 4 5 6 
#
# 1 101.0723 17.9824 37.7170 0.0000 0.0000 0.0000
# 2 17.9824 57.8045 31.5916 0.0000 0.0000 0.0000
# 3 37.7170 31.5916 161.1123 0.0000 0.0000 0.0000
# 4 0.0000 0.0000 0.0000 30.1599 0.0000 0.0000
# 5 0.0000 0.0000 0.0000 0.0000 47.2829 0.0000
# 6 0.0000 0.0000 0.0000 0.0000 0.0000 36.9432
#
#
#
# Elastic Compliance Matrix: (Units=1/GPa)
#
#
# Indices 1 2 3 4 5 6 
#
# 1 0.011102 -0.002277 -0.002153 0.000000 0.000000 0.000000
# 2 -0.002277 0.019843 -0.003358 0.000000 0.000000 0.000000
# 3 -0.002153 -0.003358 0.007369 0.000000 0.000000 0.000000
# 4 0.000000 0.000000 0.000000 0.033157 0.000000 0.000000
# 5 0.000000 0.000000 0.000000 0.000000 0.021149 0.000000
# 6 0.000000 0.000000 0.000000 0.000000 0.000000 0.027069
#
#
# Mechanical properties :
#
#
# Convention : Reuss Voigt Hill
#
# Bulk Modulus (GPa) = 43.97668 54.95235 49.46451
# Shear Modulus (GPa) = 35.00307 38.39041 36.69674
#
# Velocity S-wave (km/s) = 3.60086 3.77106 3.68694
# Velocity P-wave (km/s) = 5.79469 6.27034 6.03720
#
# Compressibility (1/GPa) = 0.02273932
#
# Stress axis : x y z
#
# Youngs Moduli (GPa) = 90.07103 50.39480 135.70022
#
# Poissons Ratio (x) = 0.11477 0.29210
# Poissons Ratio (y) = 0.20513 0.45566
# Poissons Ratio (z) = 0.19388 0.16922
#
# Static dielectric constant tensor:
#      x y z
#    x 2.151630 0.000000 0.000000 
#    y 0.000000 2.055950 0.000000 
#    z 0.000000 0.000000 2.072200 
# 
# From -- ./inp_files/5722.got.cif
#   From: 2010.05.17/outbox.cif.g08.bks.cpg/sg29_3_cif.got.tgz:5722.got - 2010.06.04 01:19:37.
