data_PCOD9341915
_publ_section_title
;
Structure prediction by ZEFSAII (Michael W. Deem and Ramdas Pophale) SiO2 
 PCOD9341915
Probable space group: P N C 2
;
_chemical_formula_sum "Si O2"
_cell_formula_units_Z 24
_cell_length_a 9.279326
_cell_length_b 7.792892
_cell_length_c 14.531951
_cell_angle_alpha 90.000000
_cell_angle_beta 90.000000
_cell_angle_gamma 90.000000
_cell_volume 1050.845853
_symmetry_space_group_name_H-M "P N C 2"
_symmetry_group_IT_number 30
_symmetry_cell_setting 'orthorhombic'
loop_
_space_group_symop_operation_xyz
x,y,z
-x,-y,z
-x,1/2+y,1/2+z
x,1/2-y,1/2+z
loop_
_atom_site_type_symbol
_atom_site_label
_atom_site_fract_x
_atom_site_fract_y
_atom_site_fract_z
Si Si1 0.240998 0.843780 0.736190
Si Si2 0.166728 0.357796 0.528274
Si Si3 0.166621 0.947484 0.354634
Si Si4 0.000000 0.500000 0.355837
Si Si5 0.859628 0.252366 0.050428
Si Si6 0.500000 0.000000 0.841709
Si Si7 0.401043 0.165880 0.448100
O O1 0.250202 0.648562 0.772396
O O2 0.094195 0.888116 0.788727
O O3 0.223303 0.855742 0.627847
O O4 0.363356 0.962544 0.778019
O O5 0.188853 0.553905 0.558474
O O6 0.272754 0.101247 0.381600
O O7 0.103984 0.396151 0.424945
O O8 0.030900 0.259482 0.572230
O O9 0.161788 0.831353 0.449006
O O10 0.689626 0.752041 0.531608
O O11 0.000000 0.000000 0.334795
O O12 0.481509 0.171450 0.903047
O O13 0.500000 0.000000 0.466276
#
# Coordination Sequence:
#
# PCOD9341915 Si02
#       7
#     4   4   4   2   4   2   4
#     4  12  24  43  73 107 148 197 238 306 379 434
#     4  10  20  45  66 106 150 183 246 318 358 428
#     4  12  23  43  72 110 138 183 260 300 352 441
#     4  10  18  38  74  98 140 194 238 304 366 412
#     4  10  23  42  71 106 143 189 246 308 366 429
#     4  12  26  48  66 116 158 190 246 298 378 464
#     4  12  24  43  79 106 146 202 240 301 381 448
#
# _framework density 22.838744999999999
#
# number of rings (size 3 to 8) (size 9 to 14) (size 15 to 20)
#    0.000    1.000    8.333    0.000    3.500    0.000 
#    1.500    1.667    3.667    0.000    0.000    0.000 
#    0.000    0.000    0.000    0.000    0.000    0.000 
#
# Total GULP energy -134002.376043 kJ/mol
# GULP energy per Si atom -5583.432335 kJ/mol
# Density = 2.278676 g / cm^3
# Si number density = 22.838745 Si / 1000 Ang^3
#
#
#
# Elastic Constant Matrix: (Units=GPa)
#
#
# Indices 1 2 3 4 5 6 
#
# 1 75.0114 49.4165 19.8302 0.0000 0.0000 0.0000
# 2 49.4165 107.9769 24.5821 0.0000 0.0000 0.0000
# 3 19.8302 24.5821 74.0340 0.0000 0.0000 0.0000
# 4 0.0000 0.0000 0.0000 13.3853 0.0000 0.0000
# 5 0.0000 0.0000 0.0000 0.0000 -0.2736 0.0000
# 6 0.0000 0.0000 0.0000 0.0000 0.0000 56.6538
#
#
#
# Elastic Compliance Matrix: (Units=1/GPa)
#
#
# Indices 1 2 3 4 5 6 
#
# 1 0.019486 -0.008362 -0.002443 0.000000 0.000000 0.000000
# 2 -0.008362 0.013607 -0.002278 0.000000 0.000000 0.000000
# 3 -0.002443 -0.002278 0.014918 0.000000 0.000000 0.000000
# 4 0.000000 0.000000 0.000000 0.074709 0.000000 0.000000
# 5 0.000000 0.000000 0.000000 0.000000 -3.654617 0.000000
# 6 0.000000 0.000000 0.000000 0.000000 0.000000 0.017651
#
#
# Mechanical properties :
#
#
# Convention : Reuss Voigt Hill
#
# Bulk Modulus (GPa) = 45.77730 49.40887 47.59309
# Shear Modulus (GPa) = -1.43645 24.83268 11.69811
#
# Velocity S-wave (km/s) = -0.79393 3.30101 2.26565
# Velocity P-wave (km/s) = 4.38712 6.01744 5.26576
#
# Compressibility (1/GPa) = 0.02184489
#
# Stress axis : x y z
#
# Youngs Moduli (GPa) = 51.31994 73.49342 67.03265
#
# Poissons Ratio (x) = 0.61452 0.16375
# Poissons Ratio (y) = 0.42912 0.15272
# Poissons Ratio (z) = 0.12537 0.16744
#
# Static dielectric constant tensor:
#      x y z
#    x 1.884220 0.000000 0.000000 
#    y 0.000000 2.117880 0.000000 
#    z 0.000000 0.000000 1.839170 
# 
# From -- ./inp_files/5049.got.cif
#   From: 2010.05.17/outbox.cif.g08.bks.cpg/sg30_3_cif.got.tgz:5049.got - 2010.06.03 17:03:02.
