data_PCOD9341668
_publ_section_title
;
Structure prediction by ZEFSAII (Michael W. Deem and Ramdas Pophale) SiO2 
 PCOD9341668
Probable space group: P C A 21
;
_chemical_formula_sum "Si O2"
_cell_formula_units_Z 20
_cell_length_a 9.615542
_cell_length_b 9.075382
_cell_length_c 10.238692
_cell_angle_alpha 90.000000
_cell_angle_beta 90.000000
_cell_angle_gamma 90.000000
_cell_volume 893.476558
_symmetry_space_group_name_H-M "P C A 21"
_symmetry_group_IT_number 29
_symmetry_cell_setting 'orthorhombic'
loop_
_space_group_symop_operation_xyz
x,y,z
-x,-y,1/2+z
1/2-x,y,1/2+z
1/2+x,-y,z
loop_
_atom_site_type_symbol
_atom_site_label
_atom_site_fract_x
_atom_site_fract_y
_atom_site_fract_z
Si Si1 0.779792 0.816983 0.546450
Si Si2 0.750539 0.341813 0.477023
Si Si3 0.031492 0.897396 0.076254
Si Si4 0.512807 0.743467 0.835252
Si Si5 0.803552 0.544279 0.224005
O O1 0.625647 0.881973 0.524358
O O2 0.844024 0.748670 0.415170
O O3 0.769040 0.692206 0.660336
O O4 0.885849 0.950711 0.568989
O O5 0.875860 0.229331 0.506303
O O6 0.612283 0.256701 0.434732
O O7 0.769849 0.455019 0.356516
O O8 0.715617 0.428952 0.607960
O O9 0.012524 0.868332 0.230435
O O10 0.536479 0.597268 0.747108
#
# Coordination Sequence:
#
# PCOD9341668 Si02
#       5
#     4   4   4   4   4
#     4  11  26  50  77 112 155 203 258 319 386 467
#     4  12  25  50  77 113 152 203 255 325 386 463
#     4  11  27  51  75 114 152 206 261 320 389 463
#     4  11  26  48  76 113 154 204 257 312 390 458
#     4  11  26  45  77 112 151 198 257 316 385 459
#
# _framework density 22.384473
#
# number of rings (size 3 to 8) (size 9 to 14) (size 15 to 20)
#    0.000    0.800    4.000    1.200    8.400    6.400 
#    7.200    0.000    0.000    0.000    0.000    0.000 
#    0.000    0.000    0.000    0.000    0.000    0.000 
#
# Total GULP energy -111588.384743 kJ/mol
# GULP energy per Si atom -5579.419237 kJ/mol
# Density = 2.233352 g / cm^3
# Si number density = 22.384473 Si / 1000 Ang^3
#
#
#
# Elastic Constant Matrix: (Units=GPa)
#
#
# Indices 1 2 3 4 5 6 
#
# 1 127.3364 23.2903 37.1019 0.0000 0.0000 0.0000
# 2 23.2903 63.9367 34.3783 0.0000 0.0000 0.0000
# 3 37.1019 34.3783 131.2746 0.0000 0.0000 0.0000
# 4 0.0000 0.0000 0.0000 13.1553 0.0000 0.0000
# 5 0.0000 0.0000 0.0000 0.0000 44.6438 0.0000
# 6 0.0000 0.0000 0.0000 0.0000 0.0000 30.1673
#
#
#
# Elastic Compliance Matrix: (Units=1/GPa)
#
#
# Indices 1 2 3 4 5 6 
#
# 1 0.008811 -0.002177 -0.001920 0.000000 0.000000 0.000000
# 2 -0.002177 0.018742 -0.004293 0.000000 0.000000 0.000000
# 3 -0.001920 -0.004293 0.009284 0.000000 0.000000 0.000000
# 4 0.000000 0.000000 0.000000 0.076015 0.000000 0.000000
# 5 0.000000 0.000000 0.000000 0.000000 0.022400 0.000000
# 6 0.000000 0.000000 0.000000 0.000000 0.000000 0.033148
#
#
# Mechanical properties :
#
#
# Convention : Reuss Voigt Hill
#
# Bulk Modulus (GPa) = 49.85759 56.89875 53.37817
# Shear Modulus (GPa) = 26.05991 32.77843 29.41917
#
# Velocity S-wave (km/s) = 3.41573 3.83082 3.62921
# Velocity P-wave (km/s) = 6.15451 6.71125 6.43890
#
# Compressibility (1/GPa) = 0.02005713
#
# Stress axis : x y z
#
# Youngs Moduli (GPa) = 113.49627 53.35689 107.70667
#
# Poissons Ratio (x) = 0.11617 0.20680
# Poissons Ratio (y) = 0.24710 0.46236
# Poissons Ratio (z) = 0.21792 0.22905
#
# Static dielectric constant tensor:
#      x y z
#    x 1.854410 0.000000 0.000000 
#    y 0.000000 1.926030 0.000000 
#    z 0.000000 0.000000 1.857080 
# 
# From -- ./inp_files/2742.got.cif
#   From: 2010.05.17/outbox.cif.g08.bks.cpg/sg29_2_cif.got.tgz:2742.got - 2010.06.04 01:19:37.
