data_PCOD9341031
_publ_section_title
;
Structure prediction by ZEFSAII (Michael W. Deem and Ramdas Pophale) SiO2 
 PCOD9341031
Probable space group: P C A 21
;
_chemical_formula_sum "Si O2"
_cell_formula_units_Z 28
_cell_length_a 18.596138
_cell_length_b 5.183827
_cell_length_c 13.251984
_cell_angle_alpha 90.000000
_cell_angle_beta 90.000000
_cell_angle_gamma 90.000000
_cell_volume 1277.480156
_symmetry_space_group_name_H-M "P C A 21"
_symmetry_group_IT_number 29
_symmetry_cell_setting 'orthorhombic'
loop_
_space_group_symop_operation_xyz
x,y,z
-x,-y,1/2+z
1/2-x,y,1/2+z
1/2+x,-y,z
loop_
_atom_site_type_symbol
_atom_site_label
_atom_site_fract_x
_atom_site_fract_y
_atom_site_fract_z
Si Si1 0.879272 0.223795 0.029310
Si Si2 0.303536 0.766511 0.240400
Si Si3 0.616245 0.707627 0.809351
Si Si4 0.144056 0.752002 0.305307
Si Si5 0.969903 0.856193 0.128782
Si Si6 0.569696 0.750305 0.220276
Si Si7 0.958279 0.560194 0.517049
O O1 0.831796 0.282256 0.126837
O O2 0.906466 0.932937 0.052886
O O3 0.840171 0.261184 0.924126
O O4 0.957102 0.362371 0.018868
O O5 0.327230 0.521486 0.304809
O O6 0.217829 0.766203 0.243903
O O7 0.342005 0.022852 0.287140
O O8 0.561050 0.673928 0.715482
O O9 0.572290 0.655121 0.911347
O O10 0.091320 0.515636 0.274945
O O11 0.106566 0.022645 0.281589
O O12 0.993134 0.108593 0.195004
O O13 0.033262 0.732605 0.061107
O O14 0.589526 0.695388 0.103639
#
# Coordination Sequence:
#
# PCOD9341031 Si02
#       7
#     4   4   4   4   4   4   4
#     4  10  25  41  71 101 135 186 228 285 364 403
#     4  11  26  48  64 101 144 185 235 288 333 432
#     4  11  25  42  70  97 142 184 229 288 363 401
#     4  12  26  45  72  97 142 190 236 281 340 434
#     4  10  22  45  68 106 143 172 235 306 351 420
#     4  11  25  42  66 107 132 173 236 292 341 407
#     4  11  23  41  73 103 140 176 225 298 356 413
#
# _framework density 21.918147000000001
#
# number of rings (size 3 to 8) (size 9 to 14) (size 15 to 20)
#    0.000    1.143    2.857    1.714    6.000    2.286 
#    0.000    0.000    0.000    0.000    0.000    0.000 
#    0.000    0.000    0.000    0.000    0.000    0.000 
#
# Total GULP energy -155920.746727 kJ/mol
# GULP energy per Si atom -5568.598097 kJ/mol
# Density = 2.186826 g / cm^3
# Si number density = 21.918147 Si / 1000 Ang^3
#
#
#
# Elastic Constant Matrix: (Units=GPa)
#
#
# Indices 1 2 3 4 5 6 
#
# 1 42.0834 8.0866 3.7663 0.0000 0.0000 0.0000
# 2 8.0866 104.1328 23.5842 0.0000 0.0000 0.0000
# 3 3.7663 23.5842 118.8845 0.0000 0.0000 0.0000
# 4 0.0000 0.0000 0.0000 19.3514 0.0000 0.0000
# 5 0.0000 0.0000 0.0000 0.0000 33.7420 0.0000
# 6 0.0000 0.0000 0.0000 0.0000 0.0000 7.8488
#
#
#
# Elastic Compliance Matrix: (Units=1/GPa)
#
#
# Indices 1 2 3 4 5 6 
#
# 1 0.024141 -0.001782 -0.000411 0.000000 0.000000 0.000000
# 2 -0.001782 0.010186 -0.001964 0.000000 0.000000 0.000000
# 3 -0.000411 -0.001964 0.008814 0.000000 0.000000 0.000000
# 4 0.000000 0.000000 0.000000 0.051676 0.000000 0.000000
# 5 0.000000 0.000000 0.000000 0.000000 0.029637 0.000000
# 6 0.000000 0.000000 0.000000 0.000000 0.000000 0.127407
#
#
# Mechanical properties :
#
#
# Convention : Reuss Voigt Hill
#
# Bulk Modulus (GPa) = 28.71294 37.33056 33.02175
# Shear Modulus (GPa) = 18.39684 27.49934 22.94809
#
# Velocity S-wave (km/s) = 2.90028 3.54593 3.23923
# Velocity P-wave (km/s) = 4.93397 5.81667 5.39341
#
# Compressibility (1/GPa) = 0.03482751
#
# Stress axis : x y z
#
# Youngs Moduli (GPa) = 41.42249 98.17048 113.45282
#
# Poissons Ratio (x) = 0.17490 0.04667
# Poissons Ratio (y) = 0.07380 0.22286
# Poissons Ratio (z) = 0.01704 0.19284
#
# Static dielectric constant tensor:
#      x y z
#    x 1.864630 0.000000 0.000000 
#    y 0.000000 1.985570 0.000000 
#    z 0.000000 0.000000 1.820890 
# 
# From -- ./inp_files/3763.got.cif
#   From: 2010.05.17/outbox.cif.g08.bks.cpg/sg29_2_cif.got.tgz:3763.got - 2010.06.04 01:19:37.
