data_PCOD9341503
_publ_section_title
;
Structure prediction by ZEFSAII (Michael W. Deem and Ramdas Pophale) SiO2 
 PCOD9341503
Probable space group: P C A 21
;
_chemical_formula_sum "Si O2"
_cell_formula_units_Z 32
_cell_length_a 9.493632
_cell_length_b 13.268991
_cell_length_c 12.447098
_cell_angle_alpha 90.000000
_cell_angle_beta 90.000000
_cell_angle_gamma 90.000000
_cell_volume 1567.972356
_symmetry_space_group_name_H-M "P C A 21"
_symmetry_group_IT_number 29
_symmetry_cell_setting 'orthorhombic'
loop_
_space_group_symop_operation_xyz
x,y,z
-x,-y,1/2+z
1/2-x,y,1/2+z
1/2+x,-y,z
loop_
_atom_site_type_symbol
_atom_site_label
_atom_site_fract_x
_atom_site_fract_y
_atom_site_fract_z
Si Si1 0.608797 0.381898 0.852820
Si Si2 0.910966 0.868682 0.125498
Si Si3 0.266370 0.119184 0.345294
Si Si4 0.339285 0.786862 0.528325
Si Si5 0.515932 0.028785 0.939778
Si Si6 0.226332 0.290437 0.993637
Si Si7 0.359728 0.504673 0.943639
Si Si8 0.430996 0.678558 0.107391
O O1 0.603633 0.302990 0.952173
O O2 0.498170 0.468744 0.881963
O O3 0.762560 0.431382 0.862773
O O4 0.576253 0.335578 0.736086
O O5 0.818229 0.893989 0.225505
O O6 0.827216 0.787630 0.054821
O O7 0.063178 0.813907 0.131906
O O8 0.942507 0.968685 0.056408
O O9 0.273377 0.236952 0.376912
O O10 0.113539 0.067774 0.365340
O O11 0.394155 0.067988 0.412089
O O12 0.365572 0.883747 0.452904
O O13 0.185737 0.758115 0.567464
O O14 0.081318 0.291719 0.058874
O O15 0.282030 0.403261 0.982177
O O16 0.392228 0.573894 0.046726
#
# Coordination Sequence:
#
# PCOD9341503 Si02
#       8
#     4   4   4   4   4   4   4   4
#     4  11  23  41  66  93 130 177 215 274 341 387
#     4   9  22  42  68  91 135 172 212 278 332 379
#     4  11  23  42  70  97 130 184 213 273 342 383
#     4   9  22  48  60  96 135 164 228 285 311 403
#     4   9  23  44  63  98 136 164 224 277 313 406
#     4  11  24  41  64  97 132 168 228 270 325 409
#     4  11  23  44  59  97 137 164 229 273 320 407
#     4  11  26  40  70  95 127 185 217 276 344 392
#
# _framework density 20.408524
#
# number of rings (size 3 to 8) (size 9 to 14) (size 15 to 20)
#    0.750    1.000    2.500    0.000    7.000    4.000 
#    0.000    0.000    0.000    0.000    0.000    0.000 
#    0.000    0.000    0.000    0.000    0.000    0.000 
#
# Total GULP energy -178274.478181 kJ/mol
# GULP energy per Si atom -5571.077443 kJ/mol
# Density = 2.036207 g / cm^3
# Si number density = 20.408524 Si / 1000 Ang^3
#
#
#
# Elastic Constant Matrix: (Units=GPa)
#
#
# Indices 1 2 3 4 5 6 
#
# 1 61.2888 2.6616 0.8919 0.0000 0.0000 0.0000
# 2 2.6616 39.0576 -10.5856 0.0000 0.0000 0.0000
# 3 0.8919 -10.5856 40.5502 0.0000 0.0000 0.0000
# 4 0.0000 0.0000 0.0000 11.1470 0.0000 0.0000
# 5 0.0000 0.0000 0.0000 0.0000 15.6973 0.0000
# 6 0.0000 0.0000 0.0000 0.0000 0.0000 13.4885
#
#
#
# Elastic Compliance Matrix: (Units=1/GPa)
#
#
# Indices 1 2 3 4 5 6 
#
# 1 0.016383 -0.001307 -0.000701 0.000000 0.000000 0.000000
# 2 -0.001307 0.027657 0.007249 0.000000 0.000000 0.000000
# 3 -0.000701 0.007249 0.026568 0.000000 0.000000 0.000000
# 4 0.000000 0.000000 0.000000 0.089710 0.000000 0.000000
# 5 0.000000 0.000000 0.000000 0.000000 0.063705 0.000000
# 6 0.000000 0.000000 0.000000 0.000000 0.000000 0.074137
#
#
# Mechanical properties :
#
#
# Convention : Reuss Voigt Hill
#
# Bulk Modulus (GPa) = 12.33205 14.09248 13.21226
# Shear Modulus (GPa) = 15.88768 17.92849 16.90809
#
# Velocity S-wave (km/s) = 2.79316 2.96713 2.88146
# Velocity P-wave (km/s) = 4.05685 4.31957 4.19027
#
# Compressibility (1/GPa) = 0.08108950
#
# Stress axis : x y z
#
# Youngs Moduli (GPa) = 61.03832 36.15755 37.63862
#
# Poissons Ratio (x) = 0.04724 0.02640
# Poissons Ratio (y) = 0.07975 -0.27282
# Poissons Ratio (z) = 0.04281 -0.26209
#
# Static dielectric constant tensor:
#      x y z
#    x 1.762340 0.000000 0.000000 
#    y 0.000000 1.735240 0.000000 
#    z 0.000000 0.000000 1.746210 
# 
# From -- ./inp_files/2937.got.cif
#   From: 2010.05.17/outbox.cif.g08.bks.cpg/sg29_2_cif.got.tgz:2937.got - 2010.06.04 01:19:37.
