data_PCOD9341172
_publ_section_title
;
Structure prediction by ZEFSAII (Michael W. Deem and Ramdas Pophale) SiO2 
 PCOD9341172
Probable space group: P C A 21
;
_chemical_formula_sum "Si O2"
_cell_formula_units_Z 32
_cell_length_a 7.796293
_cell_length_b 14.503817
_cell_length_c 11.653746
_cell_angle_alpha 90.000000
_cell_angle_beta 90.000000
_cell_angle_gamma 90.000000
_cell_volume 1317.759064
_symmetry_space_group_name_H-M "P C A 21"
_symmetry_group_IT_number 29
_symmetry_cell_setting 'orthorhombic'
loop_
_space_group_symop_operation_xyz
x,y,z
-x,-y,1/2+z
1/2-x,y,1/2+z
1/2+x,-y,z
loop_
_atom_site_type_symbol
_atom_site_label
_atom_site_fract_x
_atom_site_fract_y
_atom_site_fract_z
Si Si1 0.524206 0.331884 0.114730
Si Si2 0.204886 0.726837 0.433241
Si Si3 0.770267 0.791427 0.269529
Si Si4 0.755123 0.431731 0.300866
Si Si5 0.098797 0.847496 0.754326
Si Si6 0.559585 0.105774 0.523170
Si Si7 0.322193 0.014598 0.395674
Si Si8 0.867771 0.617200 0.887283
O O1 0.409400 0.262130 0.191296
O O2 0.649768 0.398145 0.189417
O O3 0.648013 0.274434 0.029350
O O4 0.409477 0.389527 0.023068
O O5 0.157598 0.623417 0.402997
O O6 0.282615 0.774296 0.318494
O O7 0.054818 0.790794 0.476256
O O8 0.582483 0.806513 0.212723
O O9 0.817867 0.893465 0.316560
O O10 0.714136 0.717096 0.366285
O O11 0.749174 0.538723 0.330806
O O12 0.951098 0.397343 0.318448
O O13 0.168134 0.891827 0.638462
O O14 0.068862 0.931685 0.839514
O O15 0.380048 0.054976 0.519225
O O16 0.656779 0.046216 0.426894
#
# Coordination Sequence:
#
# PCOD9341172 Si02
#       8
#     4   4   4   4   4   4   4   4
#     4  11  25  46  76 100 145 195 231 303 364 422
#     4  10  23  45  67 102 141 176 242 293 347 437
#     4  12  25  47  70 102 143 188 242 295 361 430
#     4  11  23  47  73 105 143 191 232 298 357 429
#     4  11  24  44  66  99 137 182 235 299 349 436
#     4  11  25  40  70  96 135 188 227 293 370 408
#     4  11  26  44  66 102 137 181 243 297 351 439
#     4  11  27  47  72 110 149 179 252 296 351 451
#
# _framework density 24.283650000000002
#
# number of rings (size 3 to 8) (size 9 to 14) (size 15 to 20)
#    0.000    1.000    3.750    2.250    3.500    7.000 
#    0.000    0.000    0.000    0.000    0.000    0.000 
#    0.000    0.000    0.000    0.000    0.000    0.000 
#
# Total GULP energy -178421.882375 kJ/mol
# GULP energy per Si atom -5575.683824 kJ/mol
# Density = 2.422838 g / cm^3
# Si number density = 24.283650 Si / 1000 Ang^3
#
#
#
# Elastic Constant Matrix: (Units=GPa)
#
#
# Indices 1 2 3 4 5 6 
#
# 1 54.3616 12.1655 16.3453 0.0000 0.0000 0.0000
# 2 12.1655 98.7062 1.4499 0.0000 0.0000 0.0000
# 3 16.3453 1.4499 76.6574 0.0000 0.0000 0.0000
# 4 0.0000 0.0000 0.0000 30.3451 0.0000 0.0000
# 5 0.0000 0.0000 0.0000 0.0000 38.1435 0.0000
# 6 0.0000 0.0000 0.0000 0.0000 0.0000 32.6895
#
#
#
# Elastic Compliance Matrix: (Units=1/GPa)
#
#
# Indices 1 2 3 4 5 6 
#
# 1 0.020222 -0.002430 -0.004266 0.000000 0.000000 0.000000
# 2 -0.002430 0.010426 0.000321 0.000000 0.000000 0.000000
# 3 -0.004266 0.000321 0.013949 0.000000 0.000000 0.000000
# 4 0.000000 0.000000 0.000000 0.032954 0.000000 0.000000
# 5 0.000000 0.000000 0.000000 0.000000 0.026217 0.000000
# 6 0.000000 0.000000 0.000000 0.000000 0.000000 0.030591
#
#
# Mechanical properties :
#
#
# Convention : Reuss Voigt Hill
#
# Bulk Modulus (GPa) = 31.40025 32.18294 31.79160
# Shear Modulus (GPa) = 31.70118 33.55326 32.62722
#
# Velocity S-wave (km/s) = 3.61703 3.72118 3.66948
# Velocity P-wave (km/s) = 5.51385 5.63424 5.57437
#
# Compressibility (1/GPa) = 0.03184688
#
# Stress axis : x y z
#
# Youngs Moduli (GPa) = 49.45179 95.91575 71.69198
#
# Poissons Ratio (x) = 0.23304 0.30583
# Poissons Ratio (y) = 0.12015 -0.02300
# Poissons Ratio (z) = 0.21095 -0.03078
#
# Static dielectric constant tensor:
#      x y z
#    x 2.096300 0.000000 0.000000 
#    y 0.000000 1.978770 0.000000 
#    z 0.000000 0.000000 2.008610 
# 
# From -- ./inp_files/2921.got.cif
#   From: 2010.05.17/outbox.cif.g08.bks.cpg/sg29_2_cif.got.tgz:2921.got - 2010.06.04 01:19:37.
