data_PCOD9341325
_publ_section_title
;
Structure prediction by ZEFSAII (Michael W. Deem and Ramdas Pophale) SiO2 
 PCOD9341325
Probable space group: P C A 21
;
_chemical_formula_sum "Si O2"
_cell_formula_units_Z 24
_cell_length_a 10.849777
_cell_length_b 5.279601
_cell_length_c 14.790084
_cell_angle_alpha 90.000000
_cell_angle_beta 90.000000
_cell_angle_gamma 90.000000
_cell_volume 847.212891
_symmetry_space_group_name_H-M "P C A 21"
_symmetry_group_IT_number 29
_symmetry_cell_setting 'orthorhombic'
loop_
_space_group_symop_operation_xyz
x,y,z
-x,-y,1/2+z
1/2-x,y,1/2+z
1/2+x,-y,z
loop_
_atom_site_type_symbol
_atom_site_label
_atom_site_fract_x
_atom_site_fract_y
_atom_site_fract_z
Si Si1 0.961036 0.150745 0.151770
Si Si2 0.336343 0.509928 0.723237
Si Si3 0.304816 0.245293 0.065544
Si Si4 0.043019 0.837505 0.994390
Si Si5 0.314388 0.439698 0.396262
Si Si6 0.019673 0.872168 0.321099
O O1 0.840777 0.037007 0.099819
O O2 0.940353 0.033273 0.251100
O O3 0.037450 0.399454 0.181042
O O4 0.935754 0.641833 0.027492
O O5 0.239121 0.428380 0.646624
O O6 0.286027 0.401777 0.818294
O O7 0.364102 0.791629 0.760551
O O8 0.217206 0.257261 0.979115
O O9 0.058004 0.001715 0.085500
O O10 0.158686 0.702760 0.947902
O O11 0.971684 0.989581 0.915891
O O12 0.442926 0.375097 0.348558
#
# Coordination Sequence:
#
# PCOD9341325 Si02
#       6
#     4   4   4   4   4   4
#     4  10  24  49  70 112 163 204 273 332 393 504
#     4  12  26  47  77 114 159 213 270 331 416 479
#     4  10  24  49  75 113 159 215 261 329 419 479
#     4  10  25  47  74 115 161 207 277 336 392 509
#     4  12  23  46  78 111 157 213 266 329 412 480
#     4  12  24  46  74 113 161 206 275 333 396 491
#
# _framework density 28.328181000000001
#
# number of rings (size 3 to 8) (size 9 to 14) (size 15 to 20)
#    1.000    0.000    1.667    5.000    0.000    4.000 
#    3.000    1.667    0.000    0.000    0.000    0.000 
#    0.000    0.000    0.000    0.000    0.000    0.000 
#
# Total GULP energy -133876.030846 kJ/mol
# GULP energy per Si atom -5578.167952 kJ/mol
# Density = 2.826370 g / cm^3
# Si number density = 28.328181 Si / 1000 Ang^3
#
#
#
# Elastic Constant Matrix: (Units=GPa)
#
#
# Indices 1 2 3 4 5 6 
#
# 1 87.3340 37.1688 60.9687 0.0000 0.0000 0.0000
# 2 37.1688 74.5140 51.8045 0.0000 0.0000 0.0000
# 3 60.9687 51.8045 254.7873 0.0000 0.0000 0.0000
# 4 0.0000 0.0000 0.0000 70.6728 0.0000 0.0000
# 5 0.0000 0.0000 0.0000 0.0000 65.8295 0.0000
# 6 0.0000 0.0000 0.0000 0.0000 0.0000 28.8403
#
#
#
# Elastic Compliance Matrix: (Units=1/GPa)
#
#
# Indices 1 2 3 4 5 6 
#
# 1 0.015835 -0.006131 -0.002543 0.000000 0.000000 0.000000
# 2 -0.006131 0.018003 -0.002193 0.000000 0.000000 0.000000
# 3 -0.002543 -0.002193 0.004979 0.000000 0.000000 0.000000
# 4 0.000000 0.000000 0.000000 0.014150 0.000000 0.000000
# 5 0.000000 0.000000 0.000000 0.000000 0.015191 0.000000
# 6 0.000000 0.000000 0.000000 0.000000 0.000000 0.034674
#
#
# Mechanical properties :
#
#
# Convention : Reuss Voigt Hill
#
# Bulk Modulus (GPa) = 58.53614 79.61326 69.07470
# Shear Modulus (GPa) = 38.38488 50.84806 44.61647
#
# Velocity S-wave (km/s) = 3.68504 4.24130 3.97291
# Velocity P-wave (km/s) = 6.23012 7.22148 6.74404
#
# Compressibility (1/GPa) = 0.01708346
#
# Stress axis : x y z
#
# Youngs Moduli (GPa) = 63.15318 55.54495 200.83404
#
# Poissons Ratio (x) = 0.34054 0.51063
# Poissons Ratio (y) = 0.38718 0.44052
# Poissons Ratio (z) = 0.16057 0.12184
#
# Static dielectric constant tensor:
#      x y z
#    x 2.353530 0.000000 0.000000 
#    y 0.000000 2.341760 0.000000 
#    z 0.000000 0.000000 2.027890 
# 
# From -- ./inp_files/4462.got.cif
#   From: 2010.05.17/outbox.cif.g08.bks.cpg/sg29_3_cif.got.tgz:4462.got - 2010.06.04 01:19:37.
