data_PCOD9341110
_publ_section_title
;
Structure prediction by ZEFSAII (Michael W. Deem and Ramdas Pophale) SiO2 
 PCOD9341110
Probable space group: P C A 21
;
_chemical_formula_sum "Si O2"
_cell_formula_units_Z 32
_cell_length_a 5.036682
_cell_length_b 15.346869
_cell_length_c 19.464443
_cell_angle_alpha 90.000000
_cell_angle_beta 90.000000
_cell_angle_gamma 90.000000
_cell_volume 1504.548867
_symmetry_space_group_name_H-M "P C A 21"
_symmetry_group_IT_number 29
_symmetry_cell_setting 'orthorhombic'
loop_
_space_group_symop_operation_xyz
x,y,z
-x,-y,1/2+z
1/2-x,y,1/2+z
1/2+x,-y,z
loop_
_atom_site_type_symbol
_atom_site_label
_atom_site_fract_x
_atom_site_fract_y
_atom_site_fract_z
Si Si1 0.331653 0.171995 0.286710
Si Si2 0.304248 0.559197 0.719410
Si Si3 0.822451 0.828377 0.526345
Si Si4 0.235816 0.060625 0.653745
Si Si5 0.326009 0.725089 0.475835
Si Si6 0.839115 0.279353 0.310177
Si Si7 0.198259 0.560008 0.565860
Si Si8 0.323865 0.051877 0.909003
O O1 0.268265 0.099478 0.230252
O O2 0.629398 0.207116 0.284065
O O3 0.271518 0.128045 0.359551
O O4 0.128399 0.252302 0.283283
O O5 0.599782 0.521513 0.724498
O O6 0.244464 0.629332 0.777455
O O7 0.249465 0.596809 0.642835
O O8 0.796706 0.857460 0.604659
O O9 0.610863 0.755453 0.504138
O O10 0.735786 0.914733 0.484896
O O11 0.109775 0.795299 0.502604
O O12 0.456039 0.986648 0.642206
O O13 0.329469 0.720307 0.393156
O O14 0.250447 0.633238 0.509643
O O15 0.406261 0.480445 0.559731
O O16 0.629058 0.029345 0.896491
#
# Coordination Sequence:
#
# PCOD9341110 Si02
#       8
#     4   4   4   4   4   4   4   4
#     4  12  25  42  65  98 128 170 218 267 320 383
#     4  10  23  42  66  97 129 168 213 257 315 381
#     4  12  25  42  65  98 128 170 218 267 320 383
#     4  12  26  46  66  94 130 168 222 276 326 382
#     4  12  24  43  66  98 134 170 213 263 318 387
#     4  12  24  43  66  98 134 170 213 263 318 387
#     4  10  23  42  66  97 129 168 213 257 315 381
#     4  12  22  40  64  88 124 168 210 258 316 372
#
# _framework density 21.268834999999999
#
# number of rings (size 3 to 8) (size 9 to 14) (size 15 to 20)
#    0.000    0.500    2.500    6.000    3.500    1.000 
#    0.000    0.000    0.000    0.000    0.000    0.000 
#    0.000    0.000    0.000    0.000    0.000    0.000 
#
# Total GULP energy -179103.800954 kJ/mol
# GULP energy per Si atom -5596.993780 kJ/mol
# Density = 2.122043 g / cm^3
# Si number density = 21.268835 Si / 1000 Ang^3
#
#
#
# Elastic Constant Matrix: (Units=GPa)
#
#
# Indices 1 2 3 4 5 6 
#
# 1 51.1896 -12.3074 5.5106 0.0000 0.0000 0.0000
# 2 -12.3074 38.6553 10.2624 0.0000 0.0000 0.0000
# 3 5.5106 10.2624 44.2805 0.0000 0.0000 0.0000
# 4 0.0000 0.0000 0.0000 47.5281 0.0000 0.0000
# 5 0.0000 0.0000 0.0000 0.0000 20.8868 0.0000
# 6 0.0000 0.0000 0.0000 0.0000 0.0000 31.0992
#
#
#
# Elastic Compliance Matrix: (Units=1/GPa)
#
#
# Indices 1 2 3 4 5 6 
#
# 1 0.022018 0.008245 -0.004651 0.000000 0.000000 0.000000
# 2 0.008245 0.030653 -0.008130 0.000000 0.000000 0.000000
# 3 -0.004651 -0.008130 0.025046 0.000000 0.000000 0.000000
# 4 0.000000 0.000000 0.000000 0.021040 0.000000 0.000000
# 5 0.000000 0.000000 0.000000 0.000000 0.047877 0.000000
# 6 0.000000 0.000000 0.000000 0.000000 0.000000 0.032155
#
#
# Mechanical properties :
#
#
# Convention : Reuss Voigt Hill
#
# Bulk Modulus (GPa) = 14.56757 15.67296 15.12027
# Shear Modulus (GPa) = 23.72541 28.61347 26.16944
#
# Velocity S-wave (km/s) = 3.34353 3.67184 3.51153
# Velocity P-wave (km/s) = 4.66581 5.03603 4.85445
#
# Compressibility (1/GPa) = 0.06864561
#
# Stress axis : x y z
#
# Youngs Moduli (GPa) = 45.41687 32.62298 39.92592
#
# Poissons Ratio (x) = -0.26898 0.18570
# Poissons Ratio (y) = -0.37447 0.32461
# Poissons Ratio (z) = 0.21123 0.26523
#
# Static dielectric constant tensor:
#      x y z
#    x 1.752780 0.000000 0.000000 
#    y 0.000000 1.746310 0.000000 
#    z 0.000000 0.000000 1.728250 
# 
# From -- ./inp_files/4909.got.cif
#   From: 2010.05.17/outbox.cif.g08.bks.cpg/sg29_3_cif.got.tgz:4909.got - 2010.06.04 01:19:37.
