data_PCOD9341371
_publ_section_title
;
Structure prediction by ZEFSAII (Michael W. Deem and Ramdas Pophale) SiO2 
 PCOD9341371
Probable space group: P C A 21
;
_chemical_formula_sum "Si O2"
_cell_formula_units_Z 20
_cell_length_a 9.424107
_cell_length_b 10.052270
_cell_length_c 8.057510
_cell_angle_alpha 90.000000
_cell_angle_beta 90.000000
_cell_angle_gamma 90.000000
_cell_volume 763.317478
_symmetry_space_group_name_H-M "P C A 21"
_symmetry_group_IT_number 29
_symmetry_cell_setting 'orthorhombic'
loop_
_space_group_symop_operation_xyz
x,y,z
-x,-y,1/2+z
1/2-x,y,1/2+z
1/2+x,-y,z
loop_
_atom_site_type_symbol
_atom_site_label
_atom_site_fract_x
_atom_site_fract_y
_atom_site_fract_z
Si Si1 0.315559 0.594384 0.214460
Si Si2 0.947096 0.931332 0.195427
Si Si3 0.129740 0.401318 0.211311
Si Si4 0.839947 0.878557 0.562514
Si Si5 0.430235 0.681887 0.507044
O O1 0.290066 0.450075 0.286732
O O2 0.462686 0.600274 0.122680
O O3 0.312534 0.702597 0.360305
O O4 0.156456 0.578378 0.128568
O O5 0.899269 0.896320 0.379389
O O6 0.807186 0.955762 0.086399
O O7 0.030858 0.809376 0.110035
O O8 0.046160 0.059239 0.188795
O O9 0.054180 0.375529 0.394207
O O10 0.185671 0.270530 0.117432
#
# Coordination Sequence:
#
# PCOD9341371 Si02
#       5
#     4   4   4   4   4
#     4  10  26  43  74 103 159 196 270 309 392 456
#     4  12  28  50  80 113 156 199 266 316 410 454
#     4  10  26  46  73 112 153 208 261 323 388 462
#     4  12  28  50  82 113 158 205 256 334 383 490
#     4  10  26  43  73 107 152 202 255 324 379 466
#
# _framework density 26.201416999999999
#
# number of rings (size 3 to 8) (size 9 to 14) (size 15 to 20)
#    1.200    0.000    0.000    3.600   11.200    1.600 
#    0.000    0.000    0.000    0.000    0.000    0.000 
#    0.000    0.000    0.000    0.000    0.000    0.000 
#
# Total GULP energy -111346.044059 kJ/mol
# GULP energy per Si atom -5567.302203 kJ/mol
# Density = 2.614178 g / cm^3
# Si number density = 26.201417 Si / 1000 Ang^3
#
#
#
# Elastic Constant Matrix: (Units=GPa)
#
#
# Indices 1 2 3 4 5 6 
#
# 1 106.6017 10.6470 4.8764 0.0000 0.0000 0.0000
# 2 10.6470 38.9119 26.1751 0.0000 0.0000 0.0000
# 3 4.8764 26.1751 105.4436 0.0000 0.0000 0.0000
# 4 0.0000 0.0000 0.0000 45.9830 0.0000 0.0000
# 5 0.0000 0.0000 0.0000 0.0000 44.8459 0.0000
# 6 0.0000 0.0000 0.0000 0.0000 0.0000 53.7249
#
#
#
# Elastic Compliance Matrix: (Units=1/GPa)
#
#
# Indices 1 2 3 4 5 6 
#
# 1 0.009650 -0.002809 0.000251 0.000000 0.000000 0.000000
# 2 -0.002809 0.031668 -0.007731 0.000000 0.000000 0.000000
# 3 0.000251 -0.007731 0.011391 0.000000 0.000000 0.000000
# 4 0.000000 0.000000 0.000000 0.021747 0.000000 0.000000
# 5 0.000000 0.000000 0.000000 0.000000 0.022299 0.000000
# 6 0.000000 0.000000 0.000000 0.000000 0.000000 0.018613
#
#
# Mechanical properties :
#
#
# Convention : Reuss Voigt Hill
#
# Bulk Modulus (GPa) = 31.12306 37.15047 34.13677
# Shear Modulus (GPa) = 34.09293 42.86135 38.47714
#
# Velocity S-wave (km/s) = 3.61111 4.04894 3.83628
# Velocity P-wave (km/s) = 5.41212 6.00568 5.71660
#
# Compressibility (1/GPa) = 0.03213051
#
# Stress axis : x y z
#
# Youngs Moduli (GPa) = 103.62904 31.57714 87.78591
#
# Poissons Ratio (x) = 0.08871 -0.02204
# Poissons Ratio (y) = 0.29112 0.67871
# Poissons Ratio (z) = -0.02602 0.24414
#
# Static dielectric constant tensor:
#      x y z
#    x 2.183830 0.000000 0.000000 
#    y 0.000000 2.141020 0.000000 
#    z 0.000000 0.000000 2.166600 
# 
# From -- ./inp_files/1092.got.cif
#   From: 2010.05.17/outbox.cif.g08.bks.cpg/sg29_1_cif.got.tgz:1092.got - 2010.06.04 01:19:37.
