data_PCOD9341431
_publ_section_title
;
Structure prediction by ZEFSAII (Michael W. Deem and Ramdas Pophale) SiO2 
 PCOD9341431
Probable space group: P C A 21
;
_chemical_formula_sum "Si O2"
_cell_formula_units_Z 32
_cell_length_a 14.210216
_cell_length_b 9.504307
_cell_length_c 9.421853
_cell_angle_alpha 90.000000
_cell_angle_beta 90.000000
_cell_angle_gamma 90.000000
_cell_volume 1272.499029
_symmetry_space_group_name_H-M "P C A 21"
_symmetry_group_IT_number 29
_symmetry_cell_setting 'orthorhombic'
loop_
_space_group_symop_operation_xyz
x,y,z
-x,-y,1/2+z
1/2-x,y,1/2+z
1/2+x,-y,z
loop_
_atom_site_type_symbol
_atom_site_label
_atom_site_fract_x
_atom_site_fract_y
_atom_site_fract_z
Si Si1 0.600646 0.802025 0.486730
Si Si2 0.174134 0.588846 0.222044
Si Si3 0.456466 0.737277 0.257248
Si Si4 0.836089 0.509640 0.397056
Si Si5 0.476543 0.302040 0.272180
Si Si6 0.496436 0.098541 0.493472
Si Si7 0.279010 0.056258 0.565749
Si Si8 0.729605 0.119755 0.816254
O O1 0.554888 0.751991 0.339599
O O2 0.561301 0.705568 0.613049
O O3 0.711682 0.819946 0.510509
O O4 0.555580 0.956877 0.513253
O O5 0.236981 0.486162 0.317018
O O6 0.218626 0.743301 0.254781
O O7 0.067229 0.599365 0.271745
O O8 0.175849 0.547314 0.056389
O O9 0.402048 0.597546 0.305272
O O10 0.381960 0.854750 0.309956
O O11 0.466953 0.773293 0.092629
O O12 0.894849 0.650371 0.378721
O O13 0.506009 0.149705 0.331514
O O14 0.388733 0.074778 0.539182
O O15 0.247704 0.916504 0.477746
O O16 0.257254 0.017209 0.726963
#
# Coordination Sequence:
#
# PCOD9341431 Si02
#       8
#     4   4   4   4   4   4   4   4
#     4  12  23  46  70 104 147 196 236 310 371 447
#     4  11  25  48  77 105 139 196 252 313 351 444
#     4  11  23  43  70  99 147 190 251 300 361 433
#     4  11  28  49  76 107 138 197 258 302 372 428
#     4  12  28  48  74 108 152 189 248 307 370 446
#     4  12  25  42  71 110 150 194 240 305 382 446
#     4  12  23  40  67 104 150 187 244 298 390 438
#     4  11  21  40  69 103 139 193 247 301 351 450
#
# _framework density 25.147366000000002
#
# number of rings (size 3 to 8) (size 9 to 14) (size 15 to 20)
#    0.000    0.500    3.750    5.250    5.250    1.000 
#    2.250    0.000    0.000    0.000    0.000    0.000 
#    0.000    0.000    0.000    0.000    0.000    0.000 
#
# Total GULP energy -179261.956862 kJ/mol
# GULP energy per Si atom -5601.936152 kJ/mol
# Density = 2.509013 g / cm^3
# Si number density = 25.147366 Si / 1000 Ang^3
#
#
#
# Elastic Constant Matrix: (Units=GPa)
#
#
# Indices 1 2 3 4 5 6 
#
# 1 146.7248 11.1976 4.7502 0.0000 0.0000 0.0000
# 2 11.1976 40.3033 13.9624 0.0000 0.0000 0.0000
# 3 4.7502 13.9624 71.8256 0.0000 0.0000 0.0000
# 4 0.0000 0.0000 0.0000 21.1143 0.0000 0.0000
# 5 0.0000 0.0000 0.0000 0.0000 35.2820 0.0000
# 6 0.0000 0.0000 0.0000 0.0000 0.0000 43.4704
#
#
#
# Elastic Compliance Matrix: (Units=1/GPa)
#
#
# Indices 1 2 3 4 5 6 
#
# 1 0.006964 -0.001903 -0.000091 0.000000 0.000000 0.000000
# 2 -0.001903 0.027124 -0.005147 0.000000 0.000000 0.000000
# 3 -0.000091 -0.005147 0.014929 0.000000 0.000000 0.000000
# 4 0.000000 0.000000 0.000000 0.047361 0.000000 0.000000
# 5 0.000000 0.000000 0.000000 0.000000 0.028343 0.000000
# 6 0.000000 0.000000 0.000000 0.000000 0.000000 0.023004
#
#
# Mechanical properties :
#
#
# Convention : Reuss Voigt Hill
#
# Bulk Modulus (GPa) = 28.78936 35.40825 32.09880
# Shear Modulus (GPa) = 28.80437 35.23624 32.02030
#
# Velocity S-wave (km/s) = 3.38808 3.74731 3.57221
# Velocity P-wave (km/s) = 5.17480 5.73009 5.45951
#
# Compressibility (1/GPa) = 0.03473505
#
# Stress axis : x y z
#
# Youngs Moduli (GPa) = 143.60243 36.86815 66.98329
#
# Poissons Ratio (x) = 0.07017 0.00606
# Poissons Ratio (y) = 0.27333 0.34475
# Poissons Ratio (z) = 0.01300 0.18975
#
# Static dielectric constant tensor:
#      x y z
#    x 1.970580 0.000000 0.000000 
#    y 0.000000 2.055720 0.000000 
#    z 0.000000 0.000000 1.901310 
# 
# From -- ./inp_files/1893.got.cif
#   From: 2010.05.17/outbox.cif.g08.bks.cpg/sg29_1_cif.got.tgz:1893.got - 2010.06.04 01:19:37.
