data_PCOD9341901
_publ_section_title
;
Structure prediction by ZEFSAII (Michael W. Deem and Ramdas Pophale) SiO2 
 PCOD9341901
Probable space group: P N C 2
;
_chemical_formula_sum "Si O2"
_cell_formula_units_Z 20
_cell_length_a 8.536037
_cell_length_b 8.397335
_cell_length_c 14.355954
_cell_angle_alpha 90.000000
_cell_angle_beta 90.000000
_cell_angle_gamma 90.000000
_cell_volume 1029.034241
_symmetry_space_group_name_H-M "P N C 2"
_symmetry_group_IT_number 30
_symmetry_cell_setting 'orthorhombic'
loop_
_space_group_symop_operation_xyz
x,y,z
-x,-y,z
-x,1/2+y,1/2+z
x,1/2-y,1/2+z
loop_
_atom_site_type_symbol
_atom_site_label
_atom_site_fract_x
_atom_site_fract_y
_atom_site_fract_z
Si Si1 0.799453 0.215859 0.595440
Si Si2 0.459527 0.185145 0.651628
Si Si3 0.000000 0.500000 0.237292
Si Si4 0.677287 0.554062 0.970847
Si Si5 0.000000 0.000000 0.144919
Si Si6 0.202778 0.290406 0.787113
O O1 0.625657 0.264964 0.629701
O O2 0.883884 0.103271 0.671843
O O3 0.906259 0.370202 0.585106
O O4 0.768571 0.101465 0.507824
O O5 0.349804 0.172174 0.559405
O O6 0.367771 0.253949 0.737877
O O7 0.500000 0.000000 0.669934
O O8 0.896959 0.627699 0.292749
O O9 0.500000 0.500000 0.945080
O O10 0.766965 0.632681 0.886456
O O11 0.114697 0.094016 0.214941
#
# Coordination Sequence:
#
# PCOD9341901 Si02
#       6
#     4   4   2   4   2   4
#     4   9  19  39  63  91 126 171 204 260 322 380
#     4   9  18  39  67  86 124 174 206 260 317 377
#     4  10  18  37  67  92 130 162 202 257 339 368
#     4   9  20  38  65  93 120 172 219 260 318 373
#     4  10  24  35  61 100 126 168 204 255 335 380
#     4  11  21  38  66  96 126 165 217 262 318 391
#
# _framework density 19.435697999999999
#
# number of rings (size 3 to 8) (size 9 to 14) (size 15 to 20)
#    0.000    2.800    4.000    0.000    2.800    0.800 
#    0.000    1.000   13.200    0.000    0.000    0.000 
#    0.000    0.000    0.000    0.000    0.000    0.000 
#
# Total GULP energy -111594.897169 kJ/mol
# GULP energy per Si atom -5579.744858 kJ/mol
# Density = 1.939146 g / cm^3
# Si number density = 19.435698 Si / 1000 Ang^3
#
#
#
# Elastic Constant Matrix: (Units=GPa)
#
#
# Indices 1 2 3 4 5 6 
#
# 1 97.2784 67.5602 64.5355 0.0000 0.0000 0.0000
# 2 67.5602 106.6904 65.7745 0.0000 0.0000 0.0000
# 3 64.5355 65.7745 85.0503 0.0000 0.0000 0.0000
# 4 0.0000 0.0000 0.0000 23.5577 0.0000 0.0000
# 5 0.0000 0.0000 0.0000 0.0000 12.2773 0.0000
# 6 0.0000 0.0000 0.0000 0.0000 0.0000 32.2951
#
#
#
# Elastic Compliance Matrix: (Units=1/GPa)
#
#
# Indices 1 2 3 4 5 6 
#
# 1 0.023404 -0.007400 -0.012036 0.000000 0.000000 0.000000
# 2 -0.007400 0.020254 -0.010048 0.000000 0.000000 0.000000
# 3 -0.012036 -0.010048 0.028661 0.000000 0.000000 0.000000
# 4 0.000000 0.000000 0.000000 0.042449 0.000000 0.000000
# 5 0.000000 0.000000 0.000000 0.000000 0.081451 0.000000
# 6 0.000000 0.000000 0.000000 0.000000 0.000000 0.030964
#
#
# Mechanical properties :
#
#
# Convention : Reuss Voigt Hill
#
# Bulk Modulus (GPa) = 74.90271 76.08440 75.49356
# Shear Modulus (GPa) = 17.20572 19.70262 18.45417
#
# Velocity S-wave (km/s) = 2.97857 3.18737 3.08474
# Velocity P-wave (km/s) = 7.10292 7.26481 7.18432
#
# Compressibility (1/GPa) = 0.01335065
#
# Stress axis : x y z
#
# Youngs Moduli (GPa) = 42.72820 49.37376 34.89044
#
# Poissons Ratio (x) = 0.36537 0.41993
# Poissons Ratio (y) = 0.31620 0.35059
# Poissons Ratio (z) = 0.51426 0.49612
#
# Static dielectric constant tensor:
#      x y z
#    x 1.727890 0.000000 0.000000 
#    y 0.000000 1.682750 0.000000 
#    z 0.000000 0.000000 1.650190 
# 
# From -- ./inp_files/3551.got.cif
#   From: 2010.05.17/outbox.cif.g08.bks.cpg/sg30_2_cif.got.tgz:3551.got - 2010.06.03 17:03:02.
