data_PCOD9341272
_publ_section_title
;
Structure prediction by ZEFSAII (Michael W. Deem and Ramdas Pophale) SiO2 
 PCOD9341272
Probable space group: P C A 21
;
_chemical_formula_sum "Si O2"
_cell_formula_units_Z 32
_cell_length_a 18.811963
_cell_length_b 5.251192
_cell_length_c 14.951539
_cell_angle_alpha 90.000000
_cell_angle_beta 90.000000
_cell_angle_gamma 90.000000
_cell_volume 1476.991213
_symmetry_space_group_name_H-M "P C A 21"
_symmetry_group_IT_number 29
_symmetry_cell_setting 'orthorhombic'
loop_
_space_group_symop_operation_xyz
x,y,z
-x,-y,1/2+z
1/2-x,y,1/2+z
1/2+x,-y,z
loop_
_atom_site_type_symbol
_atom_site_label
_atom_site_fract_x
_atom_site_fract_y
_atom_site_fract_z
Si Si1 0.578423 0.042765 0.376450
Si Si2 0.967139 0.317849 0.639592
Si Si3 0.782433 0.814604 0.837376
Si Si4 0.520283 0.175798 0.722983
Si Si5 0.209594 0.314314 0.545199
Si Si6 0.681074 0.054683 0.705484
Si Si7 0.932717 0.535519 0.989477
Si Si8 0.190150 0.560260 0.181797
O O1 0.659187 0.041388 0.339388
O O2 0.521144 0.951646 0.305007
O O3 0.578808 0.812457 0.446973
O O4 0.560726 0.311462 0.418939
O O5 0.882998 0.309657 0.653148
O O6 0.995380 0.533932 0.708997
O O7 0.997762 0.440179 0.549357
O O8 0.998671 0.033329 0.647352
O O9 0.819167 0.610626 0.770647
O O10 0.709384 0.875831 0.786364
O O11 0.772376 0.739184 0.941089
O O12 0.604819 0.165246 0.729111
O O13 0.141906 0.507862 0.542575
O O14 0.280407 0.399251 0.597250
O O15 0.180810 0.092081 0.610720
O O16 0.743645 0.257708 0.699186
#
# Coordination Sequence:
#
# PCOD9341272 Si02
#       8
#     4   4   4   4   4   4   4   4
#     4  11  24  44  70 102 139 186 235 286 357 425
#     4  12  25  45  71 101 141 182 233 298 353 423
#     4  10  24  44  67 101 138 186 230 291 348 430
#     4  12  25  45  71 101 141 182 233 298 353 423
#     4  10  24  44  67 101 138 186 230 291 348 430
#     4  11  25  44  71 103 139 187 238 291 361 422
#     4  11  24  44  70 102 139 186 235 286 357 425
#     4  11  25  44  71 103 139 187 238 291 361 422
#
# _framework density 21.665669000000001
#
# number of rings (size 3 to 8) (size 9 to 14) (size 15 to 20)
#    0.000    1.000    2.500    3.000   14.000    1.000 
#    4.500    0.000    0.000    0.000    0.000    0.000 
#    0.000    0.000    0.000    0.000    0.000    0.000 
#
# Total GULP energy -178681.356820 kJ/mol
# GULP energy per Si atom -5583.792401 kJ/mol
# Density = 2.161636 g / cm^3
# Si number density = 21.665669 Si / 1000 Ang^3
#
#
#
# Elastic Constant Matrix: (Units=GPa)
#
#
# Indices 1 2 3 4 5 6 
#
# 1 112.6361 3.2217 15.1264 0.0000 0.0000 0.0000
# 2 3.2217 33.4964 5.3478 0.0000 0.0000 0.0000
# 3 15.1264 5.3478 118.5800 0.0000 0.0000 0.0000
# 4 0.0000 0.0000 0.0000 36.8787 0.0000 0.0000
# 5 0.0000 0.0000 0.0000 0.0000 31.1461 0.0000
# 6 0.0000 0.0000 0.0000 0.0000 0.0000 18.1104
#
#
#
# Elastic Compliance Matrix: (Units=1/GPa)
#
#
# Indices 1 2 3 4 5 6 
#
# 1 0.009049 -0.000691 -0.001123 0.000000 0.000000 0.000000
# 2 -0.000691 0.030123 -0.001270 0.000000 0.000000 0.000000
# 3 -0.001123 -0.001270 0.008634 0.000000 0.000000 0.000000
# 4 0.000000 0.000000 0.000000 0.027116 0.000000 0.000000
# 5 0.000000 0.000000 0.000000 0.000000 0.032107 0.000000
# 6 0.000000 0.000000 0.000000 0.000000 0.000000 0.055217
#
#
# Mechanical properties :
#
#
# Convention : Reuss Voigt Hill
#
# Bulk Modulus (GPa) = 24.01731 34.67826 29.34779
# Shear Modulus (GPa) = 27.42834 33.29480 30.36157
#
# Velocity S-wave (km/s) = 3.56192 3.92440 3.74755
# Velocity P-wave (km/s) = 5.29395 6.04776 5.68336
#
# Compressibility (1/GPa) = 0.04163663
#
# Stress axis : x y z
#
# Youngs Moduli (GPa) = 110.51266 33.19701 115.82534
#
# Poissons Ratio (x) = 0.02294 0.13009
# Poissons Ratio (y) = 0.07636 0.14714
# Poissons Ratio (z) = 0.12412 0.04217
#
# Static dielectric constant tensor:
#      x y z
#    x 1.790110 0.000000 0.000000 
#    y 0.000000 1.882790 0.000000 
#    z 0.000000 0.000000 1.877600 
# 
# From -- ./inp_files/4818.got.cif
#   From: 2010.05.17/outbox.cif.g08.bks.cpg/sg29_3_cif.got.tgz:4818.got - 2010.06.04 01:19:37.
