data_PCOD9341539
_publ_section_title
;
Structure prediction by ZEFSAII (Michael W. Deem and Ramdas Pophale) SiO2 
 PCOD9341539
Probable space group: P C A 21
;
_chemical_formula_sum "Si O2"
_cell_formula_units_Z 28
_cell_length_a 8.648719
_cell_length_b 10.526445
_cell_length_c 13.580559
_cell_angle_alpha 90.000000
_cell_angle_beta 90.000000
_cell_angle_gamma 90.000000
_cell_volume 1236.377688
_symmetry_space_group_name_H-M "P C A 21"
_symmetry_group_IT_number 29
_symmetry_cell_setting 'orthorhombic'
loop_
_space_group_symop_operation_xyz
x,y,z
-x,-y,1/2+z
1/2-x,y,1/2+z
1/2+x,-y,z
loop_
_atom_site_type_symbol
_atom_site_label
_atom_site_fract_x
_atom_site_fract_y
_atom_site_fract_z
Si Si1 0.814699 0.321553 0.416460
Si Si2 0.365901 0.206279 0.916460
Si Si3 0.875646 0.338754 0.739640
Si Si4 0.423632 0.128835 0.129814
Si Si5 0.404366 0.404876 0.416460
Si Si6 0.076367 0.128836 0.203106
Si Si7 0.624355 0.338754 0.593280
O O1 0.732743 0.267012 0.319818
O O2 0.793747 0.473677 0.416460
O O3 0.732743 0.267012 0.513102
O O4 0.997258 0.309502 0.416460
O O5 0.201167 0.277464 0.916461
O O6 0.402745 0.127539 0.819804
O O7 0.402748 0.127539 0.013115
O O8 0.750001 0.406528 0.666460
O O9 0.975616 0.245374 0.672122
O O10 0.994689 0.407184 0.815176
O O11 0.249999 0.144437 0.166459
O O12 0.499999 1.000000 0.166460
O O13 0.505311 0.407185 0.517745
O O14 0.975615 0.245374 0.160799
#
# Coordination Sequence:
#
# PCOD9341539 Si02
#       7
#     4   4   4   4   4   4   4
#     4  11  25  44  72 101 147 194 238 298 360 428
#     4  12  24  46  74 106 146 188 240 306 348 446
#     4  11  23  46  70 104 146 184 244 299 356 436
#     4  12  27  48  74 106 141 189 239 299 373 429
#     4  11  25  46  68 109 149 190 246 294 366 430
#     4  12  27  48  74 106 141 189 239 299 373 429
#     4  11  23  46  70 104 146 184 244 299 356 436
#
# _framework density 22.646802000000001
#
# number of rings (size 3 to 8) (size 9 to 14) (size 15 to 20)
#    0.000    0.571    5.714    2.571    0.000    4.571 
#    5.143    0.000    0.000    0.000    0.000    0.000 
#    0.000    0.000    0.000    0.000    0.000    0.000 
#
# Total GULP energy -156281.186134 kJ/mol
# GULP energy per Si atom -5581.470933 kJ/mol
# Density = 2.259526 g / cm^3
# Si number density = 22.646802 Si / 1000 Ang^3
#
#
#
# Elastic Constant Matrix: (Units=GPa)
#
#
# Indices 1 2 3 4 5 6 
#
# 1 143.6519 29.7023 64.0653 0.0000 0.0000 0.0000
# 2 29.7023 52.0712 33.5214 0.0000 0.0000 0.0000
# 3 64.0653 33.5214 214.1516 0.0000 0.0000 0.0000
# 4 0.0000 0.0000 0.0000 -2.1976 0.0000 0.0000
# 5 0.0000 0.0000 0.0000 0.0000 44.1509 0.0000
# 6 0.0000 0.0000 0.0000 0.0000 0.0000 32.1739
#
#
#
# Elastic Compliance Matrix: (Units=1/GPa)
#
#
# Indices 1 2 3 4 5 6 
#
# 1 0.008604 -0.003615 -0.002008 0.000000 0.000000 0.000000
# 2 -0.003615 0.022876 -0.002499 0.000000 0.000000 0.000000
# 3 -0.002008 -0.002499 0.005662 0.000000 0.000000 0.000000
# 4 0.000000 0.000000 0.000000 -0.455038 0.000000 0.000000
# 5 0.000000 0.000000 0.000000 0.000000 0.022650 0.000000
# 6 0.000000 0.000000 0.000000 0.000000 0.000000 0.031081
#
#
# Mechanical properties :
#
#
# Convention : Reuss Voigt Hill
#
# Bulk Modulus (GPa) = 47.85564 73.82808 60.84186
# Shear Modulus (GPa) = -14.66469 33.66447 9.49989
#
# Velocity S-wave (km/s) = -2.54744 3.85970 2.05034
# Velocity P-wave (km/s) = 3.53901 7.24801 5.70343
#
# Compressibility (1/GPa) = 0.02089618
#
# Stress axis : x y z
#
# Youngs Moduli (GPa) = 116.21964 43.71474 176.63005
#
# Poissons Ratio (x) = 0.15804 0.35470
# Poissons Ratio (y) = 0.42017 0.44143
# Poissons Ratio (z) = 0.23339 0.10925
#
# Static dielectric constant tensor:
#      x y z
#    x 1.888990 0.000000 0.000000 
#    y 0.000000 1.790040 0.000000 
#    z 0.000000 0.000000 2.076800 
# 
# From -- ./inp_files/2849.got.cif
#   From: 2010.05.17/outbox.cif.g08.bks.cpg/sg29_2_cif.got.tgz:2849.got - 2010.06.04 01:19:37.
