data_PCOD9341675
_publ_section_title
;
Structure prediction by ZEFSAII (Michael W. Deem and Ramdas Pophale) SiO2 
 PCOD9341675
Probable space group: P C A 21
;
_chemical_formula_sum "Si O2"
_cell_formula_units_Z 20
_cell_length_a 9.079783
_cell_length_b 7.282687
_cell_length_c 12.022516
_cell_angle_alpha 90.000000
_cell_angle_beta 90.000000
_cell_angle_gamma 90.000000
_cell_volume 794.991487
_symmetry_space_group_name_H-M "P C A 21"
_symmetry_group_IT_number 29
_symmetry_cell_setting 'orthorhombic'
loop_
_space_group_symop_operation_xyz
x,y,z
-x,-y,1/2+z
1/2-x,y,1/2+z
1/2+x,-y,z
loop_
_atom_site_type_symbol
_atom_site_label
_atom_site_fract_x
_atom_site_fract_y
_atom_site_fract_z
Si Si1 0.370225 0.250000 0.496540
Si Si2 0.188100 0.037214 0.311035
Si Si3 0.579371 0.372854 0.324139
Si Si4 0.420630 0.872853 0.168942
Si Si5 0.311901 0.462784 0.182046
O O1 0.272276 0.137869 0.409408
O O2 0.477514 0.393210 0.431951
O O3 0.477515 0.106791 0.561130
O O4 0.272275 0.362130 0.583672
O O5 0.035544 0.126500 0.271789
O O6 0.297410 0.017746 0.204401
O O7 0.152731 0.825808 0.338821
O O8 0.464456 0.373496 0.221292
O O9 0.702588 0.517749 0.288678
O O10 0.347272 0.674189 0.154262
#
# Coordination Sequence:
#
# PCOD9341675 Si02
#       5
#     4   4   4   4   4
#     4  12  26  46  80 110 150 216 242 322 386 460
#     4  11  26  49  76 111 158 197 262 313 383 455
#     4  11  26  48  73 116 152 200 255 325 367 467
#     4  11  26  48  73 116 152 200 255 325 367 467
#     4  11  26  49  76 111 158 197 262 313 383 455
#
# _framework density 25.157503999999999
#
# number of rings (size 3 to 8) (size 9 to 14) (size 15 to 20)
#    0.000    0.800    4.000    1.200    5.600    0.000 
#    0.000    0.000    0.000    0.000    0.000    0.000 
#    0.000    0.000    0.000    0.000    0.000    0.000 
#
# Total GULP energy -112014.222368 kJ/mol
# GULP energy per Si atom -5600.711118 kJ/mol
# Density = 2.510024 g / cm^3
# Si number density = 25.157504 Si / 1000 Ang^3
#
#
#
# Elastic Constant Matrix: (Units=GPa)
#
#
# Indices 1 2 3 4 5 6 
#
# 1 144.5554 42.2600 59.7547 0.0000 0.0000 0.0000
# 2 42.2600 99.7574 40.6067 0.0000 0.0000 0.0000
# 3 59.7547 40.6067 119.6154 0.0000 0.0000 0.0000
# 4 0.0000 0.0000 0.0000 22.2886 0.0000 0.0000
# 5 0.0000 0.0000 0.0000 0.0000 47.2609 0.0000
# 6 0.0000 0.0000 0.0000 0.0000 0.0000 40.5622
#
#
#
# Elastic Compliance Matrix: (Units=1/GPa)
#
#
# Indices 1 2 3 4 5 6 
#
# 1 0.009167 -0.002343 -0.003784 0.000000 0.000000 0.000000
# 2 -0.002343 0.012231 -0.002981 0.000000 0.000000 0.000000
# 3 -0.003784 -0.002981 0.011263 0.000000 0.000000 0.000000
# 4 0.000000 0.000000 0.000000 0.044866 0.000000 0.000000
# 5 0.000000 0.000000 0.000000 0.000000 0.021159 0.000000
# 6 0.000000 0.000000 0.000000 0.000000 0.000000 0.024654
#
#
# Mechanical properties :
#
#
# Convention : Reuss Voigt Hill
#
# Bulk Modulus (GPa) = 69.23785 72.13008 70.68397
# Shear Modulus (GPa) = 34.15997 36.77611 35.46804
#
# Velocity S-wave (km/s) = 3.68889 3.82754 3.75886
# Velocity P-wave (km/s) = 6.76206 6.94745 6.85538
#
# Compressibility (1/GPa) = 0.01444297
#
# Stress axis : x y z
#
# Youngs Moduli (GPa) = 109.08786 81.76259 88.78953
#
# Poissons Ratio (x) = 0.19158 0.33598
# Poissons Ratio (y) = 0.25560 0.26472
# Poissons Ratio (z) = 0.41279 0.24377
#
# Static dielectric constant tensor:
#      x y z
#    x 2.021200 0.000000 0.000000 
#    y 0.000000 1.990470 0.000000 
#    z 0.000000 0.000000 2.015750 
# 
# From -- ./inp_files/2803.got.cif
#   From: 2010.05.17/outbox.cif.g08.bks.cpg/sg29_2_cif.got.tgz:2803.got - 2010.06.04 01:19:37.
