data_PCOD9341328
_publ_section_title
;
Structure prediction by ZEFSAII (Michael W. Deem and Ramdas Pophale) SiO2 
 PCOD9341328
Probable space group: P C A 21
;
_chemical_formula_sum "Si O2"
_cell_formula_units_Z 28
_cell_length_a 7.852423
_cell_length_b 16.781595
_cell_length_c 8.375077
_cell_angle_alpha 90.000000
_cell_angle_beta 90.000000
_cell_angle_gamma 90.000000
_cell_volume 1103.635676
_symmetry_space_group_name_H-M "P C A 21"
_symmetry_group_IT_number 29
_symmetry_cell_setting 'orthorhombic'
loop_
_space_group_symop_operation_xyz
x,y,z
-x,-y,1/2+z
1/2-x,y,1/2+z
1/2+x,-y,z
loop_
_atom_site_type_symbol
_atom_site_label
_atom_site_fract_x
_atom_site_fract_y
_atom_site_fract_z
Si Si1 0.641620 0.579441 0.352440
Si Si2 0.849893 0.177753 0.191224
Si Si3 0.665448 0.910171 0.597010
Si Si4 0.498060 0.419340 0.487535
Si Si5 0.484711 0.026673 0.775968
Si Si6 0.054385 0.750796 0.371733
Si Si7 0.150882 0.247025 0.408330
O O1 0.592319 0.501328 0.451113
O O2 0.844880 0.578211 0.359309
O O3 0.599433 0.662194 0.443369
O O4 0.568707 0.582917 0.171526
O O5 0.012140 0.217752 0.280615
O O6 0.854876 0.086781 0.252850
O O7 0.888378 0.186459 0.006148
O O8 0.649619 0.938478 0.148880
O O9 0.598342 0.959655 0.446278
O O10 0.321310 0.773353 0.727946
O O11 0.651489 0.819567 0.544374
O O12 0.544872 0.938049 0.740380
O O13 0.594101 0.337422 0.444340
O O14 0.849356 0.752428 0.354198
#
# Coordination Sequence:
#
# PCOD9341328 Si02
#       7
#     4   4   4   4   4   4   4
#     4  11  24  45  75 110 153 204 269 321 411 459
#     4  11  25  48  76 110 151 198 261 318 394 470
#     4  11  24  48  77 109 156 197 266 325 397 473
#     4  11  25  45  74 111 156 205 263 333 390 482
#     4  11  25  47  77 113 149 206 255 329 395 477
#     4  11  25  48  75 113 151 202 260 324 390 471
#     4  10  24  49  78 108 154 208 260 326 393 476
#
# _framework density 25.370692999999999
#
# number of rings (size 3 to 8) (size 9 to 14) (size 15 to 20)
#    0.000    1.143    2.857    1.714    2.000    5.714 
#   10.286    0.000    0.000    0.000    0.000    0.000 
#    0.000    0.000    0.000    0.000    0.000    0.000 
#
# Total GULP energy -156801.715046 kJ/mol
# GULP energy per Si atom -5600.061252 kJ/mol
# Density = 2.531295 g / cm^3
# Si number density = 25.370693 Si / 1000 Ang^3
#
#
#
# Elastic Constant Matrix: (Units=GPa)
#
#
# Indices 1 2 3 4 5 6 
#
# 1 113.3730 54.5963 32.8739 0.0000 0.0000 0.0000
# 2 54.5963 137.4485 54.2729 0.0000 0.0000 0.0000
# 3 32.8739 54.2729 84.3742 0.0000 0.0000 0.0000
# 4 0.0000 0.0000 0.0000 32.9508 0.0000 0.0000
# 5 0.0000 0.0000 0.0000 0.0000 39.1619 0.0000
# 6 0.0000 0.0000 0.0000 0.0000 0.0000 38.2932
#
#
#
# Elastic Compliance Matrix: (Units=1/GPa)
#
#
# Indices 1 2 3 4 5 6 
#
# 1 0.011154 -0.003639 -0.002005 0.000000 0.000000 0.000000
# 2 -0.003639 0.010940 -0.005619 0.000000 0.000000 0.000000
# 3 -0.002005 -0.005619 0.016248 0.000000 0.000000 0.000000
# 4 0.000000 0.000000 0.000000 0.030348 0.000000 0.000000
# 5 0.000000 0.000000 0.000000 0.000000 0.025535 0.000000
# 6 0.000000 0.000000 0.000000 0.000000 0.000000 0.026114
#
#
# Mechanical properties :
#
#
# Convention : Reuss Voigt Hill
#
# Bulk Modulus (GPa) = 63.23025 68.74243 65.98634
# Shear Modulus (GPa) = 33.75257 34.97803 34.36530
#
# Velocity S-wave (km/s) = 3.65139 3.71708 3.68438
# Velocity P-wave (km/s) = 6.53862 6.75102 6.64567
#
# Compressibility (1/GPa) = 0.01581522
#
# Stress axis : x y z
#
# Youngs Moduli (GPa) = 89.65225 91.41147 61.54742
#
# Poissons Ratio (x) = 0.33263 0.12342
# Poissons Ratio (y) = 0.32623 0.34584
# Poissons Ratio (z) = 0.17978 0.51364
#
# Static dielectric constant tensor:
#      x y z
#    x 2.035120 0.000000 0.000000 
#    y 0.000000 2.061330 0.000000 
#    z 0.000000 0.000000 1.986640 
# 
# From -- ./inp_files/1516.got.cif
#   From: 2010.05.17/outbox.cif.g08.bks.cpg/sg29_1_cif.got.tgz:1516.got - 2010.06.04 01:19:37.
