data_PCOD9341870
_publ_section_title
;
Structure prediction by ZEFSAII (Michael W. Deem and Ramdas Pophale) SiO2 
 PCOD9341870
Probable space group: P N C 2
;
_chemical_formula_sum "Si O2"
_cell_formula_units_Z 28
_cell_length_a 10.845584
_cell_length_b 18.522727
_cell_length_c 5.578157
_cell_angle_alpha 90.000000
_cell_angle_beta 90.000000
_cell_angle_gamma 90.000000
_cell_volume 1120.594797
_symmetry_space_group_name_H-M "P N C 2"
_symmetry_group_IT_number 30
_symmetry_cell_setting 'orthorhombic'
loop_
_space_group_symop_operation_xyz
x,y,z
-x,-y,z
-x,1/2+y,1/2+z
x,1/2-y,1/2+z
loop_
_atom_site_type_symbol
_atom_site_label
_atom_site_fract_x
_atom_site_fract_y
_atom_site_fract_z
Si Si1 0.049106 0.837388 0.117520
Si Si2 0.855806 0.325815 0.117451
Si Si3 0.768625 0.861880 0.258192
Si Si4 0.570049 0.288397 0.137366
Si Si5 0.645783 0.480385 0.794574
Si Si6 0.674730 0.641280 0.262089
Si Si7 0.356658 0.978118 0.798226
O O1 0.070533 0.750870 0.100444
O O2 0.121711 0.861168 0.357433
O O3 0.908817 0.856919 0.175251
O O4 0.091741 0.865155 0.855234
O O5 0.714862 0.303378 0.160566
O O6 0.717090 0.943622 0.283803
O O7 0.748301 0.831174 0.527557
O O8 0.695770 0.828360 0.029775
O O9 0.546756 0.233710 0.360810
O O10 0.468600 0.349263 0.195262
O O11 0.500000 0.500000 0.799952
O O12 0.669227 0.439179 0.547425
O O13 0.674070 0.443633 0.045511
O O14 0.707574 0.556692 0.291693
O O15 0.500000 0.000000 0.805040
#
# Coordination Sequence:
#
# PCOD9341870 Si02
#       7
#     4   4   4   4   4   4   4
#     4  10  18  33  51  66  90 126 170 208 240 280
#     4  10  19  35  51  64  83 130 183 208 235 270
#     4  10  19  33  47  74 107 123 157 204 249 301
#     4  12  21  38  52  66  97 138 175 207 240 287
#     4   8  14  25  44  66  96 127 148 179 232 300
#     4  10  21  33  47  76 105 128 163 199 255 307
#     4   8  14  27  46  66  96 125 151 190 235 298
#
# _framework density 24.986726999999998
#
# number of rings (size 3 to 8) (size 9 to 14) (size 15 to 20)
#    0.000    2.286    2.857    1.714    0.000    0.000 
#   15.429    0.000    0.000    0.000    0.000    0.000 
#    0.000  109.714    0.000    0.000    0.000    0.000 
#
# Total GULP energy -156273.737786 kJ/mol
# GULP energy per Si atom -5581.204921 kJ/mol
# Density = 2.492986 g / cm^3
# Si number density = 24.986727 Si / 1000 Ang^3
#
#
#
# Elastic Constant Matrix: (Units=GPa)
#
#
# Indices 1 2 3 4 5 6 
#
# 1 80.0898 -1.6907 24.7861 0.0000 0.0000 0.0000
# 2 -1.6907 33.8239 7.8779 0.0000 0.0000 0.0000
# 3 24.7861 7.8779 303.4836 0.0000 0.0000 0.0000
# 4 0.0000 0.0000 0.0000 14.5717 0.0000 0.0000
# 5 0.0000 0.0000 0.0000 0.0000 40.7311 0.0000
# 6 0.0000 0.0000 0.0000 0.0000 0.0000 31.3581
#
#
#
# Elastic Compliance Matrix: (Units=1/GPa)
#
#
# Indices 1 2 3 4 5 6 
#
# 1 0.012836 0.000891 -0.001072 0.000000 0.000000 0.000000
# 2 0.000891 0.029807 -0.000847 0.000000 0.000000 0.000000
# 3 -0.001072 -0.000847 0.003405 0.000000 0.000000 0.000000
# 4 0.000000 0.000000 0.000000 0.068626 0.000000 0.000000
# 5 0.000000 0.000000 0.000000 0.000000 0.024551 0.000000
# 6 0.000000 0.000000 0.000000 0.000000 0.000000 0.031890
#
#
# Mechanical properties :
#
#
# Convention : Reuss Voigt Hill
#
# Bulk Modulus (GPa) = 22.73041 53.26045 37.99543
# Shear Modulus (GPa) = 26.61940 43.09377 34.85659
#
# Velocity S-wave (km/s) = 3.26750 4.15742 3.73903
# Velocity P-wave (km/s) = 4.83240 6.66388 5.82063
#
# Compressibility (1/GPa) = 0.04399392
#
# Stress axis : x y z
#
# Youngs Moduli (GPa) = 77.90342 33.54959 293.72396
#
# Poissons Ratio (x) = -0.02990 0.31473
# Poissons Ratio (y) = -0.06943 0.24864
# Poissons Ratio (z) = 0.08347 0.02840
#
# Static dielectric constant tensor:
#      x y z
#    x 1.893680 0.000000 0.000000 
#    y 0.000000 1.942240 0.000000 
#    z 0.000000 0.000000 2.085060 
# 
# From -- ./inp_files/511.got.cif
#   From: 2010.05.17/outbox.cif.g08.bks.cpg/sg30_1_cif.got.tgz:511.got - 2010.06.03 17:03:02.
