data_PCOD9341260
_publ_section_title
;
Structure prediction by ZEFSAII (Michael W. Deem and Ramdas Pophale) SiO2 
 PCOD9341260
Probable space group: P C A 21
;
_chemical_formula_sum "Si O2"
_cell_formula_units_Z 32
_cell_length_a 13.839660
_cell_length_b 8.212615
_cell_length_c 11.870289
_cell_angle_alpha 90.000000
_cell_angle_beta 90.000000
_cell_angle_gamma 90.000000
_cell_volume 1349.174666
_symmetry_space_group_name_H-M "P C A 21"
_symmetry_group_IT_number 29
_symmetry_cell_setting 'orthorhombic'
loop_
_space_group_symop_operation_xyz
x,y,z
-x,-y,1/2+z
1/2-x,y,1/2+z
1/2+x,-y,z
loop_
_atom_site_type_symbol
_atom_site_label
_atom_site_fract_x
_atom_site_fract_y
_atom_site_fract_z
Si Si1 0.548050 0.529004 0.834200
Si Si2 0.941801 0.914160 0.113092
Si Si3 0.680110 0.485777 0.041881
Si Si4 0.527425 0.170833 0.769545
Si Si5 0.713966 0.694439 0.710060
Si Si6 0.654705 0.868662 0.388844
Si Si7 0.107044 0.735356 0.230447
Si Si8 0.227175 0.826137 0.895917
O O1 0.504145 0.359345 0.791231
O O2 0.640938 0.556328 0.753585
O O3 0.470407 0.670972 0.820838
O O4 0.593801 0.530065 0.957727
O O5 0.857034 0.847864 0.194345
O O6 0.046310 0.842470 0.142747
O O7 0.947422 0.105578 0.144412
O O8 0.910957 0.832368 0.996641
O O9 0.741806 0.637543 0.090064
O O10 0.638880 0.417839 0.157274
O O11 0.731398 0.331910 0.977819
O O12 0.432158 0.071357 0.806911
O O13 0.618872 0.147298 0.851922
O O14 0.786398 0.741928 0.811748
O O15 0.727383 0.005071 0.438607
O O16 0.203609 0.796267 0.288812
#
# Coordination Sequence:
#
# PCOD9341260 Si02
#       8
#     4   4   4   4   4   4   4   4
#     4  10  24  43  69 102 143 180 237 297 359 436
#     4  11  24  43  69 100 138 190 234 293 363 431
#     4  11  23  41  71 102 135 192 230 295 364 423
#     4  11  23  46  65 103 138 184 243 296 355 440
#     4  11  24  45  70 106 143 181 243 300 357 443
#     4  12  25  45  72 101 144 192 238 301 365 444
#     4  11  24  46  66  99 144 176 238 298 352 434
#     4  11  25  43  70 101 141 185 243 300 361 429
#
# _framework density 23.718202999999999
#
# number of rings (size 3 to 8) (size 9 to 14) (size 15 to 20)
#    0.000    1.000    2.500    4.500    3.500    3.000 
#    4.500    0.000    0.000    0.000    0.000    0.000 
#    0.000    0.000    0.000    0.000    0.000    0.000 
#
# Total GULP energy -178473.975098 kJ/mol
# GULP energy per Si atom -5577.311722 kJ/mol
# Density = 2.366422 g / cm^3
# Si number density = 23.718203 Si / 1000 Ang^3
#
#
#
# Elastic Constant Matrix: (Units=GPa)
#
#
# Indices 1 2 3 4 5 6 
#
# 1 85.1685 -8.8946 -0.1401 0.0000 0.0000 0.0000
# 2 -8.8946 21.3647 -1.0513 0.0000 0.0000 0.0000
# 3 -0.1401 -1.0513 55.9563 0.0000 0.0000 0.0000
# 4 0.0000 0.0000 0.0000 38.6259 0.0000 0.0000
# 5 0.0000 0.0000 0.0000 0.0000 39.4640 0.0000
# 6 0.0000 0.0000 0.0000 0.0000 0.0000 37.0757
#
#
#
# Elastic Compliance Matrix: (Units=1/GPa)
#
#
# Indices 1 2 3 4 5 6 
#
# 1 0.012276 0.005117 0.000127 0.000000 0.000000 0.000000
# 2 0.005117 0.048982 0.000933 0.000000 0.000000 0.000000
# 3 0.000127 0.000933 0.017889 0.000000 0.000000 0.000000
# 4 0.000000 0.000000 0.000000 0.025889 0.000000 0.000000
# 5 0.000000 0.000000 0.000000 0.000000 0.025340 0.000000
# 6 0.000000 0.000000 0.000000 0.000000 0.000000 0.026972
#
#
# Mechanical properties :
#
#
# Convention : Reuss Voigt Hill
#
# Bulk Modulus (GPa) = 10.92877 15.81303 13.37090
# Shear Modulus (GPa) = 28.49091 34.53817 31.51454
#
# Velocity S-wave (km/s) = 3.46963 3.82014 3.64910
# Velocity P-wave (km/s) = 4.54630 5.11268 4.83779
#
# Compressibility (1/GPa) = 0.09150159
#
# Stress axis : x y z
#
# Youngs Moduli (GPa) = 81.45948 20.41546 55.90048
#
# Poissons Ratio (x) = -0.10447 -0.00709
# Poissons Ratio (y) = -0.41683 -0.05216
# Poissons Ratio (z) = -0.01034 -0.01905
#
# Static dielectric constant tensor:
#      x y z
#    x 1.882550 0.000000 0.000000 
#    y 0.000000 2.036070 0.000000 
#    z 0.000000 0.000000 1.915640 
# 
# From -- ./inp_files/3462.got.cif
#   From: 2010.05.17/outbox.cif.g08.bks.cpg/sg29_2_cif.got.tgz:3462.got - 2010.06.04 01:19:37.
