data_PCOD9341460
_publ_section_title
;
Structure prediction by ZEFSAII (Michael W. Deem and Ramdas Pophale) SiO2 
 PCOD9341460
Probable space group: P C A 21
;
_chemical_formula_sum "Si O2"
_cell_formula_units_Z 32
_cell_length_a 17.914552
_cell_length_b 5.333542
_cell_length_c 15.025224
_cell_angle_alpha 90.000000
_cell_angle_beta 90.000000
_cell_angle_gamma 90.000000
_cell_volume 1435.630336
_symmetry_space_group_name_H-M "P C A 21"
_symmetry_group_IT_number 29
_symmetry_cell_setting 'orthorhombic'
loop_
_space_group_symop_operation_xyz
x,y,z
-x,-y,1/2+z
1/2-x,y,1/2+z
1/2+x,-y,z
loop_
_atom_site_type_symbol
_atom_site_label
_atom_site_fract_x
_atom_site_fract_y
_atom_site_fract_z
Si Si1 0.540681 0.812886 0.011670
Si Si2 0.265577 0.618963 0.470659
Si Si3 0.262903 0.308249 0.297421
Si Si4 0.602809 0.378525 0.708861
Si Si5 0.675994 0.016580 0.563367
Si Si6 0.377216 0.932643 0.363224
Si Si7 0.815134 0.721740 0.626942
Si Si8 0.544450 0.674206 0.559147
O O1 0.604187 0.770835 0.086171
O O2 0.487635 0.569966 0.009913
O O3 0.501853 0.076790 0.036200
O O4 0.580225 0.851939 0.916373
O O5 0.249019 0.415151 0.395264
O O6 0.198611 0.815561 0.479703
O O7 0.340812 0.754536 0.437189
O O8 0.282771 0.503911 0.566836
O O9 0.324898 0.478077 0.247039
O O10 0.192434 0.310970 0.232279
O O11 0.306150 0.046822 0.310926
O O12 0.628849 0.184308 0.632416
O O13 0.573936 0.218508 0.792320
O O14 0.548884 0.578867 0.661837
O O15 0.755149 0.938797 0.605150
O O16 0.628813 0.768504 0.541308
#
# Coordination Sequence:
#
# PCOD9341460 Si02
#       8
#     4   4   4   4   4   4   4   4
#     4  12  27  45  73 110 154 192 251 316 383 447
#     4  11  22  40  71 113 147 178 253 322 361 445
#     4  11  22  40  75 111 145 187 251 313 376 441
#     4  11  22  42  77 104 142 192 255 295 364 466
#     4  12  21  44  76 105 141 198 253 302 370 458
#     4  11  23  42  73 112 143 188 257 311 373 449
#     4  12  23  42  77 107 143 195 249 315 380 436
#     4  12  26  47  72 104 149 210 247 294 383 468
#
# _framework density 22.289859
#
# number of rings (size 3 to 8) (size 9 to 14) (size 15 to 20)
#    0.000    0.500    7.500    0.750    1.750    0.000 
#    0.000    0.000   13.750    0.000    0.000    0.000 
#    0.000    0.000    0.000    0.000    0.000    0.000 
#
# Total GULP energy -178838.029912 kJ/mol
# GULP energy per Si atom -5588.688435 kJ/mol
# Density = 2.223913 g / cm^3
# Si number density = 22.289859 Si / 1000 Ang^3
#
#
#
# Elastic Constant Matrix: (Units=GPa)
#
#
# Indices 1 2 3 4 5 6 
#
# 1 41.7811 21.8808 18.9868 0.0000 0.0000 0.0000
# 2 21.8808 117.8835 29.8013 0.0000 0.0000 0.0000
# 3 18.9868 29.8013 74.7104 0.0000 0.0000 0.0000
# 4 0.0000 0.0000 0.0000 38.5045 0.0000 0.0000
# 5 0.0000 0.0000 0.0000 0.0000 23.3021 0.0000
# 6 0.0000 0.0000 0.0000 0.0000 0.0000 45.4427
#
#
#
# Elastic Compliance Matrix: (Units=1/GPa)
#
#
# Indices 1 2 3 4 5 6 
#
# 1 0.028551 -0.003854 -0.005719 0.000000 0.000000 0.000000
# 2 -0.003854 0.009954 -0.002991 0.000000 0.000000 0.000000
# 3 -0.005719 -0.002991 0.016032 0.000000 0.000000 0.000000
# 4 0.000000 0.000000 0.000000 0.025971 0.000000 0.000000
# 5 0.000000 0.000000 0.000000 0.000000 0.042915 0.000000
# 6 0.000000 0.000000 0.000000 0.000000 0.000000 0.022006
#
#
# Mechanical properties :
#
#
# Convention : Reuss Voigt Hill
#
# Bulk Modulus (GPa) = 34.00252 41.74587 37.87420
# Shear Modulus (GPa) = 27.72238 32.36360 30.04299
#
# Velocity S-wave (km/s) = 3.53047 3.81457 3.67527
# Velocity P-wave (km/s) = 5.64861 6.17823 5.91935
#
# Compressibility (1/GPa) = 0.02940959
#
# Stress axis : x y z
#
# Youngs Moduli (GPa) = 35.02465 100.45713 62.37682
#
# Poissons Ratio (x) = 0.38714 0.35672
# Poissons Ratio (y) = 0.13498 0.18659
# Poissons Ratio (z) = 0.20030 0.30050
#
# Static dielectric constant tensor:
#      x y z
#    x 1.835730 0.000000 0.000000 
#    y 0.000000 1.901470 0.000000 
#    z 0.000000 0.000000 1.845350 
# 
# From -- ./inp_files/4782.got.cif
#   From: 2010.05.17/outbox.cif.g08.bks.cpg/sg29_3_cif.got.tgz:4782.got - 2010.06.04 01:19:37.
