data_PCOD9341390
_publ_section_title
;
Structure prediction by ZEFSAII (Michael W. Deem and Ramdas Pophale) SiO2 
 PCOD9341390
Probable space group: P C A 21
;
_chemical_formula_sum "Si O2"
_cell_formula_units_Z 20
_cell_length_a 16.911337
_cell_length_b 5.121090
_cell_length_c 8.926976
_cell_angle_alpha 90.000000
_cell_angle_beta 90.000000
_cell_angle_gamma 90.000000
_cell_volume 773.116104
_symmetry_space_group_name_H-M "P C A 21"
_symmetry_group_IT_number 29
_symmetry_cell_setting 'orthorhombic'
loop_
_space_group_symop_operation_xyz
x,y,z
-x,-y,1/2+z
1/2-x,y,1/2+z
1/2+x,-y,z
loop_
_atom_site_type_symbol
_atom_site_label
_atom_site_fract_x
_atom_site_fract_y
_atom_site_fract_z
Si Si1 0.098921 0.125681 0.577900
Si Si2 0.150217 0.784765 0.848706
Si Si3 0.852765 0.850403 0.606733
Si Si4 0.766405 0.624892 0.880815
Si Si5 0.475505 0.623842 0.129118
O O1 0.163574 0.306225 0.496987
O O2 0.025948 0.324390 0.581467
O O3 0.133867 0.032631 0.737250
O O4 0.069164 0.839559 0.521497
O O5 0.236870 0.656452 0.821360
O O6 0.077813 0.616602 0.780543
O O7 0.144461 0.874616 0.020504
O O8 0.795960 0.804841 0.746309
O O9 0.811281 0.682677 0.477308
O O10 0.938398 0.742812 0.651036
#
# Coordination Sequence:
#
# PCOD9341390 Si02
#       5
#     4   4   4   4   4
#     4  10  26  53  81 119 163 214 272 348 403 508
#     4  10  26  51  81 119 162 215 277 340 416 498
#     4  12  28  48  84 115 165 219 273 351 408 504
#     4  12  28  49  77 123 162 217 273 339 427 494
#     4  10  26  51  85 114 162 209 285 332 422 480
#
# _framework density 25.869333999999998
#
# number of rings (size 3 to 8) (size 9 to 14) (size 15 to 20)
#    1.200    0.000    0.000    3.600    8.400    3.200 
#    0.000    2.000    0.000    0.000    0.000    0.000 
#    0.000    0.000    0.000    0.000    0.000    0.000 
#
# Total GULP energy -111383.823240 kJ/mol
# GULP energy per Si atom -5569.191162 kJ/mol
# Density = 2.581045 g / cm^3
# Si number density = 25.869334 Si / 1000 Ang^3
#
#
#
# Elastic Constant Matrix: (Units=GPa)
#
#
# Indices 1 2 3 4 5 6 
#
# 1 127.9149 53.8566 26.4609 0.0000 0.0000 0.0000
# 2 53.8566 151.2621 24.3487 0.0000 0.0000 0.0000
# 3 26.4609 24.3487 66.8734 0.0000 0.0000 0.0000
# 4 0.0000 0.0000 0.0000 16.5452 0.0000 0.0000
# 5 0.0000 0.0000 0.0000 0.0000 40.9933 0.0000
# 6 0.0000 0.0000 0.0000 0.0000 0.0000 40.0673
#
#
#
# Elastic Compliance Matrix: (Units=1/GPa)
#
#
# Indices 1 2 3 4 5 6 
#
# 1 0.009642 -0.002994 -0.002725 0.000000 0.000000 0.000000
# 2 -0.002994 0.007953 -0.001711 0.000000 0.000000 0.000000
# 3 -0.002725 -0.001711 0.016655 0.000000 0.000000 0.000000
# 4 0.000000 0.000000 0.000000 0.060441 0.000000 0.000000
# 5 0.000000 0.000000 0.000000 0.000000 0.024394 0.000000
# 6 0.000000 0.000000 0.000000 0.000000 0.000000 0.024958
#
#
# Mechanical properties :
#
#
# Convention : Reuss Voigt Hill
#
# Bulk Modulus (GPa) = 51.57500 61.70919 56.64210
# Shear Modulus (GPa) = 30.23602 35.61343 32.92473
#
# Velocity S-wave (km/s) = 3.42248 3.71437 3.57141
# Velocity P-wave (km/s) = 5.96639 6.50395 6.24096
#
# Compressibility (1/GPa) = 0.01938924
#
# Stress axis : x y z
#
# Youngs Moduli (GPa) = 103.71123 125.74546 60.04302
#
# Poissons Ratio (x) = 0.37654 0.16362
# Poissons Ratio (y) = 0.31056 0.10271
# Poissons Ratio (z) = 0.28261 0.21511
#
# Static dielectric constant tensor:
#      x y z
#    x 2.041390 0.000000 0.000000 
#    y 0.000000 2.498380 0.000000 
#    z 0.000000 0.000000 2.116710 
# 
# From -- ./inp_files/1970.got.cif
#   From: 2010.05.17/outbox.cif.g08.bks.cpg/sg29_1_cif.got.tgz:1970.got - 2010.06.04 01:19:37.
