data_PCOD9341007
_publ_section_title
;
Structure prediction by ZEFSAII (Michael W. Deem and Ramdas Pophale) SiO2 
 PCOD9341007
Probable space group: P C A 21
;
_chemical_formula_sum "Si O2"
_cell_formula_units_Z 32
_cell_length_a 17.244481
_cell_length_b 5.956884
_cell_length_c 13.428065
_cell_angle_alpha 90.000000
_cell_angle_beta 90.000000
_cell_angle_gamma 90.000000
_cell_volume 1379.376129
_symmetry_space_group_name_H-M "P C A 21"
_symmetry_group_IT_number 29
_symmetry_cell_setting 'orthorhombic'
loop_
_space_group_symop_operation_xyz
x,y,z
-x,-y,1/2+z
1/2-x,y,1/2+z
1/2+x,-y,z
loop_
_atom_site_type_symbol
_atom_site_label
_atom_site_fract_x
_atom_site_fract_y
_atom_site_fract_z
Si Si1 0.216262 0.486671 0.620890
Si Si2 0.493739 0.888353 0.997357
Si Si3 0.467359 0.607098 0.798390
Si Si4 0.079945 0.780925 0.851499
Si Si5 0.150765 0.134736 0.097190
Si Si6 0.768016 0.219013 0.450984
Si Si7 0.811630 0.217440 0.757926
Si Si8 0.413812 0.121508 0.175128
O O1 0.214916 0.616859 0.516242
O O2 0.238441 0.675492 0.701308
O O3 0.147358 0.318714 0.649984
O O4 0.293375 0.340123 0.613157
O O5 0.471720 0.720576 0.908365
O O6 0.530663 0.099916 0.938654
O O7 0.566106 0.794924 0.060959
O O8 0.430225 0.972870 0.076746
O O9 0.520414 0.388193 0.800562
O O10 0.377060 0.593636 0.774260
O O11 0.507590 0.762190 0.714475
O O12 0.155598 0.666593 0.901079
O O13 0.107188 0.966533 0.770496
O O14 0.150580 0.979569 0.194239
O O15 0.194033 0.976710 0.016181
O O16 0.716279 0.124753 0.362782
#
# Coordination Sequence:
#
# PCOD9341007 Si02
#       8
#     4   4   4   4   4   4   4   4
#     4  11  25  40  69  93 131 174 224 282 336 397
#     4  10  23  41  64  98 133 172 233 271 339 400
#     4  11  24  41  69  96 135 176 221 280 332 405
#     4  10  23  43  67  92 135 179 215 283 341 395
#     4  10  22  44  66  91 134 179 213 282 337 393
#     4  10  23  43  62  96 127 169 230 268 338 396
#     4  11  24  41  64  99 131 173 225 272 334 411
#     4  11  24  43  65 103 132 178 227 278 339 407
#
# _framework density 23.198892000000001
#
# number of rings (size 3 to 8) (size 9 to 14) (size 15 to 20)
#    0.000    1.500    1.250    2.250    5.250    5.000 
#    0.000    0.000    0.000    0.000    0.000    0.000 
#    0.000    0.000    0.000    0.000    0.000    0.000 
#
# Total GULP energy -178934.354936 kJ/mol
# GULP energy per Si atom -5591.698592 kJ/mol
# Density = 2.314609 g / cm^3
# Si number density = 23.198892 Si / 1000 Ang^3
#
#
#
# Elastic Constant Matrix: (Units=GPa)
#
#
# Indices 1 2 3 4 5 6 
#
# 1 76.3701 -2.6255 32.4919 0.0000 0.0000 0.0000
# 2 -2.6255 14.0636 12.3019 0.0000 0.0000 0.0000
# 3 32.4919 12.3019 119.6386 0.0000 0.0000 0.0000
# 4 0.0000 0.0000 0.0000 4.5375 0.0000 0.0000
# 5 0.0000 0.0000 0.0000 0.0000 28.0333 0.0000
# 6 0.0000 0.0000 0.0000 0.0000 0.0000 39.8500
#
#
#
# Elastic Compliance Matrix: (Units=1/GPa)
#
#
# Indices 1 2 3 4 5 6 
#
# 1 0.015441 0.007198 -0.004934 0.000000 0.000000 0.000000
# 2 0.007198 0.081489 -0.010334 0.000000 0.000000 0.000000
# 3 -0.004934 -0.010334 0.010761 0.000000 0.000000 0.000000
# 4 0.000000 0.000000 0.000000 0.220387 0.000000 0.000000
# 5 0.000000 0.000000 0.000000 0.000000 0.035672 0.000000
# 6 0.000000 0.000000 0.000000 0.000000 0.000000 0.025094
#
#
# Mechanical properties :
#
#
# Convention : Reuss Voigt Hill
#
# Bulk Modulus (GPa) = 10.92279 32.71209 21.81744
# Shear Modulus (GPa) = 11.48107 25.67776 18.57941
#
# Velocity S-wave (km/s) = 2.22704 3.33055 2.83304
# Velocity P-wave (km/s) = 3.36623 5.37786 4.48625
#
# Compressibility (1/GPa) = 0.09155167
#
# Stress axis : x y z
#
# Youngs Moduli (GPa) = 64.76436 12.27159 92.92828
#
# Poissons Ratio (x) = -0.08833 0.45847
# Poissons Ratio (y) = -0.46618 0.96032
# Poissons Ratio (z) = 0.31952 0.12681
#
# Static dielectric constant tensor:
#      x y z
#    x 1.859860 0.000000 0.000000 
#    y 0.000000 1.864980 0.000000 
#    z 0.000000 0.000000 1.912630 
# 
# From -- ./inp_files/4773.got.cif
#   From: 2010.05.17/outbox.cif.g08.bks.cpg/sg29_3_cif.got.tgz:4773.got - 2010.06.04 01:19:37.
