data_PCOD9341930
_publ_section_title
;
Structure prediction by ZEFSAII (Michael W. Deem and Ramdas Pophale) SiO2 
 PCOD9341930
Probable space group: P N C 2
;
_chemical_formula_sum "Si O2"
_cell_formula_units_Z 30
_cell_length_a 7.670247
_cell_length_b 12.025787
_cell_length_c 19.782194
_cell_angle_alpha 90.000000
_cell_angle_beta 90.000000
_cell_angle_gamma 90.000000
_cell_volume 1824.724543
_symmetry_space_group_name_H-M "P N C 2"
_symmetry_group_IT_number 30
_symmetry_cell_setting 'orthorhombic'
loop_
_space_group_symop_operation_xyz
x,y,z
-x,-y,z
-x,1/2+y,1/2+z
x,1/2-y,1/2+z
loop_
_atom_site_type_symbol
_atom_site_label
_atom_site_fract_x
_atom_site_fract_y
_atom_site_fract_z
Si Si1 0.293081 0.000000 0.271140
Si Si2 0.703617 0.127643 0.014114
Si Si3 0.000000 0.204550 0.485020
Si Si4 0.000000 0.500000 0.883165
Si Si5 1.000000 0.630545 0.141552
Si Si6 0.297273 0.798899 0.169144
Si Si7 0.703616 0.627643 0.514114
Si Si8 0.297273 0.201101 0.169144
O O1 0.169567 0.000000 0.335511
O O2 0.256927 0.108492 0.225163
O O3 0.500000 0.000000 0.286989
O O4 0.256927 0.891508 0.225163
O O5 0.722921 0.144901 0.095101
O O6 0.500000 0.146345 0.997920
O O7 0.748095 1.000000 0.997884
O O8 0.831403 0.215984 0.980403
O O9 0.000000 0.151209 0.560364
O O10 1.000000 0.108288 0.430309
O O11 0.168597 0.284016 0.480403
O O12 0.168243 0.694886 0.170380
O O13 0.000000 0.500000 0.155414
O O14 0.831757 0.694886 0.170380
O O15 0.500000 0.766546 0.175843
O O16 0.722921 0.644902 0.595101
#
# Coordination Sequence:
#
# PCOD9341930 Si02
#       8
#     4   4   4   2   4   4   4   4
#     4  10  20  36  58  80 100 128 173 224 262 294
#     4   9  16  30  55  81 102 123 157 218 277 306
#     4  10  21  33  44  70 109 143 175 199 234 304
#     4  12  24  36  48  70 110 154 180 196 230 302
#     4  10  19  31  48  73 108 142 162 196 255 315
#     4   9  17  31  53  81 103 121 162 219 269 306
#     4   9  16  30  55  81 102 123 157 218 277 306
#     4   9  17  31  53  81 103 121 162 219 269 306
#
# _framework density 16.440836999999998
#
# number of rings (size 3 to 8) (size 9 to 14) (size 15 to 20)
#    0.000    2.400    2.000    1.200    0.000    1.600 
#    0.000    0.000    0.000    6.400    0.000    0.000 
#    0.000    0.000    0.000    0.000    0.000    0.000 
#
# Total GULP energy -167333.733234 kJ/mol
# GULP energy per Si atom -5577.791108 kJ/mol
# Density = 1.640342 g / cm^3
# Si number density = 16.440837 Si / 1000 Ang^3
#
#
#
# Elastic Constant Matrix: (Units=GPa)
#
#
# Indices 1 2 3 4 5 6 
#
# 1 106.4908 108.0376 63.1525 0.0000 0.0000 0.0000
# 2 108.0376 178.9172 63.0485 0.0000 0.0000 0.0000
# 3 63.1525 63.0485 73.1376 0.0000 0.0000 0.0000
# 4 0.0000 0.0000 0.0000 21.7538 0.0000 0.0000
# 5 0.0000 0.0000 0.0000 0.0000 23.1249 0.0000
# 6 0.0000 0.0000 0.0000 0.0000 0.0000 8.1671
#
#
#
# Elastic Compliance Matrix: (Units=1/GPa)
#
#
# Indices 1 2 3 4 5 6 
#
# 1 0.034603 -0.014889 -0.017044 0.000000 0.000000 0.000000
# 2 -0.014889 0.014434 0.000413 0.000000 0.000000 0.000000
# 3 -0.017044 0.000413 0.028034 0.000000 0.000000 0.000000
# 4 0.000000 0.000000 0.000000 0.045969 0.000000 0.000000
# 5 0.000000 0.000000 0.000000 0.000000 0.043243 0.000000
# 6 0.000000 0.000000 0.000000 0.000000 0.000000 0.122443
#
#
# Mechanical properties :
#
#
# Convention : Reuss Voigt Hill
#
# Bulk Modulus (GPa) = 71.26722 91.89143 81.57933
# Shear Modulus (GPa) = 14.02749 18.89629 16.46189
#
# Velocity S-wave (km/s) = 2.92415 3.39389 3.16773
# Velocity P-wave (km/s) = 7.40558 8.44816 7.94399
#
# Compressibility (1/GPa) = 0.01403170
#
# Stress axis : x y z
#
# Youngs Moduli (GPa) = 28.89920 69.28104 35.67113
#
# Poissons Ratio (x) = 1.03150 0.60798
# Poissons Ratio (y) = 0.43027 -0.01474
# Poissons Ratio (z) = 0.49256 -0.02862
#
# Static dielectric constant tensor:
#      x y z
#    x 1.565500 0.000000 0.000000 
#    y 0.000000 1.522720 0.000000 
#    z 0.000000 0.000000 1.527140 
# 
# From -- ./inp_files/5160.got.cif
#   From: 2010.05.17/outbox.cif.g08.bks.cpg/sg30_3_cif.got.tgz:5160.got - 2010.06.03 17:03:02.
