data_PCOD9341530
_publ_section_title
;
Structure prediction by ZEFSAII (Michael W. Deem and Ramdas Pophale) SiO2 
 PCOD9341530
Probable space group: P C A 21
;
_chemical_formula_sum "Si O2"
_cell_formula_units_Z 20
_cell_length_a 13.967030
_cell_length_b 6.687884
_cell_length_c 8.445240
_cell_angle_alpha 90.000000
_cell_angle_beta 90.000000
_cell_angle_gamma 90.000000
_cell_volume 788.868825
_symmetry_space_group_name_H-M "P C A 21"
_symmetry_group_IT_number 29
_symmetry_cell_setting 'orthorhombic'
loop_
_space_group_symop_operation_xyz
x,y,z
-x,-y,1/2+z
1/2-x,y,1/2+z
1/2+x,-y,z
loop_
_atom_site_type_symbol
_atom_site_label
_atom_site_fract_x
_atom_site_fract_y
_atom_site_fract_z
Si Si1 0.945932 0.774220 0.799170
Si Si2 0.698310 0.492850 0.431025
Si Si3 0.065501 0.415562 0.716491
Si Si4 0.915905 0.917845 0.451912
Si Si5 0.858176 0.297895 0.609710
O O1 0.842488 0.701344 0.860055
O O2 0.844062 0.087021 0.519788
O O3 0.017779 0.587754 0.821650
O O4 0.991686 0.965942 0.881075
O O5 0.633074 0.479421 0.588676
O O6 0.802950 0.458411 0.501524
O O7 0.681138 0.334861 0.288650
O O8 0.943566 0.803100 0.611146
O O9 0.971443 0.320455 0.635617
O O10 0.886451 0.765053 0.313756
#
# Coordination Sequence:
#
# PCOD9341530 Si02
#       5
#     4   4   4   4   4
#     4  11  23  44  82 114 157 209 276 338 421 486
#     4  11  26  47  78 114 165 215 265 350 413 491
#     4  11  25  50  85 114 161 218 276 345 418 494
#     4  12  24  47  87 121 150 218 288 342 413 501
#     4  11  26  48  76 119 163 212 279 337 417 504
#
# _framework density 25.352758000000001
#
# number of rings (size 3 to 8) (size 9 to 14) (size 15 to 20)
#    0.000    0.800    4.000    2.400    5.600    0.000 
#    0.000   10.000    0.000    0.000    0.000    0.000 
#    0.000    0.000    0.000    0.000    0.000    0.000 
#
# Total GULP energy -111777.946166 kJ/mol
# GULP energy per Si atom -5588.897308 kJ/mol
# Density = 2.529505 g / cm^3
# Si number density = 25.352758 Si / 1000 Ang^3
#
#
#
# Elastic Constant Matrix: (Units=GPa)
#
#
# Indices 1 2 3 4 5 6 
#
# 1 108.3923 43.2835 49.3381 0.0000 0.0000 0.0000
# 2 43.2835 106.3569 64.3055 0.0000 0.0000 0.0000
# 3 49.3381 64.3055 175.9691 0.0000 0.0000 0.0000
# 4 0.0000 0.0000 0.0000 72.0069 0.0000 0.0000
# 5 0.0000 0.0000 0.0000 0.0000 29.7182 0.0000
# 6 0.0000 0.0000 0.0000 0.0000 0.0000 23.7939
#
#
#
# Elastic Compliance Matrix: (Units=1/GPa)
#
#
# Indices 1 2 3 4 5 6 
#
# 1 0.011513 -0.003509 -0.001946 0.000000 0.000000 0.000000
# 2 -0.003509 0.013138 -0.003817 0.000000 0.000000 0.000000
# 3 -0.001946 -0.003817 0.007623 0.000000 0.000000 0.000000
# 4 0.000000 0.000000 0.000000 0.013888 0.000000 0.000000
# 5 0.000000 0.000000 0.000000 0.000000 0.033649 0.000000
# 6 0.000000 0.000000 0.000000 0.000000 0.000000 0.042028
#
#
# Mechanical properties :
#
#
# Convention : Reuss Voigt Hill
#
# Bulk Modulus (GPa) = 72.83067 78.28583 75.55825
# Shear Modulus (GPa) = 34.49241 40.68986 37.59113
#
# Velocity S-wave (km/s) = 3.69250 4.01053 3.85479
# Velocity P-wave (km/s) = 6.85337 7.23819 7.04841
#
# Compressibility (1/GPa) = 0.01373048
#
# Stress axis : x y z
#
# Youngs Moduli (GPa) = 86.86201 76.11291 131.17574
#
# Poissons Ratio (x) = 0.26707 0.25522
# Poissons Ratio (y) = 0.30478 0.50076
# Poissons Ratio (z) = 0.16900 0.29056
#
# Static dielectric constant tensor:
#      x y z
#    x 2.007970 0.000000 0.000000 
#    y 0.000000 2.071850 0.000000 
#    z 0.000000 0.000000 2.064230 
# 
# From -- ./inp_files/1698.got.cif
#   From: 2010.05.17/outbox.cif.g08.bks.cpg/sg29_1_cif.got.tgz:1698.got - 2010.06.04 01:19:37.
