data_PCOD9341449
_publ_section_title
;
Structure prediction by ZEFSAII (Michael W. Deem and Ramdas Pophale) SiO2 
 PCOD9341449
Probable space group: P C A 21
;
_chemical_formula_sum "Si O2"
_cell_formula_units_Z 28
_cell_length_a 8.486418
_cell_length_b 4.635968
_cell_length_c 25.399267
_cell_angle_alpha 90.000000
_cell_angle_beta 90.000000
_cell_angle_gamma 90.000000
_cell_volume 999.277324
_symmetry_space_group_name_H-M "P C A 21"
_symmetry_group_IT_number 29
_symmetry_cell_setting 'orthorhombic'
loop_
_space_group_symop_operation_xyz
x,y,z
-x,-y,1/2+z
1/2-x,y,1/2+z
1/2+x,-y,z
loop_
_atom_site_type_symbol
_atom_site_label
_atom_site_fract_x
_atom_site_fract_y
_atom_site_fract_z
Si Si1 0.129006 0.681918 0.355910
Si Si2 0.850525 0.657475 0.002346
Si Si3 0.094036 0.714557 0.143157
Si Si4 0.419461 0.205111 0.714813
Si Si5 0.386217 0.677606 0.428355
Si Si6 0.627114 0.637391 0.780521
Si Si7 0.373011 0.884665 0.075370
O O1 0.255912 0.848296 0.393081
O O2 0.247397 0.481322 0.323221
O O3 0.008603 0.498396 0.391655
O O4 0.009271 0.812948 0.312413
O O5 0.772930 0.901543 0.038015
O O6 0.911591 0.388304 0.038078
O O7 0.723751 0.533089 0.962127
O O8 0.993962 0.810007 0.970759
O O9 0.080363 0.383562 0.159504
O O10 0.990150 0.877935 0.100058
O O11 0.058044 0.878274 0.197610
O O12 0.269270 0.763337 0.122887
O O13 0.543390 0.364991 0.752216
O O14 0.246390 0.218884 0.739742
#
# Coordination Sequence:
#
# PCOD9341449 Si02
#       7
#     4   4   4   4   4   4   4
#     4   8  16  34  64  90 120 154 192 244 292 354
#     4  11  22  38  62  87 120 157 196 242 290 349
#     4  12  24  40  60  87 120 157 200 244 292 344
#     4  11  22  38  62  87 120 157 196 242 290 349
#     4   9  18  35  62  90 120 154 196 239 296 349
#     4   9  18  35  62  90 120 154 196 239 296 349
#     4  12  24  40  60  87 120 157 200 244 292 344
#
# _framework density 28.020249
#
# number of rings (size 3 to 8) (size 9 to 14) (size 15 to 20)
#    0.000    1.714    0.000    5.143    0.000    0.000 
#    0.000    0.000    0.000  120.000    0.000    0.000 
#    0.000    0.000    0.000    0.000    0.000    0.000 
#
# Total GULP energy -156702.282771 kJ/mol
# GULP energy per Si atom -5596.510099 kJ/mol
# Density = 2.795647 g / cm^3
# Si number density = 28.020249 Si / 1000 Ang^3
#
#
#
# Elastic Constant Matrix: (Units=GPa)
#
#
# Indices 1 2 3 4 5 6 
#
# 1 169.4781 20.9802 60.4378 0.0000 0.0000 0.0000
# 2 20.9802 103.5362 33.9905 0.0000 0.0000 0.0000
# 3 60.4378 33.9905 116.9949 0.0000 0.0000 0.0000
# 4 0.0000 0.0000 0.0000 17.4679 0.0000 0.0000
# 5 0.0000 0.0000 0.0000 0.0000 60.9049 0.0000
# 6 0.0000 0.0000 0.0000 0.0000 0.0000 27.2275
#
#
#
# Elastic Compliance Matrix: (Units=1/GPa)
#
#
# Indices 1 2 3 4 5 6 
#
# 1 0.007239 -0.000264 -0.003663 0.000000 0.000000 0.000000
# 2 -0.000264 0.010686 -0.002968 0.000000 0.000000 0.000000
# 3 -0.003663 -0.002968 0.011302 0.000000 0.000000 0.000000
# 4 0.000000 0.000000 0.000000 0.057248 0.000000 0.000000
# 5 0.000000 0.000000 0.000000 0.000000 0.016419 0.000000
# 6 0.000000 0.000000 0.000000 0.000000 0.000000 0.036728
#
#
# Mechanical properties :
#
#
# Convention : Reuss Voigt Hill
#
# Bulk Modulus (GPa) = 64.78030 68.98069 66.88050
# Shear Modulus (GPa) = 31.53399 39.42676 35.48037
#
# Velocity S-wave (km/s) = 3.35834 3.75518 3.56229
# Velocity P-wave (km/s) = 6.18120 6.59344 6.39064
#
# Compressibility (1/GPa) = 0.01543679
#
# Stress axis : x y z
#
# Youngs Moduli (GPa) = 138.13182 93.57630 88.48030
#
# Poissons Ratio (x) = 0.02475 0.32410
# Poissons Ratio (y) = 0.03653 0.26262
# Poissons Ratio (z) = 0.50597 0.27775
#
# Static dielectric constant tensor:
#      x y z
#    x 2.131510 0.000000 0.000000 
#    y 0.000000 2.070390 0.000000 
#    z 0.000000 0.000000 2.373730 
# 
# From -- ./inp_files/5675.got.cif
#   From: 2010.05.17/outbox.cif.g08.bks.cpg/sg29_3_cif.got.tgz:5675.got - 2010.06.04 01:19:37.
