data_PCOD9341886
_publ_section_title
;
Structure prediction by ZEFSAII (Michael W. Deem and Ramdas Pophale) SiO2 
 PCOD9341886
Probable space group: P N C 2
;
_chemical_formula_sum "Si O2"
_cell_formula_units_Z 28
_cell_length_a 10.312880
_cell_length_b 14.223568
_cell_length_c 10.477506
_cell_angle_alpha 90.000000
_cell_angle_beta 90.000000
_cell_angle_gamma 90.000000
_cell_volume 1536.902921
_symmetry_space_group_name_H-M "P N C 2"
_symmetry_group_IT_number 30
_symmetry_cell_setting 'orthorhombic'
loop_
_space_group_symop_operation_xyz
x,y,z
-x,-y,z
-x,1/2+y,1/2+z
x,1/2-y,1/2+z
loop_
_atom_site_type_symbol
_atom_site_label
_atom_site_fract_x
_atom_site_fract_y
_atom_site_fract_z
Si Si1 0.795582 0.807626 0.168610
Si Si2 0.447135 0.593486 0.413675
Si Si3 0.898241 0.330555 0.668609
Si Si4 0.334493 0.250000 0.918610
Si Si5 0.447135 0.906514 0.423544
Si Si6 0.308086 0.516776 0.668610
Si Si7 0.759433 0.250000 0.918609
O O1 0.753077 0.750679 0.293371
O O2 0.947569 0.828888 0.168609
O O3 0.717088 0.906192 0.168609
O O4 0.753075 0.750678 0.043850
O O5 0.500000 0.500000 0.342939
O O6 0.570924 0.660598 0.427195
O O7 0.386085 0.553980 0.545672
O O8 0.333899 0.664892 0.369046
O O9 0.831737 0.432883 0.668610
O O10 0.843569 0.282313 0.797618
O O11 0.843569 0.282313 0.539601
O O12 0.429076 0.339402 0.910024
O O13 0.386084 0.946021 0.291548
O O14 0.333899 0.835108 0.468173
O O15 0.500000 0.000000 0.494281
#
# Coordination Sequence:
#
# PCOD9341886 Si02
#       7
#     4   4   4   4   4   4   4
#     4  12  22  38  60  86 120 150 201 237 285 341
#     4  10  18  35  59  87 116 143 192 241 287 345
#     4  10  21  39  58  85 115 159 197 239 277 341
#     4  11  23  34  60  92 115 155 180 248 302 333
#     4  10  18  35  59  87 116 143 192 241 287 345
#     4  10  19  36  65  84 110 155 205 243 273 337
#     4   9  21  36  60  86 115 153 190 240 296 333
#
# _framework density 18.218457000000001
#
# number of rings (size 3 to 8) (size 9 to 14) (size 15 to 20)
#    0.000    1.714    2.857    2.571    0.000    3.429 
#    0.000    2.857    0.000    1.714    0.000    0.000 
#    0.000    0.000    0.000    0.000    0.000    0.000 
#
# Total GULP energy -156029.668698 kJ/mol
# GULP energy per Si atom -5572.488168 kJ/mol
# Density = 1.817699 g / cm^3
# Si number density = 18.218457 Si / 1000 Ang^3
#
#
#
# Elastic Constant Matrix: (Units=GPa)
#
#
# Indices 1 2 3 4 5 6 
#
# 1 126.7413 41.9674 40.8473 0.0000 0.0000 0.0000
# 2 41.9674 96.1589 23.6427 0.0000 0.0000 0.0000
# 3 40.8473 23.6427 97.4891 0.0000 0.0000 0.0000
# 4 0.0000 0.0000 0.0000 18.6373 0.0000 0.0000
# 5 0.0000 0.0000 0.0000 0.0000 11.8093 0.0000
# 6 0.0000 0.0000 0.0000 0.0000 0.0000 27.2209
#
#
#
# Elastic Compliance Matrix: (Units=1/GPa)
#
#
# Indices 1 2 3 4 5 6 
#
# 1 0.010177 -0.003608 -0.003389 0.000000 0.000000 0.000000
# 2 -0.003608 0.012338 -0.001480 0.000000 0.000000 0.000000
# 3 -0.003389 -0.001480 0.012037 0.000000 0.000000 0.000000
# 4 0.000000 0.000000 0.000000 0.053656 0.000000 0.000000
# 5 0.000000 0.000000 0.000000 0.000000 0.084679 0.000000
# 6 0.000000 0.000000 0.000000 0.000000 0.000000 0.036736
#
#
# Mechanical properties :
#
#
# Convention : Reuss Voigt Hill
#
# Bulk Modulus (GPa) = 56.82991 59.25601 58.04296
# Shear Modulus (GPa) = 21.51052 25.79563 23.65308
#
# Velocity S-wave (km/s) = 3.43986 3.76694 3.60711
# Velocity P-wave (km/s) = 6.85844 7.17744 7.01975
#
# Compressibility (1/GPa) = 0.01759637
#
# Stress axis : x y z
#
# Youngs Moduli (GPa) = 98.25891 81.04860 83.08025
#
# Poissons Ratio (x) = 0.29246 0.28157
# Poissons Ratio (y) = 0.35456 0.12299
# Poissons Ratio (z) = 0.33301 0.11998
#
# Static dielectric constant tensor:
#      x y z
#    x 1.619380 0.000000 0.000000 
#    y 0.000000 1.649570 0.000000 
#    z 0.000000 0.000000 1.619830 
# 
# From -- ./inp_files/3723.got.cif
#   From: 2010.05.17/outbox.cif.g08.bks.cpg/sg30_2_cif.got.tgz:3723.got - 2010.06.03 17:03:02.
