data_PCOD9341857
_publ_section_title
;
Structure prediction by ZEFSAII (Michael W. Deem and Ramdas Pophale) SiO2 
 PCOD9341857
Probable space group: P N C 2
;
_chemical_formula_sum "Si O2"
_cell_formula_units_Z 18
_cell_length_a 5.368887
_cell_length_b 13.422906
_cell_length_c 12.117647
_cell_angle_alpha 90.000000
_cell_angle_beta 90.000000
_cell_angle_gamma 90.000000
_cell_volume 873.271143
_symmetry_space_group_name_H-M "P N C 2"
_symmetry_group_IT_number 30
_symmetry_cell_setting 'orthorhombic'
loop_
_space_group_symop_operation_xyz
x,y,z
-x,-y,z
-x,1/2+y,1/2+z
x,1/2-y,1/2+z
loop_
_atom_site_type_symbol
_atom_site_label
_atom_site_fract_x
_atom_site_fract_y
_atom_site_fract_z
Si Si1 0.000000 0.500000 0.001420
Si Si2 0.748015 0.034237 0.094556
Si Si3 0.764142 0.210763 0.249612
Si Si4 0.732494 0.610567 0.812298
Si Si5 0.758637 0.440392 0.213224
O O1 0.843244 0.431658 0.084576
O O2 0.806104 0.554588 0.922792
O O3 0.747253 0.149063 0.133044
O O4 0.500000 0.000000 0.033115
O O5 0.743967 0.966459 0.208220
O O6 0.000000 0.000000 0.037326
O O7 0.536316 0.160614 0.315716
O O8 0.727674 0.327941 0.251707
O O9 0.040316 0.186136 0.291725
O O10 0.500000 0.500000 0.222968
O O11 0.000000 0.500000 0.261112
#
# Coordination Sequence:
#
# PCOD9341857 Si02
#       5
#     2   4   4   4   4
#     4  10  22  34  56  84 122 140 180 260 292 310
#     4   8  14  24  44  73  99 118 170 225 258 295
#     4  10  18  32  50  78 109 147 179 222 278 343
#     4  10  18  30  56  81 107 133 192 232 272 330
#     4  10  23  35  51  75 126 147 179 228 303 334
#
# _framework density 20.612155999999999
#
# number of rings (size 3 to 8) (size 9 to 14) (size 15 to 20)
#    0.667    1.778    3.333    1.333    3.111    0.000 
#    0.000    0.000    0.000    0.000    0.000   18.667 
#    0.000    0.000    0.000    0.000    0.000    0.000 
#
# Total GULP energy -100267.211671 kJ/mol
# GULP energy per Si atom -5570.400648 kJ/mol
# Density = 2.056524 g / cm^3
# Si number density = 20.612156 Si / 1000 Ang^3
#
#
#
# Elastic Constant Matrix: (Units=GPa)
#
#
# Indices 1 2 3 4 5 6 
#
# 1 174.3248 47.8012 0.7492 0.0000 0.0000 0.0000
# 2 47.8012 132.6881 2.7223 0.0000 0.0000 0.0000
# 3 0.7492 2.7223 25.2786 0.0000 0.0000 0.0000
# 4 0.0000 0.0000 0.0000 20.5269 0.0000 0.0000
# 5 0.0000 0.0000 0.0000 0.0000 2.4108 0.0000
# 6 0.0000 0.0000 0.0000 0.0000 0.0000 36.5118
#
#
#
# Elastic Compliance Matrix: (Units=1/GPa)
#
#
# Indices 1 2 3 4 5 6 
#
# 1 0.006365 -0.002294 0.000058 0.000000 0.000000 0.000000
# 2 -0.002294 0.008380 -0.000834 0.000000 0.000000 0.000000
# 3 0.000058 -0.000834 0.039647 0.000000 0.000000 0.000000
# 4 0.000000 0.000000 0.000000 0.048717 0.000000 0.000000
# 5 0.000000 0.000000 0.000000 0.000000 0.414803 0.000000
# 6 0.000000 0.000000 0.000000 0.000000 0.000000 0.027388
#
#
# Mechanical properties :
#
#
# Convention : Reuss Voigt Hill
#
# Bulk Modulus (GPa) = 20.72451 48.31518 34.51985
# Shear Modulus (GPa) = 8.81018 30.62449 19.71734
#
# Velocity S-wave (km/s) = 2.06967 3.85872 3.09623
# Velocity P-wave (km/s) = 3.97338 6.58362 5.43745
#
# Compressibility (1/GPa) = 0.04825204
#
# Stress axis : x y z
#
# Youngs Moduli (GPa) = 157.10221 119.33007 25.22240
#
# Poissons Ratio (x) = 0.27378 -0.00147
# Poissons Ratio (y) = 0.36044 0.02105
# Poissons Ratio (z) = -0.00918 0.09958
#
# Static dielectric constant tensor:
#      x y z
#    x 1.814190 0.000000 0.000000 
#    y 0.000000 1.715520 0.000000 
#    z 0.000000 0.000000 1.743740 
# 
# From -- ./inp_files/4570.got.cif
#   From: 2010.05.17/outbox.cif.g08.bks.cpg/sg30_3_cif.got.tgz:4570.got - 2010.06.03 17:03:02.
