data_PCOD9341938
_publ_section_title
;
Structure prediction by ZEFSAII (Michael W. Deem and Ramdas Pophale) SiO2 
 PCOD9341938
Probable space group: P N C 2
;
_chemical_formula_sum "Si O2"
_cell_formula_units_Z 24
_cell_length_a 7.676872
_cell_length_b 7.311529
_cell_length_c 17.832520
_cell_angle_alpha 90.000000
_cell_angle_beta 90.000000
_cell_angle_gamma 90.000000
_cell_volume 1000.933503
_symmetry_space_group_name_H-M "P N C 2"
_symmetry_group_IT_number 30
_symmetry_cell_setting 'orthorhombic'
loop_
_space_group_symop_operation_xyz
x,y,z
-x,-y,z
-x,1/2+y,1/2+z
x,1/2-y,1/2+z
loop_
_atom_site_type_symbol
_atom_site_label
_atom_site_fract_x
_atom_site_fract_y
_atom_site_fract_z
Si Si1 0.715359 0.765259 0.500000
Si Si2 0.500000 0.500000 0.905638
Si Si3 0.772538 0.194651 0.317992
Si Si4 0.121817 0.750712 0.156252
Si Si5 0.270068 0.361703 0.163724
Si Si6 0.000000 0.500000 0.925496
Si Si7 0.000000 0.000000 0.022378
Si Si8 0.500000 0.500000 0.287311
O O1 0.675027 0.759202 0.588258
O O2 0.846122 0.933517 0.480352
O O3 0.837932 0.593618 0.480682
O O4 0.543667 0.821782 0.455260
O O5 0.340820 0.533098 0.851686
O O6 0.806267 0.155131 0.230829
O O7 0.656246 0.380774 0.324557
O O8 0.941486 0.168221 0.371180
O O9 0.244271 0.576089 0.143872
O O10 0.090421 0.856784 0.079566
O O11 0.926218 0.696735 0.181627
O O12 0.399175 0.356777 0.233180
#
# Coordination Sequence:
#
# PCOD9341938 Si02
#       8
#     4   2   4   4   4   2   2   2
#     4  10  20  36  57  83 112 154 199 237 298 355
#     4  10  23  38  54  78 123 162 186 238 302 366
#     4  10  22  38  56  83 114 155 197 236 298 354
#     4   9  18  34  57  84 112 145 191 241 290 347
#     4   9  18  35  59  84 113 146 183 241 303 350
#     4  10  21  38  56  74 117 166 198 236 284 368
#     4  10  19  32  60  90 109 140 204 260 280 342
#     4  10  21  36  60  90 117 144 192 252 296 350
#
# _framework density 23.977616000000001
#
# number of rings (size 3 to 8) (size 9 to 14) (size 15 to 20)
#    0.000    2.333    0.000    3.000    0.000    6.667 
#    0.000    1.667    0.000   16.000    0.000    0.000 
#    0.000    0.000    0.000    0.000    0.000    0.000 
#
# Total GULP energy -133836.166788 kJ/mol
# GULP energy per Si atom -5576.506949 kJ/mol
# Density = 2.392304 g / cm^3
# Si number density = 23.977616 Si / 1000 Ang^3
#
#
#
# Elastic Constant Matrix: (Units=GPa)
#
#
# Indices 1 2 3 4 5 6 
#
# 1 59.9843 18.5105 25.5301 0.0000 0.0000 0.0000
# 2 18.5105 53.0325 11.6785 0.0000 0.0000 0.0000
# 3 25.5301 11.6785 64.0255 0.0000 0.0000 0.0000
# 4 0.0000 0.0000 0.0000 -14.3685 0.0000 0.0000
# 5 0.0000 0.0000 0.0000 0.0000 21.6422 0.0000
# 6 0.0000 0.0000 0.0000 0.0000 0.0000 41.0425
#
#
#
# Elastic Compliance Matrix: (Units=1/GPa)
#
#
# Indices 1 2 3 4 5 6 
#
# 1 0.021723 -0.005912 -0.007584 0.000000 0.000000 0.000000
# 2 -0.005912 0.021255 -0.001519 0.000000 0.000000 0.000000
# 3 -0.007584 -0.001519 0.018920 0.000000 0.000000 0.000000
# 4 0.000000 0.000000 0.000000 -0.069597 0.000000 0.000000
# 5 0.000000 0.000000 0.000000 0.000000 0.046206 0.000000
# 6 0.000000 0.000000 0.000000 0.000000 0.000000 0.024365
#
#
# Mechanical properties :
#
#
# Convention : Reuss Voigt Hill
#
# Bulk Modulus (GPa) = 31.38041 32.05336 31.71689
# Shear Modulus (GPa) = 48.29760 17.75146 33.02453
#
# Velocity S-wave (km/s) = 4.49294 2.72386 3.71523
# Velocity P-wave (km/s) = 6.32702 4.82593 5.62676
#
# Compressibility (1/GPa) = 0.03186701
#
# Stress axis : x y z
#
# Youngs Moduli (GPa) = 46.03380 47.04873 52.85439
#
# Poissons Ratio (x) = 0.27816 0.40083
# Poissons Ratio (y) = 0.27216 0.08031
# Poissons Ratio (z) = 0.34911 0.07149
#
# Static dielectric constant tensor:
#      x y z
#    x 2.017350 0.000000 0.000000 
#    y 0.000000 1.991800 0.000000 
#    z 0.000000 0.000000 1.895220 
# 
# From -- ./inp_files/5067.got.cif
#   From: 2010.05.17/outbox.cif.g08.bks.cpg/sg30_3_cif.got.tgz:5067.got - 2010.06.03 17:03:02.
