data_PCOD9341008
_publ_section_title
;
Structure prediction by ZEFSAII (Michael W. Deem and Ramdas Pophale) SiO2 
 PCOD9341008
Probable space group: P C A 21
;
_chemical_formula_sum "Si O2"
_cell_formula_units_Z 24
_cell_length_a 12.703089
_cell_length_b 6.298376
_cell_length_c 13.498153
_cell_angle_alpha 90.000000
_cell_angle_beta 90.000000
_cell_angle_gamma 90.000000
_cell_volume 1079.971441
_symmetry_space_group_name_H-M "P C A 21"
_symmetry_group_IT_number 29
_symmetry_cell_setting 'orthorhombic'
loop_
_space_group_symop_operation_xyz
x,y,z
-x,-y,1/2+z
1/2-x,y,1/2+z
1/2+x,-y,z
loop_
_atom_site_type_symbol
_atom_site_label
_atom_site_fract_x
_atom_site_fract_y
_atom_site_fract_z
Si Si1 0.964011 0.208602 0.932970
Si Si2 0.750236 0.441295 0.922757
Si Si3 0.026947 0.462319 0.130830
Si Si4 0.410436 0.854355 0.519487
Si Si5 0.230125 0.229136 0.101253
Si Si6 0.874258 0.665366 0.263829
O O1 0.847540 0.283971 0.907186
O O2 0.042262 0.237760 0.840473
O O3 0.994896 0.360738 0.025475
O O4 0.988967 0.974785 0.974749
O O5 0.722086 0.584249 0.829813
O O6 0.646565 0.301485 0.943329
O O7 0.763492 0.597595 0.017855
O O8 0.057248 0.707047 0.111013
O O9 0.131304 0.335308 0.158848
O O10 0.932937 0.470748 0.208408
O O11 0.321540 0.024662 0.550412
O O12 0.324593 0.190504 0.177214
#
# Coordination Sequence:
#
# PCOD9341008 Si02
#       6
#     4   4   4   4   4   4
#     4  11  23  44  67  99 136 179 225 283 340 405
#     4  11  23  44  70  95 140 179 226 283 345 406
#     4  10  22  44  68  94 135 175 222 283 343 402
#     4  10  22  46  66  97 139 176 225 289 333 400
#     4  10  22  44  66  96 132 175 228 281 341 407
#     4  12  22  44  71  95 132 182 224 271 352 408
#
# _framework density 22.222809999999999
#
# number of rings (size 3 to 8) (size 9 to 14) (size 15 to 20)
#    0.000    1.333    6.667    1.000    2.333    0.000 
#   15.000    0.000    0.000    0.000    0.000    0.000 
#    0.000    0.000    0.000    0.000    0.000    0.000 
#
# Total GULP energy -134044.488951 kJ/mol
# GULP energy per Si atom -5585.187040 kJ/mol
# Density = 2.217223 g / cm^3
# Si number density = 22.222810 Si / 1000 Ang^3
#
#
#
# Elastic Constant Matrix: (Units=GPa)
#
#
# Indices 1 2 3 4 5 6 
#
# 1 53.6791 -21.2815 7.1637 0.0000 0.0000 0.0000
# 2 -21.2815 48.6542 -5.0291 0.0000 0.0000 0.0000
# 3 7.1637 -5.0291 75.4532 0.0000 0.0000 0.0000
# 4 0.0000 0.0000 0.0000 6.7248 0.0000 0.0000
# 5 0.0000 0.0000 0.0000 0.0000 39.1169 0.0000
# 6 0.0000 0.0000 0.0000 0.0000 0.0000 18.1184
#
#
#
# Elastic Compliance Matrix: (Units=1/GPa)
#
#
# Indices 1 2 3 4 5 6 
#
# 1 0.022706 0.009776 -0.001504 0.000000 0.000000 0.000000
# 2 0.009776 0.024905 0.000732 0.000000 0.000000 0.000000
# 3 -0.001504 0.000732 0.013445 0.000000 0.000000 0.000000
# 4 0.000000 0.000000 0.000000 0.148702 0.000000 0.000000
# 5 0.000000 0.000000 0.000000 0.000000 0.025564 0.000000
# 6 0.000000 0.000000 0.000000 0.000000 0.000000 0.055192
#
#
# Mechanical properties :
#
#
# Convention : Reuss Voigt Hill
#
# Bulk Modulus (GPa) = 12.64815 15.49921 14.07368
# Shear Modulus (GPa) = 16.73015 25.92092 21.32554
#
# Velocity S-wave (km/s) = 2.74676 3.41898 3.10114
# Velocity P-wave (km/s) = 3.97033 4.75137 4.37830
#
# Compressibility (1/GPa) = 0.07906294
#
# Stress axis : x y z
#
# Youngs Moduli (GPa) = 44.04169 40.15268 74.37803
#
# Poissons Ratio (x) = -0.39254 0.11188
# Poissons Ratio (y) = -0.43056 -0.05443
# Poissons Ratio (z) = 0.06625 -0.02938
#
# Static dielectric constant tensor:
#      x y z
#    x 1.850070 0.000000 0.000000 
#    y 0.000000 1.803640 0.000000 
#    z 0.000000 0.000000 1.834250 
# 
# From -- ./inp_files/4442.got.cif
#   From: 2010.05.17/outbox.cif.g08.bks.cpg/sg29_3_cif.got.tgz:4442.got - 2010.06.04 01:19:37.
