data_PCOD9341339
_publ_section_title
;
Structure prediction by ZEFSAII (Michael W. Deem and Ramdas Pophale) SiO2 
 PCOD9341339
Probable space group: P C A 21
;
_chemical_formula_sum "Si O2"
_cell_formula_units_Z 32
_cell_length_a 12.751788
_cell_length_b 9.001574
_cell_length_c 14.572224
_cell_angle_alpha 90.000000
_cell_angle_beta 90.000000
_cell_angle_gamma 90.000000
_cell_volume 1672.689684
_symmetry_space_group_name_H-M "P C A 21"
_symmetry_group_IT_number 29
_symmetry_cell_setting 'orthorhombic'
loop_
_space_group_symop_operation_xyz
x,y,z
-x,-y,1/2+z
1/2-x,y,1/2+z
1/2+x,-y,z
loop_
_atom_site_type_symbol
_atom_site_label
_atom_site_fract_x
_atom_site_fract_y
_atom_site_fract_z
Si Si1 0.698628 0.132952 0.462130
Si Si2 0.523793 0.672913 0.659644
Si Si3 0.818809 0.596747 0.430889
Si Si4 0.625711 0.792186 0.482036
Si Si5 0.923779 0.149867 0.365047
Si Si6 0.133801 0.588728 0.746015
Si Si7 0.489291 0.190859 0.360603
Si Si8 0.794490 0.359857 0.593474
O O1 0.810146 0.142305 0.411783
O O2 0.607178 0.200854 0.398701
O O3 0.718654 0.234409 0.550766
O O4 0.665254 0.963096 0.482382
O O5 0.606045 0.734839 0.585387
O O6 0.550945 0.502780 0.684576
O O7 0.526131 0.749098 0.758483
O O8 0.409457 0.697536 0.617842
O O9 0.711616 0.690977 0.431156
O O10 0.839618 0.495566 0.341396
O O11 0.913307 0.716187 0.428087
O O12 0.810987 0.489773 0.518799
O O13 0.515176 0.780802 0.428464
O O14 0.909617 0.250869 0.275239
O O15 0.958744 0.980954 0.353707
O O16 0.238830 0.590145 0.686401
#
# Coordination Sequence:
#
# PCOD9341339 Si02
#       8
#     4   4   4   4   4   4   4   4
#     4  11  23  43  69  92 129 175 220 270 323 393
#     4  11  24  43  61 100 131 168 218 273 322 394
#     4  11  23  43  67  95 136 170 209 271 325 392
#     4  11  23  43  67  94 134 172 220 269 326 387
#     4  11  22  45  65  96 127 175 217 268 328 389
#     4  11  25  40  66  98 131 171 216 267 331 392
#     4  10  25  43  68  93 132 175 217 265 332 388
#     4  12  25  42  67  98 130 168 221 269 329 393
#
# _framework density 19.130863000000002
#
# number of rings (size 3 to 8) (size 9 to 14) (size 15 to 20)
#    0.000    1.000    5.000    0.750    5.250    1.000 
#    0.000    1.250    0.000    0.000    0.000    0.000 
#    0.000    0.000    0.000    0.000    0.000    0.000 
#
# Total GULP energy -178654.919612 kJ/mol
# GULP energy per Si atom -5582.966238 kJ/mol
# Density = 1.908732 g / cm^3
# Si number density = 19.130863 Si / 1000 Ang^3
#
#
#
# Elastic Constant Matrix: (Units=GPa)
#
#
# Indices 1 2 3 4 5 6 
#
# 1 113.2384 16.3241 19.4801 0.0000 0.0000 0.0000
# 2 16.3241 61.3863 20.0270 0.0000 0.0000 0.0000
# 3 19.4801 20.0270 53.0731 0.0000 0.0000 0.0000
# 4 0.0000 0.0000 0.0000 23.1288 0.0000 0.0000
# 5 0.0000 0.0000 0.0000 0.0000 34.5327 0.0000
# 6 0.0000 0.0000 0.0000 0.0000 0.0000 26.9100
#
#
#
# Elastic Compliance Matrix: (Units=1/GPa)
#
#
# Indices 1 2 3 4 5 6 
#
# 1 0.009561 -0.001594 -0.002908 0.000000 0.000000 0.000000
# 2 -0.001594 0.018843 -0.006525 0.000000 0.000000 0.000000
# 3 -0.002908 -0.006525 0.022372 0.000000 0.000000 0.000000
# 4 0.000000 0.000000 0.000000 0.043236 0.000000 0.000000
# 5 0.000000 0.000000 0.000000 0.000000 0.028958 0.000000
# 6 0.000000 0.000000 0.000000 0.000000 0.000000 0.037161
#
#
# Mechanical properties :
#
#
# Convention : Reuss Voigt Hill
#
# Bulk Modulus (GPa) = 34.81719 37.70668 36.26193
# Shear Modulus (GPa) = 26.07446 28.37206 27.22326
#
# Velocity S-wave (km/s) = 3.69582 3.85522 3.77636
# Velocity P-wave (km/s) = 6.03748 6.29044 6.16526
#
# Compressibility (1/GPa) = 0.02872144
#
# Stress axis : x y z
#
# Youngs Moduli (GPa) = 104.59257 53.07016 44.69959
#
# Poissons Ratio (x) = 0.08458 0.12998
# Poissons Ratio (y) = 0.16670 0.29168
# Poissons Ratio (z) = 0.30414 0.34630
#
# Static dielectric constant tensor:
#      x y z
#    x 1.650880 0.000000 0.000000 
#    y 0.000000 1.691270 0.000000 
#    z 0.000000 0.000000 1.655900 
# 
# From -- ./inp_files/4535.got.cif
#   From: 2010.05.17/outbox.cif.g08.bks.cpg/sg29_3_cif.got.tgz:4535.got - 2010.06.04 01:19:37.
