data_PCOD9341625
_publ_section_title
;
Structure prediction by ZEFSAII (Michael W. Deem and Ramdas Pophale) SiO2 
 PCOD9341625
Probable space group: P C A 21
;
_chemical_formula_sum "Si O2"
_cell_formula_units_Z 32
_cell_length_a 12.275803
_cell_length_b 10.879042
_cell_length_c 10.638081
_cell_angle_alpha 90.000000
_cell_angle_beta 90.000000
_cell_angle_gamma 90.000000
_cell_volume 1420.704829
_symmetry_space_group_name_H-M "P C A 21"
_symmetry_group_IT_number 29
_symmetry_cell_setting 'orthorhombic'
loop_
_space_group_symop_operation_xyz
x,y,z
-x,-y,1/2+z
1/2-x,y,1/2+z
1/2+x,-y,z
loop_
_atom_site_type_symbol
_atom_site_label
_atom_site_fract_x
_atom_site_fract_y
_atom_site_fract_z
Si Si1 0.180808 0.367340 0.901430
Si Si2 0.731818 0.997704 0.791295
Si Si3 0.668876 0.875224 0.048959
Si Si4 0.425424 0.345627 0.804497
Si Si5 0.389383 0.638513 0.492359
Si Si6 0.317729 0.778537 0.921052
Si Si7 0.035323 0.619309 0.259748
Si Si8 0.452517 0.869506 0.153461
O O1 0.298068 0.350577 0.836638
O O2 0.158164 0.503211 0.957994
O O3 0.087122 0.344548 0.796660
O O4 0.167412 0.268857 0.013473
O O5 0.813934 0.110687 0.820617
O O6 0.613268 0.045781 0.748720
O O7 0.771333 0.912920 0.676921
O O8 0.723403 0.932757 0.925699
O O9 0.546363 0.926840 0.065810
O O10 0.491199 0.350588 0.934645
O O11 0.459380 0.473321 0.739973
O O12 0.478395 0.233437 0.728371
O O13 0.305530 0.733054 0.431818
O O14 0.405329 0.669123 0.637265
O O15 0.392474 0.666667 0.875281
O O16 0.362825 0.817540 0.056794
#
# Coordination Sequence:
#
# PCOD9341625 Si02
#       8
#     4   4   4   4   4   4   4   4
#     4  11  25  49  69 115 154 199 248 317 395 464
#     4  12  28  50  75 105 146 204 262 319 380 462
#     4  12  28  48  74 107 150 201 258 324 384 458
#     4  11  25  45  72 112 154 193 246 312 395 465
#     4  11  25  43  77 109 148 199 249 311 389 474
#     4  12  24  51  74 110 142 197 255 310 385 464
#     4  11  25  43  75 111 149 195 244 312 392 464
#     4  12  26  47  76 105 151 190 256 321 386 459
#
# _framework density 22.524031999999998
#
# number of rings (size 3 to 8) (size 9 to 14) (size 15 to 20)
#    0.000    0.500    5.000    2.250    3.500    4.000 
#    0.000    0.000    0.000    0.000    0.000    0.000 
#    0.000    0.000    0.000    0.000    0.000    0.000 
#
# Total GULP energy -178915.684464 kJ/mol
# GULP energy per Si atom -5591.115139 kJ/mol
# Density = 2.247277 g / cm^3
# Si number density = 22.524032 Si / 1000 Ang^3
#
#
#
# Elastic Constant Matrix: (Units=GPa)
#
#
# Indices 1 2 3 4 5 6 
#
# 1 137.9081 24.4761 19.3718 0.0000 0.0000 0.0000
# 2 24.4761 65.1126 41.5530 0.0000 0.0000 0.0000
# 3 19.3718 41.5530 91.5984 0.0000 0.0000 0.0000
# 4 0.0000 0.0000 0.0000 27.7484 0.0000 0.0000
# 5 0.0000 0.0000 0.0000 0.0000 44.7414 0.0000
# 6 0.0000 0.0000 0.0000 0.0000 0.0000 26.7624
#
#
#
# Elastic Compliance Matrix: (Units=1/GPa)
#
#
# Indices 1 2 3 4 5 6 
#
# 1 0.007783 -0.002639 -0.000449 0.000000 0.000000 0.000000
# 2 -0.002639 0.022511 -0.009654 0.000000 0.000000 0.000000
# 3 -0.000449 -0.009654 0.015391 0.000000 0.000000 0.000000
# 4 0.000000 0.000000 0.000000 0.036038 0.000000 0.000000
# 5 0.000000 0.000000 0.000000 0.000000 0.022351 0.000000
# 6 0.000000 0.000000 0.000000 0.000000 0.000000 0.037366
#
#
# Mechanical properties :
#
#
# Convention : Reuss Voigt Hill
#
# Bulk Modulus (GPa) = 49.50070 51.71343 50.60706
# Shear Modulus (GPa) = 28.79245 33.79833 31.29539
#
# Velocity S-wave (km/s) = 3.57921 3.87789 3.73154
# Velocity P-wave (km/s) = 6.25344 6.56199 6.40958
#
# Compressibility (1/GPa) = 0.02020174
#
# Stress axis : x y z
#
# Youngs Moduli (GPa) = 128.49115 44.42304 64.97115
#
# Poissons Ratio (x) = 0.11724 0.02915
# Poissons Ratio (y) = 0.33911 0.62721
# Poissons Ratio (z) = 0.05765 0.42885
#
# Static dielectric constant tensor:
#      x y z
#    x 1.813670 0.000000 0.000000 
#    y 0.000000 1.891730 0.000000 
#    z 0.000000 0.000000 1.861200 
# 
# From -- ./inp_files/3267.got.cif
#   From: 2010.05.17/outbox.cif.g08.bks.cpg/sg29_2_cif.got.tgz:3267.got - 2010.06.04 01:19:37.
