data_PCOD9341817
_publ_section_title
;
Structure prediction by ZEFSAII (Michael W. Deem and Ramdas Pophale) SiO2 
 PCOD9341817
Probable space group: P N C 2
;
_chemical_formula_sum "Si O2"
_cell_formula_units_Z 32
_cell_length_a 10.538071
_cell_length_b 32.912624
_cell_length_c 5.331224
_cell_angle_alpha 90.000000
_cell_angle_beta 90.000000
_cell_angle_gamma 90.000000
_cell_volume 1849.058107
_symmetry_space_group_name_H-M "P N C 2"
_symmetry_group_IT_number 30
_symmetry_cell_setting 'orthorhombic'
loop_
_space_group_symop_operation_xyz
x,y,z
-x,-y,z
-x,1/2+y,1/2+z
x,1/2-y,1/2+z
loop_
_atom_site_type_symbol
_atom_site_label
_atom_site_fract_x
_atom_site_fract_y
_atom_site_fract_z
Si Si1 0.216818 0.937124 0.536340
Si Si2 0.135507 0.361535 0.524876
Si Si3 0.196185 0.232635 0.071890
Si Si4 0.489670 0.049053 0.531739
Si Si5 0.906817 0.267532 0.071815
Si Si6 0.146615 0.512791 0.536347
Si Si7 0.669297 0.934749 0.032073
Si Si8 0.033413 0.861557 0.524670
O O1 0.368410 0.933611 0.533900
O O2 0.176035 0.962215 0.289030
O O3 0.144411 0.894448 0.532430
O O4 0.177204 0.961201 0.788060
O O5 0.185703 0.315296 0.533243
O O6 0.247567 0.394067 0.530795
O O7 0.054731 0.366862 0.270274
O O8 0.047637 0.367112 0.770501
O O9 0.257058 0.245291 0.334214
O O10 0.051825 0.250362 0.090232
O O11 0.415803 0.062243 0.281443
O O12 0.500000 0.000000 0.530360
O O13 0.414959 0.061866 0.781790
O O14 0.846569 0.254914 0.334789
O O15 0.915852 0.315435 0.031292
O O16 0.234907 0.473001 0.533930
O O17 0.000000 0.500000 0.533974
#
# Coordination Sequence:
#
# PCOD9341817 Si02
#       8
#     4   4   4   4   4   4   4   4
#     4  12  25  38  60  82 109 161 189 240 278 325
#     4  12  22  35  56  90 126 142 181 236 298 348
#     4  10  16  31  52  79 117 150 179 210 274 365
#     4  12  23  45  63  76 106 157 223 235 268 330
#     4  10  16  30  52  79 114 150 181 209 269 360
#     4  12  23  40  57  85 120 146 182 225 309 356
#     4  12  24  39  62  85 108 156 195 249 279 328
#     4  12  21  35  54  89 126 142 181 232 294 352
#
# _framework density 17.306108999999999
#
# number of rings (size 3 to 8) (size 9 to 14) (size 15 to 20)
#    0.000    0.500    7.500    4.500    0.000    0.000 
#    0.000    0.000    0.000    0.000    0.000    5.250 
#    0.000    0.000    0.000    0.000    0.000    0.000 
#
# Total GULP energy -178786.447038 kJ/mol
# GULP energy per Si atom -5587.076470 kJ/mol
# Density = 1.726672 g / cm^3
# Si number density = 17.306109 Si / 1000 Ang^3
#
#
#
# Elastic Constant Matrix: (Units=GPa)
#
#
# Indices 1 2 3 4 5 6 
#
# 1 100.6516 43.3384 41.0492 0.0000 0.0000 0.0000
# 2 43.3384 112.3444 7.2783 0.0000 0.0000 0.0000
# 3 41.0492 7.2783 136.0521 0.0000 0.0000 0.0000
# 4 0.0000 0.0000 0.0000 8.7734 0.0000 0.0000
# 5 0.0000 0.0000 0.0000 0.0000 35.0971 0.0000
# 6 0.0000 0.0000 0.0000 0.0000 0.0000 0.3093
#
#
#
# Elastic Compliance Matrix: (Units=1/GPa)
#
#
# Indices 1 2 3 4 5 6 
#
# 1 0.013671 -0.005024 -0.003856 0.000000 0.000000 0.000000
# 2 -0.005024 0.010778 0.000939 0.000000 0.000000 0.000000
# 3 -0.003856 0.000939 0.008463 0.000000 0.000000 0.000000
# 4 0.000000 0.000000 0.000000 0.113981 0.000000 0.000000
# 5 0.000000 0.000000 0.000000 0.000000 0.028492 0.000000
# 6 0.000000 0.000000 0.000000 0.000000 0.000000 3.233547
#
#
# Mechanical properties :
#
#
# Convention : Reuss Voigt Hill
#
# Bulk Modulus (GPa) = 58.71573 59.15331 58.93452
# Shear Modulus (GPa) = 1.45752 25.99476 13.72614
#
# Velocity S-wave (km/s) = 0.91871 3.87984 2.81933
# Velocity P-wave (km/s) = 5.92678 7.37060 6.68777
#
# Compressibility (1/GPa) = 0.01703121
#
# Stress axis : x y z
#
# Youngs Moduli (GPa) = 73.14690 92.77783 118.15704
#
# Poissons Ratio (x) = 0.46612 0.45562
# Poissons Ratio (y) = 0.36749 -0.11098
# Poissons Ratio (z) = 0.28206 -0.08714
#
# Static dielectric constant tensor:
#      x y z
#    x 1.285180 0.000000 0.000000 
#    y 0.000000 1.568220 0.000000 
#    z 0.000000 0.000000 1.649150 
# 
# From -- ./inp_files/579.got.cif
#   From: 2010.05.17/outbox.cif.g08.bks.cpg/sg30_1_cif.got.tgz:579.got - 2010.06.03 17:03:02.
