data_PCOD9341179
_publ_section_title
;
Structure prediction by ZEFSAII (Michael W. Deem and Ramdas Pophale) SiO2 
 PCOD9341179
Probable space group: P C A 21
;
_chemical_formula_sum "Si O2"
_cell_formula_units_Z 32
_cell_length_a 14.790768
_cell_length_b 11.476469
_cell_length_c 7.400550
_cell_angle_alpha 90.000000
_cell_angle_beta 90.000000
_cell_angle_gamma 90.000000
_cell_volume 1256.212209
_symmetry_space_group_name_H-M "P C A 21"
_symmetry_group_IT_number 29
_symmetry_cell_setting 'orthorhombic'
loop_
_space_group_symop_operation_xyz
x,y,z
-x,-y,1/2+z
1/2-x,y,1/2+z
1/2+x,-y,z
loop_
_atom_site_type_symbol
_atom_site_label
_atom_site_fract_x
_atom_site_fract_y
_atom_site_fract_z
Si Si1 0.876900 0.732926 0.595290
Si Si2 0.118125 0.503321 0.671819
Si Si3 0.704431 0.871848 0.555603
Si Si4 0.863067 0.227148 0.773652
Si Si5 0.300039 0.941554 0.301152
Si Si6 0.074594 0.760932 0.694187
Si Si7 0.440790 0.262408 0.191053
Si Si8 0.322477 0.508271 0.757533
O O1 0.785774 0.799691 0.650303
O O2 0.888466 0.753507 0.380711
O O3 0.867730 0.595754 0.642467
O O4 0.969029 0.785253 0.674569
O O5 0.084365 0.626004 0.743407
O O6 0.046025 0.401429 0.694269
O O7 0.215618 0.478661 0.760331
O O8 0.138321 0.507282 0.458803
O O9 0.627091 0.774953 0.531387
O O10 0.649599 0.971170 0.664421
O O11 0.758379 0.961618 0.430642
O O12 0.787155 0.131511 0.732420
O O13 0.831105 0.355040 0.704409
O O14 0.962561 0.203372 0.697185
O O15 0.878622 0.228010 0.993741
O O16 0.372249 0.841170 0.334454
#
# Coordination Sequence:
#
# PCOD9341179 Si02
#       8
#     4   4   4   4   4   4   4   4
#     4  11  24  45  69 100 136 175 234 289 348 416
#     4  11  22  39  70 100 137 177 222 283 360 415
#     4  12  26  43  70  95 137 184 231 284 340 415
#     4  10  23  45  70 100 136 175 231 288 351 414
#     4  12  24  47  68  97 136 182 235 279 345 411
#     4  10  23  45  70 101 135 178 228 289 351 413
#     4  11  24  45  69 100 136 180 227 289 351 413
#     4  11  22  39  70 101 135 177 222 289 354 415
#
# _framework density 25.473403999999999
#
# number of rings (size 3 to 8) (size 9 to 14) (size 15 to 20)
#    0.000    1.000    5.000    1.500    1.750    1.000 
#    4.500    0.000    0.000    0.000    0.000    0.000 
#    0.000    0.000    0.000    0.000    0.000    0.000 
#
# Total GULP energy -178802.993101 kJ/mol
# GULP energy per Si atom -5587.593534 kJ/mol
# Density = 2.541543 g / cm^3
# Si number density = 25.473404 Si / 1000 Ang^3
#
#
#
# Elastic Constant Matrix: (Units=GPa)
#
#
# Indices 1 2 3 4 5 6 
#
# 1 123.9849 40.3900 16.5346 0.0000 0.0000 0.0000
# 2 40.3900 162.9770 23.2718 0.0000 0.0000 0.0000
# 3 16.5346 23.2718 57.2432 0.0000 0.0000 0.0000
# 4 0.0000 0.0000 0.0000 39.2634 0.0000 0.0000
# 5 0.0000 0.0000 0.0000 0.0000 15.9753 0.0000
# 6 0.0000 0.0000 0.0000 0.0000 0.0000 6.1929
#
#
#
# Elastic Compliance Matrix: (Units=1/GPa)
#
#
# Indices 1 2 3 4 5 6 
#
# 1 0.008943 -0.001961 -0.001786 0.000000 0.000000 0.000000
# 2 -0.001961 0.006944 -0.002257 0.000000 0.000000 0.000000
# 3 -0.001786 -0.002257 0.018903 0.000000 0.000000 0.000000
# 4 0.000000 0.000000 0.000000 0.025469 0.000000 0.000000
# 5 0.000000 0.000000 0.000000 0.000000 0.062597 0.000000
# 6 0.000000 0.000000 0.000000 0.000000 0.000000 0.161475
#
#
# Mechanical properties :
#
#
# Convention : Reuss Voigt Hill
#
# Bulk Modulus (GPa) = 43.89404 56.06643 49.98024
# Shear Modulus (GPa) = 16.45109 29.88691 23.16900
#
# Velocity S-wave (km/s) = 2.54404 3.42900 3.01912
# Velocity P-wave (km/s) = 5.08904 6.14288 5.64062
#
# Compressibility (1/GPa) = 0.02278214
#
# Stress axis : x y z
#
# Youngs Moduli (GPa) = 111.82515 144.00721 52.90299
#
# Poissons Ratio (x) = 0.28243 0.09447
# Poissons Ratio (y) = 0.21931 0.11938
# Poissons Ratio (z) = 0.19969 0.32496
#
# Static dielectric constant tensor:
#      x y z
#    x 1.899800 0.000000 0.000000 
#    y 0.000000 1.953700 0.000000 
#    z 0.000000 0.000000 2.273630 
# 
# From -- ./inp_files/1890.got.cif
#   From: 2010.05.17/outbox.cif.g08.bks.cpg/sg29_1_cif.got.tgz:1890.got - 2010.06.04 01:19:37.
