data_PCOD9341143
_publ_section_title
;
Structure prediction by ZEFSAII (Michael W. Deem and Ramdas Pophale) SiO2 
 PCOD9341143
Probable space group: P C A 21
;
_chemical_formula_sum "Si O2"
_cell_formula_units_Z 32
_cell_length_a 9.485802
_cell_length_b 5.749918
_cell_length_c 22.334554
_cell_angle_alpha 90.000000
_cell_angle_beta 90.000000
_cell_angle_gamma 90.000000
_cell_volume 1218.184280
_symmetry_space_group_name_H-M "P C A 21"
_symmetry_group_IT_number 29
_symmetry_cell_setting 'orthorhombic'
loop_
_space_group_symop_operation_xyz
x,y,z
-x,-y,1/2+z
1/2-x,y,1/2+z
1/2+x,-y,z
loop_
_atom_site_type_symbol
_atom_site_label
_atom_site_fract_x
_atom_site_fract_y
_atom_site_fract_z
Si Si1 0.794297 0.153727 0.542540
Si Si2 0.646385 0.767811 0.714968
Si Si3 0.463408 0.314085 0.438432
Si Si4 0.798003 0.184700 0.287370
Si Si5 0.003456 0.755251 0.565496
Si Si6 0.521620 0.474588 0.311666
Si Si7 0.112673 0.549115 0.152517
Si Si8 0.270516 0.979340 0.919829
O O1 0.636537 0.084128 0.557989
O O2 0.828311 0.355061 0.589401
O O3 0.797828 0.190161 0.470982
O O4 0.876521 0.925880 0.558422
O O5 0.712977 0.020237 0.729070
O O6 0.591366 0.699240 0.781617
O O7 0.762877 0.593330 0.686268
O O8 0.495635 0.737609 0.680867
O O9 0.503590 0.399867 0.504765
O O10 0.504253 0.473918 0.382827
O O11 0.564145 0.084387 0.426631
O O12 0.301593 0.227072 0.434806
O O13 0.673966 0.381310 0.291924
O O14 0.958072 0.284883 0.287028
O O15 0.771278 0.068286 0.351796
O O16 0.998876 0.640842 0.629335
#
# Coordination Sequence:
#
# PCOD9341143 Si02
#       8
#     4   4   4   4   4   4   4   4
#     4  10  23  44  73 112 151 198 254 321 387 464
#     4  12  28  51  75 106 157 208 268 321 383 476
#     4   9  19  40  70 108 153 195 252 318 384 463
#     4  11  26  48  77 115 155 206 260 327 392 466
#     4  10  23  43  72 111 152 197 256 319 389 454
#     4  11  25  46  73 112 149 207 262 316 392 462
#     4  12  27  49  76 109 152 209 259 319 387 473
#     4   9  19  41  72 109 153 196 249 319 392 452
#
# _framework density 26.268605999999998
#
# number of rings (size 3 to 8) (size 9 to 14) (size 15 to 20)
#    0.000    1.500    2.500    0.750    3.500    6.000 
#    0.000    1.250    0.000    0.000    0.000    0.000 
#    0.000    0.000    0.000    0.000    0.000    0.000 
#
# Total GULP energy -178495.412850 kJ/mol
# GULP energy per Si atom -5577.981652 kJ/mol
# Density = 2.620882 g / cm^3
# Si number density = 26.268606 Si / 1000 Ang^3
#
#
#
# Elastic Constant Matrix: (Units=GPa)
#
#
# Indices 1 2 3 4 5 6 
#
# 1 181.5091 28.8577 32.9729 0.0000 0.0000 0.0000
# 2 28.8577 32.3972 31.5948 0.0000 0.0000 0.0000
# 3 32.9729 31.5948 135.6938 0.0000 0.0000 0.0000
# 4 0.0000 0.0000 0.0000 44.5727 0.0000 0.0000
# 5 0.0000 0.0000 0.0000 0.0000 39.7013 0.0000
# 6 0.0000 0.0000 0.0000 0.0000 0.0000 33.1884
#
#
#
# Elastic Compliance Matrix: (Units=1/GPa)
#
#
# Indices 1 2 3 4 5 6 
#
# 1 0.006427 -0.005437 -0.000296 0.000000 0.000000 0.000000
# 2 -0.005437 0.044533 -0.009048 0.000000 0.000000 0.000000
# 3 -0.000296 -0.009048 0.009548 0.000000 0.000000 0.000000
# 4 0.000000 0.000000 0.000000 0.022435 0.000000 0.000000
# 5 0.000000 0.000000 0.000000 0.000000 0.025188 0.000000
# 6 0.000000 0.000000 0.000000 0.000000 0.000000 0.030131
#
#
# Mechanical properties :
#
#
# Convention : Reuss Voigt Hill
#
# Bulk Modulus (GPa) = 32.31247 59.60566 45.95906
# Shear Modulus (GPa) = 28.06770 40.57080 34.31925
#
# Velocity S-wave (km/s) = 3.27232 3.93422 3.61844
# Velocity P-wave (km/s) = 5.15800 6.58617 5.91534
#
# Compressibility (1/GPa) = 0.03094781
#
# Stress axis : x y z
#
# Youngs Moduli (GPa) = 155.58174 22.45504 104.73179
#
# Poissons Ratio (x) = 0.12208 0.03100
# Poissons Ratio (y) = 0.84584 0.94762
# Poissons Ratio (z) = 0.04605 0.20317
#
# Static dielectric constant tensor:
#      x y z
#    x 2.036800 0.000000 0.000000 
#    y 0.000000 2.173980 0.000000 
#    z 0.000000 0.000000 2.114760 
# 
# From -- ./inp_files/5695.got.cif
#   From: 2010.05.17/outbox.cif.g08.bks.cpg/sg29_3_cif.got.tgz:5695.got - 2010.06.04 01:19:37.
