data_PCOD9341526
_publ_section_title
;
Structure prediction by ZEFSAII (Michael W. Deem and Ramdas Pophale) SiO2 
 PCOD9341526
Probable space group: P C A 21
;
_chemical_formula_sum "Si O2"
_cell_formula_units_Z 32
_cell_length_a 9.540217
_cell_length_b 9.721430
_cell_length_c 14.239725
_cell_angle_alpha 90.000000
_cell_angle_beta 90.000000
_cell_angle_gamma 90.000000
_cell_volume 1320.656912
_symmetry_space_group_name_H-M "P C A 21"
_symmetry_group_IT_number 29
_symmetry_cell_setting 'orthorhombic'
loop_
_space_group_symop_operation_xyz
x,y,z
-x,-y,1/2+z
1/2-x,y,1/2+z
1/2+x,-y,z
loop_
_atom_site_type_symbol
_atom_site_label
_atom_site_fract_x
_atom_site_fract_y
_atom_site_fract_z
Si Si1 0.664764 0.230116 0.463200
Si Si2 0.362884 0.216609 0.711114
Si Si3 0.402812 0.950173 0.130164
Si Si4 0.610741 0.745262 0.602641
Si Si5 0.000372 0.506377 0.213069
Si Si6 0.248554 0.539302 0.342078
Si Si7 0.749752 0.985170 0.829361
Si Si8 0.656869 0.734705 0.942691
O O1 0.685702 0.148043 0.560788
O O2 0.763251 0.355975 0.429282
O O3 0.689647 0.115631 0.383080
O O4 0.505825 0.288151 0.467234
O O5 0.446126 0.119690 0.640703
O O6 0.197531 0.234478 0.698952
O O7 0.420518 0.365980 0.692973
O O8 0.373903 0.125046 0.804645
O O9 0.324695 0.964083 0.231824
O O10 0.438932 0.099566 0.086559
O O11 0.516633 0.614216 0.628124
O O12 0.732554 0.723481 0.527482
O O13 0.855897 0.448979 0.255966
O O14 0.096076 0.567136 0.296933
O O15 0.280067 0.385618 0.376913
O O16 0.658472 0.887783 0.897302
#
# Coordination Sequence:
#
# PCOD9341526 Si02
#       8
#     4   4   4   4   4   4   4   4
#     4  12  26  45  77 111 151 205 266 322 398 486
#     4  11  23  44  72 104 148 191 247 320 384 457
#     4  11  24  46  71 110 149 196 256 322 397 466
#     4  11  25  44  74 105 151 198 257 323 388 470
#     4  12  24  49  74 109 146 208 257 315 393 469
#     4  12  26  46  75 107 153 200 261 316 393 469
#     4  11  24  46  74 110 149 201 254 331 392 474
#     4  12  24  48  73 108 157 201 252 335 401 461
#
# _framework density 24.230366
#
# number of rings (size 3 to 8) (size 9 to 14) (size 15 to 20)
#    0.000    0.500    6.250    2.250    3.500    0.000 
#    0.000    2.500    0.000    0.000    0.000    0.000 
#    0.000    0.000    0.000    0.000    0.000    0.000 
#
# Total GULP energy -178440.298396 kJ/mol
# GULP energy per Si atom -5576.259325 kJ/mol
# Density = 2.417522 g / cm^3
# Si number density = 24.230366 Si / 1000 Ang^3
#
#
#
# Elastic Constant Matrix: (Units=GPa)
#
#
# Indices 1 2 3 4 5 6 
#
# 1 26.4368 0.7348 0.6629 0.0000 0.0000 0.0000
# 2 0.7348 106.0749 14.6019 0.0000 0.0000 0.0000
# 3 0.6629 14.6019 74.7041 0.0000 0.0000 0.0000
# 4 0.0000 0.0000 0.0000 49.9943 0.0000 0.0000
# 5 0.0000 0.0000 0.0000 0.0000 26.6815 0.0000
# 6 0.0000 0.0000 0.0000 0.0000 0.0000 34.6268
#
#
#
# Elastic Compliance Matrix: (Units=1/GPa)
#
#
# Indices 1 2 3 4 5 6 
#
# 1 0.037840 -0.000222 -0.000292 0.000000 0.000000 0.000000
# 2 -0.000222 0.009689 -0.001892 0.000000 0.000000 0.000000
# 3 -0.000292 -0.001892 0.013759 0.000000 0.000000 0.000000
# 4 0.000000 0.000000 0.000000 0.020002 0.000000 0.000000
# 5 0.000000 0.000000 0.000000 0.000000 0.037479 0.000000
# 6 0.000000 0.000000 0.000000 0.000000 0.000000 0.028879
#
#
# Mechanical properties :
#
#
# Convention : Reuss Voigt Hill
#
# Bulk Modulus (GPa) = 17.70694 26.57942 22.14318
# Shear Modulus (GPa) = 29.19101 35.00827 32.09964
#
# Velocity S-wave (km/s) = 3.47469 3.80519 3.64369
# Velocity P-wave (km/s) = 4.83958 5.50447 5.18270
#
# Compressibility (1/GPa) = 0.05647505
#
# Stress axis : x y z
#
# Youngs Moduli (GPa) = 26.42735 103.20689 72.68214
#
# Poissons Ratio (x) = 0.02290 0.02125
# Poissons Ratio (y) = 0.00586 0.13751
# Poissons Ratio (z) = 0.00773 0.19526
#
# Static dielectric constant tensor:
#      x y z
#    x 2.102310 0.000000 0.000000 
#    y 0.000000 1.988580 0.000000 
#    z 0.000000 0.000000 2.098480 
# 
# From -- ./inp_files/4562.got.cif
#   From: 2010.05.17/outbox.cif.g08.bks.cpg/sg29_3_cif.got.tgz:4562.got - 2010.06.04 01:19:37.
