data_PCOD9341818
_publ_section_title
;
Structure prediction by ZEFSAII (Michael W. Deem and Ramdas Pophale) SiO2 
 PCOD9341818
Probable space group: P N C 2
;
_chemical_formula_sum "Si O2"
_cell_formula_units_Z 18
_cell_length_a 5.133678
_cell_length_b 19.109583
_cell_length_c 6.769396
_cell_angle_alpha 90.000000
_cell_angle_beta 90.000000
_cell_angle_gamma 90.000000
_cell_volume 664.094304
_symmetry_space_group_name_H-M "P N C 2"
_symmetry_group_IT_number 30
_symmetry_cell_setting 'orthorhombic'
loop_
_space_group_symop_operation_xyz
x,y,z
-x,-y,z
-x,1/2+y,1/2+z
x,1/2-y,1/2+z
loop_
_atom_site_type_symbol
_atom_site_label
_atom_site_fract_x
_atom_site_fract_y
_atom_site_fract_z
Si Si1 0.500000 0.500000 0.989380
Si Si2 0.798593 0.323445 0.171118
Si Si3 0.633565 0.330238 0.759189
Si Si4 0.254618 0.544200 0.383612
Si Si5 0.858905 0.618924 0.835456
O O1 0.686185 0.551039 0.870301
O O2 0.300161 0.534792 0.144822
O O3 0.782343 0.241993 0.223234
O O4 0.751618 0.370831 0.364973
O O5 0.585401 0.330200 0.997568
O O6 0.052798 0.346801 0.046086
O O7 0.336989 0.337769 0.690721
O O8 0.853945 0.390744 0.738396
O O9 0.500000 0.500000 0.465573
O O10 0.000000 0.500000 0.433786
#
# Coordination Sequence:
#
# PCOD9341818 Si02
#       5
#     2   4   4   4   4
#     4  10  16  32  52  78 106 124 184 236 264 296
#     4  10  21  36  52  83 109 146 175 230 275 334
#     4  10  22  32  54  79 114 138 185 212 287 328
#     4  10  17  28  51  77 101 127 177 229 265 298
#     4  10  21  32  54  84 103 145 178 233 275 320
#
# _framework density 27.104583000000002
#
# number of rings (size 3 to 8) (size 9 to 14) (size 15 to 20)
#    2.000    0.000    4.444    0.000    3.111    0.000 
#    0.000    0.000    0.000    0.000    8.667    1.556 
#    0.000    0.000    0.000    0.000    0.000    0.000 
#
# Total GULP energy -100201.614122 kJ/mol
# GULP energy per Si atom -5566.756340 kJ/mol
# Density = 2.704289 g / cm^3
# Si number density = 27.104583 Si / 1000 Ang^3
#
#
#
# Elastic Constant Matrix: (Units=GPa)
#
#
# Indices 1 2 3 4 5 6 
#
# 1 211.8686 16.9114 -24.8817 0.0000 0.0000 0.0000
# 2 16.9114 102.3444 -29.8371 0.0000 0.0000 0.0000
# 3 -24.8817 -29.8371 46.7067 0.0000 0.0000 0.0000
# 4 0.0000 0.0000 0.0000 23.0858 0.0000 0.0000
# 5 0.0000 0.0000 0.0000 0.0000 4.5632 0.0000
# 6 0.0000 0.0000 0.0000 0.0000 0.0000 27.4041
#
#
#
# Elastic Compliance Matrix: (Units=1/GPa)
#
#
# Indices 1 2 3 4 5 6 
#
# 1 0.005035 -0.000061 0.002643 0.000000 0.000000 0.000000
# 2 -0.000061 0.012008 0.007638 0.000000 0.000000 0.000000
# 3 0.002643 0.007638 0.027698 0.000000 0.000000 0.000000
# 4 0.000000 0.000000 0.000000 0.043317 0.000000 0.000000
# 5 0.000000 0.000000 0.000000 0.000000 0.219143 0.000000
# 6 0.000000 0.000000 0.000000 0.000000 0.000000 0.036491
#
#
# Mechanical properties :
#
#
# Convention : Reuss Voigt Hill
#
# Bulk Modulus (GPa) = 15.34209 31.70055 23.52132
# Shear Modulus (GPa) = 14.49365 37.59245 26.04305
#
# Velocity S-wave (km/s) = 2.31493 3.72821 3.10310
# Velocity P-wave (km/s) = 3.58020 5.50034 4.64067
#
# Compressibility (1/GPa) = 0.06518015
#
# Stress axis : x y z
#
# Youngs Moduli (GPa) = 198.60116 83.27879 36.10424
#
# Poissons Ratio (x) = 0.00512 -0.09543
# Poissons Ratio (y) = 0.01221 -0.27577
# Poissons Ratio (z) = -0.52493 -0.63609
#
# Static dielectric constant tensor:
#      x y z
#    x 2.094540 0.000000 0.000000 
#    y 0.000000 2.444810 0.000000 
#    z 0.000000 0.000000 2.307830 
# 
# From -- ./inp_files/1356.got.cif
#   From: 2010.05.17/outbox.cif.g08.bks.cpg/sg30_1_cif.got.tgz:1356.got - 2010.06.03 17:03:02.
