data_PCOD9341550
_publ_section_title
;
Structure prediction by ZEFSAII (Michael W. Deem and Ramdas Pophale) SiO2 
 PCOD9341550
Probable space group: P C A 21
;
_chemical_formula_sum "Si O2"
_cell_formula_units_Z 20
_cell_length_a 19.711770
_cell_length_b 6.758575
_cell_length_c 5.844048
_cell_angle_alpha 90.000000
_cell_angle_beta 90.000000
_cell_angle_gamma 90.000000
_cell_volume 778.564388
_symmetry_space_group_name_H-M "P C A 21"
_symmetry_group_IT_number 29
_symmetry_cell_setting 'orthorhombic'
loop_
_space_group_symop_operation_xyz
x,y,z
-x,-y,1/2+z
1/2-x,y,1/2+z
1/2+x,-y,z
loop_
_atom_site_type_symbol
_atom_site_label
_atom_site_fract_x
_atom_site_fract_y
_atom_site_fract_z
Si Si1 0.655333 0.232901 0.584820
Si Si2 0.320274 0.110403 0.812801
Si Si3 0.812785 0.642317 0.211863
Si Si4 0.479881 0.605258 0.900217
Si Si5 0.910106 0.915295 0.426209
O O1 0.695356 0.410358 0.706630
O O2 0.599097 0.346855 0.435310
O O3 0.704288 0.085938 0.446822
O O4 0.613662 0.088161 0.756322
O O5 0.256516 0.233426 0.718314
O O6 0.382756 0.023713 0.671417
O O7 0.350253 0.266513 0.991747
O O8 0.862110 0.718503 0.406244
O O9 0.497015 0.500661 0.649384
O O10 0.517345 0.819812 0.896743
#
# Coordination Sequence:
#
# PCOD9341550 Si02
#       5
#     4   4   4   4   4
#     4  11  28  46  78 115 153 212 263 332 411 472
#     4  11  25  46  74 107 155 205 264 334 394 491
#     4  11  23  50  68 110 153 198 266 328 399 478
#     4  12  28  51  83 119 165 214 264 332 409 484
#     4  11  26  47  75 111 152 201 269 322 401 483
#
# _framework density 25.688305
#
# number of rings (size 3 to 8) (size 9 to 14) (size 15 to 20)
#    0.000    0.800    4.000    1.200    8.400    4.800 
#    0.000    0.000    0.000    0.000    0.000    0.000 
#    0.000    0.000    0.000    0.000    0.000    0.000 
#
# Total GULP energy -111475.975609 kJ/mol
# GULP energy per Si atom -5573.798780 kJ/mol
# Density = 2.562984 g / cm^3
# Si number density = 25.688305 Si / 1000 Ang^3
#
#
#
# Elastic Constant Matrix: (Units=GPa)
#
#
# Indices 1 2 3 4 5 6 
#
# 1 82.1784 48.0112 8.3113 0.0000 0.0000 0.0000
# 2 48.0112 207.4061 44.9122 0.0000 0.0000 0.0000
# 3 8.3113 44.9122 84.4291 0.0000 0.0000 0.0000
# 4 0.0000 0.0000 0.0000 26.1544 0.0000 0.0000
# 5 0.0000 0.0000 0.0000 0.0000 32.1617 0.0000
# 6 0.0000 0.0000 0.0000 0.0000 0.0000 49.8625
#
#
#
# Elastic Compliance Matrix: (Units=1/GPa)
#
#
# Indices 1 2 3 4 5 6 
#
# 1 0.014083 -0.003345 0.000393 0.000000 0.000000 0.000000
# 2 -0.003345 0.006244 -0.002992 0.000000 0.000000 0.000000
# 3 0.000393 -0.002992 0.013397 0.000000 0.000000 0.000000
# 4 0.000000 0.000000 0.000000 0.038235 0.000000 0.000000
# 5 0.000000 0.000000 0.000000 0.000000 0.031093 0.000000
# 6 0.000000 0.000000 0.000000 0.000000 0.000000 0.020055
#
#
# Mechanical properties :
#
#
# Convention : Reuss Voigt Hill
#
# Bulk Modulus (GPa) = 45.79616 64.05368 54.92492
# Shear Modulus (GPa) = 35.14355 39.82097 37.48226
#
# Velocity S-wave (km/s) = 3.70276 3.94148 3.82398
# Velocity P-wave (km/s) = 6.01223 6.76038 6.39725
#
# Compressibility (1/GPa) = 0.02183589
#
# Stress axis : x y z
#
# Youngs Moduli (GPa) = 71.00639 160.16092 74.64249
#
# Poissons Ratio (x) = 0.53577 -0.02934
# Poissons Ratio (y) = 0.23753 0.22333
# Poissons Ratio (z) = -0.02791 0.47921
#
# Static dielectric constant tensor:
#      x y z
#    x 2.103840 0.000000 0.000000 
#    y 0.000000 2.000730 0.000000 
#    z 0.000000 0.000000 2.383920 
# 
# From -- ./inp_files/498.got.cif
#   From: 2010.05.17/outbox.cif.g08.bks.cpg/sg29_1_cif.got.tgz:498.got - 2010.06.04 01:19:37.
