data_PCOD9341035
_publ_section_title
;
Structure prediction by ZEFSAII (Michael W. Deem and Ramdas Pophale) SiO2 
 PCOD9341035
Probable space group: P C A 21
;
_chemical_formula_sum "Si O2"
_cell_formula_units_Z 24
_cell_length_a 13.950384
_cell_length_b 8.865388
_cell_length_c 8.215586
_cell_angle_alpha 90.000000
_cell_angle_beta 90.000000
_cell_angle_gamma 90.000000
_cell_volume 1016.067256
_symmetry_space_group_name_H-M "P C A 21"
_symmetry_group_IT_number 29
_symmetry_cell_setting 'orthorhombic'
loop_
_space_group_symop_operation_xyz
x,y,z
-x,-y,1/2+z
1/2-x,y,1/2+z
1/2+x,-y,z
loop_
_atom_site_type_symbol
_atom_site_label
_atom_site_fract_x
_atom_site_fract_y
_atom_site_fract_z
Si Si1 0.358095 0.437582 0.929970
Si Si2 0.969908 0.560652 0.593273
Si Si3 0.090997 0.125228 0.569770
Si Si4 0.805458 0.166404 0.096366
Si Si5 0.828034 0.353421 0.415547
Si Si6 0.484696 0.845961 0.903271
O O1 0.415559 0.457979 0.762058
O O2 0.256519 0.520357 0.912464
O O3 0.419795 0.510286 0.076957
O O4 0.360216 0.261317 0.974239
O O5 0.919838 0.443446 0.471330
O O6 0.962218 0.731523 0.526364
O O7 0.030084 0.173440 0.727287
O O8 0.174506 0.009038 0.625966
O O9 0.020257 0.020831 0.459314
O O10 0.839299 0.257064 0.253233
O O11 0.702995 0.229532 0.049606
O O12 0.872910 0.196615 0.936460
#
# Coordination Sequence:
#
# PCOD9341035 Si02
#       6
#     4   4   4   4   4   4
#     4  12  25  45  71 112 141 198 254 316 369 463
#     4  12  25  42  78 100 151 196 255 311 375 454
#     4  10  24  44  74 104 150 187 251 312 387 453
#     4  10  25  48  68 105 149 194 248 308 394 441
#     4  12  25  48  72 105 149 200 255 312 376 459
#     4  10  22  45  69 108 144 193 251 305 383 454
#
# _framework density 23.620481999999999
#
# number of rings (size 3 to 8) (size 9 to 14) (size 15 to 20)
#    1.000    0.000    3.333    3.000    4.667    0.000 
#    6.000    0.000    0.000    0.000    0.000    0.000 
#    0.000    0.000    0.000    0.000    0.000    0.000 
#
# Total GULP energy -134075.522711 kJ/mol
# GULP energy per Si atom -5586.480113 kJ/mol
# Density = 2.356672 g / cm^3
# Si number density = 23.620482 Si / 1000 Ang^3
#
#
#
# Elastic Constant Matrix: (Units=GPa)
#
#
# Indices 1 2 3 4 5 6 
#
# 1 44.0195 13.9781 -4.7549 0.0000 0.0000 0.0000
# 2 13.9781 130.7452 23.9530 0.0000 0.0000 0.0000
# 3 -4.7549 23.9530 73.3101 0.0000 0.0000 0.0000
# 4 0.0000 0.0000 0.0000 50.2394 0.0000 0.0000
# 5 0.0000 0.0000 0.0000 0.0000 29.8182 0.0000
# 6 0.0000 0.0000 0.0000 0.0000 0.0000 23.1176
#
#
#
# Elastic Compliance Matrix: (Units=1/GPa)
#
#
# Indices 1 2 3 4 5 6 
#
# 1 0.023953 -0.003027 0.002542 0.000000 0.000000 0.000000
# 2 -0.003027 0.008518 -0.002979 0.000000 0.000000 0.000000
# 3 0.002542 -0.002979 0.014779 0.000000 0.000000 0.000000
# 4 0.000000 0.000000 0.000000 0.019905 0.000000 0.000000
# 5 0.000000 0.000000 0.000000 0.000000 0.033537 0.000000
# 6 0.000000 0.000000 0.000000 0.000000 0.000000 0.043257
#
#
# Mechanical properties :
#
#
# Convention : Reuss Voigt Hill
#
# Bulk Modulus (GPa) = 24.79986 34.93636 29.86811
# Shear Modulus (GPa) = 30.42915 34.96163 32.69539
#
# Velocity S-wave (km/s) = 3.59312 3.85143 3.72452
# Velocity P-wave (km/s) = 5.26651 5.88225 5.58287
#
# Compressibility (1/GPa) = 0.04032281
#
# Stress axis : x y z
#
# Youngs Moduli (GPa) = 41.74858 117.40005 67.66320
#
# Poissons Ratio (x) = 0.35533 -0.17203
# Poissons Ratio (y) = 0.12636 0.20160
# Poissons Ratio (z) = -0.10615 0.34978
#
# Static dielectric constant tensor:
#      x y z
#    x 1.904690 0.000000 0.000000 
#    y 0.000000 1.932760 0.000000 
#    z 0.000000 0.000000 1.894680 
# 
# From -- ./inp_files/1737.got.cif
#   From: 2010.05.17/outbox.cif.g08.bks.cpg/sg29_1_cif.got.tgz:1737.got - 2010.06.04 01:19:37.
