data_PCOD9341273
_publ_section_title
;
Structure prediction by ZEFSAII (Michael W. Deem and Ramdas Pophale) SiO2 
 PCOD9341273
Probable space group: P C A 21
;
_chemical_formula_sum "Si O2"
_cell_formula_units_Z 24
_cell_length_a 16.721487
_cell_length_b 4.854447
_cell_length_c 11.636181
_cell_angle_alpha 90.000000
_cell_angle_beta 90.000000
_cell_angle_gamma 90.000000
_cell_volume 944.550381
_symmetry_space_group_name_H-M "P C A 21"
_symmetry_group_IT_number 29
_symmetry_cell_setting 'orthorhombic'
loop_
_space_group_symop_operation_xyz
x,y,z
-x,-y,1/2+z
1/2-x,y,1/2+z
1/2+x,-y,z
loop_
_atom_site_type_symbol
_atom_site_label
_atom_site_fract_x
_atom_site_fract_y
_atom_site_fract_z
Si Si1 0.737535 0.337865 0.658190
Si Si2 0.909488 0.246867 0.739318
Si Si3 0.993984 0.964014 0.037959
Si Si4 0.827178 0.977294 0.959732
Si Si5 0.689901 0.825737 0.804801
Si Si6 0.968048 0.524889 0.394522
O O1 0.833493 0.323806 0.663283
O O2 0.718851 0.644909 0.696806
O O3 0.706304 0.223807 0.538022
O O4 0.697021 0.137150 0.755743
O O5 0.969697 0.073572 0.662329
O O6 0.962789 0.482323 0.798205
O O7 0.870259 0.084768 0.844617
O O8 0.902835 0.858011 0.029143
O O9 0.043727 0.773156 0.949133
O O10 0.000034 0.277157 0.996785
O O11 0.752995 0.804333 0.910552
O O12 0.607831 0.686567 0.844563
#
# Coordination Sequence:
#
# PCOD9341273 Si02
#       6
#     4   4   4   4   4   4
#     4  11  24  42  69  98 134 182 227 287 354 417
#     4  10  24  44  67  98 135 175 226 281 342 415
#     4  11  24  42  66  96 134 181 225 284 351 414
#     4  10  24  45  69 101 140 181 235 293 350 425
#     4  11  24  43  68 101 135 178 233 289 352 424
#     4  11  24  42  67  98 134 177 228 286 349 419
#
# _framework density 25.408915
#
# number of rings (size 3 to 8) (size 9 to 14) (size 15 to 20)
#    0.000    1.333    0.000    4.000    0.000   17.333 
#    0.000    0.000    0.000    0.000    0.000    0.000 
#    0.000    0.000    0.000    0.000    0.000    0.000 
#
# Total GULP energy -134400.781766 kJ/mol
# GULP energy per Si atom -5600.032574 kJ/mol
# Density = 2.535108 g / cm^3
# Si number density = 25.408915 Si / 1000 Ang^3
#
#
#
# Elastic Constant Matrix: (Units=GPa)
#
#
# Indices 1 2 3 4 5 6 
#
# 1 125.2377 -0.1151 43.9873 0.0000 0.0000 0.0000
# 2 -0.1151 86.7550 14.6732 0.0000 0.0000 0.0000
# 3 43.9873 14.6732 112.5011 0.0000 0.0000 0.0000
# 4 0.0000 0.0000 0.0000 35.4529 0.0000 0.0000
# 5 0.0000 0.0000 0.0000 0.0000 64.8821 0.0000
# 6 0.0000 0.0000 0.0000 0.0000 0.0000 13.1307
#
#
#
# Elastic Compliance Matrix: (Units=1/GPa)
#
#
# Indices 1 2 3 4 5 6 
#
# 1 0.009291 0.000641 -0.003716 0.000000 0.000000 0.000000
# 2 0.000641 0.011831 -0.001794 0.000000 0.000000 0.000000
# 3 -0.003716 -0.001794 0.010576 0.000000 0.000000 0.000000
# 4 0.000000 0.000000 0.000000 0.028206 0.000000 0.000000
# 5 0.000000 0.000000 0.000000 0.000000 0.015413 0.000000
# 6 0.000000 0.000000 0.000000 0.000000 0.000000 0.076158
#
#
# Mechanical properties :
#
#
# Convention : Reuss Voigt Hill
#
# Bulk Modulus (GPa) = 45.53860 49.06495 47.30177
# Shear Modulus (GPa) = 29.66802 40.42302 35.04552
#
# Velocity S-wave (km/s) = 3.42076 3.99293 3.71787
# Velocity P-wave (km/s) = 5.79338 6.37260 6.08988
#
# Compressibility (1/GPa) = 0.02195939
#
# Stress axis : x y z
#
# Youngs Moduli (GPa) = 107.63526 84.52418 94.55598
#
# Poissons Ratio (x) = -0.05417 0.35139
# Poissons Ratio (y) = -0.06898 0.16960
# Poissons Ratio (z) = 0.39999 0.15161
#
# Static dielectric constant tensor:
#      x y z
#    x 2.046190 0.000000 0.000000 
#    y 0.000000 1.962710 0.000000 
#    z 0.000000 0.000000 2.016270 
# 
# From -- ./inp_files/3571.got.cif
#   From: 2010.05.17/outbox.cif.g08.bks.cpg/sg29_2_cif.got.tgz:3571.got - 2010.06.04 01:19:37.
