data_PCOD9341529
_publ_section_title
;
Structure prediction by ZEFSAII (Michael W. Deem and Ramdas Pophale) SiO2 
 PCOD9341529
Probable space group: P C A 21
;
_chemical_formula_sum "Si O2"
_cell_formula_units_Z 28
_cell_length_a 11.215868
_cell_length_b 9.371488
_cell_length_c 11.073192
_cell_angle_alpha 90.000000
_cell_angle_beta 90.000000
_cell_angle_gamma 90.000000
_cell_volume 1163.896261
_symmetry_space_group_name_H-M "P C A 21"
_symmetry_group_IT_number 29
_symmetry_cell_setting 'orthorhombic'
loop_
_space_group_symop_operation_xyz
x,y,z
-x,-y,1/2+z
1/2-x,y,1/2+z
1/2+x,-y,z
loop_
_atom_site_type_symbol
_atom_site_label
_atom_site_fract_x
_atom_site_fract_y
_atom_site_fract_z
Si Si1 0.573925 0.020377 0.110580
Si Si2 0.601593 0.510611 0.607559
Si Si3 0.169814 0.148235 0.898652
Si Si4 0.280410 0.700731 0.676433
Si Si5 0.416226 0.206547 0.978267
Si Si6 0.518566 0.394555 0.348410
Si Si7 0.920430 0.130189 0.286633
O O1 0.640124 0.171780 0.121671
O O2 0.534297 0.951513 0.234496
O O3 0.450200 0.055403 0.039132
O O4 0.645757 0.904751 0.035183
O O5 0.734270 0.441833 0.610301
O O6 0.603724 0.678964 0.581321
O O7 0.536214 0.452600 0.485354
O O8 0.535744 0.506589 0.739151
O O9 0.299764 0.213712 0.896716
O O10 0.069361 0.258859 0.859245
O O11 0.163861 0.998721 0.828408
O O12 0.352814 0.654306 0.795709
O O13 0.152788 0.774801 0.696194
O O14 0.531336 0.227312 0.894292
#
# Coordination Sequence:
#
# PCOD9341529 Si02
#       7
#     4   4   4   4   4   4   4
#     4  11  23  46  71 115 151 198 264 323 402 473
#     4  12  29  49  78 110 162 205 270 317 392 470
#     4  11  25  42  77 103 156 194 258 321 402 457
#     4  12  26  46  78 109 157 205 263 325 396 465
#     4  11  25  43  70 108 152 200 259 319 388 472
#     4  12  29  52  77 118 154 216 265 328 392 481
#     4  11  23  44  73 107 148 200 253 327 390 474
#
# _framework density 24.057127000000001
#
# number of rings (size 3 to 8) (size 9 to 14) (size 15 to 20)
#    0.000    0.571    2.857    3.429   10.000    1.143 
#    0.000    0.000    0.000    0.000    0.000    0.000 
#    0.000    0.000    0.000    0.000    0.000    0.000 
#
# Total GULP energy -156308.944492 kJ/mol
# GULP energy per Si atom -5582.462303 kJ/mol
# Density = 2.400237 g / cm^3
# Si number density = 24.057127 Si / 1000 Ang^3
#
#
#
# Elastic Constant Matrix: (Units=GPa)
#
#
# Indices 1 2 3 4 5 6 
#
# 1 71.3671 28.8014 13.0044 0.0000 0.0000 0.0000
# 2 28.8014 54.1940 20.8728 0.0000 0.0000 0.0000
# 3 13.0044 20.8728 88.0876 0.0000 0.0000 0.0000
# 4 0.0000 0.0000 0.0000 40.4388 0.0000 0.0000
# 5 0.0000 0.0000 0.0000 0.0000 35.0440 0.0000
# 6 0.0000 0.0000 0.0000 0.0000 0.0000 33.6792
#
#
#
# Elastic Compliance Matrix: (Units=1/GPa)
#
#
# Indices 1 2 3 4 5 6 
#
# 1 0.017852 -0.009323 -0.000426 0.000000 0.000000 0.000000
# 2 -0.009323 0.025175 -0.004589 0.000000 0.000000 0.000000
# 3 -0.000426 -0.004589 0.012503 0.000000 0.000000 0.000000
# 4 0.000000 0.000000 0.000000 0.024729 0.000000 0.000000
# 5 0.000000 0.000000 0.000000 0.000000 0.028536 0.000000
# 6 0.000000 0.000000 0.000000 0.000000 0.000000 0.029692
#
#
# Mechanical properties :
#
#
# Convention : Reuss Voigt Hill
#
# Bulk Modulus (GPa) = 37.24063 37.66732 37.45397
# Shear Modulus (GPa) = 28.39073 31.89706 30.14390
#
# Velocity S-wave (km/s) = 3.43904 3.64523 3.54363
# Velocity P-wave (km/s) = 5.59312 5.77999 5.68733
#
# Compressibility (1/GPa) = 0.02685239
#
# Stress axis : x y z
#
# Youngs Moduli (GPa) = 56.01491 39.72261 79.98326
#
# Poissons Ratio (x) = 0.37035 0.03410
# Poissons Ratio (y) = 0.52225 0.36703
# Poissons Ratio (z) = 0.02388 0.18228
#
# Static dielectric constant tensor:
#      x y z
#    x 1.912440 0.000000 0.000000 
#    y 0.000000 1.918390 0.000000 
#    z 0.000000 0.000000 2.003050 
# 
# From -- ./inp_files/3162.got.cif
#   From: 2010.05.17/outbox.cif.g08.bks.cpg/sg29_2_cif.got.tgz:3162.got - 2010.06.04 01:19:37.
