data_PCOD9341338
_publ_section_title
;
Structure prediction by ZEFSAII (Michael W. Deem and Ramdas Pophale) SiO2 
 PCOD9341338
Probable space group: P C A 21
;
_chemical_formula_sum "Si O2"
_cell_formula_units_Z 28
_cell_length_a 6.819082
_cell_length_b 11.773402
_cell_length_c 14.485983
_cell_angle_alpha 90.000000
_cell_angle_beta 90.000000
_cell_angle_gamma 90.000000
_cell_volume 1162.989670
_symmetry_space_group_name_H-M "P C A 21"
_symmetry_group_IT_number 29
_symmetry_cell_setting 'orthorhombic'
loop_
_space_group_symop_operation_xyz
x,y,z
-x,-y,1/2+z
1/2-x,y,1/2+z
1/2+x,-y,z
loop_
_atom_site_type_symbol
_atom_site_label
_atom_site_fract_x
_atom_site_fract_y
_atom_site_fract_z
Si Si1 0.232508 0.247397 0.859220
Si Si2 0.016737 0.293328 0.045247
Si Si3 0.844225 0.977125 0.941642
Si Si4 0.196110 0.660957 0.168562
Si Si5 0.913252 0.967093 0.583866
Si Si6 0.392467 0.880075 0.763342
Si Si7 0.743544 0.590652 0.698682
O O1 0.366827 0.155586 0.911563
O O2 0.310072 0.346462 0.792695
O O3 0.102919 0.170780 0.790531
O O4 0.090192 0.296284 0.940311
O O5 0.071365 0.169819 0.086965
O O6 0.121014 0.384242 0.110765
O O7 0.788306 0.313611 0.068071
O O8 0.819837 0.059980 0.854530
O O9 0.839195 0.991984 0.059396
O O10 0.087492 0.015242 0.965993
O O11 0.234072 0.772492 0.229669
O O12 0.274666 0.544002 0.211419
O O13 0.964829 0.641797 0.168171
O O14 0.907975 0.031243 0.681141
#
# Coordination Sequence:
#
# PCOD9341338 Si02
#       7
#     4   4   4   4   4   4   4
#     4  10  25  42  68 101 144 180 235 294 345 435
#     4  11  23  48  71 104 143 183 237 293 355 425
#     4  11  22  42  63 105 137 179 232 278 354 434
#     4  11  25  45  76  98 140 193 233 300 350 422
#     4  11  25  39  69 102 142 182 226 289 359 426
#     4  11  24  42  68 101 142 180 232 287 357 419
#     4  11  24  50  69 105 140 187 245 291 360 409
#
# _framework density 24.075879
#
# number of rings (size 3 to 8) (size 9 to 14) (size 15 to 20)
#    0.000    1.143    4.286    1.714   12.000    1.143 
#    5.143    2.857    0.000    0.000    0.000    0.000 
#    0.000    0.000    0.000    0.000    0.000    0.000 
#
# Total GULP energy -156359.171029 kJ/mol
# GULP energy per Si atom -5584.256108 kJ/mol
# Density = 2.402108 g / cm^3
# Si number density = 24.075879 Si / 1000 Ang^3
#
#
#
# Elastic Constant Matrix: (Units=GPa)
#
#
# Indices 1 2 3 4 5 6 
#
# 1 92.1488 -9.1567 26.3366 0.0000 0.0000 0.0000
# 2 -9.1567 64.4363 23.2459 0.0000 0.0000 0.0000
# 3 26.3366 23.2459 116.0379 0.0000 0.0000 0.0000
# 4 0.0000 0.0000 0.0000 31.7467 0.0000 0.0000
# 5 0.0000 0.0000 0.0000 0.0000 40.5143 0.0000
# 6 0.0000 0.0000 0.0000 0.0000 0.0000 33.8551
#
#
#
# Elastic Compliance Matrix: (Units=1/GPa)
#
#
# Indices 1 2 3 4 5 6 
#
# 1 0.012094 0.002920 -0.003330 0.000000 0.000000 0.000000
# 2 0.002920 0.017433 -0.004155 0.000000 0.000000 0.000000
# 3 -0.003330 -0.004155 0.010206 0.000000 0.000000 0.000000
# 4 0.000000 0.000000 0.000000 0.031499 0.000000 0.000000
# 5 0.000000 0.000000 0.000000 0.000000 0.024683 0.000000
# 6 0.000000 0.000000 0.000000 0.000000 0.000000 0.029538
#
#
# Mechanical properties :
#
#
# Convention : Reuss Voigt Hill
#
# Bulk Modulus (GPa) = 32.67668 39.27494 35.97581
# Shear Modulus (GPa) = 34.53427 36.70302 35.61865
#
# Velocity S-wave (km/s) = 3.79145 3.90869 3.85051
# Velocity P-wave (km/s) = 5.72439 6.05961 5.89438
#
# Compressibility (1/GPa) = 0.03060287
#
# Stress axis : x y z
#
# Youngs Moduli (GPa) = 82.68678 57.36208 97.98138
#
# Poissons Ratio (x) = -0.16749 0.32626
# Poissons Ratio (y) = -0.24143 0.40712
# Poissons Ratio (z) = 0.27533 0.23834
#
# Static dielectric constant tensor:
#      x y z
#    x 2.257100 0.000000 0.000000 
#    y 0.000000 1.882360 0.000000 
#    z 0.000000 0.000000 1.827860 
# 
# From -- ./inp_files/2852.got.cif
#   From: 2010.05.17/outbox.cif.g08.bks.cpg/sg29_2_cif.got.tgz:2852.got - 2010.06.04 01:19:37.
