data_PCOD9341121
_publ_section_title
;
Structure prediction by ZEFSAII (Michael W. Deem and Ramdas Pophale) SiO2 
 PCOD9341121
Probable space group: P C A 21
;
_chemical_formula_sum "Si O2"
_cell_formula_units_Z 28
_cell_length_a 7.408998
_cell_length_b 19.284431
_cell_length_c 8.519698
_cell_angle_alpha 90.000000
_cell_angle_beta 90.000000
_cell_angle_gamma 90.000000
_cell_volume 1217.280058
_symmetry_space_group_name_H-M "P C A 21"
_symmetry_group_IT_number 29
_symmetry_cell_setting 'orthorhombic'
loop_
_space_group_symop_operation_xyz
x,y,z
-x,-y,1/2+z
1/2-x,y,1/2+z
1/2+x,-y,z
loop_
_atom_site_type_symbol
_atom_site_label
_atom_site_fract_x
_atom_site_fract_y
_atom_site_fract_z
Si Si1 0.643932 0.066938 0.399130
Si Si2 0.864063 0.432294 0.822288
Si Si3 0.825471 0.728851 0.811178
Si Si4 0.484736 0.075403 0.049011
Si Si5 0.061911 0.357571 0.588848
Si Si6 0.362415 0.173037 0.544969
Si Si7 0.832014 0.523291 0.534892
O O1 0.850708 0.089401 0.428388
O O2 0.510613 0.119622 0.486755
O O3 0.616194 0.992241 0.481032
O O4 0.578981 0.063083 0.218382
O O5 0.878339 0.499422 0.708854
O O6 0.699271 0.453973 0.930982
O O7 0.890015 0.369127 0.702737
O O8 0.025976 0.429570 0.945829
O O9 0.952789 0.688418 0.933220
O O10 0.717347 0.677474 0.696842
O O11 0.677005 0.769447 0.913641
O O12 0.916627 0.786692 0.702385
O O13 0.330340 0.133724 0.067204
O O14 0.150741 0.431728 0.546224
#
# Coordination Sequence:
#
# PCOD9341121 Si02
#       7
#     4   4   4   4   4   4   4
#     4  12  26  42  71 106 142 172 226 287 356 413
#     4  12  22  38  63  97 132 169 211 275 344 400
#     4  10  23  42  70  88 125 188 229 268 309 422
#     4  12  26  42  71 106 141 177 223 289 355 417
#     4  11  21  40  68  96 126 171 229 264 334 403
#     4  11  24  46  70  96 136 184 235 272 349 404
#     4  12  22  38  65  97 132 163 215 279 347 391
#
# _framework density 23.002102000000001
#
# number of rings (size 3 to 8) (size 9 to 14) (size 15 to 20)
#    0.000    0.571    7.143    0.857    4.000    0.000 
#    0.000    0.000   12.571    0.000    0.000    0.000 
#    0.000    0.000    0.000    0.000    0.000    0.000 
#
# Total GULP energy -156480.897208 kJ/mol
# GULP energy per Si atom -5588.603472 kJ/mol
# Density = 2.294975 g / cm^3
# Si number density = 23.002102 Si / 1000 Ang^3
#
#
#
# Elastic Constant Matrix: (Units=GPa)
#
#
# Indices 1 2 3 4 5 6 
#
# 1 77.8285 18.3374 9.6072 0.0000 0.0000 0.0000
# 2 18.3374 55.2493 22.5761 0.0000 0.0000 0.0000
# 3 9.6072 22.5761 111.1455 0.0000 0.0000 0.0000
# 4 0.0000 0.0000 0.0000 44.4641 0.0000 0.0000
# 5 0.0000 0.0000 0.0000 0.0000 35.3108 0.0000
# 6 0.0000 0.0000 0.0000 0.0000 0.0000 12.0372
#
#
#
# Elastic Compliance Matrix: (Units=1/GPa)
#
#
# Indices 1 2 3 4 5 6 
#
# 1 0.013947 -0.004511 -0.000289 0.000000 0.000000 0.000000
# 2 -0.004511 0.021197 -0.003916 0.000000 0.000000 0.000000
# 3 -0.000289 -0.003916 0.009818 0.000000 0.000000 0.000000
# 4 0.000000 0.000000 0.000000 0.022490 0.000000 0.000000
# 5 0.000000 0.000000 0.000000 0.000000 0.028320 0.000000
# 6 0.000000 0.000000 0.000000 0.000000 0.000000 0.083076
#
#
# Mechanical properties :
#
#
# Convention : Reuss Voigt Hill
#
# Bulk Modulus (GPa) = 36.32392 38.36275 37.34333
# Shear Modulus (GPa) = 24.33608 31.27592 27.80600
#
# Velocity S-wave (km/s) = 3.25621 3.69141 3.48062
# Velocity P-wave (km/s) = 5.47385 5.90617 5.69411
#
# Compressibility (1/GPa) = 0.02753007
#
# Stress axis : x y z
#
# Youngs Moduli (GPa) = 71.69844 47.17652 101.85808
#
# Poissons Ratio (x) = 0.21281 0.02947
# Poissons Ratio (y) = 0.32343 0.39884
# Poissons Ratio (z) = 0.02074 0.18473
#
# Static dielectric constant tensor:
#      x y z
#    x 1.854340 0.000000 0.000000 
#    y 0.000000 1.862460 0.000000 
#    z 0.000000 0.000000 1.873540 
# 
# From -- ./inp_files/1212.got.cif
#   From: 2010.05.17/outbox.cif.g08.bks.cpg/sg29_1_cif.got.tgz:1212.got - 2010.06.04 01:19:37.
