data_PCOD9341781
_publ_section_title
;
Structure prediction by ZEFSAII (Michael W. Deem and Ramdas Pophale) SiO2 
 PCOD9341781
Probable space group: P C A 21
;
_chemical_formula_sum "Si O2"
_cell_formula_units_Z 32
_cell_length_a 15.000000
_cell_length_b 9.000000
_cell_length_c 12.000000
_cell_angle_alpha 90.000000
_cell_angle_beta 90.000000
_cell_angle_gamma 90.000000
_cell_volume 1620.000000
_symmetry_space_group_name_H-M "P C A 21"
_symmetry_group_IT_number 29
_symmetry_cell_setting 'orthorhombic'
loop_
_space_group_symop_operation_xyz
x,y,z
-x,-y,1/2+z
1/2-x,y,1/2+z
1/2+x,-y,z
loop_
_atom_site_type_symbol
_atom_site_label
_atom_site_fract_x
_atom_site_fract_y
_atom_site_fract_z
Si Si1 0.890014 0.299710 0.806270
Si Si2 0.507683 0.827369 0.009913
Si Si3 0.460412 0.667396 0.244465
Si Si4 0.784629 0.845611 0.440774
Si Si5 0.452658 0.345660 0.151851
Si Si6 0.798536 0.138668 0.289834
Si Si7 0.627509 0.626631 0.398929
Si Si8 0.627681 0.948225 0.602699
O O1 0.799605 0.207409 0.792347
O O2 0.862785 0.458442 0.857175
O O3 0.944385 0.317561 0.689650
O O4 0.956721 0.229582 0.898956
O O5 0.483565 0.731320 0.120696
O O6 0.459642 0.987222 0.037902
O O7 0.614919 0.817701 0.988282
O O8 0.433574 0.495038 0.222308
O O9 0.379170 0.745718 0.310895
O O10 0.550488 0.689261 0.316728
O O11 0.724111 0.709640 0.389843
O O12 0.710517 0.892667 0.531041
O O13 0.796672 0.990540 0.363919
O O14 0.403948 0.189709 0.179161
O O15 0.418082 0.369791 0.023716
O O16 0.829057 0.082461 0.169399
#
# Coordination Sequence:
#
# PCOD9341781 Si02
#       8
#     4   4   4   4   4   4   4   4
#     4  11  23  44  67  98 140 177 231 284 338 410
#     4  11  23  45  66  99 139 179 221 286 345 404
#     4  10  24  46  70  96 138 177 229 281 341 405
#     4  11  25  41  69  99 134 177 223 286 337 411
#     4  10  22  45  69  95 134 179 224 287 337 405
#     4  11  25  40  66  99 132 179 222 280 340 405
#     4  10  24  45  67 102 133 180 233 279 341 411
#     4  10  24  42  66  98 136 172 231 275 341 413
#
# _framework density 19.753086
#
# number of rings (size 3 to 8) (size 9 to 14) (size 15 to 20)
#    0.000    1.500    2.500    0.750    7.000    4.000 
#    6.750    0.000    0.000    0.000    0.000    0.000 
#    0.000    0.000    0.000    0.000    0.000    0.000 
#
# Total GULP energy -178209.712805 kJ/mol
# GULP energy per Si atom -5569.053525 kJ/mol
# Density = 1.970813 g / cm^3
# Si number density = 19.753086 Si / 1000 Ang^3
#
#
#
# Elastic Constant Matrix: (Units=GPa)
#
#
# Indices 1 2 3 4 5 6 
#
# 1 177.1090 78.0375 48.3470 0.0000 0.0000 0.0000
# 2 78.0375 110.7673 26.6461 0.0000 0.0000 0.0000
# 3 48.3470 26.6461 56.9474 0.0000 0.0000 0.0000
# 4 0.0000 0.0000 0.0000 22.8709 0.0000 0.0000
# 5 0.0000 0.0000 0.0000 0.0000 39.0227 0.0000
# 6 0.0000 0.0000 0.0000 0.0000 0.0000 42.1555
#
#
#
# Elastic Compliance Matrix: (Units=1/GPa)
#
#
# Indices 1 2 3 4 5 6 
#
# 1 0.009540 -0.005378 -0.005583 0.000000 0.000000 0.000000
# 2 -0.005378 0.013205 -0.001613 0.000000 0.000000 0.000000
# 3 -0.005583 -0.001613 0.023054 0.000000 0.000000 0.000000
# 4 0.000000 0.000000 0.000000 0.043724 0.000000 0.000000
# 5 0.000000 0.000000 0.000000 0.000000 0.025626 0.000000
# 6 0.000000 0.000000 0.000000 0.000000 0.000000 0.023722
#
#
# Mechanical properties :
#
#
# Convention : Reuss Voigt Hill
#
# Bulk Modulus (GPa) = 48.42167 72.32053 60.37110
# Shear Modulus (GPa) = 29.25663 33.59604 31.42634
#
# Velocity S-wave (km/s) = 3.85270 4.12855 3.99301
# Velocity P-wave (km/s) = 6.66016 7.70833 7.20334
#
# Compressibility (1/GPa) = 0.02065191
#
# Stress axis : x y z
#
# Youngs Moduli (GPa) = 104.82335 75.72991 43.37583
#
# Poissons Ratio (x) = 0.40728 0.24215
# Poissons Ratio (y) = 0.56374 0.06996
# Poissons Ratio (z) = 0.58520 0.12214
#
# Static dielectric constant tensor:
#      x y z
#    x 1.676460 0.000000 0.000000 
#    y 0.000000 1.779940 0.000000 
#    z 0.000000 0.000000 1.747570 
# 
# From -- ./inp_files/3488.got.cif
#   From: 2010.05.17/outbox.ucp.g08.bks.cvg/sg29_2_cif.got.tgz:3488.got - 2010.06.11 15:24:14.
