data_PCOD9341095
_publ_section_title
;
Structure prediction by ZEFSAII (Michael W. Deem and Ramdas Pophale) SiO2 
 PCOD9341095
Probable space group: P C A 21
;
_chemical_formula_sum "Si O2"
_cell_formula_units_Z 32
_cell_length_a 29.383712
_cell_length_b 8.076415
_cell_length_c 5.258408
_cell_angle_alpha 90.000000
_cell_angle_beta 90.000000
_cell_angle_gamma 90.000000
_cell_volume 1247.899370
_symmetry_space_group_name_H-M "P C A 21"
_symmetry_group_IT_number 29
_symmetry_cell_setting 'orthorhombic'
loop_
_space_group_symop_operation_xyz
x,y,z
-x,-y,1/2+z
1/2-x,y,1/2+z
1/2+x,-y,z
loop_
_atom_site_type_symbol
_atom_site_label
_atom_site_fract_x
_atom_site_fract_y
_atom_site_fract_z
Si Si1 0.588375 0.441098 0.535400
Si Si2 0.005387 0.281408 0.987314
Si Si3 0.275014 0.006741 0.147356
Si Si4 0.638026 0.322086 0.023918
Si Si5 0.861260 0.954354 0.429166
Si Si6 0.227986 0.606858 0.739702
Si Si7 0.545938 0.960001 0.640462
Si Si8 0.906361 0.752608 0.780420
O O1 0.534552 0.413224 0.495907
O O2 0.616607 0.373602 0.292179
O O3 0.600485 0.634669 0.520863
O O4 0.602320 0.351193 0.794549
O O5 0.053640 0.329113 0.109266
O O6 0.984216 0.121923 0.131415
O O7 0.015972 0.199779 0.714032
O O8 0.244887 0.066549 0.383631
O O9 0.326521 0.061244 0.198262
O O10 0.271608 0.805959 0.176805
O O11 0.651787 0.129444 0.054885
O O12 0.681661 0.414062 0.901554
O O13 0.913248 0.973412 0.339858
O O14 0.862953 0.798702 0.615737
O O15 0.234950 0.545234 0.449676
O O16 0.572589 0.923706 0.382319
#
# Coordination Sequence:
#
# PCOD9341095 Si02
#       8
#     4   4   4   4   4   4   4   4
#     4  12  28  42  64  95 136 173 219 273 334 390
#     4  11  24  40  65  90 128 169 230 270 330 385
#     4   9  19  34  61  99 129 159 205 269 328 385
#     4  11  24  42  67  99 130 172 216 270 333 396
#     4  10  23  41  68  96 130 172 220 271 330 390
#     4   9  17  34  62  94 127 158 208 268 323 384
#     4  11  22  41  64  93 123 172 223 274 320 387
#     4  11  27  42  65  92 131 181 219 279 328 397
#
# _framework density 25.643097000000001
#
# number of rings (size 3 to 8) (size 9 to 14) (size 15 to 20)
#    0.000    1.500    2.500    1.500   10.500    2.000 
#    0.000    0.000    0.000    4.500    0.000    0.000 
#    0.000    0.000    0.000    0.000    0.000    0.000 
#
# Total GULP energy -178883.318749 kJ/mol
# GULP energy per Si atom -5590.103711 kJ/mol
# Density = 2.558473 g / cm^3
# Si number density = 25.643097 Si / 1000 Ang^3
#
#
#
# Elastic Constant Matrix: (Units=GPa)
#
#
# Indices 1 2 3 4 5 6 
#
# 1 51.2630 -0.1276 0.7992 0.0000 0.0000 0.0000
# 2 -0.1276 58.2610 7.7154 0.0000 0.0000 0.0000
# 3 0.7992 7.7154 87.0304 0.0000 0.0000 0.0000
# 4 0.0000 0.0000 0.0000 28.1395 0.0000 0.0000
# 5 0.0000 0.0000 0.0000 0.0000 34.8925 0.0000
# 6 0.0000 0.0000 0.0000 0.0000 0.0000 7.2812
#
#
#
# Elastic Compliance Matrix: (Units=1/GPa)
#
#
# Indices 1 2 3 4 5 6 
#
# 1 0.019510 0.000067 -0.000185 0.000000 0.000000 0.000000
# 2 0.000067 0.017368 -0.001540 0.000000 0.000000 0.000000
# 3 -0.000185 -0.001540 0.011628 0.000000 0.000000 0.000000
# 4 0.000000 0.000000 0.000000 0.035537 0.000000 0.000000
# 5 0.000000 0.000000 0.000000 0.000000 0.028659 0.000000
# 6 0.000000 0.000000 0.000000 0.000000 0.000000 0.137339
#
#
# Mechanical properties :
#
#
# Convention : Reuss Voigt Hill
#
# Bulk Modulus (GPa) = 22.12848 23.70316 22.91582
# Shear Modulus (GPa) = 18.62730 26.60714 22.61722
#
# Velocity S-wave (km/s) = 2.69812 3.22467 2.97307
# Velocity P-wave (km/s) = 4.28423 4.80918 4.55427
#
# Compressibility (1/GPa) = 0.04519063
#
# Stress axis : x y z
#
# Youngs Moduli (GPa) = 51.25500 57.57623 85.99571
#
# Poissons Ratio (x) = -0.00387 0.01592
# Poissons Ratio (y) = -0.00345 0.13246
# Poissons Ratio (z) = 0.00949 0.08869
#
# Static dielectric constant tensor:
#      x y z
#    x 2.043320 0.000000 0.000000 
#    y 0.000000 2.036540 0.000000 
#    z 0.000000 0.000000 2.079660 
# 
# From -- ./inp_files/887.got.cif
#   From: 2010.05.17/outbox.cif.g08.bks.cpg/sg29_1_cif.got.tgz:887.got - 2010.06.04 01:19:37.
