data_PCOD9341324
_publ_section_title
;
Structure prediction by ZEFSAII (Michael W. Deem and Ramdas Pophale) SiO2 
 PCOD9341324
Probable space group: P C A 21
;
_chemical_formula_sum "Si O2"
_cell_formula_units_Z 16
_cell_length_a 7.779925
_cell_length_b 7.951726
_cell_length_c 10.662338
_cell_angle_alpha 90.000000
_cell_angle_beta 90.000000
_cell_angle_gamma 90.000000
_cell_volume 659.613086
_symmetry_space_group_name_H-M "P C A 21"
_symmetry_group_IT_number 29
_symmetry_cell_setting 'orthorhombic'
loop_
_space_group_symop_operation_xyz
x,y,z
-x,-y,1/2+z
1/2-x,y,1/2+z
1/2+x,-y,z
loop_
_atom_site_type_symbol
_atom_site_label
_atom_site_fract_x
_atom_site_fract_y
_atom_site_fract_z
Si Si1 0.012764 0.138640 0.421740
Si Si2 0.624331 0.010188 0.174491
Si Si3 0.684758 0.683500 0.043811
Si Si4 0.713234 0.310422 0.544398
O O1 0.181146 0.253226 0.438906
O O2 0.993788 0.033535 0.550563
O O3 0.841002 0.251223 0.432412
O O4 0.032129 0.011377 0.307078
O O5 0.743505 0.174304 0.154011
O O6 0.702293 0.824772 0.151552
O O7 0.485031 0.680597 0.007445
O O8 0.734107 0.497022 0.085463
#
# Coordination Sequence:
#
# PCOD9341324 Si02
#       4
#     4   4   4   4
#     4  10  25  51  77 114 157 203 258 331 391 472
#     4  10  25  50  73 117 155 207 257 330 395 468
#     4  12  22  50  76 114 152 209 261 323 390 472
#     4  10  24  47  76 113 154 209 258 324 392 470
#
# _framework density 24.256641999999999
#
# number of rings (size 3 to 8) (size 9 to 14) (size 15 to 20)
#    1.500    0.000    2.500    1.500    0.000    4.000 
#   13.500    0.000    0.000    0.000    0.000    0.000 
#    0.000    0.000    0.000    0.000    0.000    0.000 
#
# Total GULP energy -89255.584543 kJ/mol
# GULP energy per Si atom -5578.474034 kJ/mol
# Density = 2.420143 g / cm^3
# Si number density = 24.256642 Si / 1000 Ang^3
#
#
#
# Elastic Constant Matrix: (Units=GPa)
#
#
# Indices 1 2 3 4 5 6 
#
# 1 174.8115 70.8309 41.0939 0.0000 0.0000 0.0000
# 2 70.8309 205.3974 51.3930 0.0000 0.0000 0.0000
# 3 41.0939 51.3930 126.9772 0.0000 0.0000 0.0000
# 4 0.0000 0.0000 0.0000 25.8094 0.0000 0.0000
# 5 0.0000 0.0000 0.0000 0.0000 19.3171 0.0000
# 6 0.0000 0.0000 0.0000 0.0000 0.0000 44.3158
#
#
#
# Elastic Compliance Matrix: (Units=1/GPa)
#
#
# Indices 1 2 3 4 5 6 
#
# 1 0.006868 -0.002017 -0.001407 0.000000 0.000000 0.000000
# 2 -0.002017 0.006009 -0.001780 0.000000 0.000000 0.000000
# 3 -0.001407 -0.001780 0.009051 0.000000 0.000000 0.000000
# 4 0.000000 0.000000 0.000000 0.038746 0.000000 0.000000
# 5 0.000000 0.000000 0.000000 0.000000 0.051768 0.000000
# 6 0.000000 0.000000 0.000000 0.000000 0.000000 0.022565
#
#
# Mechanical properties :
#
#
# Convention : Reuss Voigt Hill
#
# Bulk Modulus (GPa) = 86.78329 92.64684 89.71506
# Shear Modulus (GPa) = 33.50008 40.81300 37.15654
#
# Velocity S-wave (km/s) = 3.72030 4.10634 3.91808
# Velocity P-wave (km/s) = 7.36946 7.79487 7.58515
#
# Compressibility (1/GPa) = 0.01152296
#
# Stress axis : x y z
#
# Youngs Moduli (GPa) = 145.59928 166.40915 110.48595
#
# Poissons Ratio (x) = 0.33557 0.15541
# Poissons Ratio (y) = 0.29361 0.19662
# Poissons Ratio (z) = 0.20480 0.29614
#
# Static dielectric constant tensor:
#      x y z
#    x 2.073300 0.000000 0.000000 
#    y 0.000000 1.941670 0.000000 
#    z 0.000000 0.000000 1.937810 
# 
# From -- ./inp_files/1036.got.cif
#   From: 2010.05.17/outbox.cif.g08.bks.cpg/sg29_1_cif.got.tgz:1036.got - 2010.06.04 01:19:37.
