data_PCOD9341271
_publ_section_title
;
Structure prediction by ZEFSAII (Michael W. Deem and Ramdas Pophale) SiO2 
 PCOD9341271
Probable space group: P C A 21
;
_chemical_formula_sum "Si O2"
_cell_formula_units_Z 28
_cell_length_a 23.139109
_cell_length_b 5.157564
_cell_length_c 9.522874
_cell_angle_alpha 90.000000
_cell_angle_beta 90.000000
_cell_angle_gamma 90.000000
_cell_volume 1136.473454
_symmetry_space_group_name_H-M "P C A 21"
_symmetry_group_IT_number 29
_symmetry_cell_setting 'orthorhombic'
loop_
_space_group_symop_operation_xyz
x,y,z
-x,-y,1/2+z
1/2-x,y,1/2+z
1/2+x,-y,z
loop_
_atom_site_type_symbol
_atom_site_label
_atom_site_fract_x
_atom_site_fract_y
_atom_site_fract_z
Si Si1 0.641931 0.835709 0.976320
Si Si2 0.034207 0.009431 0.505397
Si Si3 0.390116 0.039678 0.768356
Si Si4 0.959389 0.726544 0.289090
Si Si5 0.381013 0.665545 0.161230
Si Si6 0.837157 0.486079 0.880682
Si Si7 0.294231 0.680103 0.405191
O O1 0.601045 0.861504 0.839294
O O2 0.669865 0.552231 0.978361
O O3 0.692184 0.047890 0.977305
O O4 0.601320 0.906170 0.105811
O O5 0.092844 0.896563 0.571610
O O6 0.998683 0.779503 0.426099
O O7 0.057017 0.148064 0.363636
O O8 0.013111 0.171413 0.641640
O O9 0.338397 0.237308 0.805510
O O10 0.373165 0.741502 0.800033
O O11 0.934372 0.442527 0.254497
O O12 0.324403 0.702190 0.253091
O O13 0.363202 0.472356 0.036093
O O14 0.772292 0.385318 0.895736
#
# Coordination Sequence:
#
# PCOD9341271 Si02
#       7
#     4   4   4   4   4   4   4
#     4  11  24  44  66 104 136 175 237 283 336 427
#     4  11  23  45  69  97 136 184 227 293 355 413
#     4  11  24  44  66 104 136 175 237 283 336 427
#     4  11  23  45  69  97 136 184 227 293 355 413
#     4  10  24  44  66 102 142 176 242 290 336 432
#     4  11  24  43  70  98 141 185 228 286 352 408
#     4  11  24  43  70  98 141 185 228 286 352 408
#
# _framework density 24.637616999999999
#
# number of rings (size 3 to 8) (size 9 to 14) (size 15 to 20)
#    0.000    1.143    2.857    2.571    4.000    1.143 
#   10.286    0.000    0.000    0.000    0.000    0.000 
#    0.000    0.000    0.000    0.000    0.000    0.000 
#
# Total GULP energy -156201.540545 kJ/mol
# GULP energy per Si atom -5578.626448 kJ/mol
# Density = 2.458154 g / cm^3
# Si number density = 24.637617 Si / 1000 Ang^3
#
#
#
# Elastic Constant Matrix: (Units=GPa)
#
#
# Indices 1 2 3 4 5 6 
#
# 1 61.8768 -2.4864 -2.1805 0.0000 0.0000 0.0000
# 2 -2.4864 78.7335 0.7671 0.0000 0.0000 0.0000
# 3 -2.1805 0.7671 99.1415 0.0000 0.0000 0.0000
# 4 0.0000 0.0000 0.0000 27.0431 0.0000 0.0000
# 5 0.0000 0.0000 0.0000 0.0000 27.3098 0.0000
# 6 0.0000 0.0000 0.0000 0.0000 0.0000 27.3416
#
#
#
# Elastic Compliance Matrix: (Units=1/GPa)
#
#
# Indices 1 2 3 4 5 6 
#
# 1 0.016194 0.000508 0.000352 0.000000 0.000000 0.000000
# 2 0.000508 0.012718 -0.000087 0.000000 0.000000 0.000000
# 3 0.000352 -0.000087 0.010095 0.000000 0.000000 0.000000
# 4 0.000000 0.000000 0.000000 0.036978 0.000000 0.000000
# 5 0.000000 0.000000 0.000000 0.000000 0.036617 0.000000
# 6 0.000000 0.000000 0.000000 0.000000 0.000000 0.036574
#
#
# Mechanical properties :
#
#
# Convention : Reuss Voigt Hill
#
# Bulk Modulus (GPa) = 24.65914 25.77246 25.21580
# Shear Modulus (GPa) = 31.02740 32.58233 31.80487
#
# Velocity S-wave (km/s) = 3.55258 3.64051 3.59682
# Velocity P-wave (km/s) = 5.18250 5.30608 5.24465
#
# Compressibility (1/GPa) = 0.04055292
#
# Stress axis : x y z
#
# Youngs Moduli (GPa) = 61.75141 78.62895 99.05874
#
# Poissons Ratio (x) = -0.03994 -0.03489
# Poissons Ratio (y) = -0.03137 0.00864
# Poissons Ratio (z) = -0.02175 0.00686
#
# Static dielectric constant tensor:
#      x y z
#    x 1.993100 0.000000 0.000000 
#    y 0.000000 2.004940 0.000000 
#    z 0.000000 0.000000 2.029190 
# 
# From -- ./inp_files/2397.got.cif
#   From: 2010.05.17/outbox.cif.g08.bks.cpg/sg29_2_cif.got.tgz:2397.got - 2010.06.04 01:19:37.
