data_PCOD9341477
_publ_section_title
;
Structure prediction by ZEFSAII (Michael W. Deem and Ramdas Pophale) SiO2 
 PCOD9341477
Probable space group: P C A 21
;
_chemical_formula_sum "Si O2"
_cell_formula_units_Z 32
_cell_length_a 11.753963
_cell_length_b 6.675868
_cell_length_c 18.348055
_cell_angle_alpha 90.000000
_cell_angle_beta 90.000000
_cell_angle_gamma 90.000000
_cell_volume 1439.733445
_symmetry_space_group_name_H-M "P C A 21"
_symmetry_group_IT_number 29
_symmetry_cell_setting 'orthorhombic'
loop_
_space_group_symop_operation_xyz
x,y,z
-x,-y,1/2+z
1/2-x,y,1/2+z
1/2+x,-y,z
loop_
_atom_site_type_symbol
_atom_site_label
_atom_site_fract_x
_atom_site_fract_y
_atom_site_fract_z
Si Si1 0.088058 0.761380 0.441650
Si Si2 0.036536 0.030725 0.563940
Si Si3 0.496642 0.927782 0.346645
Si Si4 0.880646 0.022014 0.208294
Si Si5 0.195248 0.598519 0.877616
Si Si6 0.206848 0.246079 0.286690
Si Si7 0.442777 0.567469 0.513901
Si Si8 0.043078 0.311764 0.153573
O O1 0.187080 0.717471 0.385374
O O2 0.040539 0.556447 0.473130
O O3 0.115751 0.898188 0.511486
O O4 0.989964 0.888918 0.401740
O O5 0.107578 0.102700 0.633949
O O6 0.977401 0.203064 0.519224
O O7 0.942587 0.885086 0.601585
O O8 0.403209 0.754317 0.355072
O O9 0.620621 0.828577 0.349192
O O10 0.481714 0.017026 0.265605
O O11 0.772628 0.943365 0.251912
O O12 0.914720 0.250155 0.182754
O O13 0.212525 0.414510 0.822300
O O14 0.164537 0.535978 0.960939
O O15 0.127007 0.330349 0.221582
O O16 0.439446 0.488885 0.596599
#
# Coordination Sequence:
#
# PCOD9341477 Si02
#       8
#     4   4   4   4   4   4   4   4
#     4  11  24  44  67 102 139 185 234 286 353 421
#     4   9  21  44  68  96 142 180 227 289 348 406
#     4  11  23  47  66  97 149 175 229 299 346 412
#     4   9  21  42  68  97 130 184 222 279 350 410
#     4  12  26  40  71 108 133 195 236 285 361 418
#     4  11  23  45  70 103 137 183 237 287 346 430
#     4  11  22  45  68 103 143 183 235 295 344 420
#     4   8  22  43  66 100 139 181 226 294 348 405
#
# _framework density 22.226334999999999
#
# number of rings (size 3 to 8) (size 9 to 14) (size 15 to 20)
#    0.750    1.000    1.250    2.250    0.000    5.000 
#    4.500    0.000    0.000    0.000    0.000    0.000 
#    0.000    0.000    0.000    0.000    0.000    0.000 
#
# Total GULP energy -178219.983140 kJ/mol
# GULP energy per Si atom -5569.374473 kJ/mol
# Density = 2.217575 g / cm^3
# Si number density = 22.226335 Si / 1000 Ang^3
#
#
#
# Elastic Constant Matrix: (Units=GPa)
#
#
# Indices 1 2 3 4 5 6 
#
# 1 49.8490 20.1764 -1.2781 0.0000 0.0000 0.0000
# 2 20.1764 69.7195 24.4536 0.0000 0.0000 0.0000
# 3 -1.2781 24.4536 84.0695 0.0000 0.0000 0.0000
# 4 0.0000 0.0000 0.0000 25.5039 0.0000 0.0000
# 5 0.0000 0.0000 0.0000 0.0000 38.2926 0.0000
# 6 0.0000 0.0000 0.0000 0.0000 0.0000 26.6887
#
#
#
# Elastic Compliance Matrix: (Units=1/GPa)
#
#
# Indices 1 2 3 4 5 6 
#
# 1 0.023210 -0.007618 0.002569 0.000000 0.000000 0.000000
# 2 -0.007618 0.018473 -0.005489 0.000000 0.000000 0.000000
# 3 0.002569 -0.005489 0.013531 0.000000 0.000000 0.000000
# 4 0.000000 0.000000 0.000000 0.039210 0.000000 0.000000
# 5 0.000000 0.000000 0.000000 0.000000 0.026115 0.000000
# 6 0.000000 0.000000 0.000000 0.000000 0.000000 0.037469
#
#
# Mechanical properties :
#
#
# Convention : Reuss Voigt Hill
#
# Bulk Modulus (GPa) = 29.29376 32.26021 30.77698
# Shear Modulus (GPa) = 26.25196 28.78279 27.51738
#
# Velocity S-wave (km/s) = 3.44047 3.60250 3.52241
# Velocity P-wave (km/s) = 5.38431 5.64357 5.51546
#
# Compressibility (1/GPa) = 0.03413697
#
# Stress axis : x y z
#
# Youngs Moduli (GPa) = 43.08542 54.13312 73.90649
#
# Poissons Ratio (x) = 0.41237 -0.18984
# Poissons Ratio (y) = 0.32821 0.40568
# Poissons Ratio (z) = -0.11067 0.29714
#
# Static dielectric constant tensor:
#      x y z
#    x 1.863080 0.000000 0.000000 
#    y 0.000000 1.859170 0.000000 
#    z 0.000000 0.000000 1.912520 
# 
# From -- ./inp_files/5567.got.cif
#   From: 2010.05.17/outbox.cif.g08.bks.cpg/sg29_3_cif.got.tgz:5567.got - 2010.06.04 01:19:37.
