data_PCOD9341620
_publ_section_title
;
Structure prediction by ZEFSAII (Michael W. Deem and Ramdas Pophale) SiO2 
 PCOD9341620
Probable space group: P C A 21
;
_chemical_formula_sum "Si O2"
_cell_formula_units_Z 24
_cell_length_a 11.615756
_cell_length_b 11.303039
_cell_length_c 7.349881
_cell_angle_alpha 90.000000
_cell_angle_beta 90.000000
_cell_angle_gamma 90.000000
_cell_volume 964.990448
_symmetry_space_group_name_H-M "P C A 21"
_symmetry_group_IT_number 29
_symmetry_cell_setting 'orthorhombic'
loop_
_space_group_symop_operation_xyz
x,y,z
-x,-y,1/2+z
1/2-x,y,1/2+z
1/2+x,-y,z
loop_
_atom_site_type_symbol
_atom_site_label
_atom_site_fract_x
_atom_site_fract_y
_atom_site_fract_z
Si Si1 0.604775 0.601966 0.479240
Si Si2 0.572126 0.924157 0.498038
Si Si3 0.953774 0.839546 0.611285
Si Si4 0.108489 0.730282 0.068654
Si Si5 0.368583 0.675768 0.980772
Si Si6 0.796162 0.758041 0.281111
O O1 0.468512 0.626038 0.482017
O O2 0.631049 0.465224 0.462547
O O3 0.677460 0.687443 0.342401
O O4 0.643209 0.649484 0.676438
O O5 0.606581 0.900017 0.288135
O O6 0.453140 0.850444 0.508402
O O7 0.658829 0.866547 0.645557
O O8 0.537958 0.057702 0.535969
O O9 0.857332 0.796259 0.469422
O O10 0.040643 0.728503 0.624219
O O11 0.240823 0.718760 0.023071
O O12 0.096665 0.725238 0.285054
#
# Coordination Sequence:
#
# PCOD9341620 Si02
#       6
#     4   4   4   4   4   4
#     4  11  27  48  77 118 162 210 282 332 413 496
#     4  11  24  50  80 125 158 206 276 338 411 484
#     4  12  24  50  86 119 162 210 271 344 407 492
#     4  11  26  48  72 117 156 206 275 324 418 478
#     4  12  25  48  81 113 164 217 269 345 407 492
#     4  11  26  50  76 118 160 211 271 335 412 482
#
# _framework density 24.870712000000001
#
# number of rings (size 3 to 8) (size 9 to 14) (size 15 to 20)
#    0.000    0.667    5.000    2.000    7.000    4.000 
#    6.000    0.000    0.000    0.000    0.000    0.000 
#    0.000    0.000    0.000    0.000    0.000    0.000 
#
# Total GULP energy -134097.760639 kJ/mol
# GULP energy per Si atom -5587.406693 kJ/mol
# Density = 2.481411 g / cm^3
# Si number density = 24.870712 Si / 1000 Ang^3
#
#
#
# Elastic Constant Matrix: (Units=GPa)
#
#
# Indices 1 2 3 4 5 6 
#
# 1 173.1707 7.4267 28.4450 0.0000 0.0000 0.0000
# 2 7.4267 106.5172 5.9820 0.0000 0.0000 0.0000
# 3 28.4450 5.9820 134.6474 0.0000 0.0000 0.0000
# 4 0.0000 0.0000 0.0000 10.6887 0.0000 0.0000
# 5 0.0000 0.0000 0.0000 0.0000 51.1452 0.0000
# 6 0.0000 0.0000 0.0000 0.0000 0.0000 0.4706
#
#
#
# Elastic Compliance Matrix: (Units=1/GPa)
#
#
# Indices 1 2 3 4 5 6 
#
# 1 0.005995 -0.000348 -0.001251 0.000000 0.000000 0.000000
# 2 -0.000348 0.009432 -0.000346 0.000000 0.000000 0.000000
# 3 -0.001251 -0.000346 0.007706 0.000000 0.000000 0.000000
# 4 0.000000 0.000000 0.000000 0.093557 0.000000 0.000000
# 5 0.000000 0.000000 0.000000 0.000000 0.019552 0.000000
# 6 0.000000 0.000000 0.000000 0.000000 0.000000 2.125171
#
#
# Mechanical properties :
#
#
# Convention : Reuss Voigt Hill
#
# Bulk Modulus (GPa) = 51.96255 55.33807 53.65031
# Shear Modulus (GPa) = 2.20098 37.29300 19.74699
#
# Velocity S-wave (km/s) = 0.94175 3.87651 2.82083
# Velocity P-wave (km/s) = 4.70329 6.50653 5.67697
#
# Compressibility (1/GPa) = 0.01924463
#
# Stress axis : x y z
#
# Youngs Moduli (GPa) = 166.80408 106.02421 129.76146
#
# Poissons Ratio (x) = 0.03687 0.16234
# Poissons Ratio (y) = 0.05800 0.04484
# Poissons Ratio (z) = 0.20868 0.03664
#
# Static dielectric constant tensor:
#      x y z
#    x 2.466800 0.000000 0.000000 
#    y 0.000000 1.929120 0.000000 
#    z 0.000000 0.000000 2.099610 
# 
# From -- ./inp_files/1417.got.cif
#   From: 2010.05.17/outbox.cif.g08.bks.cpg/sg29_1_cif.got.tgz:1417.got - 2010.06.04 01:19:37.
