data_PCOD9341190
_publ_section_title
;
Structure prediction by ZEFSAII (Michael W. Deem and Ramdas Pophale) SiO2 
 PCOD9341190
Probable space group: P C A 21
;
_chemical_formula_sum "Si O2"
_cell_formula_units_Z 28
_cell_length_a 18.701421
_cell_length_b 5.261456
_cell_length_c 11.820853
_cell_angle_alpha 90.000000
_cell_angle_beta 90.000000
_cell_angle_gamma 90.000000
_cell_volume 1163.132970
_symmetry_space_group_name_H-M "P C A 21"
_symmetry_group_IT_number 29
_symmetry_cell_setting 'orthorhombic'
loop_
_space_group_symop_operation_xyz
x,y,z
-x,-y,1/2+z
1/2-x,y,1/2+z
1/2+x,-y,z
loop_
_atom_site_type_symbol
_atom_site_label
_atom_site_fract_x
_atom_site_fract_y
_atom_site_fract_z
Si Si1 0.233751 0.174325 0.575750
Si Si2 0.248462 0.679507 0.228879
Si Si3 0.594938 0.515431 0.260581
Si Si4 0.976442 0.790771 0.358298
Si Si5 0.342724 0.924614 0.414248
Si Si6 0.441179 0.577361 0.536592
Si Si7 0.424146 0.151710 0.979760
O O1 0.235606 0.445644 0.641623
O O2 0.287711 0.129998 0.469060
O O3 0.153093 0.126499 0.532483
O O4 0.250607 0.947269 0.663132
O O5 0.170603 0.614714 0.277111
O O6 0.299597 0.727577 0.336326
O O7 0.532974 0.302534 0.267461
O O8 0.586255 0.610954 0.132962
O O9 0.583781 0.722222 0.355909
O O10 0.908966 0.970214 0.338109
O O11 0.940567 0.547039 0.413614
O O12 0.028283 0.904262 0.456094
O O13 0.383228 0.798914 0.521474
O O14 0.522559 0.668326 0.549346
#
# Coordination Sequence:
#
# PCOD9341190 Si02
#       7
#     4   4   4   4   4   4   4
#     4  12  29  50  77 116 154 204 253 325 384 463
#     4  12  30  45  82 112 153 206 259 312 397 459
#     4  11  24  45  73 105 146 204 253 312 389 458
#     4  10  24  45  73 103 147 202 250 327 378 462
#     4  11  26  48  73 111 156 196 262 322 386 465
#     4  10  23  46  70 105 149 196 255 319 384 451
#     4  10  26  43  72 106 149 196 252 321 376 468
#
# _framework density 24.072911000000001
#
# number of rings (size 3 to 8) (size 9 to 14) (size 15 to 20)
#    0.000    1.143    1.429    1.714   14.000    4.571 
#    0.000    0.000    0.000    0.000    0.000    0.000 
#    0.000    0.000    0.000    0.000    0.000    0.000 
#
# Total GULP energy -156423.264134 kJ/mol
# GULP energy per Si atom -5586.545148 kJ/mol
# Density = 2.401812 g / cm^3
# Si number density = 24.072911 Si / 1000 Ang^3
#
#
#
# Elastic Constant Matrix: (Units=GPa)
#
#
# Indices 1 2 3 4 5 6 
#
# 1 164.3100 20.1534 40.1420 0.0000 0.0000 0.0000
# 2 20.1534 75.7151 5.3281 0.0000 0.0000 0.0000
# 3 40.1420 5.3281 36.5732 0.0000 0.0000 0.0000
# 4 0.0000 0.0000 0.0000 30.1708 0.0000 0.0000
# 5 0.0000 0.0000 0.0000 0.0000 28.3240 0.0000
# 6 0.0000 0.0000 0.0000 0.0000 0.0000 36.5176
#
#
#
# Elastic Compliance Matrix: (Units=1/GPa)
#
#
# Indices 1 2 3 4 5 6 
#
# 1 0.008509 -0.001624 -0.009103 0.000000 0.000000 0.000000
# 2 -0.001624 0.013654 -0.000206 0.000000 0.000000 0.000000
# 3 -0.009103 -0.000206 0.037364 0.000000 0.000000 0.000000
# 4 0.000000 0.000000 0.000000 0.033145 0.000000 0.000000
# 5 0.000000 0.000000 0.000000 0.000000 0.035306 0.000000
# 6 0.000000 0.000000 0.000000 0.000000 0.000000 0.027384
#
#
# Mechanical properties :
#
#
# Convention : Reuss Voigt Hill
#
# Bulk Modulus (GPa) = 26.55341 45.31616 35.93478
# Shear Modulus (GPa) = 26.34602 33.06748 29.70675
#
# Velocity S-wave (km/s) = 3.31180 3.71028 3.51669
# Velocity P-wave (km/s) = 5.06738 6.10085 5.60797
#
# Compressibility (1/GPa) = 0.03765995
#
# Stress axis : x y z
#
# Youngs Moduli (GPa) = 117.52008 73.23709 26.76396
#
# Poissons Ratio (x) = 0.11896 0.24363
# Poissons Ratio (y) = 0.19089 0.00552
# Poissons Ratio (z) = 1.06977 0.01511
#
# Static dielectric constant tensor:
#      x y z
#    x 1.919280 0.000000 0.000000 
#    y 0.000000 1.980620 0.000000 
#    z 0.000000 0.000000 1.990910 
# 
# From -- ./inp_files/3593.got.cif
#   From: 2010.05.17/outbox.cif.g08.bks.cpg/sg29_2_cif.got.tgz:3593.got - 2010.06.04 01:19:37.
