data_PCOD9341337
_publ_section_title
;
Structure prediction by ZEFSAII (Michael W. Deem and Ramdas Pophale) SiO2 
 PCOD9341337
Probable space group: P C A 21
;
_chemical_formula_sum "Si O2"
_cell_formula_units_Z 24
_cell_length_a 20.407358
_cell_length_b 5.101768
_cell_length_c 9.140410
_cell_angle_alpha 90.000000
_cell_angle_beta 90.000000
_cell_angle_gamma 90.000000
_cell_volume 951.641046
_symmetry_space_group_name_H-M "P C A 21"
_symmetry_group_IT_number 29
_symmetry_cell_setting 'orthorhombic'
loop_
_space_group_symop_operation_xyz
x,y,z
-x,-y,1/2+z
1/2-x,y,1/2+z
1/2+x,-y,z
loop_
_atom_site_type_symbol
_atom_site_label
_atom_site_fract_x
_atom_site_fract_y
_atom_site_fract_z
Si Si1 0.594236 0.538910 0.791320
Si Si2 0.751661 0.849856 0.979871
Si Si3 0.823588 0.537220 0.726598
Si Si4 0.210467 0.808448 0.719731
Si Si5 0.464038 0.278395 0.731139
Si Si6 0.052476 0.942466 0.947766
O O1 0.662548 0.442163 0.722439
O O2 0.583429 0.835946 0.839763
O O3 0.530526 0.443610 0.699715
O O4 0.587477 0.339160 0.930619
O O5 0.802531 0.008238 0.081423
O O6 0.701435 0.705597 0.087945
O O7 0.712094 0.041241 0.872557
O O8 0.789685 0.654148 0.872600
O O9 0.786923 0.265940 0.701770
O O10 0.900438 0.545143 0.747018
O O11 0.481378 0.123713 0.879631
O O12 0.451332 0.070364 0.604269
#
# Coordination Sequence:
#
# PCOD9341337 Si02
#       6
#     4   4   4   4   4   4
#     4  10  26  42  76  99 143 181 237 286 367 414
#     4  10  25  42  67 103 137 187 234 298 354 424
#     4  11  24  45  71  99 145 182 243 292 363 426
#     4  11  24  44  69 103 139 186 237 298 352 430
#     4  10  26  45  72 103 140 189 237 298 357 430
#     4  10  25  46  71 103 140 185 234 292 359 428
#
# _framework density 25.219595999999999
#
# number of rings (size 3 to 8) (size 9 to 14) (size 15 to 20)
#    1.000    0.667    0.000    2.000   14.000    2.667 
#    6.000    0.000    0.000    0.000    0.000    0.000 
#    0.000    0.000    0.000    0.000    0.000    0.000 
#
# Total GULP energy -134290.135503 kJ/mol
# GULP energy per Si atom -5595.422313 kJ/mol
# Density = 2.516219 g / cm^3
# Si number density = 25.219596 Si / 1000 Ang^3
#
#
#
# Elastic Constant Matrix: (Units=GPa)
#
#
# Indices 1 2 3 4 5 6 
#
# 1 110.9654 7.8262 26.0232 0.0000 0.0000 0.0000
# 2 7.8262 82.9671 18.0337 0.0000 0.0000 0.0000
# 3 26.0232 18.0337 79.1733 0.0000 0.0000 0.0000
# 4 0.0000 0.0000 0.0000 32.5217 0.0000 0.0000
# 5 0.0000 0.0000 0.0000 0.0000 17.1677 0.0000
# 6 0.0000 0.0000 0.0000 0.0000 0.0000 36.1871
#
#
#
# Elastic Compliance Matrix: (Units=1/GPa)
#
#
# Indices 1 2 3 4 5 6 
#
# 1 0.009769 -0.000235 -0.003157 0.000000 0.000000 0.000000
# 2 -0.000235 0.012686 -0.002812 0.000000 0.000000 0.000000
# 3 -0.003157 -0.002812 0.014309 0.000000 0.000000 0.000000
# 4 0.000000 0.000000 0.000000 0.030749 0.000000 0.000000
# 5 0.000000 0.000000 0.000000 0.000000 0.058249 0.000000
# 6 0.000000 0.000000 0.000000 0.000000 0.000000 0.027634
#
#
# Mechanical properties :
#
#
# Convention : Reuss Voigt Hill
#
# Bulk Modulus (GPa) = 41.06029 41.87465 41.46747
# Shear Modulus (GPa) = 28.74823 31.92348 30.33585
#
# Velocity S-wave (km/s) = 3.37993 3.56170 3.47200
# Velocity P-wave (km/s) = 5.61679 5.79261 5.70538
#
# Compressibility (1/GPa) = 0.02435443
#
# Stress axis : x y z
#
# Youngs Moduli (GPa) = 102.36621 78.82423 69.88675
#
# Poissons Ratio (x) = 0.01854 0.22065
# Poissons Ratio (y) = 0.02408 0.19655
# Poissons Ratio (z) = 0.32320 0.22168
#
# Static dielectric constant tensor:
#      x y z
#    x 2.007930 0.000000 0.000000 
#    y 0.000000 1.975260 0.000000 
#    z 0.000000 0.000000 2.018200 
# 
# From -- ./inp_files/2394.got.cif
#   From: 2010.05.17/outbox.cif.g08.bks.cpg/sg29_2_cif.got.tgz:2394.got - 2010.06.04 01:19:37.
