data_PCOD9341822
_publ_section_title
;
Structure prediction by ZEFSAII (Michael W. Deem and Ramdas Pophale) SiO2 
 PCOD9341822
Probable space group: P N C 2
;
_chemical_formula_sum "Si O2"
_cell_formula_units_Z 20
_cell_length_a 9.017900
_cell_length_b 8.442295
_cell_length_c 13.477710
_cell_angle_alpha 90.000000
_cell_angle_beta 90.000000
_cell_angle_gamma 90.000000
_cell_volume 1026.081946
_symmetry_space_group_name_H-M "P N C 2"
_symmetry_group_IT_number 30
_symmetry_cell_setting 'orthorhombic'
loop_
_space_group_symop_operation_xyz
x,y,z
-x,-y,z
-x,1/2+y,1/2+z
x,1/2-y,1/2+z
loop_
_atom_site_type_symbol
_atom_site_label
_atom_site_fract_x
_atom_site_fract_y
_atom_site_fract_z
Si Si1 0.826408 0.013050 0.691730
Si Si2 0.000000 0.000000 0.152217
Si Si3 0.173686 0.982850 0.468505
Si Si4 0.250253 0.220265 0.075788
Si Si5 0.742499 0.177047 0.273409
Si Si6 0.500000 0.500000 0.643641
O O1 0.818429 0.087861 0.579941
O O2 0.747726 0.133863 0.764235
O O3 0.758432 0.839696 0.671568
O O4 0.000000 0.000000 0.717016
O O5 0.109109 0.894199 0.220463
O O6 0.894331 0.888894 0.086464
O O7 0.254515 0.883634 0.385513
O O8 0.238522 0.159367 0.484085
O O9 0.000000 0.000000 0.444585
O O10 0.394865 0.114281 0.080285
O O11 0.606571 0.104457 0.212959
#
# Coordination Sequence:
#
# PCOD9341822 Si02
#       6
#     4   2   4   4   4   2
#     4   9  18  36  65  93 119 162 208 269 310 363
#     4  10  16  32  68  82 122 160 210 264 296 382
#     4   9  18  36  65  91 121 162 215 271 309 359
#     4   9  19  38  62  92 126 165 210 249 327 368
#     4  11  19  36  63  88 122 171 208 248 327 363
#     4  10  24  36  60  90 126 180 192 256 324 394
#
# _framework density 19.491619
#
# number of rings (size 3 to 8) (size 9 to 14) (size 15 to 20)
#    1.200    1.200    3.000    0.000    0.000    0.800 
#    3.600    0.000   39.600    0.000    0.000    0.000 
#    0.000    0.000    0.000    0.000    0.000    0.000 
#
# Total GULP energy -111442.799081 kJ/mol
# GULP energy per Si atom -5572.139954 kJ/mol
# Density = 1.944726 g / cm^3
# Si number density = 19.491619 Si / 1000 Ang^3
#
#
#
# Elastic Constant Matrix: (Units=GPa)
#
#
# Indices 1 2 3 4 5 6 
#
# 1 98.5546 49.8778 19.2687 0.0000 0.0000 0.0000
# 2 49.8778 128.0760 32.1677 0.0000 0.0000 0.0000
# 3 19.2687 32.1677 47.5453 0.0000 0.0000 0.0000
# 4 0.0000 0.0000 0.0000 -7.1343 0.0000 0.0000
# 5 0.0000 0.0000 0.0000 0.0000 0.2470 0.0000
# 6 0.0000 0.0000 0.0000 0.0000 0.0000 30.8389
#
#
#
# Elastic Compliance Matrix: (Units=1/GPa)
#
#
# Indices 1 2 3 4 5 6 
#
# 1 0.012824 -0.004444 -0.002191 0.000000 0.000000 0.000000
# 2 -0.004444 0.010946 -0.005605 0.000000 0.000000 0.000000
# 3 -0.002191 -0.005605 0.025712 0.000000 0.000000 0.000000
# 4 0.000000 0.000000 0.000000 -0.140168 0.000000 0.000000
# 5 0.000000 0.000000 0.000000 0.000000 4.048871 0.000000
# 6 0.000000 0.000000 0.000000 0.000000 0.000000 0.032427
#
#
# Mechanical properties :
#
#
# Convention : Reuss Voigt Hill
#
# Bulk Modulus (GPa) = 39.99378 52.97824 46.48601
# Shear Modulus (GPa) = 1.24272 16.31444 8.77858
#
# Velocity S-wave (km/s) = 0.79934 2.89623 2.12451
# Velocity P-wave (km/s) = 4.62763 6.19865 5.46983
#
# Compressibility (1/GPa) = 0.02500389
#
# Stress axis : x y z
#
# Youngs Moduli (GPa) = 77.97870 91.35541 38.89172
#
# Poissons Ratio (x) = 0.40598 0.08519
# Poissons Ratio (y) = 0.34654 0.21798
# Poissons Ratio (z) = 0.17081 0.51204
#
# Static dielectric constant tensor:
#      x y z
#    x 1.672480 0.000000 0.000000 
#    y 0.000000 1.708980 0.000000 
#    z 0.000000 0.000000 1.687570 
# 
# From -- ./inp_files/4912.got.cif
#   From: 2010.05.17/outbox.cif.g08.bks.cpg/sg30_3_cif.got.tgz:4912.got - 2010.06.03 17:03:02.
