data_PCOD9341321
_publ_section_title
;
Structure prediction by ZEFSAII (Michael W. Deem and Ramdas Pophale) SiO2 
 PCOD9341321
Probable space group: P C A 21
;
_chemical_formula_sum "Si O2"
_cell_formula_units_Z 16
_cell_length_a 7.843707
_cell_length_b 8.007501
_cell_length_c 10.492219
_cell_angle_alpha 90.000000
_cell_angle_beta 90.000000
_cell_angle_gamma 90.000000
_cell_volume 659.000449
_symmetry_space_group_name_H-M "P C A 21"
_symmetry_group_IT_number 29
_symmetry_cell_setting 'orthorhombic'
loop_
_space_group_symop_operation_xyz
x,y,z
-x,-y,1/2+z
1/2-x,y,1/2+z
1/2+x,-y,z
loop_
_atom_site_type_symbol
_atom_site_label
_atom_site_fract_x
_atom_site_fract_y
_atom_site_fract_z
Si Si1 0.945881 0.179095 0.074690
Si Si2 0.751193 0.671488 0.706410
Si Si3 0.056794 0.823176 0.064275
Si Si4 0.117331 0.481569 0.958048
O O1 0.079256 0.216831 0.189308
O O2 0.750218 0.166022 0.112678
O O3 0.002977 0.003965 0.013281
O O4 0.979410 0.332144 0.977373
O O5 0.582700 0.775215 0.670614
O O6 0.778087 0.542905 0.589703
O O7 0.720685 0.569883 0.833781
O O8 0.054399 0.670827 0.963735
#
# Coordination Sequence:
#
# PCOD9341321 Si02
#       4
#     4   4   4   4
#     4  10  24  47  73 114 143 206 253 309 384 457
#     4  10  25  51  71 114 149 197 258 313 385 453
#     4  12  22  50  76 109 155 200 250 322 378 460
#     4  10  25  50  72 111 153 197 259 316 383 460
#
# _framework density 24.279195999999999
#
# number of rings (size 3 to 8) (size 9 to 14) (size 15 to 20)
#    1.500    0.000    2.500    1.500    0.000    4.000 
#   18.000    0.000    0.000    0.000    0.000    0.000 
#    0.000    0.000    0.000    0.000    0.000    0.000 
#
# Total GULP energy -89361.715176 kJ/mol
# GULP energy per Si atom -5585.107199 kJ/mol
# Density = 2.422394 g / cm^3
# Si number density = 24.279196 Si / 1000 Ang^3
#
#
#
# Elastic Constant Matrix: (Units=GPa)
#
#
# Indices 1 2 3 4 5 6 
#
# 1 194.6707 59.6282 31.8236 0.0000 0.0000 0.0000
# 2 59.6282 208.2467 35.1173 0.0000 0.0000 0.0000
# 3 31.8236 35.1173 87.5976 0.0000 0.0000 0.0000
# 4 0.0000 0.0000 0.0000 22.5720 0.0000 0.0000
# 5 0.0000 0.0000 0.0000 0.0000 18.6688 0.0000
# 6 0.0000 0.0000 0.0000 0.0000 0.0000 41.4189
#
#
#
# Elastic Compliance Matrix: (Units=1/GPa)
#
#
# Indices 1 2 3 4 5 6 
#
# 1 0.005821 -0.001405 -0.001551 0.000000 0.000000 0.000000
# 2 -0.001405 0.005489 -0.001690 0.000000 0.000000 0.000000
# 3 -0.001551 -0.001690 0.012657 0.000000 0.000000 0.000000
# 4 0.000000 0.000000 0.000000 0.044303 0.000000 0.000000
# 5 0.000000 0.000000 0.000000 0.000000 0.053565 0.000000
# 6 0.000000 0.000000 0.000000 0.000000 0.000000 0.024144
#
#
# Mechanical properties :
#
#
# Convention : Reuss Voigt Hill
#
# Bulk Modulus (GPa) = 68.14812 82.62813 75.38813
# Shear Modulus (GPa) = 31.21810 40.79498 36.00654
#
# Velocity S-wave (km/s) = 3.58969 4.10353 3.85518
# Velocity P-wave (km/s) = 6.73132 7.52052 7.13684
#
# Compressibility (1/GPa) = 0.01467392
#
# Stress axis : x y z
#
# Youngs Moduli (GPa) = 171.79537 182.17107 79.00744
#
# Poissons Ratio (x) = 0.25597 0.12257
# Poissons Ratio (y) = 0.24139 0.13354
# Poissons Ratio (z) = 0.26652 0.30790
#
# Static dielectric constant tensor:
#      x y z
#    x 2.024490 0.000000 0.000000 
#    y 0.000000 1.968720 0.000000 
#    z 0.000000 0.000000 1.872370 
# 
# From -- ./inp_files/2731.got.cif
#   From: 2010.05.17/outbox.cif.g08.bks.cpg/sg29_2_cif.got.tgz:2731.got - 2010.06.04 01:19:37.
