data_PCOD9341475
_publ_section_title
;
Structure prediction by ZEFSAII (Michael W. Deem and Ramdas Pophale) SiO2 
 PCOD9341475
Probable space group: P C A 21
;
_chemical_formula_sum "Si O2"
_cell_formula_units_Z 16
_cell_length_a 10.666666
_cell_length_b 5.154927
_cell_length_c 9.711270
_cell_angle_alpha 90.000000
_cell_angle_beta 90.000000
_cell_angle_gamma 90.000000
_cell_volume 533.982771
_symmetry_space_group_name_H-M "P C A 21"
_symmetry_group_IT_number 29
_symmetry_cell_setting 'orthorhombic'
loop_
_space_group_symop_operation_xyz
x,y,z
-x,-y,1/2+z
1/2-x,y,1/2+z
1/2+x,-y,z
loop_
_atom_site_type_symbol
_atom_site_label
_atom_site_fract_x
_atom_site_fract_y
_atom_site_fract_z
Si Si1 0.036357 0.518616 0.183320
Si Si2 0.757740 0.138162 0.775236
Si Si3 0.354275 0.146728 0.012833
Si Si4 0.392907 0.258146 0.433822
O O1 0.973594 0.725389 0.080355
O O2 0.950921 0.552552 0.318523
O O3 0.175401 0.596751 0.230134
O O4 0.036775 0.272831 0.080765
O O5 0.717453 0.016207 0.629946
O O6 0.644702 0.021162 0.869498
O O7 0.869761 0.010660 0.870143
O O8 0.247760 0.358834 0.972073
#
# Coordination Sequence:
#
# PCOD9341475 Si02
#       4
#     4   4   4   4
#     4  11  22  44  76  98 157 211 232 341 393 426
#     4   9  22  44  66 104 147 193 255 321 377 466
#     4   9  22  43  65 107 150 182 268 307 374 477
#     4   9  24  43  67 115 144 196 279 299 386 489
#
# _framework density 29.963512000000001
#
# number of rings (size 3 to 8) (size 9 to 14) (size 15 to 20)
#    1.500    1.000    0.000    0.000    7.000    0.000 
#   13.500    0.000    0.000    0.000    0.000    0.000 
#    0.000    0.000    0.000    0.000    0.000    0.000 
#
# Total GULP energy -89280.041755 kJ/mol
# GULP energy per Si atom -5580.002610 kJ/mol
# Density = 2.989531 g / cm^3
# Si number density = 29.963512 Si / 1000 Ang^3
#
#
#
# Elastic Constant Matrix: (Units=GPa)
#
#
# Indices 1 2 3 4 5 6 
#
# 1 108.9432 53.7199 76.6335 0.0000 0.0000 0.0000
# 2 53.7199 98.4077 68.4677 0.0000 0.0000 0.0000
# 3 76.6335 68.4677 269.7465 0.0000 0.0000 0.0000
# 4 0.0000 0.0000 0.0000 44.0434 0.0000 0.0000
# 5 0.0000 0.0000 0.0000 0.0000 77.1171 0.0000
# 6 0.0000 0.0000 0.0000 0.0000 0.0000 22.7286
#
#
#
# Elastic Compliance Matrix: (Units=1/GPa)
#
#
# Indices 1 2 3 4 5 6 
#
# 1 0.013759 -0.005819 -0.002432 0.000000 0.000000 0.000000
# 2 -0.005819 0.014802 -0.002104 0.000000 0.000000 0.000000
# 3 -0.002432 -0.002104 0.004932 0.000000 0.000000 0.000000
# 4 0.000000 0.000000 0.000000 0.022705 0.000000 0.000000
# 5 0.000000 0.000000 0.000000 0.000000 0.012967 0.000000
# 6 0.000000 0.000000 0.000000 0.000000 0.000000 0.043997
#
#
# Mechanical properties :
#
#
# Convention : Reuss Voigt Hill
#
# Bulk Modulus (GPa) = 78.22468 97.19329 87.70899
# Shear Modulus (GPa) = 36.19678 47.32958 41.76318
#
# Velocity S-wave (km/s) = 3.47944 3.97870 3.73742
# Velocity P-wave (km/s) = 6.50426 7.32218 6.92530
#
# Compressibility (1/GPa) = 0.01278369
#
# Stress axis : x y z
#
# Youngs Moduli (GPa) = 72.67935 67.55764 202.75288
#
# Poissons Ratio (x) = 0.39311 0.49307
# Poissons Ratio (y) = 0.42292 0.42659
# Poissons Ratio (z) = 0.17675 0.14214
#
# Static dielectric constant tensor:
#      x y z
#    x 2.458570 0.000000 0.000000 
#    y 0.000000 2.315530 0.000000 
#    z 0.000000 0.000000 2.226740 
# 
# From -- ./inp_files/3001.got.cif
#   From: 2010.05.17/outbox.cif.g08.bks.cpg/sg29_2_cif.got.tgz:3001.got - 2010.06.04 01:19:37.
