data_PCOD9341942
_publ_section_title
;
Structure prediction by ZEFSAII (Michael W. Deem and Ramdas Pophale) SiO2 
 PCOD9341942
Probable space group: P N C 2
;
_chemical_formula_sum "Si O2"
_cell_formula_units_Z 20
_cell_length_a 6.903338
_cell_length_b 7.376469
_cell_length_c 18.082440
_cell_angle_alpha 90.000000
_cell_angle_beta 90.000000
_cell_angle_gamma 90.000000
_cell_volume 920.798689
_symmetry_space_group_name_H-M "P N C 2"
_symmetry_group_IT_number 30
_symmetry_cell_setting 'orthorhombic'
loop_
_space_group_symop_operation_xyz
x,y,z
-x,-y,z
-x,1/2+y,1/2+z
x,1/2-y,1/2+z
loop_
_atom_site_type_symbol
_atom_site_label
_atom_site_fract_x
_atom_site_fract_y
_atom_site_fract_z
Si Si1 0.353370 0.341235 0.744670
Si Si2 0.531690 0.785596 0.397183
Si Si3 0.968310 0.785596 0.951805
Si Si4 0.000000 0.500000 0.839499
Si Si5 0.500000 0.000000 0.009489
Si Si6 0.146630 0.341235 0.604319
O O1 0.500000 0.500000 0.718930
O O2 0.469574 0.236946 0.809780
O O3 0.250001 0.247626 0.674494
O O4 0.174300 0.431330 0.788794
O O5 0.750000 0.750001 0.424495
O O6 0.420716 0.657290 0.454770
O O7 0.500000 0.000000 0.404167
O O8 0.079284 0.657290 0.894218
O O9 0.969575 0.736947 0.039209
O O10 0.000000 0.000000 0.944821
O O11 0.325699 0.068669 0.060195
O O12 0.000000 0.500000 0.630059
#
# Coordination Sequence:
#
# PCOD9341942 Si02
#       6
#     4   4   4   2   2   4
#     4  10  19  33  57  85 112 154 194 234 301 356
#     4   9  20  35  59  86 112 150 200 243 295 360
#     4   9  20  35  59  86 112 150 200 243 295 360
#     4  10  20  38  62  82 116 152 196 252 294 354
#     4  10  20  38  62  82 116 152 196 252 294 354
#     4  10  19  33  57  85 112 154 194 234 301 356
#
# _framework density 21.720275999999998
#
# number of rings (size 3 to 8) (size 9 to 14) (size 15 to 20)
#    0.000    2.400    2.000    0.000    0.000   14.400 
#    0.000    0.000   17.600    4.800    0.000    0.000 
#    0.000    0.000    0.000    0.000    0.000    0.000 
#
# Total GULP energy -111358.505127 kJ/mol
# GULP energy per Si atom -5567.925256 kJ/mol
# Density = 2.167084 g / cm^3
# Si number density = 21.720276 Si / 1000 Ang^3
#
#
#
# Elastic Constant Matrix: (Units=GPa)
#
#
# Indices 1 2 3 4 5 6 
#
# 1 51.1337 15.2742 7.5800 0.0000 0.0000 0.0000
# 2 15.2742 80.2004 37.9042 0.0000 0.0000 0.0000
# 3 7.5800 37.9042 160.5309 0.0000 0.0000 0.0000
# 4 0.0000 0.0000 0.0000 25.5211 0.0000 0.0000
# 5 0.0000 0.0000 0.0000 0.0000 40.1196 0.0000
# 6 0.0000 0.0000 0.0000 0.0000 0.0000 30.3363
#
#
#
# Elastic Compliance Matrix: (Units=1/GPa)
#
#
# Indices 1 2 3 4 5 6 
#
# 1 0.020737 -0.003924 -0.000053 0.000000 0.000000 0.000000
# 2 -0.003924 0.014778 -0.003304 0.000000 0.000000 0.000000
# 3 -0.000053 -0.003304 0.007012 0.000000 0.000000 0.000000
# 4 0.000000 0.000000 0.000000 0.039183 0.000000 0.000000
# 5 0.000000 0.000000 0.000000 0.000000 0.024925 0.000000
# 6 0.000000 0.000000 0.000000 0.000000 0.000000 0.032964
#
#
# Mechanical properties :
#
#
# Convention : Reuss Voigt Hill
#
# Bulk Modulus (GPa) = 35.75979 45.93130 40.84555
# Shear Modulus (GPa) = 30.58437 34.60252 32.59345
#
# Velocity S-wave (km/s) = 3.75654 3.99569 3.87796
# Velocity P-wave (km/s) = 5.94264 6.51767 6.23679
#
# Compressibility (1/GPa) = 0.02796437
#
# Stress axis : x y z
#
# Youngs Moduli (GPa) = 48.22379 67.66946 142.61393
#
# Poissons Ratio (x) = 0.26557 0.00749
# Poissons Ratio (y) = 0.18925 0.47119
# Poissons Ratio (z) = 0.00253 0.22358
#
# Static dielectric constant tensor:
#      x y z
#    x 1.969330 0.000000 0.000000 
#    y 0.000000 1.837840 0.000000 
#    z 0.000000 0.000000 1.877200 
# 
# From -- ./inp_files/6240.got.cif
#   From: 2010.05.17/outbox.cif.g08.bks.cpg/sg30_4_cif.got.tgz:6240.got - 2010.06.03 17:03:02.
