data_PCOD9341678
_publ_section_title
;
Structure prediction by ZEFSAII (Michael W. Deem and Ramdas Pophale) SiO2 
 PCOD9341678
Probable space group: P C A 21
;
_chemical_formula_sum "Si O2"
_cell_formula_units_Z 20
_cell_length_a 11.252207
_cell_length_b 4.633094
_cell_length_c 13.350241
_cell_angle_alpha 90.000000
_cell_angle_beta 90.000000
_cell_angle_gamma 90.000000
_cell_volume 695.981876
_symmetry_space_group_name_H-M "P C A 21"
_symmetry_group_IT_number 29
_symmetry_cell_setting 'orthorhombic'
loop_
_space_group_symop_operation_xyz
x,y,z
-x,-y,1/2+z
1/2-x,y,1/2+z
1/2+x,-y,z
loop_
_atom_site_type_symbol
_atom_site_label
_atom_site_fract_x
_atom_site_fract_y
_atom_site_fract_z
Si Si1 0.421057 0.592294 0.549570
Si Si2 0.000632 0.122077 0.205631
Si Si3 0.747691 0.214662 0.188737
Si Si4 0.570062 0.013530 0.426369
Si Si5 0.757368 0.525399 0.900343
O O1 0.484270 0.418294 0.640167
O O2 0.283448 0.613008 0.588840
O O3 0.492979 0.879559 0.517218
O O4 0.376791 0.459784 0.444427
O O5 0.001173 0.083009 0.326202
O O6 0.866125 0.032674 0.180784
O O7 0.126352 0.965977 0.189011
O O8 0.754951 0.418878 0.285152
O O9 0.694821 0.844912 0.415588
O O10 0.623848 0.335337 0.432373
#
# Coordination Sequence:
#
# PCOD9341678 Si02
#       5
#     4   4   4   4   4
#     4  12  26  46  80 110 156 211 265 332 403 475
#     4  11  26  51  78 116 162 206 274 329 404 478
#     4  11  26  49  76 119 156 218 259 340 392 496
#     4  11  26  49  73 114 155 212 258 335 393 483
#     4  11  26  49  75 109 163 201 272 322 406 470
#
# _framework density 28.736381000000002
#
# number of rings (size 3 to 8) (size 9 to 14) (size 15 to 20)
#    0.000    0.800    4.000    1.200    8.400    1.600 
#    3.600    0.000    0.000    0.000    0.000    0.000 
#    0.000    0.000    0.000    0.000    0.000    0.000 
#
# Total GULP energy -111624.416677 kJ/mol
# GULP energy per Si atom -5581.220834 kJ/mol
# Density = 2.867098 g / cm^3
# Si number density = 28.736381 Si / 1000 Ang^3
#
#
#
# Elastic Constant Matrix: (Units=GPa)
#
#
# Indices 1 2 3 4 5 6 
#
# 1 190.4564 30.1617 58.6626 0.0000 0.0000 0.0000
# 2 30.1617 70.3580 12.8486 0.0000 0.0000 0.0000
# 3 58.6626 12.8486 121.0080 0.0000 0.0000 0.0000
# 4 0.0000 0.0000 0.0000 36.5198 0.0000 0.0000
# 5 0.0000 0.0000 0.0000 0.0000 60.6391 0.0000
# 6 0.0000 0.0000 0.0000 0.0000 0.0000 16.0891
#
#
#
# Elastic Compliance Matrix: (Units=1/GPa)
#
#
# Indices 1 2 3 4 5 6 
#
# 1 0.006506 -0.002257 -0.002914 0.000000 0.000000 0.000000
# 2 -0.002257 0.015277 -0.000528 0.000000 0.000000 0.000000
# 3 -0.002914 -0.000528 0.009733 0.000000 0.000000 0.000000
# 4 0.000000 0.000000 0.000000 0.027382 0.000000 0.000000
# 5 0.000000 0.000000 0.000000 0.000000 0.016491 0.000000
# 6 0.000000 0.000000 0.000000 0.000000 0.000000 0.062154
#
#
# Mechanical properties :
#
#
# Convention : Reuss Voigt Hill
#
# Bulk Modulus (GPa) = 49.70853 65.01869 57.36361
# Shear Modulus (GPa) = 32.12415 41.32623 36.72519
#
# Velocity S-wave (km/s) = 3.34712 3.79636 3.57880
# Velocity P-wave (km/s) = 5.68095 6.47237 6.08953
#
# Compressibility (1/GPa) = 0.02011727
#
# Stress axis : x y z
#
# Youngs Moduli (GPa) = 153.71574 65.45842 102.74625
#
# Poissons Ratio (x) = 0.14772 0.29942
# Poissons Ratio (y) = 0.34689 0.05426
# Poissons Ratio (z) = 0.44795 0.03457
#
# Static dielectric constant tensor:
#      x y z
#    x 2.151250 0.000000 0.000000 
#    y 0.000000 2.481210 0.000000 
#    z 0.000000 0.000000 2.611870 
# 
# From -- ./inp_files/4379.got.cif
#   From: 2010.05.17/outbox.cif.g08.bks.cpg/sg29_3_cif.got.tgz:4379.got - 2010.06.04 01:19:37.
