data_PCOD9341432
_publ_section_title
;
Structure prediction by ZEFSAII (Michael W. Deem and Ramdas Pophale) SiO2 
 PCOD9341432
Probable space group: P C A 21
;
_chemical_formula_sum "Si O2"
_cell_formula_units_Z 28
_cell_length_a 9.186974
_cell_length_b 17.176879
_cell_length_c 7.586381
_cell_angle_alpha 90.000000
_cell_angle_beta 90.000000
_cell_angle_gamma 90.000000
_cell_volume 1197.157783
_symmetry_space_group_name_H-M "P C A 21"
_symmetry_group_IT_number 29
_symmetry_cell_setting 'orthorhombic'
loop_
_space_group_symop_operation_xyz
x,y,z
-x,-y,1/2+z
1/2-x,y,1/2+z
1/2+x,-y,z
loop_
_atom_site_type_symbol
_atom_site_label
_atom_site_fract_x
_atom_site_fract_y
_atom_site_fract_z
Si Si1 0.086957 0.244189 0.016060
Si Si2 0.131201 0.437153 0.522908
Si Si3 0.966835 0.165783 0.353123
Si Si4 0.423104 0.272733 0.121653
Si Si5 0.781411 0.042263 0.822888
Si Si6 0.542989 0.586339 0.121226
Si Si7 0.571849 0.957368 0.614119
O O1 0.032791 0.183832 0.162316
O O2 0.259671 0.257933 0.046931
O O3 0.009213 0.325999 0.063370
O O4 0.060479 0.229634 0.809225
O O5 0.072792 0.366110 0.644432
O O6 0.305117 0.436390 0.528287
O O7 0.077343 0.415842 0.328355
O O8 0.073706 0.520994 0.577444
O O9 0.963850 0.242440 0.475540
O O10 0.073243 0.112204 0.473956
O O11 0.816673 0.119186 0.332973
O O12 0.906942 0.040730 0.677026
O O13 0.674952 0.968592 0.783111
O O14 0.871382 0.029999 0.001022
#
# Coordination Sequence:
#
# PCOD9341432 Si02
#       7
#     4   4   4   4   4   4   4
#     4  11  22  43  70 110 152 202 255 312 384 460
#     4  11  21  40  69 106 147 200 256 313 376 450
#     4  12  26  45  76 109 150 194 252 323 375 463
#     4  11  22  42  71 110 152 201 256 310 388 455
#     4  12  26  51  77 109 144 194 248 313 385 465
#     4  11  21  40  70 104 150 198 256 313 375 450
#     4  12  26  49  77 106 145 189 251 306 387 463
#
# _framework density 23.388729999999999
#
# number of rings (size 3 to 8) (size 9 to 14) (size 15 to 20)
#    0.000    0.571    5.714    4.286    2.000    1.143 
#    2.571    1.429    0.000    0.000    0.000    0.000 
#    0.000    0.000    0.000    0.000    0.000    0.000 
#
# Total GULP energy -156621.207898 kJ/mol
# GULP energy per Si atom -5593.614568 kJ/mol
# Density = 2.333550 g / cm^3
# Si number density = 23.388730 Si / 1000 Ang^3
#
#
#
# Elastic Constant Matrix: (Units=GPa)
#
#
# Indices 1 2 3 4 5 6 
#
# 1 82.4428 52.2211 26.6526 0.0000 0.0000 0.0000
# 2 52.2211 90.1151 7.2608 0.0000 0.0000 0.0000
# 3 26.6526 7.2608 128.1711 0.0000 0.0000 0.0000
# 4 0.0000 0.0000 0.0000 42.0708 0.0000 0.0000
# 5 0.0000 0.0000 0.0000 0.0000 39.9137 0.0000
# 6 0.0000 0.0000 0.0000 0.0000 0.0000 44.4721
#
#
#
# Elastic Compliance Matrix: (Units=1/GPa)
#
#
# Indices 1 2 3 4 5 6 
#
# 1 0.020733 -0.011721 -0.003647 0.000000 0.000000 0.000000
# 2 -0.011721 0.017774 0.001430 0.000000 0.000000 0.000000
# 3 -0.003647 0.001430 0.008479 0.000000 0.000000 0.000000
# 4 0.000000 0.000000 0.000000 0.023769 0.000000 0.000000
# 5 0.000000 0.000000 0.000000 0.000000 0.025054 0.000000
# 6 0.000000 0.000000 0.000000 0.000000 0.000000 0.022486
#
#
# Mechanical properties :
#
#
# Convention : Reuss Voigt Hill
#
# Bulk Modulus (GPa) = 52.32633 52.55532 52.44082
# Shear Modulus (GPa) = 32.77799 39.59761 36.18780
#
# Velocity S-wave (km/s) = 3.74765 4.11910 3.93775
# Velocity P-wave (km/s) = 6.41463 6.71876 6.56846
#
# Compressibility (1/GPa) = 0.01911084
#
# Stress axis : x y z
#
# Youngs Moduli (GPa) = 48.23242 56.26270 117.93155
#
# Poissons Ratio (x) = 0.65944 0.43014
# Poissons Ratio (y) = 0.56532 -0.16869
# Poissons Ratio (z) = 0.17592 -0.08048
#
# Static dielectric constant tensor:
#      x y z
#    x 1.841830 0.000000 0.000000 
#    y 0.000000 1.953050 0.000000 
#    z 0.000000 0.000000 2.003110 
# 
# From -- ./inp_files/1221.got.cif
#   From: 2010.05.17/outbox.cif.g08.bks.cpg/sg29_1_cif.got.tgz:1221.got - 2010.06.04 01:19:37.
