data_PCOD9341315
_publ_section_title
;
Structure prediction by ZEFSAII (Michael W. Deem and Ramdas Pophale) SiO2 
 PCOD9341315
Probable space group: P C A 21
;
_chemical_formula_sum "Si O2"
_cell_formula_units_Z 32
_cell_length_a 10.905891
_cell_length_b 9.482323
_cell_length_c 13.579702
_cell_angle_alpha 90.000000
_cell_angle_beta 90.000000
_cell_angle_gamma 90.000000
_cell_volume 1404.320182
_symmetry_space_group_name_H-M "P C A 21"
_symmetry_group_IT_number 29
_symmetry_cell_setting 'orthorhombic'
loop_
_space_group_symop_operation_xyz
x,y,z
-x,-y,1/2+z
1/2-x,y,1/2+z
1/2+x,-y,z
loop_
_atom_site_type_symbol
_atom_site_label
_atom_site_fract_x
_atom_site_fract_y
_atom_site_fract_z
Si Si1 0.017865 0.061320 0.836790
Si Si2 0.244753 0.190427 0.125849
Si Si3 0.286564 0.109574 0.905990
Si Si4 0.820327 0.096390 0.203724
Si Si5 0.581277 0.622846 0.351797
Si Si6 0.877305 0.316850 0.765075
Si Si7 0.035366 0.382388 0.583074
Si Si8 0.523787 0.307531 0.645573
O O1 0.150761 0.052085 0.886615
O O2 0.982944 0.221441 0.814459
O O3 0.050522 0.967952 0.741557
O O4 0.902556 0.988817 0.886317
O O5 0.351767 0.305409 0.139695
O O6 0.112680 0.259949 0.119313
O O7 0.243969 0.046295 0.188630
O O8 0.285716 0.136435 0.020373
O O9 0.312192 0.257854 0.849557
O O10 0.738605 0.210178 0.262968
O O11 0.873914 0.193170 0.117026
O O12 0.629733 0.466668 0.321662
O O13 0.530424 0.639617 0.464147
O O14 0.486069 0.661590 0.264221
O O15 0.917659 0.343915 0.650905
O O16 0.055202 0.547729 0.594419
#
# Coordination Sequence:
#
# PCOD9341315 Si02
#       8
#     4   4   4   4   4   4   4   4
#     4  12  23  46  71 108 144 196 239 306 377 448
#     4  11  26  45  71 104 144 195 241 311 368 449
#     4  11  26  44  73 107 151 187 251 304 375 450
#     4  12  24  44  71 104 148 190 246 300 382 447
#     4  10  24  47  69 105 140 195 246 308 370 453
#     4  11  25  43  75 104 146 200 245 312 383 451
#     4  10  25  46  70 103 141 189 251 301 371 444
#     4  11  25  45  72  99 146 190 241 302 376 436
#
# _framework density 22.786826000000001
#
# number of rings (size 3 to 8) (size 9 to 14) (size 15 to 20)
#    0.000    1.000    3.750    1.500    7.000    2.000 
#    2.250    0.000    0.000    0.000    0.000    0.000 
#    0.000    0.000    0.000    0.000    0.000    0.000 
#
# Total GULP energy -178389.170484 kJ/mol
# GULP energy per Si atom -5574.661578 kJ/mol
# Density = 2.273496 g / cm^3
# Si number density = 22.786826 Si / 1000 Ang^3
#
#
#
# Elastic Constant Matrix: (Units=GPa)
#
#
# Indices 1 2 3 4 5 6 
#
# 1 119.7172 56.1705 16.2595 0.0000 0.0000 0.0000
# 2 56.1705 164.1816 21.4061 0.0000 0.0000 0.0000
# 3 16.2595 21.4061 53.3720 0.0000 0.0000 0.0000
# 4 0.0000 0.0000 0.0000 30.1777 0.0000 0.0000
# 5 0.0000 0.0000 0.0000 0.0000 17.5858 0.0000
# 6 0.0000 0.0000 0.0000 0.0000 0.0000 26.2889
#
#
#
# Elastic Compliance Matrix: (Units=1/GPa)
#
#
# Indices 1 2 3 4 5 6 
#
# 1 0.010109 -0.003226 -0.001786 0.000000 0.000000 0.000000
# 2 -0.003226 0.007456 -0.002008 0.000000 0.000000 0.000000
# 3 -0.001786 -0.002008 0.020086 0.000000 0.000000 0.000000
# 4 0.000000 0.000000 0.000000 0.033137 0.000000 0.000000
# 5 0.000000 0.000000 0.000000 0.000000 0.056864 0.000000
# 6 0.000000 0.000000 0.000000 0.000000 0.000000 0.038039
#
#
# Mechanical properties :
#
#
# Convention : Reuss Voigt Hill
#
# Bulk Modulus (GPa) = 42.35107 58.32702 50.33905
# Shear Modulus (GPa) = 26.65238 31.03946 28.84592
#
# Velocity S-wave (km/s) = 3.42371 3.69476 3.56181
# Velocity P-wave (km/s) = 5.85279 6.62224 6.24937
#
# Compressibility (1/GPa) = 0.02361215
#
# Stress axis : x y z
#
# Youngs Moduli (GPa) = 98.92124 134.11688 49.78655
#
# Poissons Ratio (x) = 0.43262 0.08892
# Poissons Ratio (y) = 0.31909 0.09996
# Poissons Ratio (z) = 0.17667 0.26928
#
# Static dielectric constant tensor:
#      x y z
#    x 1.853300 0.000000 0.000000 
#    y 0.000000 1.929450 0.000000 
#    z 0.000000 0.000000 2.008810 
# 
# From -- ./inp_files/4539.got.cif
#   From: 2010.05.17/outbox.cif.g08.bks.cpg/sg29_3_cif.got.tgz:4539.got - 2010.06.04 01:19:37.
