data_PCOD9341399
_publ_section_title
;
Structure prediction by ZEFSAII (Michael W. Deem and Ramdas Pophale) SiO2 
 PCOD9341399
Probable space group: P C A 21
;
_chemical_formula_sum "Si O2"
_cell_formula_units_Z 32
_cell_length_a 18.783848
_cell_length_b 8.132841
_cell_length_c 10.276686
_cell_angle_alpha 90.000000
_cell_angle_beta 90.000000
_cell_angle_gamma 90.000000
_cell_volume 1569.928719
_symmetry_space_group_name_H-M "P C A 21"
_symmetry_group_IT_number 29
_symmetry_cell_setting 'orthorhombic'
loop_
_space_group_symop_operation_xyz
x,y,z
-x,-y,1/2+z
1/2-x,y,1/2+z
1/2+x,-y,z
loop_
_atom_site_type_symbol
_atom_site_label
_atom_site_fract_x
_atom_site_fract_y
_atom_site_fract_z
Si Si1 0.086674 0.913354 0.903770
Si Si2 0.108764 0.470018 0.551086
Si Si3 0.824812 0.417941 0.403770
Si Si4 0.479222 0.738624 0.171058
Si Si5 0.068431 0.265656 0.903770
Si Si6 0.020778 0.738625 0.136482
Si Si7 0.750000 0.545638 0.153770
Si Si8 0.391236 0.470018 0.756454
O O1 0.042436 0.884117 0.768897
O O2 0.115274 0.099065 0.903770
O O3 0.140721 0.761332 0.903770
O O4 0.042436 0.884117 0.038643
O O5 0.176515 0.370857 0.607160
O O6 0.090161 0.628360 0.638723
O O7 0.036974 0.365524 0.556149
O O8 0.122527 0.519175 0.403770
O O9 0.884959 0.566578 0.403770
O O10 0.775357 0.443897 0.278247
O O11 0.775357 0.443896 0.529293
O O12 0.536973 0.634476 0.251392
O O13 0.518258 0.750239 0.031025
O O14 0.018258 0.249760 0.776516
O O15 0.090161 0.628361 0.168817
O O16 0.676515 0.629143 0.200380
#
# Coordination Sequence:
#
# PCOD9341399 Si02
#       8
#     4   4   4   4   4   4   4   4
#     4  12  24  41  65  97 131 163 209 268 319 372
#     4  11  20  34  65  95 123 162 210 260 313 373
#     4  12  24  42  64  94 126 170 212 256 318 376
#     4  11  21  38  62  95 123 164 209 259 316 377
#     4  12  24  41  65  97 131 163 209 268 319 372
#     4  11  21  38  62  95 123 164 209 259 316 377
#     4  12  22  36  66  88 124 170 210 248 318 372
#     4  11  20  34  65  95 123 162 210 260 313 373
#
# _framework density 20.383089999999999
#
# number of rings (size 3 to 8) (size 9 to 14) (size 15 to 20)
#    0.000    0.500    8.750    2.250    0.000    0.000 
#    0.000    1.250    0.000    0.000    0.000    0.000 
#    0.000    0.000    0.000    0.000    0.000    0.000 
#
# Total GULP energy -178228.078624 kJ/mol
# GULP energy per Si atom -5569.627457 kJ/mol
# Density = 2.033670 g / cm^3
# Si number density = 20.383090 Si / 1000 Ang^3
#
#
#
# Elastic Constant Matrix: (Units=GPa)
#
#
# Indices 1 2 3 4 5 6 
#
# 1 76.6639 3.5589 32.0355 0.0000 0.0000 0.0000
# 2 3.5589 68.4062 3.4072 0.0000 0.0000 0.0000
# 3 32.0355 3.4072 141.2429 0.0000 0.0000 0.0000
# 4 0.0000 0.0000 0.0000 -30.1935 0.0000 0.0000
# 5 0.0000 0.0000 0.0000 0.0000 43.4194 0.0000
# 6 0.0000 0.0000 0.0000 0.0000 0.0000 6.3736
#
#
#
# Elastic Compliance Matrix: (Units=1/GPa)
#
#
# Indices 1 2 3 4 5 6 
#
# 1 0.014433 -0.000589 -0.003259 0.000000 0.000000 0.000000
# 2 -0.000589 0.014660 -0.000220 0.000000 0.000000 0.000000
# 3 -0.003259 -0.000220 0.007825 0.000000 0.000000 0.000000
# 4 0.000000 0.000000 0.000000 -0.033120 0.000000 0.000000
# 5 0.000000 0.000000 0.000000 0.000000 0.023031 0.000000
# 6 0.000000 0.000000 0.000000 0.000000 0.000000 0.156898
#
#
# Mechanical properties :
#
#
# Convention : Reuss Voigt Hill
#
# Bulk Modulus (GPa) = 34.74426 40.47956 37.61191
# Shear Modulus (GPa) = 24.81908 20.40731 22.61320
#
# Velocity S-wave (km/s) = 3.49324 3.16759 3.33439
# Velocity P-wave (km/s) = 5.77520 5.76894 5.77207
#
# Compressibility (1/GPa) = 0.02878174
#
# Stress axis : x y z
#
# Youngs Moduli (GPa) = 69.28425 68.21220 127.80224
#
# Poissons Ratio (x) = 0.04015 0.41656
# Poissons Ratio (y) = 0.04078 0.02814
# Poissons Ratio (z) = 0.22583 0.01502
#
# Static dielectric constant tensor:
#      x y z
#    x 1.769230 0.000000 0.000000 
#    y 0.000000 1.719790 0.000000 
#    z 0.000000 0.000000 1.796430 
# 
# From -- ./inp_files/2322.got.cif
#   From: 2010.05.17/outbox.cif.g08.bks.cpg/sg29_2_cif.got.tgz:2322.got - 2010.06.04 01:19:37.
