data_PCOD9341229
_publ_section_title
;
Structure prediction by ZEFSAII (Michael W. Deem and Ramdas Pophale) SiO2 
 PCOD9341229
Probable space group: P C A 21
;
_chemical_formula_sum "Si O2"
_cell_formula_units_Z 28
_cell_length_a 14.208585
_cell_length_b 6.954682
_cell_length_c 12.661679
_cell_angle_alpha 90.000000
_cell_angle_beta 90.000000
_cell_angle_gamma 90.000000
_cell_volume 1251.178882
_symmetry_space_group_name_H-M "P C A 21"
_symmetry_group_IT_number 29
_symmetry_cell_setting 'orthorhombic'
loop_
_space_group_symop_operation_xyz
x,y,z
-x,-y,1/2+z
1/2-x,y,1/2+z
1/2+x,-y,z
loop_
_atom_site_type_symbol
_atom_site_label
_atom_site_fract_x
_atom_site_fract_y
_atom_site_fract_z
Si Si1 0.176153 0.159898 0.980510
Si Si2 0.060590 0.569954 0.213352
Si Si3 0.282051 0.833695 0.328021
Si Si4 0.520483 0.324505 0.443870
Si Si5 0.560040 0.211569 0.655548
Si Si6 0.318184 0.447275 0.886602
Si Si7 0.120859 0.959209 0.183670
O O1 0.264449 0.273242 0.936647
O O2 0.162893 0.976546 0.904762
O O3 0.087605 0.304426 0.974276
O O4 0.179432 0.078234 0.097643
O O5 0.022910 0.689502 0.316402
O O6 0.144123 0.441379 0.265580
O O7 0.100431 0.741015 0.142691
O O8 0.984011 0.425401 0.169652
O O9 0.347469 0.798114 0.226032
O O10 0.248299 0.636862 0.383656
O O11 0.186252 0.932036 0.285546
O O12 0.570068 0.182473 0.528873
O O13 0.586004 0.512634 0.451407
O O14 0.478726 0.067101 0.695028
#
# Coordination Sequence:
#
# PCOD9341229 Si02
#       7
#     4   4   4   4   4   4   4
#     4  11  22  43  65  98 127 172 221 269 340 387
#     4   9  20  42  62  89 131 168 207 268 327 384
#     4  11  24  39  70  93 130 174 217 271 330 394
#     4   9  22  42  63  92 132 164 215 271 319 392
#     4  11  22  41  65  96 125 172 220 262 335 389
#     4   9  22  44  61  92 130 168 213 275 326 394
#     4  10  24  41  62  96 131 164 219 276 315 400
#
# _framework density 22.378893000000001
#
# number of rings (size 3 to 8) (size 9 to 14) (size 15 to 20)
#    0.857    1.143    0.000    2.571    2.000    3.429 
#   12.857    0.000    0.000    0.000    0.000    0.000 
#    0.000    0.000    0.000    0.000    0.000    0.000 
#
# Total GULP energy -155937.301820 kJ/mol
# GULP energy per Si atom -5569.189351 kJ/mol
# Density = 2.232796 g / cm^3
# Si number density = 22.378893 Si / 1000 Ang^3
#
#
#
# Elastic Constant Matrix: (Units=GPa)
#
#
# Indices 1 2 3 4 5 6 
#
# 1 44.3355 17.2316 9.2103 0.0000 0.0000 0.0000
# 2 17.2316 68.9874 37.2241 0.0000 0.0000 0.0000
# 3 9.2103 37.2241 61.9666 0.0000 0.0000 0.0000
# 4 0.0000 0.0000 0.0000 22.7845 0.0000 0.0000
# 5 0.0000 0.0000 0.0000 0.0000 24.4039 0.0000
# 6 0.0000 0.0000 0.0000 0.0000 0.0000 19.1571
#
#
#
# Elastic Compliance Matrix: (Units=1/GPa)
#
#
# Indices 1 2 3 4 5 6 
#
# 1 0.024980 -0.006268 0.000052 0.000000 0.000000 0.000000
# 2 -0.006268 0.023020 -0.012897 0.000000 0.000000 0.000000
# 3 0.000052 -0.012897 0.023877 0.000000 0.000000 0.000000
# 4 0.000000 0.000000 0.000000 0.043889 0.000000 0.000000
# 5 0.000000 0.000000 0.000000 0.000000 0.040977 0.000000
# 6 0.000000 0.000000 0.000000 0.000000 0.000000 0.052200
#
#
# Mechanical properties :
#
#
# Convention : Reuss Voigt Hill
#
# Bulk Modulus (GPa) = 29.71510 33.62462 31.66986
# Shear Modulus (GPa) = 19.35091 20.71068 20.03079
#
# Velocity S-wave (km/s) = 2.94376 3.04543 2.99503
# Velocity P-wave (km/s) = 4.98611 5.23679 5.11299
#
# Compressibility (1/GPa) = 0.03365292
#
# Stress axis : x y z
#
# Youngs Moduli (GPa) = 40.03125 43.44104 41.88100
#
# Poissons Ratio (x) = 0.27228 -0.00219
# Poissons Ratio (y) = 0.25091 0.54012
# Poissons Ratio (z) = -0.00209 0.56024
#
# Static dielectric constant tensor:
#      x y z
#    x 1.810220 0.000000 0.000000 
#    y 0.000000 1.857740 0.000000 
#    z 0.000000 0.000000 1.909120 
# 
# From -- ./inp_files/4661.got.cif
#   From: 2010.05.17/outbox.cif.g08.bks.cpg/sg29_3_cif.got.tgz:4661.got - 2010.06.04 01:19:37.
