data_PCOD9341777
_publ_section_title
;
Structure prediction by ZEFSAII (Michael W. Deem and Ramdas Pophale) SiO2 
 PCOD9341777
Probable space group: P C A 21
;
_chemical_formula_sum "Si O2"
_cell_formula_units_Z 32
_cell_length_a 12.000000
_cell_length_b 9.000000
_cell_length_c 15.000000
_cell_angle_alpha 90.000000
_cell_angle_beta 90.000000
_cell_angle_gamma 90.000000
_cell_volume 1620.000000
_symmetry_space_group_name_H-M "P C A 21"
_symmetry_group_IT_number 29
_symmetry_cell_setting 'orthorhombic'
loop_
_space_group_symop_operation_xyz
x,y,z
-x,-y,1/2+z
1/2-x,y,1/2+z
1/2+x,-y,z
loop_
_atom_site_type_symbol
_atom_site_label
_atom_site_fract_x
_atom_site_fract_y
_atom_site_fract_z
Si Si1 0.010302 0.721656 0.807290
Si Si2 0.423389 0.391525 0.377371
Si Si3 0.675492 0.112672 0.049160
Si Si4 0.355445 0.804672 0.915508
Si Si5 0.951521 0.882322 0.976514
Si Si6 0.777347 0.761331 0.528380
Si Si7 0.782750 0.108718 0.240900
Si Si8 0.252897 0.244160 0.739753
O O1 0.046968 0.560862 0.846991
O O2 0.102502 0.795633 0.742059
O O3 0.014948 0.838351 0.887622
O O4 0.880936 0.727351 0.773875
O O5 0.543368 0.309618 0.395268
O O6 0.353033 0.348244 0.467978
O O7 0.340351 0.331360 0.298234
O O8 0.726478 0.132440 0.145850
O O9 0.682228 0.935474 0.023003
O O10 0.749101 0.215658 0.982381
O O11 0.543561 0.141837 0.051660
O O12 0.296540 0.839004 0.821439
O O13 0.410622 0.950075 0.961968
O O14 0.846540 0.775017 0.988186
O O15 0.762314 0.723227 0.633256
O O16 0.785847 0.928696 0.250237
#
# Coordination Sequence:
#
# PCOD9341777 Si02
#       8
#     4   4   4   4   4   4   4   4
#     4  12  26  44  69  96 139 183 225 280 350 418
#     4  12  26  45  63  96 144 179 227 272 350 417
#     4  10  22  39  70 108 129 169 241 284 343 407
#     4  11  22  40  70  93 136 182 219 281 344 404
#     4  11  20  43  67  96 128 172 230 278 340 406
#     4  10  23  42  70  97 134 178 220 292 346 403
#     4  11  24  41  72 101 133 174 234 291 336 401
#     4  11  25  46  69 101 137 177 234 288 347 410
#
# _framework density 19.753086
#
# number of rings (size 3 to 8) (size 9 to 14) (size 15 to 20)
#    0.000    1.000    5.000    1.500    5.250    2.000 
#    4.500    0.000    0.000    0.000    0.000    0.000 
#    0.000    0.000    0.000    0.000    0.000    0.000 
#
# Total GULP energy -178412.350734 kJ/mol
# GULP energy per Si atom -5575.385960 kJ/mol
# Density = 1.970813 g / cm^3
# Si number density = 19.753086 Si / 1000 Ang^3
#
#
#
# Elastic Constant Matrix: (Units=GPa)
#
#
# Indices 1 2 3 4 5 6 
#
# 1 107.6884 19.2086 8.2847 0.0000 0.0000 0.0000
# 2 19.2086 49.1665 5.2231 0.0000 0.0000 0.0000
# 3 8.2847 5.2231 80.2584 0.0000 0.0000 0.0000
# 4 0.0000 0.0000 0.0000 10.5367 0.0000 0.0000
# 5 0.0000 0.0000 0.0000 0.0000 41.4022 0.0000
# 6 0.0000 0.0000 0.0000 0.0000 0.0000 31.1443
#
#
#
# Elastic Compliance Matrix: (Units=1/GPa)
#
#
# Indices 1 2 3 4 5 6 
#
# 1 0.010031 -0.003835 -0.000786 0.000000 0.000000 0.000000
# 2 -0.003835 0.021947 -0.001032 0.000000 0.000000 0.000000
# 3 -0.000786 -0.001032 0.012608 0.000000 0.000000 0.000000
# 4 0.000000 0.000000 0.000000 0.094907 0.000000 0.000000
# 5 0.000000 0.000000 0.000000 0.000000 0.024153 0.000000
# 6 0.000000 0.000000 0.000000 0.000000 0.000000 0.032109
#
#
# Mechanical properties :
#
#
# Convention : Reuss Voigt Hill
#
# Bulk Modulus (GPa) = 30.04921 33.61623 31.83272
# Shear Modulus (GPa) = 22.91954 30.24308 26.58131
#
# Velocity S-wave (km/s) = 3.41002 3.91712 3.67233
# Velocity P-wave (km/s) = 5.54524 6.12483 5.84223
#
# Compressibility (1/GPa) = 0.03327874
#
# Stress axis : x y z
#
# Youngs Moduli (GPa) = 99.69477 45.56405 79.31431
#
# Poissons Ratio (x) = 0.17475 0.06233
# Poissons Ratio (y) = 0.38236 0.08188
# Poissons Ratio (z) = 0.07834 0.04704
#
# Static dielectric constant tensor:
#      x y z
#    x 1.746170 0.000000 0.000000 
#    y 0.000000 1.700730 0.000000 
#    z 0.000000 0.000000 1.720170 
# 
# From -- ./inp_files/4592.got.cif
#   From: 2010.05.17/outbox.ucp.g08.bks.cvg/sg29_3_cif.got.tgz:4592.got - 2010.06.11 15:24:14.
