data_PCOD9341741
_publ_section_title
;
Structure prediction by ZEFSAII (Michael W. Deem and Ramdas Pophale) SiO2 
 PCOD9341741
Probable space group: P C A 21
;
_chemical_formula_sum "Si O2"
_cell_formula_units_Z 20
_cell_length_a 21.891308
_cell_length_b 7.550579
_cell_length_c 5.086679
_cell_angle_alpha 90.000000
_cell_angle_beta 90.000000
_cell_angle_gamma 90.000000
_cell_volume 840.787602
_symmetry_space_group_name_H-M "P C A 21"
_symmetry_group_IT_number 29
_symmetry_cell_setting 'orthorhombic'
loop_
_space_group_symop_operation_xyz
x,y,z
-x,-y,1/2+z
1/2-x,y,1/2+z
1/2+x,-y,z
loop_
_atom_site_type_symbol
_atom_site_label
_atom_site_fract_x
_atom_site_fract_y
_atom_site_fract_z
Si Si1 0.367746 0.296083 0.200930
Si Si2 0.116832 0.667667 0.008201
Si Si3 0.292926 0.977098 0.404109
Si Si4 0.994136 0.878777 0.028523
Si Si5 0.293803 0.523168 0.874221
O O1 0.377749 0.480797 0.356072
O O2 0.250151 0.545930 0.124624
O O3 0.329451 0.159392 0.373771
O O4 0.342546 0.821103 0.376984
O O5 0.148002 0.642188 0.295135
O O6 0.048068 0.734972 0.023424
O O7 0.989520 0.973479 0.746682
O O8 0.431013 0.211433 0.112353
O O9 0.257113 0.963204 0.675970
O O10 0.174025 0.338284 0.446483
#
# Coordination Sequence:
#
# PCOD9341741 Si02
#       5
#     4   4   4   4   4
#     4  12  30  53  85 120 163 217 278 336 409 488
#     4  12  30  53  85 120 163 217 278 336 409 488
#     4  12  30  50  82 120 168 210 262 336 412 486
#     4  12  32  56  82 116 166 218 282 342 408 482
#     4  12  26  46  80 122 162 200 262 330 402 484
#
# _framework density 23.787222
#
# number of rings (size 3 to 8) (size 9 to 14) (size 15 to 20)
#    0.000    0.000    4.000    2.400   16.800    0.000 
#    0.000    0.000    0.000    0.000    0.000    0.000 
#    0.000    0.000    0.000    0.000    0.000    0.000 
#
# Total GULP energy -112112.778852 kJ/mol
# GULP energy per Si atom -5605.638943 kJ/mol
# Density = 2.373308 g / cm^3
# Si number density = 23.787222 Si / 1000 Ang^3
#
#
#
# Elastic Constant Matrix: (Units=GPa)
#
#
# Indices 1 2 3 4 5 6 
#
# 1 73.1901 16.7659 -27.8447 0.0000 0.0000 0.0000
# 2 16.7659 119.9364 5.1073 0.0000 0.0000 0.0000
# 3 -27.8447 5.1073 84.2255 0.0000 0.0000 0.0000
# 4 0.0000 0.0000 0.0000 39.8868 0.0000 0.0000
# 5 0.0000 0.0000 0.0000 0.0000 20.7596 0.0000
# 6 0.0000 0.0000 0.0000 0.0000 0.0000 53.4376
#
#
#
# Elastic Compliance Matrix: (Units=1/GPa)
#
#
# Indices 1 2 3 4 5 6 
#
# 1 0.016356 -0.002523 0.005560 0.000000 0.000000 0.000000
# 2 -0.002523 0.008749 -0.001365 0.000000 0.000000 0.000000
# 3 0.005560 -0.001365 0.013794 0.000000 0.000000 0.000000
# 4 0.000000 0.000000 0.000000 0.025071 0.000000 0.000000
# 5 0.000000 0.000000 0.000000 0.000000 0.048170 0.000000
# 6 0.000000 0.000000 0.000000 0.000000 0.000000 0.018713
#
#
# Mechanical properties :
#
#
# Convention : Reuss Voigt Hill
#
# Bulk Modulus (GPa) = 23.67205 29.48989 26.58097
# Shear Modulus (GPa) = 35.31322 41.70505 38.50913
#
# Velocity S-wave (km/s) = 3.85716 4.19173 4.02792
# Velocity P-wave (km/s) = 5.45986 5.98763 5.72983
#
# Compressibility (1/GPa) = 0.04224392
#
# Stress axis : x y z
#
# Youngs Moduli (GPa) = 61.13787 114.30409 72.49586
#
# Poissons Ratio (x) = 0.28842 -0.40311
# Poissons Ratio (y) = 0.15427 0.09893
# Poissons Ratio (z) = -0.33995 0.15599
#
# Static dielectric constant tensor:
#      x y z
#    x 1.857140 0.000000 0.000000 
#    y 0.000000 1.949200 0.000000 
#    z 0.000000 0.000000 1.939670 
# 
# From -- ./inp_files/1663.got.cif
#   From: 2010.05.17/outbox.cif.g08.bks.cpg/sg29_1_cif.got.tgz:1663.got - 2010.06.04 01:19:37.
