data_PCOD9341921
_publ_section_title
;
Structure prediction by ZEFSAII (Michael W. Deem and Ramdas Pophale) SiO2 
 PCOD9341921
Probable space group: P N C 2
;
_chemical_formula_sum "Si O2"
_cell_formula_units_Z 18
_cell_length_a 7.775509
_cell_length_b 18.145422
_cell_length_c 5.115123
_cell_angle_alpha 90.000000
_cell_angle_beta 90.000000
_cell_angle_gamma 90.000000
_cell_volume 721.692152
_symmetry_space_group_name_H-M "P N C 2"
_symmetry_group_IT_number 30
_symmetry_cell_setting 'orthorhombic'
loop_
_space_group_symop_operation_xyz
x,y,z
-x,-y,z
-x,1/2+y,1/2+z
x,1/2-y,1/2+z
loop_
_atom_site_type_symbol
_atom_site_label
_atom_site_fract_x
_atom_site_fract_y
_atom_site_fract_z
Si Si1 0.224780 0.707523 0.748190
Si Si2 0.934610 0.893562 0.058432
Si Si3 0.784921 0.551288 0.056861
Si Si4 0.500000 0.000000 0.869470
Si Si5 0.408105 0.143702 0.211036
O O1 0.179295 0.772090 0.543815
O O2 0.428119 0.694877 0.719106
O O3 0.112728 0.638789 0.651702
O O4 0.864538 0.953192 0.269991
O O5 0.776543 0.833907 0.086845
O O6 0.924079 0.923865 0.767621
O O7 0.666964 0.489336 0.184953
O O8 0.646295 0.616935 0.001086
O O9 0.466207 0.070523 0.050709
#
# Coordination Sequence:
#
# PCOD9341921 Si02
#       5
#     4   4   4   2   4
#     4  12  27  42  65  94 128 174 224 276 320 389
#     4   9  21  41  60  86 131 163 208 259 322 384
#     4   9  19  38  66  91 126 167 203 261 325 391
#     4  10  18  40  72  96 126 172 200 278 328 400
#     4   9  23  41  68  95 130 165 221 264 338 388
#
# _framework density 24.941382999999998
#
# number of rings (size 3 to 8) (size 9 to 14) (size 15 to 20)
#    1.333    0.889    0.000    2.000    6.222    1.778 
#    0.000    4.444    4.889    0.000    0.000    0.000 
#    0.000    0.000    0.000    0.000    0.000    0.000 
#
# Total GULP energy -100424.025756 kJ/mol
# GULP energy per Si atom -5579.112542 kJ/mol
# Density = 2.488462 g / cm^3
# Si number density = 24.941383 Si / 1000 Ang^3
#
#
#
# Elastic Constant Matrix: (Units=GPa)
#
#
# Indices 1 2 3 4 5 6 
#
# 1 114.7143 16.8970 8.2496 0.0000 0.0000 0.0000
# 2 16.8970 26.2794 13.0012 0.0000 0.0000 0.0000
# 3 8.2496 13.0012 120.6095 0.0000 0.0000 0.0000
# 4 0.0000 0.0000 0.0000 19.4222 0.0000 0.0000
# 5 0.0000 0.0000 0.0000 0.0000 -5.1106 0.0000
# 6 0.0000 0.0000 0.0000 0.0000 0.0000 43.2720
#
#
#
# Elastic Compliance Matrix: (Units=1/GPa)
#
#
# Indices 1 2 3 4 5 6 
#
# 1 0.009629 -0.006196 0.000009 0.000000 0.000000 0.000000
# 2 -0.006196 0.044183 -0.004339 0.000000 0.000000 0.000000
# 3 0.000009 -0.004339 0.008758 0.000000 0.000000 0.000000
# 4 0.000000 0.000000 0.000000 0.051487 0.000000 0.000000
# 5 0.000000 0.000000 0.000000 0.000000 -0.195671 0.000000
# 6 0.000000 0.000000 0.000000 0.000000 0.000000 0.023110
#
#
# Mechanical properties :
#
#
# Convention : Reuss Voigt Hill
#
# Bulk Modulus (GPa) = 24.08515 37.54431 30.81473
# Shear Modulus (GPa) = -211.75661 26.41374 -92.67144
#
# Velocity S-wave (km/s) = -9.22421 3.25781 -6.10216
# Velocity P-wave (km/s) = 10.18677 5.40711 6.10465
#
# Compressibility (1/GPa) = 0.04151936
#
# Stress axis : x y z
#
# Youngs Moduli (GPa) = 103.84983 22.63309 114.17731
#
# Poissons Ratio (x) = 0.14023 -0.00106
# Poissons Ratio (y) = 0.64345 0.49541
# Poissons Ratio (z) = -0.00096 0.09820
#
# Static dielectric constant tensor:
#      x y z
#    x 2.068630 0.000000 0.000000 
#    y 0.000000 2.091480 0.000000 
#    z 0.000000 0.000000 1.959230 
# 
# From -- ./inp_files/386.got.cif
#   From: 2010.05.17/outbox.cif.g08.bks.cpg/sg30_1_cif.got.tgz:386.got - 2010.06.03 17:03:02.
