data_PCOD9341751
_publ_section_title
;
Structure prediction by ZEFSAII (Michael W. Deem and Ramdas Pophale) SiO2 
 PCOD9341751
Probable space group: P C A 21
;
_chemical_formula_sum "Si O2"
_cell_formula_units_Z 32
_cell_length_a 19.126467
_cell_length_b 10.096234
_cell_length_c 6.796247
_cell_angle_alpha 90.000000
_cell_angle_beta 90.000000
_cell_angle_gamma 90.000000
_cell_volume 1312.391224
_symmetry_space_group_name_H-M "P C A 21"
_symmetry_group_IT_number 29
_symmetry_cell_setting 'orthorhombic'
loop_
_space_group_symop_operation_xyz
x,y,z
-x,-y,1/2+z
1/2-x,y,1/2+z
1/2+x,-y,z
loop_
_atom_site_type_symbol
_atom_site_label
_atom_site_fract_x
_atom_site_fract_y
_atom_site_fract_z
Si Si1 0.743747 0.353535 0.188990
Si Si2 0.958809 0.632389 0.429307
Si Si3 0.592558 0.055833 0.894570
Si Si4 0.743747 0.146464 0.951066
Si Si5 0.407442 0.555833 0.745483
Si Si6 0.958809 0.867610 0.710744
Si Si7 0.341184 0.396624 0.102006
Si Si8 0.658816 0.896624 0.538046
O O1 0.739346 0.316502 0.441194
O O2 0.661431 0.379906 0.160874
O O3 0.789582 0.490067 0.188144
O O4 0.038380 0.649420 0.359125
O O5 0.937104 0.750000 0.570026
O O6 0.952103 0.504828 0.568164
O O7 0.904750 0.620956 0.253306
O O8 0.661430 0.120092 0.979181
O O9 0.623522 0.949864 0.738933
O O10 0.538380 0.149421 0.780928
O O11 0.547896 0.995171 0.071886
O O12 0.739345 0.183497 0.698860
O O13 0.789582 0.009933 0.951910
O O14 0.376477 0.449863 0.901118
O O15 0.904750 0.879043 0.886745
O O16 0.308549 0.250000 0.070026
#
# Coordination Sequence:
#
# PCOD9341751 Si02
#       8
#     4   4   4   4   4   4   4   4
#     4  12  27  49  77 112 153 205 257 318 392 466
#     4  12  27  47  77 115 153 206 259 319 391 462
#     4  12  27  48  76 115 157 201 259 322 386 467
#     4  12  27  49  77 112 153 205 257 318 392 466
#     4  12  27  48  76 115 157 201 259 322 386 467
#     4  12  27  47  77 115 153 206 259 319 391 462
#     4  12  27  51  78 113 158 204 261 324 388 462
#     4  12  27  51  78 113 158 204 261 324 388 462
#
# _framework density 24.382974999999998
#
# number of rings (size 3 to 8) (size 9 to 14) (size 15 to 20)
#    0.000    0.000    7.500    1.500    3.500    5.000 
#    0.000    0.000    0.000    0.000    0.000    0.000 
#    0.000    0.000    0.000    0.000    0.000    0.000 
#
# Total GULP energy -178926.312163 kJ/mol
# GULP energy per Si atom -5591.447255 kJ/mol
# Density = 2.432748 g / cm^3
# Si number density = 24.382975 Si / 1000 Ang^3
#
#
#
# Elastic Constant Matrix: (Units=GPa)
#
#
# Indices 1 2 3 4 5 6 
#
# 1 121.3066 37.5176 -0.5370 0.0000 0.0000 0.0000
# 2 37.5176 132.4516 35.6019 0.0000 0.0000 0.0000
# 3 -0.5370 35.6019 90.2260 0.0000 0.0000 0.0000
# 4 0.0000 0.0000 0.0000 59.0557 0.0000 0.0000
# 5 0.0000 0.0000 0.0000 0.0000 -7.5535 0.0000
# 6 0.0000 0.0000 0.0000 0.0000 0.0000 26.6448
#
#
#
# Elastic Compliance Matrix: (Units=1/GPa)
#
#
# Indices 1 2 3 4 5 6 
#
# 1 0.009151 -0.002916 0.001205 0.000000 0.000000 0.000000
# 2 -0.002916 0.009375 -0.003717 0.000000 0.000000 0.000000
# 3 0.001205 -0.003717 0.012557 0.000000 0.000000 0.000000
# 4 0.000000 0.000000 0.000000 0.016933 0.000000 0.000000
# 5 0.000000 0.000000 0.000000 0.000000 -0.132390 0.000000
# 6 0.000000 0.000000 0.000000 0.000000 0.000000 0.037531
#
#
# Mechanical properties :
#
#
# Convention : Reuss Voigt Hill
#
# Bulk Modulus (GPa) = 49.43709 54.34990 51.89350
# Shear Modulus (GPa) = -170.96375 33.72288 -68.62044
#
# Velocity S-wave (km/s) = -8.38262 3.72297 -5.31073
# Velocity P-wave (km/s) = 8.56573 6.38899 4.03439
#
# Compressibility (1/GPa) = 0.02022773
#
# Stress axis : x y z
#
# Youngs Moduli (GPa) = 109.28087 106.66854 79.63725
#
# Poissons Ratio (x) = 0.31103 -0.09597
# Poissons Ratio (y) = 0.31865 0.29597
# Poissons Ratio (z) = -0.13169 0.39644
#
# Static dielectric constant tensor:
#      x y z
#    x 1.821440 0.000000 0.000000 
#    y 0.000000 2.001640 0.000000 
#    z 0.000000 0.000000 2.063780 
# 
# From -- ./inp_files/431.got.cif
#   From: 2010.05.17/outbox.cif.g08.bks.cpg/sg29_1_cif.got.tgz:431.got - 2010.06.04 01:19:37.
