data_PCOD9341893
_publ_section_title
;
Structure prediction by ZEFSAII (Michael W. Deem and Ramdas Pophale) SiO2 
 PCOD9341893
Probable space group: P N C 2
;
_chemical_formula_sum "Si O2"
_cell_formula_units_Z 30
_cell_length_a 8.201657
_cell_length_b 20.247694
_cell_length_c 9.952342
_cell_angle_alpha 90.000000
_cell_angle_beta 90.000000
_cell_angle_gamma 90.000000
_cell_volume 1652.732104
_symmetry_space_group_name_H-M "P N C 2"
_symmetry_group_IT_number 30
_symmetry_cell_setting 'orthorhombic'
loop_
_space_group_symop_operation_xyz
x,y,z
-x,-y,z
-x,1/2+y,1/2+z
x,1/2-y,1/2+z
loop_
_atom_site_type_symbol
_atom_site_label
_atom_site_fract_x
_atom_site_fract_y
_atom_site_fract_z
Si Si1 0.608783 0.866255 0.279710
Si Si2 0.204432 0.185717 0.514856
Si Si3 0.626098 0.825867 0.983701
Si Si4 0.500000 0.500000 0.918405
Si Si5 0.844071 0.189183 0.631991
Si Si6 0.330702 0.089220 0.739959
Si Si7 0.657123 0.257653 0.872082
Si Si8 0.305768 0.550135 0.168458
O O1 0.767611 0.841097 0.363178
O O2 0.467849 0.812032 0.312352
O O3 0.561226 0.938144 0.333324
O O4 0.623790 0.866366 0.120358
O O5 0.289045 0.256701 0.518017
O O6 0.297165 0.133029 0.608709
O O7 0.027434 0.194411 0.578681
O O8 0.713476 0.866929 0.867288
O O9 0.451551 0.804054 0.922893
O O10 0.360331 0.527859 0.018501
O O11 0.785382 0.232917 0.759538
O O12 0.735595 0.210748 0.504463
O O13 0.810158 0.112650 0.666169
O O14 0.523872 0.072687 0.736915
O O15 0.245390 0.017906 0.734342
#
# Coordination Sequence:
#
# PCOD9341893 Si02
#       8
#     4   4   4   2   4   4   4   4
#     4  11  21  39  60  88 118 155 196 251 304 354
#     4  11  23  37  62  86 123 159 194 246 305 369
#     4  11  22  37  60  90 120 151 198 256 305 353
#     4  10  18  36  62  82 112 152 208 238 282 360
#     4  12  24  38  60  91 121 156 200 249 311 360
#     4  10  20  39  61  86 112 160 203 246 293 358
#     4  11  22  39  58  89 117 156 197 253 298 362
#     4  10  19  39  62  83 114 154 212 248 277 371
#
# _framework density 18.151762000000002
#
# number of rings (size 3 to 8) (size 9 to 14) (size 15 to 20)
#    0.000    1.333    6.667    2.400    3.733    1.600 
#    0.000    0.000    0.000    0.000    3.467    0.000 
#    0.000    0.000    0.000    0.000    0.000    0.000 
#
# Total GULP energy -167346.601245 kJ/mol
# GULP energy per Si atom -5578.220042 kJ/mol
# Density = 1.811045 g / cm^3
# Si number density = 18.151762 Si / 1000 Ang^3
#
#
#
# Elastic Constant Matrix: (Units=GPa)
#
#
# Indices 1 2 3 4 5 6 
#
# 1 51.6191 15.0342 4.4250 0.0000 0.0000 0.0000
# 2 15.0342 99.6324 23.5750 0.0000 0.0000 0.0000
# 3 4.4250 23.5750 75.0012 0.0000 0.0000 0.0000
# 4 0.0000 0.0000 0.0000 6.3807 0.0000 0.0000
# 5 0.0000 0.0000 0.0000 0.0000 17.5323 0.0000
# 6 0.0000 0.0000 0.0000 0.0000 0.0000 5.7090
#
#
#
# Elastic Compliance Matrix: (Units=1/GPa)
#
#
# Indices 1 2 3 4 5 6 
#
# 1 0.020268 -0.002998 -0.000253 0.000000 0.000000 0.000000
# 2 -0.002998 0.011287 -0.003371 0.000000 0.000000 0.000000
# 3 -0.000253 -0.003371 0.014408 0.000000 0.000000 0.000000
# 4 0.000000 0.000000 0.000000 0.156723 0.000000 0.000000
# 5 0.000000 0.000000 0.000000 0.000000 0.057038 0.000000
# 6 0.000000 0.000000 0.000000 0.000000 0.000000 0.175163
#
#
# Mechanical properties :
#
#
# Convention : Reuss Voigt Hill
#
# Bulk Modulus (GPa) = 30.56504 34.70232 32.63368
# Shear Modulus (GPa) = 10.89239 18.13896 14.51568
#
# Velocity S-wave (km/s) = 2.45230 3.16459 2.83094
# Velocity P-wave (km/s) = 4.98934 5.70195 5.35751
#
# Compressibility (1/GPa) = 0.03271711
#
# Stress axis : x y z
#
# Youngs Moduli (GPa) = 49.33963 88.59774 69.40764
#
# Poissons Ratio (x) = 0.26565 0.01758
# Poissons Ratio (y) = 0.14794 0.23397
# Poissons Ratio (z) = 0.01250 0.29865
#
# Static dielectric constant tensor:
#      x y z
#    x 1.651070 0.000000 0.000000 
#    y 0.000000 1.629060 0.000000 
#    z 0.000000 0.000000 1.622290 
# 
# From -- ./inp_files/2103.got.cif
#   From: 2010.05.17/outbox.cif.g08.bks.cpg/sg30_2_cif.got.tgz:2103.got - 2010.06.03 17:03:02.
