data_PCOD9341974
_publ_section_title
;
Structure prediction by ZEFSAII (Michael W. Deem and Ramdas Pophale) SiO2 
 PCOD9341974
Probable space group: P N C 2
;
_chemical_formula_sum "Si O2"
_cell_formula_units_Z 32
_cell_length_a 8.297044
_cell_length_b 11.409883
_cell_length_c 15.223469
_cell_angle_alpha 90.000000
_cell_angle_beta 90.000000
_cell_angle_gamma 90.000000
_cell_volume 1441.179950
_symmetry_space_group_name_H-M "P N C 2"
_symmetry_group_IT_number 30
_symmetry_cell_setting 'orthorhombic'
loop_
_space_group_symop_operation_xyz
x,y,z
-x,-y,z
-x,1/2+y,1/2+z
x,1/2-y,1/2+z
loop_
_atom_site_type_symbol
_atom_site_label
_atom_site_fract_x
_atom_site_fract_y
_atom_site_fract_z
Si Si1 0.195415 0.701177 0.832570
Si Si2 0.513761 0.642028 0.353336
Si Si3 0.328403 0.501668 0.940574
Si Si4 0.109120 0.782661 0.151280
Si Si5 0.010147 0.635492 0.464654
Si Si6 0.324616 0.245399 0.011467
Si Si7 0.244089 0.183856 0.695156
Si Si8 0.328038 0.944675 0.637527
O O1 0.354865 0.784189 0.827777
O O2 0.209666 0.586349 0.892018
O O3 0.162827 0.647257 0.736772
O O4 0.068755 0.786031 0.882782
O O5 0.500000 0.500000 0.352372
O O6 0.542108 0.683336 0.453187
O O7 0.660208 0.682931 0.287733
O O8 0.500000 0.500000 0.891508
O O9 0.284241 0.370512 0.966305
O O10 0.357082 0.563048 0.034025
O O11 0.230973 0.672627 0.156122
O O12 0.926983 0.745808 0.179868
O O13 0.112244 0.838651 0.054226
O O14 0.000000 0.500000 0.439438
O O15 0.833237 0.669790 0.496311
O O16 0.355451 0.266779 0.114608
O O17 0.212621 0.049231 0.668427
O O18 0.500000 0.000000 0.671557
#
# Coordination Sequence:
#
# PCOD9341974 Si02
#       8
#     4   4   4   4   4   4   4   4
#     4  12  24  40  70  99 132 178 224 277 336 404
#     4  12  24  41  66 102 133 177 226 281 341 405
#     4  10  20  41  66  96 127 164 222 280 328 389
#     4  11  23  41  65  99 136 178 224 271 341 405
#     4  11  25  47  65  97 139 179 222 278 340 414
#     4  10  23  44  70  91 132 178 220 280 336 393
#     4  10  22  39  64  96 133 176 225 277 329 396
#     4  10  19  36  67  95 127 166 222 283 323 381
#
# _framework density 22.204028999999998
#
# number of rings (size 3 to 8) (size 9 to 14) (size 15 to 20)
#    0.000    1.250    2.500    3.750    0.000    3.000 
#    6.750    0.000    0.000    0.000    0.000    0.000 
#    0.000    0.000    0.000    0.000    0.000    0.000 
#
# Total GULP energy -178323.876092 kJ/mol
# GULP energy per Si atom -5572.621128 kJ/mol
# Density = 2.215349 g / cm^3
# Si number density = 22.204029 Si / 1000 Ang^3
#
#
#
# Elastic Constant Matrix: (Units=GPa)
#
#
# Indices 1 2 3 4 5 6 
#
# 1 35.1074 -12.2177 -8.7674 0.0000 0.0000 0.0000
# 2 -12.2177 45.1778 -7.4651 0.0000 0.0000 0.0000
# 3 -8.7674 -7.4651 78.6060 0.0000 0.0000 0.0000
# 4 0.0000 0.0000 0.0000 58.1553 0.0000 0.0000
# 5 0.0000 0.0000 0.0000 0.0000 -35.8215 0.0000
# 6 0.0000 0.0000 0.0000 0.0000 0.0000 21.6457
#
#
#
# Elastic Compliance Matrix: (Units=1/GPa)
#
#
# Indices 1 2 3 4 5 6 
#
# 1 0.033004 0.009686 0.004601 0.000000 0.000000 0.000000
# 2 0.009686 0.025330 0.003486 0.000000 0.000000 0.000000
# 3 0.004601 0.003486 0.013566 0.000000 0.000000 0.000000
# 4 0.000000 0.000000 0.000000 0.017195 0.000000 0.000000
# 5 0.000000 0.000000 0.000000 0.000000 -0.027916 0.000000
# 6 0.000000 0.000000 0.000000 0.000000 0.000000 0.046199
#
#
# Mechanical properties :
#
#
# Convention : Reuss Voigt Hill
#
# Bulk Modulus (GPa) = 9.30714 11.33232 10.31973
# Shear Modulus (GPa) = 46.44793 21.28532 33.86662
#
# Velocity S-wave (km/s) = 4.57866 3.09952 3.90968
# Velocity P-wave (km/s) = 5.67035 4.23370 5.00385
#
# Compressibility (1/GPa) = 0.10744443
#
# Stress axis : x y z
#
# Youngs Moduli (GPa) = 30.29968 39.47872 73.71423
#
# Poissons Ratio (x) = -0.38237 -0.33915
# Poissons Ratio (y) = -0.29347 -0.25696
# Poissons Ratio (z) = -0.13941 -0.13762
#
# Static dielectric constant tensor:
#      x y z
#    x 1.771100 0.000000 0.000000 
#    y 0.000000 1.738000 0.000000 
#    z 0.000000 0.000000 1.900630 
# 
# From -- ./inp_files/5232.got.cif
#   From: 2010.05.17/outbox.cif.g08.bks.cpg/sg30_3_cif.got.tgz:5232.got - 2010.06.03 17:03:02.
