data_PCOD9341940
_publ_section_title
;
Structure prediction by ZEFSAII (Michael W. Deem and Ramdas Pophale) SiO2 
 PCOD9341940
Probable space group: P N C 2
;
_chemical_formula_sum "Si O2"
_cell_formula_units_Z 16
_cell_length_a 22.264169
_cell_length_b 5.781068
_cell_length_c 4.969899
_cell_angle_alpha 90.000000
_cell_angle_beta 90.000000
_cell_angle_gamma 90.000000
_cell_volume 639.679055
_symmetry_space_group_name_H-M "P N C 2"
_symmetry_group_IT_number 30
_symmetry_cell_setting 'orthorhombic'
loop_
_space_group_symop_operation_xyz
x,y,z
-x,-y,z
-x,1/2+y,1/2+z
x,1/2-y,1/2+z
loop_
_atom_site_type_symbol
_atom_site_label
_atom_site_fract_x
_atom_site_fract_y
_atom_site_fract_z
Si Si1 0.311326 0.582932 0.320030
Si Si2 0.434737 0.600193 0.466244
Si Si3 0.937695 0.880042 0.793623
Si Si4 0.187474 0.600524 0.464643
O O1 0.311302 0.801899 0.527745
O O2 0.374700 0.460706 0.382569
O O3 0.247859 0.461979 0.382319
O O4 0.500000 0.500000 0.408742
O O5 0.431526 0.672909 0.776079
O O6 0.937486 0.852029 0.473224
O O7 0.876165 0.994782 0.889074
O O8 0.000000 0.000000 0.871934
O O9 0.190324 0.671508 0.774654
#
# Coordination Sequence:
#
# PCOD9341940 Si02
#       4
#     4   4   4   4
#     4   8  16  30  51  73  99 134 172 206 252 312
#     4  10  19  33  51  75 103 137 175 214 256 306
#     4  12  24  39  57  81 109 139 172 212 256 306
#     4  10  19  36  58  79 102 136 175 214 256 306
#
# _framework density 25.012544999999999
#
# number of rings (size 3 to 8) (size 9 to 14) (size 15 to 20)
#    0.000    2.000    0.000    4.500    0.000    0.000 
#    0.000    2.500    0.000    0.000    0.000    0.000 
#    0.000    0.000    0.000    0.000    0.000    0.000 
#
# Total GULP energy -89333.802757 kJ/mol
# GULP energy per Si atom -5583.362672 kJ/mol
# Density = 2.495562 g / cm^3
# Si number density = 25.012545 Si / 1000 Ang^3
#
#
#
# Elastic Constant Matrix: (Units=GPa)
#
#
# Indices 1 2 3 4 5 6 
#
# 1 290.9372 24.5952 13.4734 0.0000 0.0000 0.0000
# 2 24.5952 8.3317 6.2173 0.0000 0.0000 0.0000
# 3 13.4734 6.2173 104.6909 0.0000 0.0000 0.0000
# 4 0.0000 0.0000 0.0000 28.1019 0.0000 0.0000
# 5 0.0000 0.0000 0.0000 0.0000 42.9307 0.0000
# 6 0.0000 0.0000 0.0000 0.0000 0.0000 22.9463
#
#
#
# Elastic Compliance Matrix: (Units=1/GPa)
#
#
# Indices 1 2 3 4 5 6 
#
# 1 0.004585 -0.013702 0.000224 0.000000 0.000000 0.000000
# 2 -0.013702 0.166536 -0.008127 0.000000 0.000000 0.000000
# 3 0.000224 -0.008127 0.010006 0.000000 0.000000 0.000000
# 4 0.000000 0.000000 0.000000 0.035585 0.000000 0.000000
# 5 0.000000 0.000000 0.000000 0.000000 0.023293 0.000000
# 6 0.000000 0.000000 0.000000 0.000000 0.000000 0.043580
#
#
# Mechanical properties :
#
#
# Convention : Reuss Voigt Hill
#
# Bulk Modulus (GPa) = 7.25076 54.72576 30.98826
# Shear Modulus (GPa) = 13.41315 42.77403 28.09359
#
# Velocity S-wave (km/s) = 2.31823 4.13983 3.35502
# Velocity P-wave (km/s) = 3.17345 6.69161 5.23681
#
# Compressibility (1/GPa) = 0.13791662
#
# Stress axis : x y z
#
# Youngs Moduli (GPa) = 218.09411 6.00469 99.94228
#
# Poissons Ratio (x) = 0.08228 -0.02235
# Poissons Ratio (y) = 2.98839 0.81220
# Poissons Ratio (z) = -0.04878 0.04880
#
# Static dielectric constant tensor:
#      x y z
#    x 2.117680 0.000000 0.000000 
#    y 0.000000 2.029000 0.000000 
#    z 0.000000 0.000000 1.892150 
# 
# From -- ./inp_files/873.got.cif
#   From: 2010.05.17/outbox.cif.g08.bks.cpg/sg30_1_cif.got.tgz:873.got - 2010.06.03 17:03:02.
