data_PCOD9341549
_publ_section_title
;
Structure prediction by ZEFSAII (Michael W. Deem and Ramdas Pophale) SiO2 
 PCOD9341549
Probable space group: P C A 21
;
_chemical_formula_sum "Si O2"
_cell_formula_units_Z 32
_cell_length_a 19.274068
_cell_length_b 6.836931
_cell_length_c 11.103223
_cell_angle_alpha 90.000000
_cell_angle_beta 90.000000
_cell_angle_gamma 90.000000
_cell_volume 1463.132463
_symmetry_space_group_name_H-M "P C A 21"
_symmetry_group_IT_number 29
_symmetry_cell_setting 'orthorhombic'
loop_
_space_group_symop_operation_xyz
x,y,z
-x,-y,1/2+z
1/2-x,y,1/2+z
1/2+x,-y,z
loop_
_atom_site_type_symbol
_atom_site_label
_atom_site_fract_x
_atom_site_fract_y
_atom_site_fract_z
Si Si1 0.518224 0.995742 0.196970
Si Si2 0.101231 0.390215 0.151152
Si Si3 0.015780 0.690000 0.999821
Si Si4 0.616850 0.254132 0.331125
Si Si5 0.125636 0.486976 0.546874
Si Si6 0.104946 0.750527 0.763900
Si Si7 0.756092 0.014965 0.292535
Si Si8 0.740620 0.773552 0.043550
O O1 0.565350 0.803414 0.201340
O O2 0.439103 0.927237 0.203998
O O3 0.531683 0.115573 0.075379
O O4 0.545636 0.141898 0.300281
O O5 0.045454 0.503635 0.070717
O O6 0.120959 0.545769 0.254053
O O7 0.167462 0.327930 0.073462
O O8 0.933701 0.657176 0.997513
O O9 0.057095 0.700281 0.877078
O O10 0.621895 0.316691 0.468317
O O11 0.681767 0.121134 0.296075
O O12 0.110900 0.559139 0.681412
O O13 0.199527 0.387552 0.534095
O O14 0.180917 0.830307 0.794625
O O15 0.758122 0.900963 0.164157
O O16 0.762011 0.887799 0.415800
#
# Coordination Sequence:
#
# PCOD9341549 Si02
#       8
#     4   4   4   4   4   4   4   4
#     4  11  24  48  73 104 142 196 242 299 367 446
#     4  11  23  48  74 106 141 199 238 300 371 446
#     4  11  27  44  73 104 146 188 247 298 374 441
#     4  11  26  45  76 101 149 191 244 296 374 444
#     4  12  27  46  72 112 149 192 247 315 371 442
#     4  12  27  44  74 106 150 187 251 308 369 445
#     4  12  27  47  72 111 148 197 250 310 368 446
#     4  12  27  46  78 106 153 198 251 308 378 444
#
# _framework density 21.870885000000001
#
# number of rings (size 3 to 8) (size 9 to 14) (size 15 to 20)
#    0.000    0.500    2.500    4.500   10.500    1.000 
#    0.000    0.000    0.000    0.000    0.000    0.000 
#    0.000    0.000    0.000    0.000    0.000    0.000 
#
# Total GULP energy -179112.424511 kJ/mol
# GULP energy per Si atom -5597.263266 kJ/mol
# Density = 2.182111 g / cm^3
# Si number density = 21.870885 Si / 1000 Ang^3
#
#
#
# Elastic Constant Matrix: (Units=GPa)
#
#
# Indices 1 2 3 4 5 6 
#
# 1 73.9786 -3.7655 -14.8044 0.0000 0.0000 0.0000
# 2 -3.7655 66.5644 15.5267 0.0000 0.0000 0.0000
# 3 -14.8044 15.5267 85.8538 0.0000 0.0000 0.0000
# 4 0.0000 0.0000 0.0000 36.4653 0.0000 0.0000
# 5 0.0000 0.0000 0.0000 0.0000 26.4761 0.0000
# 6 0.0000 0.0000 0.0000 0.0000 0.0000 37.7454
#
#
#
# Elastic Compliance Matrix: (Units=1/GPa)
#
#
# Indices 1 2 3 4 5 6 
#
# 1 0.014004 0.000239 0.002372 0.000000 0.000000 0.000000
# 2 0.000239 0.015689 -0.002796 0.000000 0.000000 0.000000
# 3 0.002372 -0.002796 0.012562 0.000000 0.000000 0.000000
# 4 0.000000 0.000000 0.000000 0.027423 0.000000 0.000000
# 5 0.000000 0.000000 0.000000 0.000000 0.037770 0.000000
# 6 0.000000 0.000000 0.000000 0.000000 0.000000 0.026493
#
#
# Mechanical properties :
#
#
# Convention : Reuss Voigt Hill
#
# Bulk Modulus (GPa) = 23.87528 24.47895 24.17711
# Shear Modulus (GPa) = 33.72129 35.43335 34.57732
#
# Velocity S-wave (km/s) = 3.93088 4.02943 3.98046
# Velocity P-wave (km/s) = 5.61628 5.73282 5.67485
#
# Compressibility (1/GPa) = 0.04188432
#
# Stress axis : x y z
#
# Youngs Moduli (GPa) = 71.40721 63.73978 79.60295
#
# Poissons Ratio (x) = -0.01523 -0.18879
# Poissons Ratio (y) = -0.01707 0.22258
# Poissons Ratio (z) = -0.16935 0.17822
#
# Static dielectric constant tensor:
#      x y z
#    x 1.753890 0.000000 0.000000 
#    y 0.000000 1.785490 0.000000 
#    z 0.000000 0.000000 1.833860 
# 
# From -- ./inp_files/3820.got.cif
#   From: 2010.05.17/outbox.cif.g08.bks.cpg/sg29_2_cif.got.tgz:3820.got - 2010.06.04 01:19:37.
