data_PCOD9341515
_publ_section_title
;
Structure prediction by ZEFSAII (Michael W. Deem and Ramdas Pophale) SiO2 
 PCOD9341515
Probable space group: P C A 21
;
_chemical_formula_sum "Si O2"
_cell_formula_units_Z 16
_cell_length_a 9.266967
_cell_length_b 7.651578
_cell_length_c 8.801557
_cell_angle_alpha 90.000000
_cell_angle_beta 90.000000
_cell_angle_gamma 90.000000
_cell_volume 624.091305
_symmetry_space_group_name_H-M "P C A 21"
_symmetry_group_IT_number 29
_symmetry_cell_setting 'orthorhombic'
loop_
_space_group_symop_operation_xyz
x,y,z
-x,-y,1/2+z
1/2-x,y,1/2+z
1/2+x,-y,z
loop_
_atom_site_type_symbol
_atom_site_label
_atom_site_fract_x
_atom_site_fract_y
_atom_site_fract_z
Si Si1 0.376377 0.001298 0.477530
Si Si2 0.868866 0.839681 0.804527
Si Si3 0.322018 0.626622 0.595293
Si Si4 0.053706 0.497183 0.797366
O O1 0.530891 0.954290 0.412640
O O2 0.301352 0.813065 0.512553
O O3 0.291044 0.118126 0.357197
O O4 0.385865 0.102448 0.633239
O O5 0.931425 0.646733 0.818353
O O6 0.179036 0.562648 0.682136
O O7 0.374071 0.491345 0.464095
O O8 0.455978 0.647715 0.713705
#
# Coordination Sequence:
#
# PCOD9341515 Si02
#       4
#     4   4   4   4
#     4  11  23  43  66  96 135 180 232 290 347 411
#     4  11  24  42  68  98 132 180 232 288 348 412
#     4  11  24  44  66 100 139 182 231 288 345 414
#     4  11  25  43  68  98 136 182 231 286 346 411
#
# _framework density 25.637271999999999
#
# number of rings (size 3 to 8) (size 9 to 14) (size 15 to 20)
#    0.000    1.000    0.000    7.500    0.000   10.000 
#    0.000    0.000    0.000    0.000    0.000    0.000 
#    0.000    0.000    0.000    0.000    0.000    0.000 
#
# Total GULP energy -89709.006117 kJ/mol
# GULP energy per Si atom -5606.812882 kJ/mol
# Density = 2.557892 g / cm^3
# Si number density = 25.637272 Si / 1000 Ang^3
#
#
#
# Elastic Constant Matrix: (Units=GPa)
#
#
# Indices 1 2 3 4 5 6 
#
# 1 84.3189 30.5305 -6.5780 0.0000 0.0000 0.0000
# 2 30.5305 66.8589 22.1375 0.0000 0.0000 0.0000
# 3 -6.5780 22.1375 95.3530 0.0000 0.0000 0.0000
# 4 0.0000 0.0000 0.0000 22.8872 0.0000 0.0000
# 5 0.0000 0.0000 0.0000 0.0000 39.3866 0.0000
# 6 0.0000 0.0000 0.0000 0.0000 0.0000 36.5012
#
#
#
# Elastic Compliance Matrix: (Units=1/GPa)
#
#
# Indices 1 2 3 4 5 6 
#
# 1 0.014878 -0.007728 0.002820 0.000000 0.000000 0.000000
# 2 -0.007728 0.020216 -0.005227 0.000000 0.000000 0.000000
# 3 0.002820 -0.005227 0.011895 0.000000 0.000000 0.000000
# 4 0.000000 0.000000 0.000000 0.043693 0.000000 0.000000
# 5 0.000000 0.000000 0.000000 0.000000 0.025389 0.000000
# 6 0.000000 0.000000 0.000000 0.000000 0.000000 0.027396
#
#
# Mechanical properties :
#
#
# Convention : Reuss Voigt Hill
#
# Bulk Modulus (GPa) = 37.42268 37.63452 37.52860
# Shear Modulus (GPa) = 28.96157 33.11772 31.03965
#
# Velocity S-wave (km/s) = 3.36470 3.59803 3.48332
# Velocity P-wave (km/s) = 5.45193 5.65443 5.55411
#
# Compressibility (1/GPa) = 0.02672176
#
# Stress axis : x y z
#
# Youngs Moduli (GPa) = 67.21406 49.46529 84.06652
#
# Poissons Ratio (x) = 0.38225 -0.23711
# Poissons Ratio (y) = 0.51941 0.43938
# Poissons Ratio (z) = -0.18957 0.25853
#
# Static dielectric constant tensor:
#      x y z
#    x 1.911770 0.000000 0.000000 
#    y 0.000000 2.041780 0.000000 
#    z 0.000000 0.000000 1.989600 
# 
# From -- ./inp_files/1025.got.cif
#   From: 2010.05.17/outbox.cif.g08.bks.cpg/sg29_1_cif.got.tgz:1025.got - 2010.06.04 01:19:37.
