data_PCOD9341950
_publ_section_title
;
Structure prediction by ZEFSAII (Michael W. Deem and Ramdas Pophale) SiO2 
 PCOD9341950
Probable space group: P N C 2
;
_chemical_formula_sum "Si O2"
_cell_formula_units_Z 28
_cell_length_a 8.340939
_cell_length_b 19.074195
_cell_length_c 9.588302
_cell_angle_alpha 90.000000
_cell_angle_beta 90.000000
_cell_angle_gamma 90.000000
_cell_volume 1525.467178
_symmetry_space_group_name_H-M "P N C 2"
_symmetry_group_IT_number 30
_symmetry_cell_setting 'orthorhombic'
loop_
_space_group_symop_operation_xyz
x,y,z
-x,-y,z
-x,1/2+y,1/2+z
x,1/2-y,1/2+z
loop_
_atom_site_type_symbol
_atom_site_label
_atom_site_fract_x
_atom_site_fract_y
_atom_site_fract_z
Si Si1 0.893658 0.698686 0.230300
Si Si2 0.361742 0.647664 0.616310
Si Si3 0.701662 0.357829 0.928350
Si Si4 0.407262 0.572490 0.347267
Si Si5 0.109359 0.565692 0.162471
Si Si6 0.071194 0.726064 0.499009
Si Si7 0.475431 0.198764 0.647083
O O1 0.711914 0.700142 0.180075
O O2 0.985515 0.628190 0.189319
O O3 0.929295 0.709564 0.392418
O O4 0.992553 0.756358 0.145848
O O5 0.322104 0.619671 0.769802
O O6 0.441709 0.594008 0.507873
O O7 0.201050 0.667043 0.530545
O O8 0.451984 0.722232 0.646514
O O9 0.823580 0.291454 0.940540
O O10 0.778746 0.415129 0.030846
O O11 0.535037 0.332501 0.999124
O O12 0.500000 0.500000 0.313077
O O13 0.225987 0.557628 0.295481
O O14 0.453221 0.643365 0.259907
O O15 0.000000 0.500000 0.134408
#
# Coordination Sequence:
#
# PCOD9341950 Si02
#       7
#     4   4   4   4   4   4   4
#     4  11  21  34  58  93 119 149 202 260 303 354
#     4  11  20  39  60  89 123 165 199 256 321 370
#     4   9  20  37  58  83 115 161 193 244 310 368
#     4  11  23  41  63  89 123 165 207 254 313 379
#     4  10  21  41  62  82 114 163 205 245 302 381
#     4  10  19  34  58  86 119 150 197 252 304 360
#     4  10  22  36  62  90 123 162 208 250 302 383
#
# _framework density 18.355032999999999
#
# number of rings (size 3 to 8) (size 9 to 14) (size 15 to 20)
#    0.000    1.714    2.857    3.429    4.000    0.000 
#    0.000    5.000    0.000    0.000    0.000    0.000 
#    0.000    0.000    0.000    0.000    0.000    0.000 
#
# Total GULP energy -155997.250076 kJ/mol
# GULP energy per Si atom -5571.330360 kJ/mol
# Density = 1.831326 g / cm^3
# Si number density = 18.355033 Si / 1000 Ang^3
#
#
#
# Elastic Constant Matrix: (Units=GPa)
#
#
# Indices 1 2 3 4 5 6 
#
# 1 100.3779 23.2763 13.3091 0.0000 0.0000 0.0000
# 2 23.2763 59.4934 22.3878 0.0000 0.0000 0.0000
# 3 13.3091 22.3878 115.4428 0.0000 0.0000 0.0000
# 4 0.0000 0.0000 0.0000 16.9364 0.0000 0.0000
# 5 0.0000 0.0000 0.0000 0.0000 11.5625 0.0000
# 6 0.0000 0.0000 0.0000 0.0000 0.0000 18.1338
#
#
#
# Elastic Compliance Matrix: (Units=1/GPa)
#
#
# Indices 1 2 3 4 5 6 
#
# 1 0.010980 -0.004120 -0.000467 0.000000 0.000000 0.000000
# 2 -0.004120 0.019678 -0.003341 0.000000 0.000000 0.000000
# 3 -0.000467 -0.003341 0.009364 0.000000 0.000000 0.000000
# 4 0.000000 0.000000 0.000000 0.059044 0.000000 0.000000
# 5 0.000000 0.000000 0.000000 0.000000 0.086486 0.000000
# 6 0.000000 0.000000 0.000000 0.000000 0.000000 0.055146
#
#
# Mechanical properties :
#
#
# Convention : Reuss Voigt Hill
#
# Bulk Modulus (GPa) = 41.38122 43.69562 42.53842
# Shear Modulus (GPa) = 18.89581 23.74926 21.32253
#
# Velocity S-wave (km/s) = 3.21200 3.60096 3.41203
# Velocity P-wave (km/s) = 6.02908 6.41457 6.22481
#
# Compressibility (1/GPa) = 0.02416555
#
# Stress axis : x y z
#
# Youngs Moduli (GPa) = 91.07775 50.81867 106.79123
#
# Poissons Ratio (x) = 0.20937 0.04985
# Poissons Ratio (y) = 0.37524 0.35680
# Poissons Ratio (z) = 0.04252 0.16979
#
# Static dielectric constant tensor:
#      x y z
#    x 1.651530 0.000000 0.000000 
#    y 0.000000 1.618010 0.000000 
#    z 0.000000 0.000000 1.647060 
# 
# From -- ./inp_files/2076.got.cif
#   From: 2010.05.17/outbox.cif.g08.bks.cpg/sg30_2_cif.got.tgz:2076.got - 2010.06.03 17:03:02.
