data_PCOD9341139
_publ_section_title
;
Structure prediction by ZEFSAII (Michael W. Deem and Ramdas Pophale) SiO2 
 PCOD9341139
Probable space group: P C A 21
;
_chemical_formula_sum "Si O2"
_cell_formula_units_Z 20
_cell_length_a 9.244730
_cell_length_b 10.129808
_cell_length_c 8.176430
_cell_angle_alpha 90.000000
_cell_angle_beta 90.000000
_cell_angle_gamma 90.000000
_cell_volume 765.700919
_symmetry_space_group_name_H-M "P C A 21"
_symmetry_group_IT_number 29
_symmetry_cell_setting 'orthorhombic'
loop_
_space_group_symop_operation_xyz
x,y,z
-x,-y,1/2+z
1/2-x,y,1/2+z
1/2+x,-y,z
loop_
_atom_site_type_symbol
_atom_site_label
_atom_site_fract_x
_atom_site_fract_y
_atom_site_fract_z
Si Si1 0.713773 0.001925 0.267600
Si Si2 0.566040 0.636181 0.068989
Si Si3 0.141272 0.443974 0.733894
Si Si4 0.534009 0.895186 0.570102
Si Si5 0.871212 0.269878 0.337838
O O1 0.604167 0.017055 0.116254
O O2 0.760285 0.151166 0.314619
O O3 0.623488 0.944628 0.415537
O O4 0.851936 0.915217 0.216351
O O5 0.725624 0.621838 0.142825
O O6 0.476603 0.503496 0.111812
O O7 0.476145 0.738119 0.178471
O O8 0.576081 0.647151 0.875593
O O9 0.190773 0.581274 0.828051
O O10 0.462953 0.760411 0.501469
#
# Coordination Sequence:
#
# PCOD9341139 Si02
#       5
#     4   4   4   4   4
#     4  12  24  47  72 108 147 187 249 297 361 439
#     4  10  23  43  70 102 140 184 241 292 358 425
#     4  10  23  44  68 100 143 180 242 295 347 435
#     4  12  24  46  72 104 148 189 243 301 355 445
#     4  10  26  42  72 102 144 190 235 295 379 398
#
# _framework density 26.119859999999999
#
# number of rings (size 3 to 8) (size 9 to 14) (size 15 to 20)
#    1.200    0.000    4.000    1.200    2.800    1.600 
#    0.000    0.000    0.000    0.000    0.000    0.000 
#    0.000    0.000    0.000    0.000    0.000    0.000 
#
# Total GULP energy -111937.211711 kJ/mol
# GULP energy per Si atom -5596.860586 kJ/mol
# Density = 2.606041 g / cm^3
# Si number density = 26.119860 Si / 1000 Ang^3
#
#
#
# Elastic Constant Matrix: (Units=GPa)
#
#
# Indices 1 2 3 4 5 6 
#
# 1 49.7617 -22.6024 -3.4597 0.0000 0.0000 0.0000
# 2 -22.6024 95.0128 -5.5728 0.0000 0.0000 0.0000
# 3 -3.4597 -5.5728 50.7313 0.0000 0.0000 0.0000
# 4 0.0000 0.0000 0.0000 40.5226 0.0000 0.0000
# 5 0.0000 0.0000 0.0000 0.0000 31.1841 0.0000
# 6 0.0000 0.0000 0.0000 0.0000 0.0000 8.6961
#
#
#
# Elastic Compliance Matrix: (Units=1/GPa)
#
#
# Indices 1 2 3 4 5 6 
#
# 1 0.022763 0.005542 0.002161 0.000000 0.000000 0.000000
# 2 0.005542 0.011942 0.001690 0.000000 0.000000 0.000000
# 3 0.002161 0.001690 0.020045 0.000000 0.000000 0.000000
# 4 0.000000 0.000000 0.000000 0.024678 0.000000 0.000000
# 5 0.000000 0.000000 0.000000 0.000000 0.032068 0.000000
# 6 0.000000 0.000000 0.000000 0.000000 0.000000 0.114994
#
#
# Mechanical properties :
#
#
# Convention : Reuss Voigt Hill
#
# Bulk Modulus (GPa) = 13.59880 14.69288 14.14584
# Shear Modulus (GPa) = 21.53165 31.22327 26.37746
#
# Velocity S-wave (km/s) = 2.87425 3.46118 3.18128
# Velocity P-wave (km/s) = 4.02898 4.64870 4.34989
#
# Compressibility (1/GPa) = 0.07353592
#
# Stress axis : x y z
#
# Youngs Moduli (GPa) = 43.93049 83.73564 49.88846
#
# Poissons Ratio (x) = -0.46405 -0.10782
# Poissons Ratio (y) = -0.24346 -0.08430
# Poissons Ratio (z) = -0.09494 -0.14150
#
# Static dielectric constant tensor:
#      x y z
#    x 1.998220 0.000000 0.000000 
#    y 0.000000 2.075610 0.000000 
#    z 0.000000 0.000000 2.006230 
# 
# From -- ./inp_files/1104.got.cif
#   From: 2010.05.17/outbox.cif.g08.bks.cpg/sg29_1_cif.got.tgz:1104.got - 2010.06.04 01:19:37.
