data_PCOD9341370
_publ_section_title
;
Structure prediction by ZEFSAII (Michael W. Deem and Ramdas Pophale) SiO2 
 PCOD9341370
Probable space group: P C A 21
;
_chemical_formula_sum "Si O2"
_cell_formula_units_Z 28
_cell_length_a 24.781245
_cell_length_b 6.341807
_cell_length_c 7.407449
_cell_angle_alpha 90.000000
_cell_angle_beta 90.000000
_cell_angle_gamma 90.000000
_cell_volume 1164.138929
_symmetry_space_group_name_H-M "P C A 21"
_symmetry_group_IT_number 29
_symmetry_cell_setting 'orthorhombic'
loop_
_space_group_symop_operation_xyz
x,y,z
-x,-y,1/2+z
1/2-x,y,1/2+z
1/2+x,-y,z
loop_
_atom_site_type_symbol
_atom_site_label
_atom_site_fract_x
_atom_site_fract_y
_atom_site_fract_z
Si Si1 0.184900 0.330445 0.839430
Si Si2 0.801582 0.728954 0.933308
Si Si3 0.455633 0.995603 0.491898
Si Si4 0.650751 0.993240 0.149302
Si Si5 0.004144 0.336834 0.726688
Si Si6 0.117049 0.620110 0.318805
Si Si7 0.598225 0.325806 0.717816
O O1 0.190278 0.227703 0.642118
O O2 0.245071 0.388862 0.902894
O O3 0.144613 0.526711 0.807554
O O4 0.166468 0.151006 0.979545
O O5 0.807940 0.928802 0.805976
O O6 0.850529 0.588079 0.861720
O O7 0.500360 0.835066 0.566374
O O8 0.420798 0.866519 0.342801
O O9 0.414426 0.045583 0.655901
O O10 0.478723 0.203438 0.402213
O O11 0.648929 0.245400 0.169342
O O12 0.943362 0.418397 0.750441
O O13 0.047184 0.517667 0.696760
O O14 0.114341 0.737613 0.513828
#
# Coordination Sequence:
#
# PCOD9341370 Si02
#       7
#     4   4   4   4   4   4   4
#     4  11  24  47  73  98 142 184 234 297 355 420
#     4  11  25  48  69 103 139 183 237 297 355 428
#     4  11  25  40  69 101 143 184 237 286 356 430
#     4  11  25  45  70 102 137 181 233 293 356 413
#     4  11  23  41  67 103 140 191 231 298 354 429
#     4  10  26  43  68 105 139 186 237 293 356 431
#     4  11  24  44  70 102 142 191 235 294 358 429
#
# _framework density 24.052115000000001
#
# number of rings (size 3 to 8) (size 9 to 14) (size 15 to 20)
#    0.000    1.143    2.857    1.714    6.000    8.000 
#    7.714    0.000    0.000    0.000    0.000    0.000 
#    0.000    0.000    0.000    0.000    0.000    0.000 
#
# Total GULP energy -156557.417602 kJ/mol
# GULP energy per Si atom -5591.336343 kJ/mol
# Density = 2.399737 g / cm^3
# Si number density = 24.052115 Si / 1000 Ang^3
#
#
#
# Elastic Constant Matrix: (Units=GPa)
#
#
# Indices 1 2 3 4 5 6 
#
# 1 97.5362 29.7578 14.5303 0.0000 0.0000 0.0000
# 2 29.7578 30.0308 30.0727 0.0000 0.0000 0.0000
# 3 14.5303 30.0727 105.6628 0.0000 0.0000 0.0000
# 4 0.0000 0.0000 0.0000 43.5313 0.0000 0.0000
# 5 0.0000 0.0000 0.0000 0.0000 39.3734 0.0000
# 6 0.0000 0.0000 0.0000 0.0000 0.0000 23.9144
#
#
#
# Elastic Compliance Matrix: (Units=1/GPa)
#
#
# Indices 1 2 3 4 5 6 
#
# 1 0.015393 -0.018369 0.003111 0.000000 0.000000 0.000000
# 2 -0.018369 0.068492 -0.016968 0.000000 0.000000 0.000000
# 3 0.003111 -0.016968 0.013865 0.000000 0.000000 0.000000
# 4 0.000000 0.000000 0.000000 0.022972 0.000000 0.000000
# 5 0.000000 0.000000 0.000000 0.000000 0.025398 0.000000
# 6 0.000000 0.000000 0.000000 0.000000 0.000000 0.041816
#
#
# Mechanical properties :
#
#
# Convention : Reuss Voigt Hill
#
# Bulk Modulus (GPa) = 30.02968 42.43906 36.23437
# Shear Modulus (GPa) = 18.97620 31.95508 25.46564
#
# Velocity S-wave (km/s) = 2.81189 3.64892 3.25740
# Velocity P-wave (km/s) = 4.80153 5.95279 5.40788
#
# Compressibility (1/GPa) = 0.03330039
#
# Stress axis : x y z
#
# Youngs Moduli (GPa) = 64.96297 14.60015 72.12198
#
# Poissons Ratio (x) = 0.26819 -0.22438
# Poissons Ratio (y) = 1.19330 1.22374
# Poissons Ratio (z) = -0.20211 0.24773
#
# Static dielectric constant tensor:
#      x y z
#    x 1.919550 0.000000 0.000000 
#    y 0.000000 1.903820 0.000000 
#    z 0.000000 0.000000 2.019990 
# 
# From -- ./inp_files/2412.got.cif
#   From: 2010.05.17/outbox.cif.g08.bks.cpg/sg29_2_cif.got.tgz:2412.got - 2010.06.04 01:19:37.
