data_PCOD9341937
_publ_section_title
;
Structure prediction by ZEFSAII (Michael W. Deem and Ramdas Pophale) SiO2 
 PCOD9341937
Probable space group: P N C 2
;
_chemical_formula_sum "Si O2"
_cell_formula_units_Z 24
_cell_length_a 8.666231
_cell_length_b 11.250052
_cell_length_c 12.551443
_cell_angle_alpha 90.000000
_cell_angle_beta 90.000000
_cell_angle_gamma 90.000000
_cell_volume 1223.709831
_symmetry_space_group_name_H-M "P N C 2"
_symmetry_group_IT_number 30
_symmetry_cell_setting 'orthorhombic'
loop_
_space_group_symop_operation_xyz
x,y,z
-x,-y,z
-x,1/2+y,1/2+z
x,1/2-y,1/2+z
loop_
_atom_site_type_symbol
_atom_site_label
_atom_site_fract_x
_atom_site_fract_y
_atom_site_fract_z
Si Si1 0.168926 0.060881 0.321740
Si Si2 0.146485 0.659676 0.462543
Si Si3 0.830617 0.066299 0.523113
Si Si4 0.325861 0.040655 0.094566
Si Si5 0.201558 0.176637 0.915248
Si Si6 0.815289 0.025281 0.759296
O O1 0.252491 0.062463 0.209255
O O2 0.168547 0.194196 0.368191
O O3 0.247471 0.986378 0.417345
O O4 0.000000 0.000000 0.305307
O O5 0.158960 0.793274 0.504500
O O6 0.235028 0.566834 0.536461
O O7 0.203039 0.635709 0.340770
O O8 0.964420 0.633643 0.458769
O O9 0.759847 0.042829 0.639207
O O10 0.000000 0.000000 0.524243
O O11 0.500000 0.000000 0.105886
O O12 0.311848 0.154790 0.015844
O O13 0.252416 0.088541 0.820559
O O14 0.000000 0.000000 0.751855
#
# Coordination Sequence:
#
# PCOD9341937 Si02
#       6
#     4   4   4   4   4   4
#     4  11  22  38  66 100 129 155 216 278 324 368
#     4  10  19  38  63  89 124 163 211 266 324 368
#     4  10  19  32  57  97 125 145 198 271 328 367
#     4  11  26  44  61  90 135 185 214 247 317 404
#     4  10  20  40  64  94 122 163 213 277 320 369
#     4   8  18  30  52  85 121 151 191 249 321 371
#
# _framework density 19.612494000000002
#
# number of rings (size 3 to 8) (size 9 to 14) (size 15 to 20)
#    0.000    2.000    3.333    2.500    4.667    2.667 
#    3.000    0.000    0.000    4.000    0.000    0.000 
#    0.000    0.000    0.000    0.000    0.000    0.000 
#
# Total GULP energy -133735.507592 kJ/mol
# GULP energy per Si atom -5572.312816 kJ/mol
# Density = 1.956786 g / cm^3
# Si number density = 19.612494 Si / 1000 Ang^3
#
#
#
# Elastic Constant Matrix: (Units=GPa)
#
#
# Indices 1 2 3 4 5 6 
#
# 1 53.8426 30.4628 45.8979 0.0000 0.0000 0.0000
# 2 30.4628 135.6261 61.0198 0.0000 0.0000 0.0000
# 3 45.8979 61.0198 192.0035 0.0000 0.0000 0.0000
# 4 0.0000 0.0000 0.0000 14.1919 0.0000 0.0000
# 5 0.0000 0.0000 0.0000 0.0000 -4.0221 0.0000
# 6 0.0000 0.0000 0.0000 0.0000 0.0000 7.3761
#
#
#
# Elastic Compliance Matrix: (Units=1/GPa)
#
#
# Indices 1 2 3 4 5 6 
#
# 1 0.024569 -0.003356 -0.004807 0.000000 0.000000 0.000000
# 2 -0.003356 0.009062 -0.002078 0.000000 0.000000 0.000000
# 3 -0.004807 -0.002078 0.007018 0.000000 0.000000 0.000000
# 4 0.000000 0.000000 0.000000 0.070463 0.000000 0.000000
# 5 0.000000 0.000000 0.000000 0.000000 -0.248623 0.000000
# 6 0.000000 0.000000 0.000000 0.000000 0.000000 0.135573
#
#
# Mechanical properties :
#
#
# Convention : Reuss Voigt Hill
#
# Bulk Modulus (GPa) = 49.58399 72.91480 61.24939
# Shear Modulus (GPa) = 197.92204 19.78196 108.85200
#
# Velocity S-wave (km/s) = 10.05661 3.17936 7.45801
# Velocity P-wave (km/s) = 12.65638 7.12293 10.26937
#
# Compressibility (1/GPa) = 0.02016780
#
# Stress axis : x y z
#
# Youngs Moduli (GPa) = 40.70233 110.35425 142.50032
#
# Poissons Ratio (x) = 0.37033 0.68494
# Poissons Ratio (y) = 0.13659 0.29607
# Poissons Ratio (z) = 0.19564 0.22928
#
# Static dielectric constant tensor:
#      x y z
#    x 1.684980 0.000000 0.000000 
#    y 0.000000 1.734440 0.000000 
#    z 0.000000 0.000000 1.724400 
# 
# From -- ./inp_files/3638.got.cif
#   From: 2010.05.17/outbox.cif.g08.bks.cpg/sg30_2_cif.got.tgz:3638.got - 2010.06.03 17:03:02.
