data_PCOD9341362
_publ_section_title
;
Structure prediction by ZEFSAII (Michael W. Deem and Ramdas Pophale) SiO2 
 PCOD9341362
Probable space group: P C A 21
;
_chemical_formula_sum "Si O2"
_cell_formula_units_Z 20
_cell_length_a 11.835250
_cell_length_b 7.344522
_cell_length_c 9.049711
_cell_angle_alpha 90.000000
_cell_angle_beta 90.000000
_cell_angle_gamma 90.000000
_cell_volume 786.639378
_symmetry_space_group_name_H-M "P C A 21"
_symmetry_group_IT_number 29
_symmetry_cell_setting 'orthorhombic'
loop_
_space_group_symop_operation_xyz
x,y,z
-x,-y,1/2+z
1/2-x,y,1/2+z
1/2+x,-y,z
loop_
_atom_site_type_symbol
_atom_site_label
_atom_site_fract_x
_atom_site_fract_y
_atom_site_fract_z
Si Si1 0.714466 0.861998 0.875000
Si Si2 0.090239 0.668876 0.083962
Si Si3 0.303783 0.889595 0.110306
Si Si4 0.070950 0.378587 0.318722
Si Si5 0.528622 0.243698 0.386496
O O1 0.825083 0.756352 0.822178
O O2 0.605448 0.735385 0.885155
O O3 0.685423 0.038327 0.775475
O O4 0.739326 0.943548 0.033598
O O5 0.223434 0.713442 0.089713
O O6 0.054025 0.471806 0.156706
O O7 0.049928 0.809362 0.214064
O O8 0.030945 0.691623 0.924579
O O9 0.418867 0.874858 0.016058
O O10 0.097758 0.569081 0.398932
#
# Coordination Sequence:
#
# PCOD9341362 Si02
#       5
#     4   4   4   4   4
#     4  12  27  46  79 111 151 206 252 319 386 458
#     4  10  25  50  73 112 149 203 246 329 377 456
#     4  12  27  48  75 111 161 192 262 311 394 456
#     4  10  26  48  79 109 153 195 268 311 385 465
#     4  10  27  46  74 109 152 200 250 316 378 461
#
# _framework density 25.424610999999999
#
# number of rings (size 3 to 8) (size 9 to 14) (size 15 to 20)
#    1.200    0.000    2.000    1.200   11.200    3.200 
#    0.000    0.000    0.000    0.000    0.000    0.000 
#    0.000    0.000    0.000    0.000    0.000    0.000 
#
# Total GULP energy -111425.448275 kJ/mol
# GULP energy per Si atom -5571.272414 kJ/mol
# Density = 2.536674 g / cm^3
# Si number density = 25.424611 Si / 1000 Ang^3
#
#
#
# Elastic Constant Matrix: (Units=GPa)
#
#
# Indices 1 2 3 4 5 6 
#
# 1 108.6866 43.2065 67.7465 0.0000 0.0000 0.0000
# 2 43.2065 69.0842 54.4370 0.0000 0.0000 0.0000
# 3 67.7465 54.4370 110.8547 0.0000 0.0000 0.0000
# 4 0.0000 0.0000 0.0000 51.9605 0.0000 0.0000
# 5 0.0000 0.0000 0.0000 0.0000 34.9689 0.0000
# 6 0.0000 0.0000 0.0000 0.0000 0.0000 45.6301
#
#
#
# Elastic Compliance Matrix: (Units=1/GPa)
#
#
# Indices 1 2 3 4 5 6 
#
# 1 0.015396 -0.003613 -0.007635 0.000000 0.000000 0.000000
# 2 -0.003613 0.024459 -0.009803 0.000000 0.000000 0.000000
# 3 -0.007635 -0.009803 0.018501 0.000000 0.000000 0.000000
# 4 0.000000 0.000000 0.000000 0.019245 0.000000 0.000000
# 5 0.000000 0.000000 0.000000 0.000000 0.028597 0.000000
# 6 0.000000 0.000000 0.000000 0.000000 0.000000 0.021915
#
#
# Mechanical properties :
#
#
# Convention : Reuss Voigt Hill
#
# Bulk Modulus (GPa) = 61.52228 68.82285 65.17256
# Shear Modulus (GPa) = 28.46838 34.72758 31.59798
#
# Velocity S-wave (km/s) = 3.34985 3.69982 3.52918
# Velocity P-wave (km/s) = 6.26198 6.73645 6.50354
#
# Compressibility (1/GPa) = 0.01625428
#
# Stress axis : x y z
#
# Youngs Moduli (GPa) = 64.95249 40.88401 54.05205
#
# Poissons Ratio (x) = 0.14771 0.41267
# Poissons Ratio (y) = 0.23466 0.52989
# Poissons Ratio (z) = 0.49589 0.40080
#
# Static dielectric constant tensor:
#      x y z
#    x 1.973760 0.000000 0.000000 
#    y 0.000000 2.047460 0.000000 
#    z 0.000000 0.000000 2.012040 
# 
# From -- ./inp_files/1389.got.cif
#   From: 2010.05.17/outbox.cif.g08.bks.cpg/sg29_1_cif.got.tgz:1389.got - 2010.06.04 01:19:37.
