data_PCOD9341980
_publ_section_title
;
Structure prediction by ZEFSAII (Michael W. Deem and Ramdas Pophale) SiO2 
 PCOD9341980
Probable space group: P N C 2
;
_chemical_formula_sum "Si O2"
_cell_formula_units_Z 20
_cell_length_a 7.096066
_cell_length_b 14.028381
_cell_length_c 9.529232
_cell_angle_alpha 90.000000
_cell_angle_beta 90.000000
_cell_angle_gamma 90.000000
_cell_volume 948.599954
_symmetry_space_group_name_H-M "P N C 2"
_symmetry_group_IT_number 30
_symmetry_cell_setting 'orthorhombic'
loop_
_space_group_symop_operation_xyz
x,y,z
-x,-y,z
-x,1/2+y,1/2+z
x,1/2-y,1/2+z
loop_
_atom_site_type_symbol
_atom_site_label
_atom_site_fract_x
_atom_site_fract_y
_atom_site_fract_z
Si Si1 0.062823 0.706619 0.510290
Si Si2 0.208720 0.955045 0.216355
Si Si3 0.306618 0.595787 0.321476
Si Si4 0.831904 0.422943 0.028047
Si Si5 0.696420 0.910877 0.981868
O O1 0.176245 0.641612 0.625131
O O2 0.164342 0.678502 0.364705
O O3 0.076310 0.818187 0.530716
O O4 0.848317 0.671069 0.500550
O O5 0.263997 0.937215 0.376380
O O6 0.322333 0.036193 0.131672
O O7 0.000000 0.000000 0.224080
O O8 0.314011 0.578810 0.156707
O O9 0.225657 0.497708 0.386996
O O10 0.503376 0.614562 0.402380
O O11 0.000000 0.500000 0.048271
#
# Coordination Sequence:
#
# PCOD9341980 Si02
#       5
#     4   4   4   4   4
#     4  10  19  37  62  84 119 166 205 243 304 376
#     4   8  17  34  58  86 117 157 203 247 303 369
#     4  10  20  37  62  90 120 157 204 251 303 369
#     4  11  21  35  58  93 128 158 201 262 312 353
#     4   9  19  39  62  85 116 165 206 240 306 378
#
# _framework density 21.083704999999998
#
# number of rings (size 3 to 8) (size 9 to 14) (size 15 to 20)
#    0.000    2.400    0.000    4.200    0.000    0.000 
#    0.000   20.000    0.000    7.200    0.000    0.000 
#    0.000    0.000    0.000    0.000    0.000    0.000 
#
# Total GULP energy -111513.540079 kJ/mol
# GULP energy per Si atom -5575.677004 kJ/mol
# Density = 2.103572 g / cm^3
# Si number density = 21.083705 Si / 1000 Ang^3
#
#
#
# Elastic Constant Matrix: (Units=GPa)
#
#
# Indices 1 2 3 4 5 6 
#
# 1 93.2288 22.7963 45.9651 0.0000 0.0000 0.0000
# 2 22.7963 123.4623 28.6554 0.0000 0.0000 0.0000
# 3 45.9651 28.6554 187.7853 0.0000 0.0000 0.0000
# 4 0.0000 0.0000 0.0000 11.9938 0.0000 0.0000
# 5 0.0000 0.0000 0.0000 0.0000 23.5140 0.0000
# 6 0.0000 0.0000 0.0000 0.0000 0.0000 14.1479
#
#
#
# Elastic Compliance Matrix: (Units=1/GPa)
#
#
# Indices 1 2 3 4 5 6 
#
# 1 0.012518 -0.001659 -0.002811 0.000000 0.000000 0.000000
# 2 -0.001659 0.008617 -0.000909 0.000000 0.000000 0.000000
# 3 -0.002811 -0.000909 0.006152 0.000000 0.000000 0.000000
# 4 0.000000 0.000000 0.000000 0.083377 0.000000 0.000000
# 5 0.000000 0.000000 0.000000 0.000000 0.042528 0.000000
# 6 0.000000 0.000000 0.000000 0.000000 0.000000 0.070682
#
#
# Mechanical properties :
#
#
# Convention : Reuss Voigt Hill
#
# Bulk Modulus (GPa) = 60.49848 66.58999 63.54423
# Shear Modulus (GPa) = 20.82120 30.40179 25.61149
#
# Velocity S-wave (km/s) = 3.14594 3.80143 3.48911
# Velocity P-wave (km/s) = 6.47708 7.13583 6.81442
#
# Compressibility (1/GPa) = 0.01652934
#
# Stress axis : x y z
#
# Youngs Moduli (GPa) = 79.88617 116.05125 162.55000
#
# Poissons Ratio (x) = 0.19252 0.45691
# Poissons Ratio (y) = 0.13252 0.14773
# Poissons Ratio (z) = 0.22455 0.10547
#
# Static dielectric constant tensor:
#      x y z
#    x 1.781170 0.000000 0.000000 
#    y 0.000000 1.740410 0.000000 
#    z 0.000000 0.000000 1.840750 
# 
# From -- ./inp_files/1783.got.cif
#   From: 2010.05.17/outbox.cif.g08.bks.cpg/sg30_1_cif.got.tgz:1783.got - 2010.06.03 17:03:02.
