data_PCOD9341132
_publ_section_title
;
Structure prediction by ZEFSAII (Michael W. Deem and Ramdas Pophale) SiO2 
 PCOD9341132
Probable space group: P C A 21
;
_chemical_formula_sum "Si O2"
_cell_formula_units_Z 32
_cell_length_a 13.170763
_cell_length_b 11.316301
_cell_length_c 9.118973
_cell_angle_alpha 90.000000
_cell_angle_beta 90.000000
_cell_angle_gamma 90.000000
_cell_volume 1359.131116
_symmetry_space_group_name_H-M "P C A 21"
_symmetry_group_IT_number 29
_symmetry_cell_setting 'orthorhombic'
loop_
_space_group_symop_operation_xyz
x,y,z
-x,-y,1/2+z
1/2-x,y,1/2+z
1/2+x,-y,z
loop_
_atom_site_type_symbol
_atom_site_label
_atom_site_fract_x
_atom_site_fract_y
_atom_site_fract_z
Si Si1 0.890003 0.771325 0.560080
Si Si2 0.359498 0.530605 0.873304
Si Si3 0.767823 0.721859 0.836840
Si Si4 0.529155 0.439467 0.672795
Si Si5 0.189513 0.719817 0.812571
Si Si6 0.229585 0.884374 0.073153
Si Si7 0.038876 0.997954 0.208399
Si Si8 0.113405 0.087744 0.501934
O O1 0.796429 0.768124 0.676432
O O2 0.840395 0.758223 0.401437
O O3 0.957449 0.658505 0.597614
O O4 0.952243 0.887252 0.602944
O O5 0.288257 0.417282 0.841706
O O6 0.454031 0.526271 0.760120
O O7 0.291867 0.646194 0.846625
O O8 0.400154 0.517017 0.039752
O O9 0.849463 0.787433 0.941308
O O10 0.598648 0.372113 0.791664
O O11 0.177368 0.813099 0.942182
O O12 0.200182 0.793865 0.662911
O O13 0.292933 0.996005 0.014667
O O14 0.143373 0.928605 0.183266
O O15 0.038260 0.041629 0.373881
O O16 0.946010 0.920211 0.153513
#
# Coordination Sequence:
#
# PCOD9341132 Si02
#       8
#     4   4   4   4   4   4   4   4
#     4  10  23  43  66 102 136 180 222 289 339 421
#     4  11  28  45  72 104 137 192 228 297 356 423
#     4  10  24  43  67  96 139 175 230 279 355 407
#     4  11  27  46  73 103 142 178 246 288 354 425
#     4  12  27  47  71 101 145 187 237 303 357 426
#     4  12  25  45  71 100 142 188 238 291 363 425
#     4  11  25  40  71  99 145 179 232 285 356 424
#     4  11  25  45  65 109 136 189 231 290 356 423
#
# _framework density 23.544454000000002
#
# number of rings (size 3 to 8) (size 9 to 14) (size 15 to 20)
#    0.000    1.000    3.750    0.750   14.000    1.000 
#    0.000    0.000    0.000    0.000    0.000    0.000 
#    0.000    0.000    0.000    0.000    0.000    0.000 
#
# Total GULP energy -179158.835833 kJ/mol
# GULP energy per Si atom -5598.713620 kJ/mol
# Density = 2.349087 g / cm^3
# Si number density = 23.544454 Si / 1000 Ang^3
#
#
#
# Elastic Constant Matrix: (Units=GPa)
#
#
# Indices 1 2 3 4 5 6 
#
# 1 56.5804 0.3191 15.8514 0.0000 0.0000 0.0000
# 2 0.3191 60.0712 -2.5994 0.0000 0.0000 0.0000
# 3 15.8514 -2.5994 30.8083 0.0000 0.0000 0.0000
# 4 0.0000 0.0000 0.0000 29.8580 0.0000 0.0000
# 5 0.0000 0.0000 0.0000 0.0000 39.5603 0.0000
# 6 0.0000 0.0000 0.0000 0.0000 0.0000 28.7431
#
#
#
# Elastic Compliance Matrix: (Units=1/GPa)
#
#
# Indices 1 2 3 4 5 6 
#
# 1 0.020670 -0.000572 -0.010683 0.000000 0.000000 0.000000
# 2 -0.000572 0.016724 0.001705 0.000000 0.000000 0.000000
# 3 -0.010683 0.001705 0.038099 0.000000 0.000000 0.000000
# 4 0.000000 0.000000 0.000000 0.033492 0.000000 0.000000
# 5 0.000000 0.000000 0.000000 0.000000 0.025278 0.000000
# 6 0.000000 0.000000 0.000000 0.000000 0.000000 0.034791
#
#
# Mechanical properties :
#
#
# Convention : Reuss Voigt Hill
#
# Bulk Modulus (GPa) = 17.73265 19.40022 18.56644
# Shear Modulus (GPa) = 24.16017 28.55819 26.35918
#
# Velocity S-wave (km/s) = 3.20684 3.48652 3.34960
# Velocity P-wave (km/s) = 4.61082 4.94626 4.78148
#
# Compressibility (1/GPa) = 0.05639314
#
# Stress axis : x y z
#
# Youngs Moduli (GPa) = 48.37874 59.79521 26.24712
#
# Poissons Ratio (x) = 0.03421 0.28041
# Poissons Ratio (y) = 0.02768 -0.04476
# Poissons Ratio (z) = 0.51685 -0.10197
#
# Static dielectric constant tensor:
#      x y z
#    x 1.885750 0.000000 0.000000 
#    y 0.000000 1.843520 0.000000 
#    z 0.000000 0.000000 1.862500 
# 
# From -- ./inp_files/1850.got.cif
#   From: 2010.05.17/outbox.cif.g08.bks.cpg/sg29_1_cif.got.tgz:1850.got - 2010.06.04 01:19:37.
