data_PCOD9341756
_publ_section_title
;
Structure prediction by ZEFSAII (Michael W. Deem and Ramdas Pophale) SiO2 
 PCOD9341756
Probable space group: P C A 21
;
_chemical_formula_sum "Si O2"
_cell_formula_units_Z 24
_cell_length_a 13.606045
_cell_length_b 5.405091
_cell_length_c 13.112321
_cell_angle_alpha 90.000000
_cell_angle_beta 90.000000
_cell_angle_gamma 90.000000
_cell_volume 964.305149
_symmetry_space_group_name_H-M "P C A 21"
_symmetry_group_IT_number 29
_symmetry_cell_setting 'orthorhombic'
loop_
_space_group_symop_operation_xyz
x,y,z
-x,-y,1/2+z
1/2-x,y,1/2+z
1/2+x,-y,z
loop_
_atom_site_type_symbol
_atom_site_label
_atom_site_fract_x
_atom_site_fract_y
_atom_site_fract_z
Si Si1 0.842806 0.246074 0.090120
Si Si2 0.576604 0.272654 0.816504
Si Si3 0.219361 0.438538 0.948740
Si Si4 0.645247 0.073455 0.152514
Si Si5 0.033879 0.092331 0.974938
Si Si6 0.375423 0.422517 0.780651
O O1 0.891588 0.283241 0.199822
O O2 0.755341 0.050284 0.107052
O O3 0.783040 0.475767 0.044209
O O4 0.927465 0.179672 0.010332
O O5 0.669651 0.335162 0.886448
O O6 0.483453 0.451892 0.829600
O O7 0.536669 0.017462 0.861885
O O8 0.125355 0.279396 0.979093
O O9 0.295599 0.341041 0.864656
O O10 0.618482 0.816463 0.207172
O O11 0.647112 0.319095 0.223422
O O12 0.566362 0.108972 0.061634
#
# Coordination Sequence:
#
# PCOD9341756 Si02
#       6
#     4   4   4   4   4   4
#     4  12  27  51  82 120 167 223 278 360 423 517
#     4  12  28  49  80 119 165 224 284 350 432 515
#     4  12  28  50  79 120 166 218 285 352 428 513
#     4  12  27  53  80 123 163 219 280 348 422 509
#     4  12  29  51  80 122 169 219 291 349 435 519
#     4  12  29  50  85 118 170 219 284 349 426 507
#
# _framework density 24.888390000000001
#
# number of rings (size 3 to 8) (size 9 to 14) (size 15 to 20)
#    0.000    0.000    5.000    3.000    7.000    2.667 
#    3.000    0.000    0.000    0.000    0.000    0.000 
#    0.000    0.000    0.000    0.000    0.000    0.000 
#
# Total GULP energy -134338.286013 kJ/mol
# GULP energy per Si atom -5597.428584 kJ/mol
# Density = 2.483174 g / cm^3
# Si number density = 24.888390 Si / 1000 Ang^3
#
#
#
# Elastic Constant Matrix: (Units=GPa)
#
#
# Indices 1 2 3 4 5 6 
#
# 1 168.9984 42.9958 40.1873 0.0000 0.0000 0.0000
# 2 42.9958 98.2934 52.3814 0.0000 0.0000 0.0000
# 3 40.1873 52.3814 113.6788 0.0000 0.0000 0.0000
# 4 0.0000 0.0000 0.0000 26.9522 0.0000 0.0000
# 5 0.0000 0.0000 0.0000 0.0000 48.9190 0.0000
# 6 0.0000 0.0000 0.0000 0.0000 0.0000 42.3432
#
#
#
# Elastic Compliance Matrix: (Units=1/GPa)
#
#
# Indices 1 2 3 4 5 6 
#
# 1 0.006816 -0.002250 -0.001373 0.000000 0.000000 0.000000
# 2 -0.002250 0.014228 -0.005760 0.000000 0.000000 0.000000
# 3 -0.001373 -0.005760 0.011936 0.000000 0.000000 0.000000
# 4 0.000000 0.000000 0.000000 0.037103 0.000000 0.000000
# 5 0.000000 0.000000 0.000000 0.000000 0.020442 0.000000
# 6 0.000000 0.000000 0.000000 0.000000 0.000000 0.023617
#
#
# Mechanical properties :
#
#
# Convention : Reuss Voigt Hill
#
# Bulk Modulus (GPa) = 70.35534 72.45551 71.40542
# Shear Modulus (GPa) = 36.32518 40.00330 38.16424
#
# Velocity S-wave (km/s) = 3.82452 4.01347 3.92013
# Velocity P-wave (km/s) = 6.91609 7.11707 7.01730
#
# Compressibility (1/GPa) = 0.01421356
#
# Stress axis : x y z
#
# Youngs Moduli (GPa) = 146.71165 70.28596 83.77746
#
# Poissons Ratio (x) = 0.15814 0.11502
# Poissons Ratio (y) = 0.33009 0.48260
# Poissons Ratio (z) = 0.20142 0.40488
#
# Static dielectric constant tensor:
#      x y z
#    x 1.938200 0.000000 0.000000 
#    y 0.000000 2.016260 0.000000 
#    z 0.000000 0.000000 2.030220 
# 
# From -- ./inp_files/4469.got.cif
#   From: 2010.05.17/outbox.cif.g08.bks.cpg/sg29_3_cif.got.tgz:4469.got - 2010.06.04 01:19:37.
