data_PCOD9341518
_publ_section_title
;
Structure prediction by ZEFSAII (Michael W. Deem and Ramdas Pophale) SiO2 
 PCOD9341518
Probable space group: P C A 21
;
_chemical_formula_sum "Si O2"
_cell_formula_units_Z 24
_cell_length_a 9.829089
_cell_length_b 6.471544
_cell_length_c 16.809550
_cell_angle_alpha 90.000000
_cell_angle_beta 90.000000
_cell_angle_gamma 90.000000
_cell_volume 1069.245086
_symmetry_space_group_name_H-M "P C A 21"
_symmetry_group_IT_number 29
_symmetry_cell_setting 'orthorhombic'
loop_
_space_group_symop_operation_xyz
x,y,z
-x,-y,1/2+z
1/2-x,y,1/2+z
1/2+x,-y,z
loop_
_atom_site_type_symbol
_atom_site_label
_atom_site_fract_x
_atom_site_fract_y
_atom_site_fract_z
Si Si1 0.765025 0.600262 0.118800
Si Si2 0.579687 0.923471 0.177648
Si Si3 0.438839 0.839662 0.835108
Si Si4 0.336759 0.863996 0.398729
Si Si5 0.573489 0.445112 0.765419
Si Si6 0.464391 0.718088 0.562172
O O1 0.695708 0.824007 0.123290
O O2 0.822305 0.559673 0.207285
O O3 0.652739 0.431131 0.096469
O O4 0.892619 0.597901 0.059107
O O5 0.493836 0.728739 0.209006
O O6 0.621422 0.038288 0.258682
O O7 0.509187 0.096688 0.124376
O O8 0.326276 0.878712 0.902873
O O9 0.470401 0.609600 0.804409
O O10 0.581810 0.941462 0.861810
O O11 0.358151 0.676832 0.337010
O O12 0.409658 0.806029 0.480161
#
# Coordination Sequence:
#
# PCOD9341518 Si02
#       6
#     4   4   4   4   4   4
#     4  12  25  47  72 103 141 186 249 302 364 439
#     4  11  23  43  75 100 137 185 246 293 364 431
#     4  11  24  48  71 103 144 188 250 296 370 439
#     4  11  28  43  72 106 147 191 236 305 373 435
#     4  11  23  46  76 104 137 194 243 297 353 447
#     4  12  29  45  72 108 146 192 242 311 374 435
#
# _framework density 22.445741000000002
#
# number of rings (size 3 to 8) (size 9 to 14) (size 15 to 20)
#    0.000    0.667    3.333    3.000    9.333    2.667 
#    0.000    0.000    0.000    0.000    0.000    0.000 
#    0.000    0.000    0.000    0.000    0.000    0.000 
#
# Total GULP energy -134220.912899 kJ/mol
# GULP energy per Si atom -5592.538037 kJ/mol
# Density = 2.239465 g / cm^3
# Si number density = 22.445741 Si / 1000 Ang^3
#
#
#
# Elastic Constant Matrix: (Units=GPa)
#
#
# Indices 1 2 3 4 5 6 
#
# 1 101.8490 36.0189 -18.0018 0.0000 0.0000 0.0000
# 2 36.0189 93.9267 -3.3904 0.0000 0.0000 0.0000
# 3 -18.0018 -3.3904 28.5657 0.0000 0.0000 0.0000
# 4 0.0000 0.0000 0.0000 21.6440 0.0000 0.0000
# 5 0.0000 0.0000 0.0000 0.0000 25.3239 0.0000
# 6 0.0000 0.0000 0.0000 0.0000 0.0000 28.3723
#
#
#
# Elastic Compliance Matrix: (Units=1/GPa)
#
#
# Indices 1 2 3 4 5 6 
#
# 1 0.012783 -0.004631 0.007506 0.000000 0.000000 0.000000
# 2 -0.004631 0.012370 -0.001450 0.000000 0.000000 0.000000
# 3 0.007506 -0.001450 0.039565 0.000000 0.000000 0.000000
# 4 0.000000 0.000000 0.000000 0.046202 0.000000 0.000000
# 5 0.000000 0.000000 0.000000 0.000000 0.039488 0.000000
# 6 0.000000 0.000000 0.000000 0.000000 0.000000 0.035246
#
#
# Mechanical properties :
#
#
# Convention : Reuss Voigt Hill
#
# Bulk Modulus (GPa) = 14.80000 28.17720 21.48860
# Shear Modulus (GPa) = 24.35134 29.04901 26.70018
#
# Velocity S-wave (km/s) = 3.29735 3.60139 3.45272
# Velocity P-wave (km/s) = 4.59399 5.46571 5.04870
#
# Compressibility (1/GPa) = 0.06756758
#
# Stress axis : x y z
#
# Youngs Moduli (GPa) = 78.22940 80.83971 25.27483
#
# Poissons Ratio (x) = 0.37437 -0.18971
# Poissons Ratio (y) = 0.36228 0.03665
# Poissons Ratio (z) = -0.58719 0.11724
#
# Static dielectric constant tensor:
#      x y z
#    x 1.887470 0.000000 0.000000 
#    y 0.000000 1.814650 0.000000 
#    z 0.000000 0.000000 1.801370 
# 
# From -- ./inp_files/4939.got.cif
#   From: 2010.05.17/outbox.cif.g08.bks.cpg/sg29_3_cif.got.tgz:4939.got - 2010.06.04 01:19:37.
