data_PCOD9341443
_publ_section_title
;
Structure prediction by ZEFSAII (Michael W. Deem and Ramdas Pophale) SiO2 
 PCOD9341443
Probable space group: P C A 21
;
_chemical_formula_sum "Si O2"
_cell_formula_units_Z 32
_cell_length_a 12.106008
_cell_length_b 8.420407
_cell_length_c 12.012873
_cell_angle_alpha 90.000000
_cell_angle_beta 90.000000
_cell_angle_gamma 90.000000
_cell_volume 1224.562416
_symmetry_space_group_name_H-M "P C A 21"
_symmetry_group_IT_number 29
_symmetry_cell_setting 'orthorhombic'
loop_
_space_group_symop_operation_xyz
x,y,z
-x,-y,1/2+z
1/2-x,y,1/2+z
1/2+x,-y,z
loop_
_atom_site_type_symbol
_atom_site_label
_atom_site_fract_x
_atom_site_fract_y
_atom_site_fract_z
Si Si1 0.116937 0.030196 0.780240
Si Si2 0.329933 0.351112 0.604732
Si Si3 0.460546 0.093580 0.521210
Si Si4 0.546136 0.287434 0.856980
Si Si5 0.315631 0.860049 0.676335
Si Si6 0.245393 0.652611 0.488367
Si Si7 0.100080 0.550348 0.299111
Si Si8 0.389729 0.167019 0.050065
O O1 0.039544 0.871684 0.781938
O O2 0.242411 0.975924 0.752828
O O3 0.086466 0.149258 0.681534
O O4 0.094410 0.103436 0.899900
O O5 0.317721 0.507003 0.532589
O O6 0.326856 0.417047 0.731546
O O7 0.232362 0.238053 0.558830
O O8 0.442933 0.260950 0.579052
O O9 0.390852 0.966050 0.594698
O O10 0.580481 0.011995 0.508781
O O11 0.671776 0.273963 0.897958
O O12 0.515755 0.456149 0.803135
O O13 0.465891 0.265640 0.964597
O O14 0.232873 0.764076 0.594562
O O15 0.380463 0.718608 0.738613
O O16 0.140852 0.587822 0.423260
#
# Coordination Sequence:
#
# PCOD9341443 Si02
#       8
#     4   4   4   4   4   4   4   4
#     4  11  23  43  71  99 138 186 225 295 356 407
#     4  11  25  43  69 102 142 184 236 289 353 420
#     4  11  24  46  65 104 144 175 242 292 340 430
#     4  11  23  47  69 102 146 178 243 293 351 430
#     4  11  21  44  69  95 137 179 231 280 348 417
#     4  11  23  45  66 102 142 179 234 290 345 432
#     4  11  24  43  70 100 135 191 221 293 363 402
#     4  11  23  43  71  98 136 186 224 294 346 416
#
# _framework density 26.131784
#
# number of rings (size 3 to 8) (size 9 to 14) (size 15 to 20)
#    0.000    1.000    6.250    0.750    1.750    1.000 
#   11.250    0.000    0.000    0.000    0.000    0.000 
#    0.000    0.000    0.000    0.000    0.000    0.000 
#
# Total GULP energy -178755.141150 kJ/mol
# GULP energy per Si atom -5586.098161 kJ/mol
# Density = 2.607231 g / cm^3
# Si number density = 26.131784 Si / 1000 Ang^3
#
#
#
# Elastic Constant Matrix: (Units=GPa)
#
#
# Indices 1 2 3 4 5 6 
#
# 1 61.7409 3.4268 4.3487 0.0000 0.0000 0.0000
# 2 3.4268 64.7301 4.8916 0.0000 0.0000 0.0000
# 3 4.3487 4.8916 80.0721 0.0000 0.0000 0.0000
# 4 0.0000 0.0000 0.0000 38.2619 0.0000 0.0000
# 5 0.0000 0.0000 0.0000 0.0000 33.9542 0.0000
# 6 0.0000 0.0000 0.0000 0.0000 0.0000 48.6966
#
#
#
# Elastic Compliance Matrix: (Units=1/GPa)
#
#
# Indices 1 2 3 4 5 6 
#
# 1 0.016300 -0.000800 -0.000836 0.000000 0.000000 0.000000
# 2 -0.000800 0.015560 -0.000907 0.000000 0.000000 0.000000
# 3 -0.000836 -0.000907 0.012590 0.000000 0.000000 0.000000
# 4 0.000000 0.000000 0.000000 0.026136 0.000000 0.000000
# 5 0.000000 0.000000 0.000000 0.000000 0.029451 0.000000
# 6 0.000000 0.000000 0.000000 0.000000 0.000000 0.020535
#
#
# Mechanical properties :
#
#
# Convention : Reuss Voigt Hill
#
# Bulk Modulus (GPa) = 25.40467 25.76413 25.58440
# Shear Modulus (GPa) = 36.02850 37.10761 36.56806
#
# Velocity S-wave (km/s) = 3.71714 3.77240 3.74487
# Velocity P-wave (km/s) = 5.30714 5.37172 5.33953
#
# Compressibility (1/GPa) = 0.03936284
#
# Stress axis : x y z
#
# Youngs Moduli (GPa) = 61.34960 64.26885 79.43074
#
# Poissons Ratio (x) = 0.05140 0.06643
# Poissons Ratio (y) = 0.04906 0.07205
# Poissons Ratio (z) = 0.05131 0.05830
#
# Static dielectric constant tensor:
#      x y z
#    x 2.125920 0.000000 0.000000 
#    y 0.000000 2.039670 0.000000 
#    z 0.000000 0.000000 2.071820 
# 
# From -- ./inp_files/3513.got.cif
#   From: 2010.05.17/outbox.cif.g08.bks.cpg/sg29_2_cif.got.tgz:3513.got - 2010.06.04 01:19:37.
