data_PCOD9341635
_publ_section_title
;
Structure prediction by ZEFSAII (Michael W. Deem and Ramdas Pophale) SiO2 
 PCOD9341635
Probable space group: P C A 21
;
_chemical_formula_sum "Si O2"
_cell_formula_units_Z 28
_cell_length_a 17.026833
_cell_length_b 7.618068
_cell_length_c 8.560953
_cell_angle_alpha 90.000000
_cell_angle_beta 90.000000
_cell_angle_gamma 90.000000
_cell_volume 1110.454668
_symmetry_space_group_name_H-M "P C A 21"
_symmetry_group_IT_number 29
_symmetry_cell_setting 'orthorhombic'
loop_
_space_group_symop_operation_xyz
x,y,z
-x,-y,1/2+z
1/2-x,y,1/2+z
1/2+x,-y,z
loop_
_atom_site_type_symbol
_atom_site_label
_atom_site_fract_x
_atom_site_fract_y
_atom_site_fract_z
Si Si1 0.935810 0.392927 0.895410
Si Si2 0.500839 0.237345 0.925066
Si Si3 0.701873 0.918794 0.624457
Si Si4 0.690605 0.129451 0.316940
Si Si5 0.045930 0.121025 0.775889
Si Si6 0.324451 0.624994 0.434849
Si Si7 0.308639 0.474839 0.126741
O O1 0.043949 0.406093 0.350736
O O2 0.878152 0.270250 0.792813
O O3 0.013859 0.272687 0.892517
O O4 0.883084 0.425167 0.050598
O O5 0.470857 0.187891 0.098770
O O6 0.588760 0.307189 0.951260
O O7 0.503391 0.061827 0.820659
O O8 0.638522 0.918721 0.765236
O O9 0.702890 0.720250 0.565180
O O10 0.672086 0.034072 0.480102
O O11 0.785792 0.991553 0.683589
O O12 0.771707 0.230153 0.348189
O O13 0.322414 0.468159 0.310035
O O14 0.271087 0.572300 0.579874
#
# Coordination Sequence:
#
# PCOD9341635 Si02
#       7
#     4   4   4   4   4   4   4
#     4  11  27  46  79 109 159 204 261 327 407 477
#     4  12  28  50  78 114 157 217 265 332 411 477
#     4  12  24  49  76 115 152 204 266 325 397 475
#     4  11  25  45  79 107 155 200 258 333 389 474
#     4  12  28  48  78 116 157 214 268 335 399 489
#     4  11  25  46  75 107 152 202 261 325 400 474
#     4  11  25  48  75 112 152 207 259 335 399 480
#
# _framework density 25.214896
#
# number of rings (size 3 to 8) (size 9 to 14) (size 15 to 20)
#    0.000    0.571    2.857    4.286    8.000    0.000 
#    0.000    1.429    0.000    0.000    0.000    0.000 
#    0.000    0.000    0.000    0.000    0.000    0.000 
#
# Total GULP energy -156577.010142 kJ/mol
# GULP energy per Si atom -5592.036076 kJ/mol
# Density = 2.515751 g / cm^3
# Si number density = 25.214896 Si / 1000 Ang^3
#
#
#
# Elastic Constant Matrix: (Units=GPa)
#
#
# Indices 1 2 3 4 5 6 
#
# 1 107.5061 45.6904 32.8075 0.0000 0.0000 0.0000
# 2 45.6904 183.8190 51.4062 0.0000 0.0000 0.0000
# 3 32.8075 51.4062 76.3028 0.0000 0.0000 0.0000
# 4 0.0000 0.0000 0.0000 38.5716 0.0000 0.0000
# 5 0.0000 0.0000 0.0000 0.0000 27.1509 0.0000
# 6 0.0000 0.0000 0.0000 0.0000 0.0000 49.6155
#
#
#
# Elastic Compliance Matrix: (Units=1/GPa)
#
#
# Indices 1 2 3 4 5 6 
#
# 1 0.011152 -0.001763 -0.003607 0.000000 0.000000 0.000000
# 2 -0.001763 0.006982 -0.003946 0.000000 0.000000 0.000000
# 3 -0.003607 -0.003946 0.017315 0.000000 0.000000 0.000000
# 4 0.000000 0.000000 0.000000 0.025926 0.000000 0.000000
# 5 0.000000 0.000000 0.000000 0.000000 0.036831 0.000000
# 6 0.000000 0.000000 0.000000 0.000000 0.000000 0.020155
#
#
# Mechanical properties :
#
#
# Convention : Reuss Voigt Hill
#
# Bulk Modulus (GPa) = 59.46437 69.71513 64.58975
# Shear Modulus (GPa) = 35.06361 38.91583 36.98972
#
# Velocity S-wave (km/s) = 3.73311 3.93283 3.83427
# Velocity P-wave (km/s) = 6.49736 6.95207 6.72856
#
# Compressibility (1/GPa) = 0.01681679
#
# Stress axis : x y z
#
# Youngs Moduli (GPa) = 89.67059 143.22904 57.75405
#
# Poissons Ratio (x) = 0.25254 0.20832
# Poissons Ratio (y) = 0.15811 0.22788
# Poissons Ratio (z) = 0.32345 0.56513
#
# Static dielectric constant tensor:
#      x y z
#    x 2.015200 0.000000 0.000000 
#    y 0.000000 2.036700 0.000000 
#    z 0.000000 0.000000 1.980660 
# 
# From -- ./inp_files/2067.got.cif
#   From: 2010.05.17/outbox.cif.g08.bks.cpg/sg29_2_cif.got.tgz:2067.got - 2010.06.04 01:19:37.
