data_PCOD9341703
_publ_section_title
;
Structure prediction by ZEFSAII (Michael W. Deem and Ramdas Pophale) SiO2 
 PCOD9341703
Probable space group: P C A 21
;
_chemical_formula_sum "Si O2"
_cell_formula_units_Z 16
_cell_length_a 16.640326
_cell_length_b 6.561955
_cell_length_c 5.254863
_cell_angle_alpha 90.000000
_cell_angle_beta 90.000000
_cell_angle_gamma 90.000000
_cell_volume 573.794625
_symmetry_space_group_name_H-M "P C A 21"
_symmetry_group_IT_number 29
_symmetry_cell_setting 'orthorhombic'
loop_
_space_group_symop_operation_xyz
x,y,z
-x,-y,1/2+z
1/2-x,y,1/2+z
1/2+x,-y,z
loop_
_atom_site_type_symbol
_atom_site_label
_atom_site_fract_x
_atom_site_fract_y
_atom_site_fract_z
Si Si1 0.479741 0.765903 0.497750
Si Si2 0.695823 0.284455 0.482064
Si Si3 0.373341 0.074644 0.290196
Si Si4 0.391661 0.382843 0.659296
O O1 0.540345 0.831628 0.715365
O O2 0.442482 0.544126 0.502664
O O3 0.540940 0.769201 0.264308
O O4 0.399013 0.894622 0.477503
O O5 0.744555 0.305289 0.743454
O O6 0.638886 0.477807 0.401598
O O7 0.660965 0.053777 0.546173
O O8 0.334047 0.251928 0.468158
#
# Coordination Sequence:
#
# PCOD9341703 Si02
#       4
#     4   4   4   4
#     4  12  23  46  76 126 149 194 268 346 448 502
#     4  12  31  54  74 114 167 230 292 330 396 516
#     4  12  26  46  82 115 164 211 268 359 431 502
#     4  12  26  46  82 115 164 211 268 359 431 502
#
# _framework density 27.884543000000001
#
# number of rings (size 3 to 8) (size 9 to 14) (size 15 to 20)
#    0.000    0.000    5.000    4.500    7.000    2.000 
#    0.000    0.000    0.000    0.000    0.000    0.000 
#    0.000    0.000    0.000    0.000    0.000    0.000 
#
# Total GULP energy -89123.325444 kJ/mol
# GULP energy per Si atom -5570.207840 kJ/mol
# Density = 2.782108 g / cm^3
# Si number density = 27.884543 Si / 1000 Ang^3
#
#
#
# Elastic Constant Matrix: (Units=GPa)
#
#
# Indices 1 2 3 4 5 6 
#
# 1 60.6752 41.9776 48.9570 0.0000 0.0000 0.0000
# 2 41.9776 157.8742 71.6602 0.0000 0.0000 0.0000
# 3 48.9570 71.6602 187.4601 0.0000 0.0000 0.0000
# 4 0.0000 0.0000 0.0000 65.4310 0.0000 0.0000
# 5 0.0000 0.0000 0.0000 0.0000 58.5499 0.0000
# 6 0.0000 0.0000 0.0000 0.0000 0.0000 39.5140
#
#
#
# Elastic Compliance Matrix: (Units=1/GPa)
#
#
# Indices 1 2 3 4 5 6 
#
# 1 0.022861 -0.004076 -0.004412 0.000000 0.000000 0.000000
# 2 -0.004076 0.008391 -0.002143 0.000000 0.000000 0.000000
# 3 -0.004412 -0.002143 0.007306 0.000000 0.000000 0.000000
# 4 0.000000 0.000000 0.000000 0.015283 0.000000 0.000000
# 5 0.000000 0.000000 0.000000 0.000000 0.017079 0.000000
# 6 0.000000 0.000000 0.000000 0.000000 0.000000 0.025308
#
#
# Mechanical properties :
#
#
# Convention : Reuss Voigt Hill
#
# Bulk Modulus (GPa) = 57.81881 81.24433 69.53157
# Shear Modulus (GPa) = 40.56609 48.92663 44.74636
#
# Velocity S-wave (km/s) = 3.81831 4.19336 4.01022
# Velocity P-wave (km/s) = 6.34187 7.25568 6.81411
#
# Compressibility (1/GPa) = 0.01729541
#
# Stress axis : x y z
#
# Youngs Moduli (GPa) = 43.74222 119.18063 136.87358
#
# Poissons Ratio (x) = 0.48576 0.60394
# Poissons Ratio (y) = 0.17829 0.29332
# Poissons Ratio (z) = 0.19301 0.25541
#
# Static dielectric constant tensor:
#      x y z
#    x 2.216720 0.000000 0.000000 
#    y 0.000000 2.393950 0.000000 
#    z 0.000000 0.000000 2.287870 
# 
# From -- ./inp_files/307.got.cif
#   From: 2010.05.17/outbox.cif.g08.bks.cpg/sg29_1_cif.got.tgz:307.got - 2010.06.04 01:19:37.
