data_PCOD9341860
_publ_section_title
;
Structure prediction by ZEFSAII (Michael W. Deem and Ramdas Pophale) SiO2 
 PCOD9341860
Probable space group: P N C 2
;
_chemical_formula_sum "Si O2"
_cell_formula_units_Z 32
_cell_length_a 9.391482
_cell_length_b 8.719291
_cell_length_c 22.950070
_cell_angle_alpha 90.000000
_cell_angle_beta 90.000000
_cell_angle_gamma 90.000000
_cell_volume 1879.313862
_symmetry_space_group_name_H-M "P N C 2"
_symmetry_group_IT_number 30
_symmetry_cell_setting 'orthorhombic'
loop_
_space_group_symop_operation_xyz
x,y,z
-x,-y,z
-x,1/2+y,1/2+z
x,1/2-y,1/2+z
loop_
_atom_site_type_symbol
_atom_site_label
_atom_site_fract_x
_atom_site_fract_y
_atom_site_fract_z
Si Si1 0.955882 0.833638 0.997080
Si Si2 0.842898 0.923950 0.424794
Si Si3 0.654668 0.069651 0.194590
Si Si4 0.841773 0.927892 0.294398
Si Si5 0.346012 0.576618 0.154936
Si Si6 0.876176 0.625862 0.218960
Si Si7 0.870571 0.619930 0.622107
Si Si8 0.845887 0.082552 0.539222
O O1 0.876782 0.746420 0.945907
O O2 0.859174 0.835554 0.054917
O O3 0.000000 0.000000 0.978497
O O4 0.099664 0.748843 0.019072
O O5 0.782325 0.931759 0.360246
O O6 0.776388 0.005451 0.481671
O O7 0.000000 0.000000 0.420969
O O8 0.647319 0.248113 0.177544
O O9 0.500000 0.000000 0.203761
O O10 0.748500 0.032217 0.251453
O O11 0.732813 0.968265 0.145123
O O12 0.852037 0.753943 0.269075
O O13 0.000000 0.000000 0.293473
O O14 0.500000 0.500000 0.144904
O O15 0.262892 0.471359 0.201756
O O16 0.252233 0.577335 0.095572
O O17 0.906445 0.734030 0.162417
O O18 0.000000 0.500000 0.229394
O O19 0.000000 0.500000 0.627223
O O20 0.000000 0.000000 0.550380
#
# Coordination Sequence:
#
# PCOD9341860 Si02
#       8
#     4   4   4   4   4   4   4   4
#     4   9  15  26  49  77 102 127 161 206 250 291
#     4   8  17  32  50  72 100 133 168 202 242 294
#     4  11  23  37  51  72 104 139 168 204 257 311
#     4  10  20  36  54  73 101 139 175 204 244 303
#     4  12  22  33  52  79 104 128 167 216 257 298
#     4  11  19  30  50  77 103 131 168 214 253 289
#     4  10  18  31  51  76 105 138 164 197 255 314
#     4   9  18  33  53  76 105 133 161 201 252 304
#
# _framework density 17.02749
#
# number of rings (size 3 to 8) (size 9 to 14) (size 15 to 20)
#    0.000    2.250    0.000    8.625    0.000    1.000 
#    0.000    1.875    0.000    0.000    0.000    3.500 
#    0.000    0.000    0.000    0.000    0.000    0.000 
#
# Total GULP energy -178318.125440 kJ/mol
# GULP energy per Si atom -5572.441420 kJ/mol
# Density = 1.698873 g / cm^3
# Si number density = 17.027490 Si / 1000 Ang^3
#
#
#
# Elastic Constant Matrix: (Units=GPa)
#
#
# Indices 1 2 3 4 5 6 
#
# 1 81.8076 30.9115 37.1055 0.0000 0.0000 0.0000
# 2 30.9115 130.7432 52.5091 0.0000 0.0000 0.0000
# 3 37.1055 52.5091 118.7400 0.0000 0.0000 0.0000
# 4 0.0000 0.0000 0.0000 5.4660 0.0000 0.0000
# 5 0.0000 0.0000 0.0000 0.0000 -0.5623 0.0000
# 6 0.0000 0.0000 0.0000 0.0000 0.0000 21.8299
#
#
#
# Elastic Compliance Matrix: (Units=1/GPa)
#
#
# Indices 1 2 3 4 5 6 
#
# 1 0.014651 -0.001976 -0.003704 0.000000 0.000000 0.000000
# 2 -0.001976 0.009567 -0.003613 0.000000 0.000000 0.000000
# 3 -0.003704 -0.003613 0.011177 0.000000 0.000000 0.000000
# 4 0.000000 0.000000 0.000000 0.182949 0.000000 0.000000
# 5 0.000000 0.000000 0.000000 0.000000 -1.778306 0.000000
# 6 0.000000 0.000000 0.000000 0.000000 0.000000 0.045809
#
#
# Mechanical properties :
#
#
# Convention : Reuss Voigt Hill
#
# Bulk Modulus (GPa) = 59.49726 63.59366 61.54546
# Shear Modulus (GPa) = -3.35579 19.39771 8.02096
#
# Velocity S-wave (km/s) = -1.40538 3.37886 2.17275
# Velocity P-wave (km/s) = 5.69072 7.25610 6.52056
#
# Compressibility (1/GPa) = 0.01680750
#
# Stress axis : x y z
#
# Youngs Moduli (GPa) = 68.25622 104.52713 89.46819
#
# Poissons Ratio (x) = 0.20656 0.33142
# Poissons Ratio (y) = 0.13488 0.32326
# Poissons Ratio (z) = 0.25285 0.37767
#
# Static dielectric constant tensor:
#      x y z
#    x 1.567900 0.000000 0.000000 
#    y 0.000000 1.616660 0.000000 
#    z 0.000000 0.000000 1.601660 
# 
# From -- ./inp_files/7372.got.cif
#   From: 2010.05.17/outbox.cif.g08.bks.cpg/sg30_4_cif.got.tgz:7372.got - 2010.06.03 17:03:02.
