data_PCOD9341997
_publ_section_title
;
Structure prediction by ZEFSAII (Michael W. Deem and Ramdas Pophale) SiO2 
 PCOD9341997
Probable space group: P N C 2
;
_chemical_formula_sum "Si O2"
_cell_formula_units_Z 16
_cell_length_a 7.352767
_cell_length_b 8.358505
_cell_length_c 11.682446
_cell_angle_alpha 90.000000
_cell_angle_beta 90.000000
_cell_angle_gamma 90.000000
_cell_volume 717.981399
_symmetry_space_group_name_H-M "P N C 2"
_symmetry_group_IT_number 30
_symmetry_cell_setting 'orthorhombic'
loop_
_space_group_symop_operation_xyz
x,y,z
-x,-y,z
-x,1/2+y,1/2+z
x,1/2-y,1/2+z
loop_
_atom_site_type_symbol
_atom_site_label
_atom_site_fract_x
_atom_site_fract_y
_atom_site_fract_z
Si Si1 0.175380 0.914482 0.563010
Si Si2 0.753194 0.906219 0.804391
Si Si3 0.935513 0.322236 0.735369
Si Si4 0.383259 0.762328 0.879719
O O1 0.078096 0.756882 0.612129
O O2 0.341243 0.849444 0.488006
O O3 0.241177 0.017742 0.674398
O O4 0.000000 0.000000 0.504090
O O5 0.586520 0.790975 0.836975
O O6 0.935284 0.799733 0.807430
O O7 0.711531 0.060417 0.884616
O O8 0.732380 0.322048 0.781901
O O9 0.000000 0.500000 0.732882
#
# Coordination Sequence:
#
# PCOD9341997 Si02
#       4
#     4   4   4   4
#     4   9  19  39  65  91 125 169 215 266 323 380
#     4   9  21  40  60  90 130 162 209 272 315 379
#     4  10  21  38  59  88 127 164 208 265 320 381
#     4  10  19  39  64  87 121 169 212 258 321 377
#
# _framework density 22.284699
#
# number of rings (size 3 to 8) (size 9 to 14) (size 15 to 20)
#    0.000    2.500    0.000    3.000    0.000    3.000 
#    0.000   45.000    0.000    0.000    0.000    0.000 
#    0.000    0.000    0.000    0.000    0.000    0.000 
#
# Total GULP energy -89091.727079 kJ/mol
# GULP energy per Si atom -5568.232942 kJ/mol
# Density = 2.223398 g / cm^3
# Si number density = 22.284699 Si / 1000 Ang^3
#
#
#
# Elastic Constant Matrix: (Units=GPa)
#
#
# Indices 1 2 3 4 5 6 
#
# 1 125.7029 19.0283 30.0670 0.0000 0.0000 0.0000
# 2 19.0283 55.5942 29.3661 0.0000 0.0000 0.0000
# 3 30.0670 29.3661 63.4377 0.0000 0.0000 0.0000
# 4 0.0000 0.0000 0.0000 14.1962 0.0000 0.0000
# 5 0.0000 0.0000 0.0000 0.0000 23.7588 0.0000
# 6 0.0000 0.0000 0.0000 0.0000 0.0000 41.4429
#
#
#
# Elastic Compliance Matrix: (Units=1/GPa)
#
#
# Indices 1 2 3 4 5 6 
#
# 1 0.009023 -0.001098 -0.003768 0.000000 0.000000 0.000000
# 2 -0.001098 0.023943 -0.010563 0.000000 0.000000 0.000000
# 3 -0.003768 -0.010563 0.022439 0.000000 0.000000 0.000000
# 4 0.000000 0.000000 0.000000 0.070441 0.000000 0.000000
# 5 0.000000 0.000000 0.000000 0.000000 0.042090 0.000000
# 6 0.000000 0.000000 0.000000 0.000000 0.000000 0.024130
#
#
# Mechanical properties :
#
#
# Convention : Reuss Voigt Hill
#
# Bulk Modulus (GPa) = 40.73881 44.62861 42.68371
# Shear Modulus (GPa) = 21.63505 26.96447 24.29976
#
# Velocity S-wave (km/s) = 3.11922 3.48228 3.30574
# Velocity P-wave (km/s) = 5.59406 6.01983 5.81085
#
# Compressibility (1/GPa) = 0.02454662
#
# Stress axis : x y z
#
# Youngs Moduli (GPa) = 110.83059 41.76594 44.56451
#
# Poissons Ratio (x) = 0.04585 0.16793
# Poissons Ratio (y) = 0.12166 0.47074
# Poissons Ratio (z) = 0.41764 0.44118
#
# Static dielectric constant tensor:
#      x y z
#    x 1.830850 0.000000 0.000000 
#    y 0.000000 1.940340 0.000000 
#    z 0.000000 0.000000 1.890380 
# 
# From -- ./inp_files/3458.got.cif
#   From: 2010.05.17/outbox.cif.g08.bks.cpg/sg30_2_cif.got.tgz:3458.got - 2010.06.03 17:03:02.
