data_PCOD9341939
_publ_section_title
;
Structure prediction by ZEFSAII (Michael W. Deem and Ramdas Pophale) SiO2 
 PCOD9341939
Probable space group: P N C 2
;
_chemical_formula_sum "Si O2"
_cell_formula_units_Z 20
_cell_length_a 21.924482
_cell_length_b 8.094603
_cell_length_c 5.243764
_cell_angle_alpha 90.000000
_cell_angle_beta 90.000000
_cell_angle_gamma 90.000000
_cell_volume 930.610681
_symmetry_space_group_name_H-M "P N C 2"
_symmetry_group_IT_number 30
_symmetry_cell_setting 'orthorhombic'
loop_
_space_group_symop_operation_xyz
x,y,z
-x,-y,z
-x,1/2+y,1/2+z
x,1/2-y,1/2+z
loop_
_atom_site_type_symbol
_atom_site_label
_atom_site_fract_x
_atom_site_fract_y
_atom_site_fract_z
Si Si1 0.815163 0.642819 0.954220
Si Si2 0.052087 0.363895 0.040041
Si Si3 0.618275 0.328541 0.874351
Si Si4 0.316807 0.357737 0.055362
Si Si5 0.517323 0.691488 0.333579
O O1 0.815093 0.706614 0.662314
O O2 0.879871 0.558518 0.010893
O O3 0.750421 0.559580 0.012194
O O4 0.047448 0.232179 0.808747
O O5 0.000000 0.500000 0.019560
O O6 0.641145 0.198051 0.087424
O O7 0.634505 0.502038 0.994498
O O8 0.545445 0.297710 0.857704
O O9 0.319644 0.283411 0.337939
O O10 0.500000 0.500000 0.310377
O O11 0.550760 0.772632 0.096299
#
# Coordination Sequence:
#
# PCOD9341939 Si02
#       5
#     4   4   4   4   4
#     4   8  16  30  50  73 101 137 175 214 262 316
#     4  10  19  33  51  74 105 140 179 222 264 314
#     4  10  21  38  55  81 113 139 169 216 268 311
#     4  10  19  35  58  81 103 138 182 219 260 316
#     4  10  21  40  60  81 109 142 176 213 259 313
#
# _framework density 21.491264999999999
#
# number of rings (size 3 to 8) (size 9 to 14) (size 15 to 20)
#    0.000    2.400    0.000    2.400    0.000    0.000 
#    0.000   26.000    0.000    0.000    0.000    0.000 
#    0.000    0.000    0.000    0.000    0.000    0.000 
#
# Total GULP energy -111646.602115 kJ/mol
# GULP energy per Si atom -5582.330106 kJ/mol
# Density = 2.144235 g / cm^3
# Si number density = 21.491265 Si / 1000 Ang^3
#
#
#
# Elastic Constant Matrix: (Units=GPa)
#
#
# Indices 1 2 3 4 5 6 
#
# 1 115.1923 38.1184 -2.3857 0.0000 0.0000 0.0000
# 2 38.1184 54.6864 5.3256 0.0000 0.0000 0.0000
# 3 -2.3857 5.3256 149.0178 0.0000 0.0000 0.0000
# 4 0.0000 0.0000 0.0000 26.4625 0.0000 0.0000
# 5 0.0000 0.0000 0.0000 0.0000 26.0466 0.0000
# 6 0.0000 0.0000 0.0000 0.0000 0.0000 30.0475
#
#
#
# Elastic Compliance Matrix: (Units=1/GPa)
#
#
# Indices 1 2 3 4 5 6 
#
# 1 0.011316 -0.007933 0.000465 0.000000 0.000000 0.000000
# 2 -0.007933 0.023911 -0.000982 0.000000 0.000000 0.000000
# 3 0.000465 -0.000982 0.006753 0.000000 0.000000 0.000000
# 4 0.000000 0.000000 0.000000 0.037789 0.000000 0.000000
# 5 0.000000 0.000000 0.000000 0.000000 0.038393 0.000000
# 6 0.000000 0.000000 0.000000 0.000000 0.000000 0.033281
#
#
# Mechanical properties :
#
#
# Convention : Reuss Voigt Hill
#
# Bulk Modulus (GPa) = 39.87127 44.55703 42.21415
# Shear Modulus (GPa) = 28.29618 35.03386 31.66502
#
# Velocity S-wave (km/s) = 3.63248 4.04188 3.84264
# Velocity P-wave (km/s) = 6.01547 6.52381 6.27479
#
# Compressibility (1/GPa) = 0.02508072
#
# Stress axis : x y z
#
# Youngs Moduli (GPa) = 88.37199 41.82159 148.07957
#
# Poissons Ratio (x) = 0.33176 -0.06881
# Poissons Ratio (y) = 0.70104 0.14535
# Poissons Ratio (z) = -0.04106 0.04105
#
# Static dielectric constant tensor:
#      x y z
#    x 1.859540 0.000000 0.000000 
#    y 0.000000 1.745180 0.000000 
#    z 0.000000 0.000000 1.940960 
# 
# From -- ./inp_files/990.got.cif
#   From: 2010.05.17/outbox.cif.g08.bks.cpg/sg30_1_cif.got.tgz:990.got - 2010.06.03 17:03:02.
