data_PCOD9341956
_publ_section_title
;
Structure prediction by ZEFSAII (Michael W. Deem and Ramdas Pophale) SiO2 
 PCOD9341956
Probable space group: P N C 2
;
_chemical_formula_sum "Si O2"
_cell_formula_units_Z 28
_cell_length_a 6.632488
_cell_length_b 28.753873
_cell_length_c 5.804596
_cell_angle_alpha 90.000000
_cell_angle_beta 90.000000
_cell_angle_gamma 90.000000
_cell_volume 1106.992864
_symmetry_space_group_name_H-M "P N C 2"
_symmetry_group_IT_number 30
_symmetry_cell_setting 'orthorhombic'
loop_
_space_group_symop_operation_xyz
x,y,z
-x,-y,z
-x,1/2+y,1/2+z
x,1/2-y,1/2+z
loop_
_atom_site_type_symbol
_atom_site_label
_atom_site_fract_x
_atom_site_fract_y
_atom_site_fract_z
Si Si1 0.739830 0.986012 0.015530
Si Si2 0.480638 0.869135 0.769106
Si Si3 0.155100 0.588473 0.577890
Si Si4 0.800878 0.253344 0.789677
Si Si5 0.122789 0.850664 0.455192
Si Si6 0.113351 0.168312 0.840667
Si Si7 0.657691 0.956597 0.518989
O O1 0.859214 0.034556 0.033278
O O2 0.500000 0.000000 0.007336
O O3 0.755262 0.958014 0.261166
O O4 0.779768 0.965030 0.759693
O O5 0.297382 0.843184 0.643554
O O6 0.555754 0.907674 0.586758
O O7 0.648809 0.835181 0.875169
O O8 0.369935 0.896034 0.974844
O O9 0.992784 0.625413 0.476983
O O10 0.156129 0.599861 0.845360
O O11 0.695555 0.249989 0.540253
O O12 0.993553 0.217849 0.824815
O O13 0.870937 0.307033 0.788148
O O14 0.910772 0.848620 0.577314
O O15 0.500000 0.000000 0.509710
#
# Coordination Sequence:
#
# PCOD9341956 Si02
#       7
#     4   4   4   4   4   4   4
#     4  10  19  34  64  89 130 180 218 276 339 393
#     4  11  23  41  69 103 133 181 238 284 346 418
#     4  11  21  41  69  94 133 183 229 280 348 409
#     4  10  20  44  68  92 135 181 219 282 354 406
#     4  10  22  41  71  93 132 183 226 281 347 420
#     4  10  24  42  66 100 139 176 224 296 348 414
#     4  10  19  37  61  92 134 177 219 281 336 397
#
# _framework density 25.293751
#
# number of rings (size 3 to 8) (size 9 to 14) (size 15 to 20)
#    0.000    1.714    4.286    1.714    2.000    1.143 
#    0.000    9.286    0.000    0.000    0.000    0.000 
#    0.000    0.000    0.000    0.000    0.000    0.000 
#
# Total GULP energy -156005.163387 kJ/mol
# GULP energy per Si atom -5571.612978 kJ/mol
# Density = 2.523618 g / cm^3
# Si number density = 25.293751 Si / 1000 Ang^3
#
#
#
# Elastic Constant Matrix: (Units=GPa)
#
#
# Indices 1 2 3 4 5 6 
#
# 1 58.4492 23.3719 -5.2604 0.0000 0.0000 0.0000
# 2 23.3719 98.5103 -4.0985 0.0000 0.0000 0.0000
# 3 -5.2604 -4.0985 137.7691 0.0000 0.0000 0.0000
# 4 0.0000 0.0000 0.0000 47.2149 0.0000 0.0000
# 5 0.0000 0.0000 0.0000 0.0000 18.9634 0.0000
# 6 0.0000 0.0000 0.0000 0.0000 0.0000 32.1714
#
#
#
# Elastic Compliance Matrix: (Units=1/GPa)
#
#
# Indices 1 2 3 4 5 6 
#
# 1 0.018950 -0.004471 0.000591 0.000000 0.000000 0.000000
# 2 -0.004471 0.011219 0.000163 0.000000 0.000000 0.000000
# 3 0.000591 0.000163 0.007286 0.000000 0.000000 0.000000
# 4 0.000000 0.000000 0.000000 0.021180 0.000000 0.000000
# 5 0.000000 0.000000 0.000000 0.000000 0.052733 0.000000
# 6 0.000000 0.000000 0.000000 0.000000 0.000000 0.031084
#
#
# Mechanical properties :
#
#
# Convention : Reuss Voigt Hill
#
# Bulk Modulus (GPa) = 33.31212 35.86164 34.58688
# Shear Modulus (GPa) = 31.27090 38.38432 34.82761
#
# Velocity S-wave (km/s) = 3.51993 3.89979 3.71472
# Velocity P-wave (km/s) = 5.45148 5.87253 5.66592
#
# Compressibility (1/GPa) = 0.03001911
#
# Stress axis : x y z
#
# Youngs Moduli (GPa) = 52.77054 89.13570 137.25102
#
# Poissons Ratio (x) = 0.39856 -0.08105
# Poissons Ratio (y) = 0.23596 -0.02238
# Poissons Ratio (z) = -0.03116 -0.01453
#
# Static dielectric constant tensor:
#      x y z
#    x 2.055120 0.000000 0.000000 
#    y 0.000000 1.996710 0.000000 
#    z 0.000000 0.000000 2.096920 
# 
# From -- ./inp_files/549.got.cif
#   From: 2010.05.17/outbox.cif.g08.bks.cpg/sg30_1_cif.got.tgz:549.got - 2010.06.03 17:03:02.
