data_PCOD9341910
_publ_section_title
;
Structure prediction by ZEFSAII (Michael W. Deem and Ramdas Pophale) SiO2 
 PCOD9341910
Probable space group: P N C 2
;
_chemical_formula_sum "Si O2"
_cell_formula_units_Z 28
_cell_length_a 5.174650
_cell_length_b 15.288818
_cell_length_c 14.671394
_cell_angle_alpha 90.000000
_cell_angle_beta 90.000000
_cell_angle_gamma 90.000000
_cell_volume 1160.716803
_symmetry_space_group_name_H-M "P N C 2"
_symmetry_group_IT_number 30
_symmetry_cell_setting 'orthorhombic'
loop_
_space_group_symop_operation_xyz
x,y,z
-x,-y,z
-x,1/2+y,1/2+z
x,1/2-y,1/2+z
loop_
_atom_site_type_symbol
_atom_site_label
_atom_site_fract_x
_atom_site_fract_y
_atom_site_fract_z
Si Si1 0.261511 0.942849 0.105440
Si Si2 0.000000 0.500000 0.303099
Si Si3 0.987081 0.777659 0.439624
Si Si4 0.872671 0.405156 0.790164
Si Si5 0.666788 0.116893 0.909209
Si Si6 0.487756 0.162948 0.536153
Si Si7 0.500000 0.000000 0.425546
Si Si8 0.389839 0.100416 0.730231
O O1 0.193595 0.876776 0.187839
O O2 0.500000 0.000000 0.143282
O O3 0.381746 0.899392 0.015267
O O4 0.000000 0.000000 0.083831
O O5 0.774141 0.474795 0.371168
O O6 0.914308 0.580169 0.240539
O O7 0.963337 0.837804 0.349531
O O8 0.099876 0.685287 0.410268
O O9 0.219957 0.818167 0.502703
O O10 0.717715 0.770661 0.492281
O O11 0.643152 0.433541 0.857636
O O12 0.000000 0.500000 0.776501
O O13 0.478455 0.142152 0.826349
O O14 0.466506 0.156770 0.644117
O O15 0.377828 0.069999 0.495616
O O16 0.500000 0.000000 0.715422
#
# Coordination Sequence:
#
# PCOD9341910 Si02
#       8
#     4   2   4   4   4   4   2   4
#     4  11  23  40  68  94 126 175 235 281 334 410
#     4  10  22  42  74  90 132 182 234 284 336 412
#     4  11  27  41  68  99 146 178 225 288 363 408
#     4  10  20  39  64  96 130 179 224 279 338 416
#     4  11  25  45  65  99 138 183 236 293 348 419
#     4  11  24  42  67 105 135 182 221 287 349 424
#     4  10  18  38  66  92 136 164 224 270 332 408
#     4  10  23  41  71 101 132 181 240 288 351 415
#
# _framework density 24.123024999999998
#
# number of rings (size 3 to 8) (size 9 to 14) (size 15 to 20)
#    0.000    1.429    3.571    1.286    6.000    1.143 
#    0.000    0.000    0.000    0.000    0.000    0.000 
#    0.000    0.000    0.000    0.000    0.000    0.000 
#
# Total GULP energy -156093.776036 kJ/mol
# GULP energy per Si atom -5574.777716 kJ/mol
# Density = 2.406812 g / cm^3
# Si number density = 24.123025 Si / 1000 Ang^3
#
#
#
# Elastic Constant Matrix: (Units=GPa)
#
#
# Indices 1 2 3 4 5 6 
#
# 1 73.8906 -4.8749 33.4655 0.0000 0.0000 0.0000
# 2 -4.8749 37.3514 14.7713 0.0000 0.0000 0.0000
# 3 33.4655 14.7713 189.4008 0.0000 0.0000 0.0000
# 4 0.0000 0.0000 0.0000 7.5749 0.0000 0.0000
# 5 0.0000 0.0000 0.0000 0.0000 64.1217 0.0000
# 6 0.0000 0.0000 0.0000 0.0000 0.0000 31.3298
#
#
#
# Elastic Compliance Matrix: (Units=1/GPa)
#
#
# Indices 1 2 3 4 5 6 
#
# 1 0.015053 0.003113 -0.002903 0.000000 0.000000 0.000000
# 2 0.003113 0.028268 -0.002755 0.000000 0.000000 0.000000
# 3 -0.002903 -0.002755 0.006008 0.000000 0.000000 0.000000
# 4 0.000000 0.000000 0.000000 0.132015 0.000000 0.000000
# 5 0.000000 0.000000 0.000000 0.000000 0.015595 0.000000
# 6 0.000000 0.000000 0.000000 0.000000 0.000000 0.031919
#
#
# Mechanical properties :
#
#
# Convention : Reuss Voigt Hill
#
# Bulk Modulus (GPa) = 22.60393 43.04075 32.82234
# Shear Modulus (GPa) = 20.10506 37.75734 28.93120
#
# Velocity S-wave (km/s) = 2.89007 3.96055 3.46688
# Velocity P-wave (km/s) = 4.53070 6.22861 5.44623
#
# Compressibility (1/GPa) = 0.04424009
#
# Stress axis : x y z
#
# Youngs Moduli (GPa) = 66.42988 35.37526 166.45855
#
# Poissons Ratio (x) = -0.11011 0.48316
# Poissons Ratio (y) = -0.20677 0.45853
# Poissons Ratio (z) = 0.19282 0.09745
#
# Static dielectric constant tensor:
#      x y z
#    x 2.030780 0.000000 0.000000 
#    y 0.000000 1.994120 0.000000 
#    z 0.000000 0.000000 1.978740 
# 
# From -- ./inp_files/4753.got.cif
#   From: 2010.05.17/outbox.cif.g08.bks.cpg/sg30_3_cif.got.tgz:4753.got - 2010.06.03 17:03:02.
