data_PCOD9341434
_publ_section_title
;
Structure prediction by ZEFSAII (Michael W. Deem and Ramdas Pophale) SiO2 
 PCOD9341434
Probable space group: P C A 21
;
_chemical_formula_sum "Si O2"
_cell_formula_units_Z 28
_cell_length_a 11.917393
_cell_length_b 7.186907
_cell_length_c 12.727708
_cell_angle_alpha 90.000000
_cell_angle_beta 90.000000
_cell_angle_gamma 90.000000
_cell_volume 1090.117947
_symmetry_space_group_name_H-M "P C A 21"
_symmetry_group_IT_number 29
_symmetry_cell_setting 'orthorhombic'
loop_
_space_group_symop_operation_xyz
x,y,z
-x,-y,1/2+z
1/2-x,y,1/2+z
1/2+x,-y,z
loop_
_atom_site_type_symbol
_atom_site_label
_atom_site_fract_x
_atom_site_fract_y
_atom_site_fract_z
Si Si1 0.390649 0.293071 0.987570
Si Si2 0.308496 0.298700 0.352615
Si Si3 0.890649 0.293071 0.363221
Si Si4 0.011053 0.193227 0.709896
Si Si5 0.659648 0.500000 0.175396
Si Si6 0.808496 0.298700 0.998177
Si Si7 0.511052 0.193227 0.640895
O O1 0.273568 0.218777 0.941038
O O2 0.500000 0.226924 0.925395
O O3 0.416096 0.262880 0.109656
O O4 0.373770 0.513673 0.965963
O O5 0.373771 0.486327 0.384828
O O6 0.401679 0.164490 0.304161
O O7 0.229963 0.380009 0.258491
O O8 0.773568 0.218777 0.409753
O O9 0.916097 0.262880 0.241135
O O10 0.920853 0.351308 0.732099
O O11 0.956608 0.000000 0.675396
O O12 0.729962 0.380007 0.092301
O O13 0.579148 0.648693 0.118692
O O14 0.901680 0.164491 0.046630
#
# Coordination Sequence:
#
# PCOD9341434 Si02
#       7
#     4   4   4   4   4   4   4
#     4  11  21  41  68  98 130 172 227 274 324 401
#     4  11  22  41  72  93 128 183 220 268 338 393
#     4  11  21  41  68  98 130 172 227 274 324 401
#     4  12  25  42  67 100 135 173 218 275 335 394
#     4  12  20  46  66  94 138 174 216 272 334 394
#     4  11  22  41  72  93 128 183 220 268 338 393
#     4  12  25  42  67 100 135 173 218 275 335 394
#
# _framework density 25.685292
#
# number of rings (size 3 to 8) (size 9 to 14) (size 15 to 20)
#    0.000    0.571    8.571    0.000    0.000    2.286 
#    0.000    7.143    0.000    0.000    0.000    0.000 
#    0.000    0.000    0.000    0.000    0.000    0.000 
#
# Total GULP energy -156830.732959 kJ/mol
# GULP energy per Si atom -5601.097606 kJ/mol
# Density = 2.562683 g / cm^3
# Si number density = 25.685292 Si / 1000 Ang^3
#
#
#
# Elastic Constant Matrix: (Units=GPa)
#
#
# Indices 1 2 3 4 5 6 
#
# 1 103.7294 20.0976 27.3160 0.0000 0.0000 0.0000
# 2 20.0976 80.9123 -17.2485 0.0000 0.0000 0.0000
# 3 27.3160 -17.2485 74.8077 0.0000 0.0000 0.0000
# 4 0.0000 0.0000 0.0000 22.9793 0.0000 0.0000
# 5 0.0000 0.0000 0.0000 0.0000 45.0668 0.0000
# 6 0.0000 0.0000 0.0000 0.0000 0.0000 12.9938
#
#
#
# Elastic Compliance Matrix: (Units=1/GPa)
#
#
# Indices 1 2 3 4 5 6 
#
# 1 0.011807 -0.004051 -0.005245 0.000000 0.000000 0.000000
# 2 -0.004051 0.014388 0.004797 0.000000 0.000000 0.000000
# 3 -0.005245 0.004797 0.016389 0.000000 0.000000 0.000000
# 4 0.000000 0.000000 0.000000 0.043517 0.000000 0.000000
# 5 0.000000 0.000000 0.000000 0.000000 0.022189 0.000000
# 6 0.000000 0.000000 0.000000 0.000000 0.000000 0.076960
#
#
# Mechanical properties :
#
#
# Convention : Reuss Voigt Hill
#
# Bulk Modulus (GPa) = 29.77578 35.53108 32.65343
# Shear Modulus (GPa) = 24.33767 31.49361 27.91564
#
# Velocity S-wave (km/s) = 3.08154 3.50542 3.30029
# Velocity P-wave (km/s) = 4.92736 5.49975 5.22140
#
# Compressibility (1/GPa) = 0.03358434
#
# Stress axis : x y z
#
# Youngs Moduli (GPa) = 84.69876 69.50373 61.01728
#
# Poissons Ratio (x) = 0.28154 0.32004
# Poissons Ratio (y) = 0.34309 -0.29267
# Poissons Ratio (z) = 0.44426 -0.33338
#
# Static dielectric constant tensor:
#      x y z
#    x 2.001270 0.000000 0.000000 
#    y 0.000000 2.008800 0.000000 
#    z 0.000000 0.000000 2.072210 
# 
# From -- ./inp_files/4498.got.cif
#   From: 2010.05.17/outbox.cif.g08.bks.cpg/sg29_3_cif.got.tgz:4498.got - 2010.06.04 01:19:37.
