data_PCOD9341033
_publ_section_title
;
Structure prediction by ZEFSAII (Michael W. Deem and Ramdas Pophale) SiO2 
 PCOD9341033
Probable space group: P C A 21
;
_chemical_formula_sum "Si O2"
_cell_formula_units_Z 28
_cell_length_a 22.372959
_cell_length_b 6.117101
_cell_length_c 8.827461
_cell_angle_alpha 90.000000
_cell_angle_beta 90.000000
_cell_angle_gamma 90.000000
_cell_volume 1208.105567
_symmetry_space_group_name_H-M "P C A 21"
_symmetry_group_IT_number 29
_symmetry_cell_setting 'orthorhombic'
loop_
_space_group_symop_operation_xyz
x,y,z
-x,-y,1/2+z
1/2-x,y,1/2+z
1/2+x,-y,z
loop_
_atom_site_type_symbol
_atom_site_label
_atom_site_fract_x
_atom_site_fract_y
_atom_site_fract_z
Si Si1 0.918255 0.137601 0.476370
Si Si2 0.809363 0.519294 0.160605
Si Si3 0.107817 0.803842 0.460780
Si Si4 0.091559 0.162814 0.685763
Si Si5 0.030087 0.418175 0.452775
Si Si6 0.322050 0.506251 0.525675
Si Si7 0.608283 0.861068 0.223543
O O1 0.859526 0.268438 0.532603
O O2 0.963803 0.329064 0.432463
O O3 0.909237 0.953989 0.347577
O O4 0.937409 0.996638 0.620350
O O5 0.842247 0.751852 0.138764
O O6 0.742204 0.493804 0.104905
O O7 0.814199 0.506405 0.343184
O O8 0.846973 0.346536 0.058410
O O9 0.051594 0.658160 0.409571
O O10 0.077388 0.966764 0.576106
O O11 0.138381 0.950440 0.329655
O O12 0.049297 0.360710 0.627636
O O13 0.072380 0.281678 0.341897
O O14 0.355334 0.304147 0.613193
#
# Coordination Sequence:
#
# PCOD9341033 Si02
#       7
#     4   4   4   4   4   4   4
#     4  12  24  44  70 110 142 186 239 293 368 428
#     4  11  26  47  69 101 141 186 246 305 351 432
#     4  10  23  46  71 100 140 189 232 289 369 422
#     4  10  22  45  69 100 139 191 233 290 363 427
#     4  10  24  43  73 103 147 185 233 296 358 442
#     4  12  28  44  72 103 143 185 246 303 357 427
#     4  11  25  45  68 107 142 188 241 288 364 436
#
# _framework density 23.176780999999998
#
# number of rings (size 3 to 8) (size 9 to 14) (size 15 to 20)
#    0.000    1.143    2.857    1.714    8.000    6.857 
#    0.000    0.000    0.000    0.000    0.000    0.000 
#    0.000    0.000    0.000    0.000    0.000    0.000 
#
# Total GULP energy -156054.156893 kJ/mol
# GULP energy per Si atom -5573.362746 kJ/mol
# Density = 2.312403 g / cm^3
# Si number density = 23.176781 Si / 1000 Ang^3
#
#
#
# Elastic Constant Matrix: (Units=GPa)
#
#
# Indices 1 2 3 4 5 6 
#
# 1 81.6299 10.0240 29.5819 0.0000 0.0000 0.0000
# 2 10.0240 83.8892 57.8064 0.0000 0.0000 0.0000
# 3 29.5819 57.8064 156.3999 0.0000 0.0000 0.0000
# 4 0.0000 0.0000 0.0000 56.7851 0.0000 0.0000
# 5 0.0000 0.0000 0.0000 0.0000 18.1583 0.0000
# 6 0.0000 0.0000 0.0000 0.0000 0.0000 3.4329
#
#
#
# Elastic Compliance Matrix: (Units=1/GPa)
#
#
# Indices 1 2 3 4 5 6 
#
# 1 0.013154 0.000191 -0.002559 0.000000 0.000000 0.000000
# 2 0.000191 0.015997 -0.005949 0.000000 0.000000 0.000000
# 3 -0.002559 -0.005949 0.009077 0.000000 0.000000 0.000000
# 4 0.000000 0.000000 0.000000 0.017610 0.000000 0.000000
# 5 0.000000 0.000000 0.000000 0.000000 0.055071 0.000000
# 6 0.000000 0.000000 0.000000 0.000000 0.000000 0.291300
#
#
# Mechanical properties :
#
#
# Convention : Reuss Voigt Hill
#
# Bulk Modulus (GPa) = 46.30640 57.41596 51.86118
# Shear Modulus (GPa) = 11.73599 30.64237 21.18918
#
# Velocity S-wave (km/s) = 2.25270 3.64003 3.02692
# Velocity P-wave (km/s) = 5.17583 6.51869 5.88568
#
# Compressibility (1/GPa) = 0.02159529
#
# Stress axis : x y z
#
# Youngs Moduli (GPa) = 76.02152 62.51268 110.17449
#
# Poissons Ratio (x) = -0.01196 0.28191
# Poissons Ratio (y) = -0.01455 0.65540
# Poissons Ratio (z) = 0.19452 0.37187
#
# Static dielectric constant tensor:
#      x y z
#    x 1.887910 0.000000 0.000000 
#    y 0.000000 1.970040 0.000000 
#    z 0.000000 0.000000 1.965240 
# 
# From -- ./inp_files/2436.got.cif
#   From: 2010.05.17/outbox.cif.g08.bks.cpg/sg29_2_cif.got.tgz:2436.got - 2010.06.04 01:19:37.
