data_PCOD9341323
_publ_section_title
;
Structure prediction by ZEFSAII (Michael W. Deem and Ramdas Pophale) SiO2 
 PCOD9341323
Probable space group: P C A 21
;
_chemical_formula_sum "Si O2"
_cell_formula_units_Z 28
_cell_length_a 10.178729
_cell_length_b 10.544960
_cell_length_c 9.452542
_cell_angle_alpha 90.000000
_cell_angle_beta 90.000000
_cell_angle_gamma 90.000000
_cell_volume 1014.581886
_symmetry_space_group_name_H-M "P C A 21"
_symmetry_group_IT_number 29
_symmetry_cell_setting 'orthorhombic'
loop_
_space_group_symop_operation_xyz
x,y,z
-x,-y,1/2+z
1/2-x,y,1/2+z
1/2+x,-y,z
loop_
_atom_site_type_symbol
_atom_site_label
_atom_site_fract_x
_atom_site_fract_y
_atom_site_fract_z
Si Si1 0.050208 0.244179 0.686520
Si Si2 0.724998 0.030783 0.386722
Si Si3 0.958805 0.856629 0.472915
Si Si4 0.658746 0.689556 0.198031
Si Si5 0.300146 0.831653 0.629080
Si Si6 0.318959 0.561110 0.173307
Si Si7 0.014897 0.434060 0.443480
O O1 0.203971 0.240200 0.675566
O O2 0.987529 0.348049 0.582005
O O3 0.953376 0.132370 0.647381
O O4 0.024438 0.252547 0.853295
O O5 0.758678 0.056032 0.224107
O O6 0.770758 0.158193 0.466365
O O7 0.817844 0.920632 0.442159
O O8 0.946895 0.778398 0.618847
O O9 0.072621 0.959454 0.435189
O O10 0.705862 0.546916 0.153039
O O11 0.612072 0.659537 0.355593
O O12 0.242874 0.699513 0.683502
O O13 0.405190 0.537097 0.319997
O O14 0.406116 0.543491 0.029657
#
# Coordination Sequence:
#
# PCOD9341323 Si02
#       7
#     4   4   4   4   4   4   4
#     4  10  24  47  75 108 152 207 265 335 404 494
#     4  11  28  50  81 113 160 209 269 346 406 496
#     4  11  27  53  80 115 161 208 282 337 425 487
#     4  11  26  47  77 114 155 213 266 339 407 498
#     4  11  26  48  73 114 156 203 266 331 419 493
#     4  11  27  47  77 112 161 210 271 339 415 508
#     4  11  26  44  75 112 157 210 269 329 420 486
#
# _framework density 27.597577999999999
#
# number of rings (size 3 to 8) (size 9 to 14) (size 15 to 20)
#    0.000    1.143    0.000    3.429   12.000    6.857 
#    2.571    0.000    0.000    0.000    0.000    0.000 
#    0.000    0.000    0.000    0.000    0.000    0.000 
#
# Total GULP energy -156012.311345 kJ/mol
# GULP energy per Si atom -5571.868262 kJ/mol
# Density = 2.753476 g / cm^3
# Si number density = 27.597578 Si / 1000 Ang^3
#
#
#
# Elastic Constant Matrix: (Units=GPa)
#
#
# Indices 1 2 3 4 5 6 
#
# 1 142.8885 46.3380 58.3949 0.0000 0.0000 0.0000
# 2 46.3380 110.8972 63.4342 0.0000 0.0000 0.0000
# 3 58.3949 63.4342 162.1722 0.0000 0.0000 0.0000
# 4 0.0000 0.0000 0.0000 53.7447 0.0000 0.0000
# 5 0.0000 0.0000 0.0000 0.0000 17.8324 0.0000
# 6 0.0000 0.0000 0.0000 0.0000 0.0000 30.4384
#
#
#
# Elastic Compliance Matrix: (Units=1/GPa)
#
#
# Indices 1 2 3 4 5 6 
#
# 1 0.008662 -0.002364 -0.002194 0.000000 0.000000 0.000000
# 2 -0.002364 0.012262 -0.003945 0.000000 0.000000 0.000000
# 3 -0.002194 -0.003945 0.008499 0.000000 0.000000 0.000000
# 4 0.000000 0.000000 0.000000 0.018606 0.000000 0.000000
# 5 0.000000 0.000000 0.000000 0.000000 0.056078 0.000000
# 6 0.000000 0.000000 0.000000 0.000000 0.000000 0.032853
#
#
# Mechanical properties :
#
#
# Convention : Reuss Voigt Hill
#
# Bulk Modulus (GPa) = 80.53863 83.58801 82.06332
# Shear Modulus (GPa) = 31.62437 36.92250 34.27344
#
# Velocity S-wave (km/s) = 3.38880 3.66168 3.52788
# Velocity P-wave (km/s) = 6.67522 6.94487 6.81138
#
# Compressibility (1/GPa) = 0.01241640
#
# Stress axis : x y z
#
# Youngs Moduli (GPa) = 115.44836 81.55422 117.65495
#
# Poissons Ratio (x) = 0.19281 0.25816
# Poissons Ratio (y) = 0.27295 0.46414
# Poissons Ratio (z) = 0.25331 0.32172
#
# Static dielectric constant tensor:
#      x y z
#    x 2.380260 0.000000 0.000000 
#    y 0.000000 2.227460 0.000000 
#    z 0.000000 0.000000 2.152780 
# 
# From -- ./inp_files/1475.got.cif
#   From: 2010.05.17/outbox.cif.g08.bks.cpg/sg29_1_cif.got.tgz:1475.got - 2010.06.04 01:19:37.
