data_PCOD9341574
_publ_section_title
;
Structure prediction by ZEFSAII (Michael W. Deem and Ramdas Pophale) SiO2 
 PCOD9341574
Probable space group: P C A 21
;
_chemical_formula_sum "Si O2"
_cell_formula_units_Z 32
_cell_length_a 11.966653
_cell_length_b 7.595385
_cell_length_c 14.656548
_cell_angle_alpha 90.000000
_cell_angle_beta 90.000000
_cell_angle_gamma 90.000000
_cell_volume 1332.153239
_symmetry_space_group_name_H-M "P C A 21"
_symmetry_group_IT_number 29
_symmetry_cell_setting 'orthorhombic'
loop_
_space_group_symop_operation_xyz
x,y,z
-x,-y,1/2+z
1/2-x,y,1/2+z
1/2+x,-y,z
loop_
_atom_site_type_symbol
_atom_site_label
_atom_site_fract_x
_atom_site_fract_y
_atom_site_fract_z
Si Si1 0.773458 0.761351 0.299440
Si Si2 0.260980 0.722693 0.025376
Si Si3 0.997415 0.261417 0.064184
Si Si4 0.655908 0.290468 0.214554
Si Si5 0.069377 0.111400 0.649930
Si Si6 0.834542 0.359452 0.340237
Si Si7 0.052023 0.365987 0.247725
Si Si8 0.742775 0.857532 0.007600
O O1 0.863312 0.872829 0.244272
O O2 0.819464 0.559805 0.303801
O O3 0.657945 0.761128 0.243027
O O4 0.740376 0.818957 0.400962
O O5 0.187762 0.637738 0.946814
O O6 0.235902 0.931880 0.023024
O O7 0.391804 0.690600 0.002277
O O8 0.228369 0.653840 0.125642
O O9 0.004954 0.396968 0.146931
O O10 0.953652 0.083693 0.113418
O O11 0.120886 0.226847 0.027209
O O12 0.553581 0.184376 0.172076
O O13 0.748507 0.229597 0.287538
O O14 0.599304 0.445309 0.273290
O O15 0.153138 0.198333 0.573438
O O16 0.958460 0.301124 0.315327
#
# Coordination Sequence:
#
# PCOD9341574 Si02
#       8
#     4   4   4   4   4   4   4   4
#     4  11  26  43  68 100 135 177 222 285 333 405
#     4  11  26  43  68 100 135 177 222 285 333 405
#     4  11  24  44  70  96 135 178 225 275 339 401
#     4  11  24  46  67  96 138 178 225 279 335 398
#     4  11  24  46  67  96 138 178 225 279 335 398
#     4  11  26  43  67 104 134 178 229 272 346 401
#     4  11  24  44  70  96 135 178 225 275 339 401
#     4  11  26  43  67 104 134 178 229 272 346 401
#
# _framework density 24.021262
#
# number of rings (size 3 to 8) (size 9 to 14) (size 15 to 20)
#    0.000    1.000    5.000    0.000    7.000    2.000 
#    0.000    0.000    0.000    0.000    0.000    0.000 
#    0.000    0.000    0.000    0.000    0.000    0.000 
#
# Total GULP energy -178778.271657 kJ/mol
# GULP energy per Si atom -5586.820989 kJ/mol
# Density = 2.396659 g / cm^3
# Si number density = 24.021262 Si / 1000 Ang^3
#
#
#
# Elastic Constant Matrix: (Units=GPa)
#
#
# Indices 1 2 3 4 5 6 
#
# 1 111.1155 19.0789 1.8328 0.0000 0.0000 0.0000
# 2 19.0789 30.1793 -1.4452 0.0000 0.0000 0.0000
# 3 1.8328 -1.4452 82.9816 0.0000 0.0000 0.0000
# 4 0.0000 0.0000 0.0000 25.1684 0.0000 0.0000
# 5 0.0000 0.0000 0.0000 0.0000 37.4291 0.0000
# 6 0.0000 0.0000 0.0000 0.0000 0.0000 22.6683
#
#
#
# Elastic Compliance Matrix: (Units=1/GPa)
#
#
# Indices 1 2 3 4 5 6 
#
# 1 0.010105 -0.006404 -0.000335 0.000000 0.000000 0.000000
# 2 -0.006404 0.037222 0.000790 0.000000 0.000000 0.000000
# 3 -0.000335 0.000790 0.012072 0.000000 0.000000 0.000000
# 4 0.000000 0.000000 0.000000 0.039732 0.000000 0.000000
# 5 0.000000 0.000000 0.000000 0.000000 0.026717 0.000000
# 6 0.000000 0.000000 0.000000 0.000000 0.000000 0.044115
#
#
# Mechanical properties :
#
#
# Convention : Reuss Voigt Hill
#
# Bulk Modulus (GPa) = 21.05254 29.24549 25.14901
# Shear Modulus (GPa) = 25.29157 30.70713 27.99935
#
# Velocity S-wave (km/s) = 3.24834 3.57925 3.41780
# Velocity P-wave (km/s) = 4.78038 5.41135 5.10562
#
# Compressibility (1/GPa) = 0.04750022
#
# Stress axis : x y z
#
# Youngs Moduli (GPa) = 98.96313 26.86603 82.83628
#
# Poissons Ratio (x) = 0.17205 0.02773
# Poissons Ratio (y) = 0.63377 -0.06541
# Poissons Ratio (z) = 0.03312 -0.02122
#
# Static dielectric constant tensor:
#      x y z
#    x 1.966170 0.000000 0.000000 
#    y 0.000000 1.978290 0.000000 
#    z 0.000000 0.000000 1.888550 
# 
# From -- ./inp_files/1856.got.cif
#   From: 2010.05.17/outbox.cif.g08.bks.cpg/sg29_1_cif.got.tgz:1856.got - 2010.06.04 01:19:37.
