data_PCOD9341673
_publ_section_title
;
Structure prediction by ZEFSAII (Michael W. Deem and Ramdas Pophale) SiO2 
 PCOD9341673
Probable space group: P C A 21
;
_chemical_formula_sum "Si O2"
_cell_formula_units_Z 20
_cell_length_a 18.929182
_cell_length_b 5.254409
_cell_length_c 7.679357
_cell_angle_alpha 90.000000
_cell_angle_beta 90.000000
_cell_angle_gamma 90.000000
_cell_volume 763.801628
_symmetry_space_group_name_H-M "P C A 21"
_symmetry_group_IT_number 29
_symmetry_cell_setting 'orthorhombic'
loop_
_space_group_symop_operation_xyz
x,y,z
-x,-y,1/2+z
1/2-x,y,1/2+z
1/2+x,-y,z
loop_
_atom_site_type_symbol
_atom_site_label
_atom_site_fract_x
_atom_site_fract_y
_atom_site_fract_z
Si Si1 0.980104 0.261318 0.686580
Si Si2 0.414609 0.229683 0.807907
Si Si3 0.396398 0.583280 0.343597
Si Si4 0.304062 0.200802 0.510003
Si Si5 0.846835 0.992708 0.136922
O O1 0.930025 0.472330 0.785067
O O2 0.948734 0.297615 0.490653
O O3 0.053380 0.357517 0.771246
O O4 0.972068 0.963598 0.727221
O O5 0.347562 0.167304 0.686410
O O6 0.401404 0.129552 0.000600
O O7 0.325757 0.484277 0.443935
O O8 0.370978 0.717353 0.165327
O O9 0.226219 0.106332 0.552875
O O10 0.334254 0.051748 0.344046
#
# Coordination Sequence:
#
# PCOD9341673 Si02
#       5
#     4   4   4   4   4
#     4  11  26  48  75 114 154 197 258 323 390 467
#     4  11  26  47  76 112 151 197 253 318 390 458
#     4  11  27  45  76 111 154 202 261 322 394 464
#     4  11  26  47  71 112 150 202 257 314 385 460
#     4  12  25  47  76 105 155 204 255 317 383 459
#
# _framework density 26.184805999999998
#
# number of rings (size 3 to 8) (size 9 to 14) (size 15 to 20)
#    0.000    0.800    4.000    1.200    8.400    3.200 
#    0.000    0.000    0.000    0.000    0.000    0.000 
#    0.000    0.000    0.000    0.000    0.000    0.000 
#
# Total GULP energy -111495.522271 kJ/mol
# GULP energy per Si atom -5574.776114 kJ/mol
# Density = 2.612521 g / cm^3
# Si number density = 26.184806 Si / 1000 Ang^3
#
#
#
# Elastic Constant Matrix: (Units=GPa)
#
#
# Indices 1 2 3 4 5 6 
#
# 1 85.4290 17.5802 16.4948 0.0000 0.0000 0.0000
# 2 17.5802 58.7363 27.7217 0.0000 0.0000 0.0000
# 3 16.4948 27.7217 164.1163 0.0000 0.0000 0.0000
# 4 0.0000 0.0000 0.0000 61.8063 0.0000 0.0000
# 5 0.0000 0.0000 0.0000 0.0000 9813.2490 0.0000
# 6 0.0000 0.0000 0.0000 0.0000 0.0000 32.3705
#
#
#
# Elastic Compliance Matrix: (Units=1/GPa)
#
#
# Indices 1 2 3 4 5 6 
#
# 1 0.012544 -0.003433 -0.000681 0.000000 0.000000 0.000000
# 2 -0.003433 0.019440 -0.002939 0.000000 0.000000 0.000000
# 3 -0.000681 -0.002939 0.006658 0.000000 0.000000 0.000000
# 4 0.000000 0.000000 0.000000 0.016180 0.000000 0.000000
# 5 0.000000 0.000000 0.000000 0.000000 0.000102 0.000000
# 6 0.000000 0.000000 0.000000 0.000000 0.000000 0.030892
#
#
# Mechanical properties :
#
#
# Convention : Reuss Voigt Hill
#
# Bulk Modulus (GPa) = 40.75588 47.98614 44.37101
# Shear Modulus (GPa) = 46.25397 1997.91750 1022.08573
#
# Velocity S-wave (km/s) = 4.20747 27.65254 19.77834
# Velocity P-wave (km/s) = 6.26117 32.21671 23.20688
#
# Compressibility (1/GPa) = 0.02453634
#
# Stress axis : x y z
#
# Youngs Moduli (GPa) = 79.72223 51.44108 150.19423
#
# Poissons Ratio (x) = 0.17660 0.10226
# Poissons Ratio (y) = 0.27369 0.44136
# Poissons Ratio (z) = 0.05428 0.15117
#
# Static dielectric constant tensor:
#      x y z
#    x 0.265140 0.000000 0.000000 
#    y 0.000000 2.470090 0.000000 
#    z 0.000000 0.000000 2.016650 
# 
# From -- ./inp_files/1977.got.cif
#   From: 2010.05.17/outbox.cif.g08.bks.cpg/sg29_1_cif.got.tgz:1977.got - 2010.06.04 01:19:37.
