data_PCOD9341727
_publ_section_title
;
Structure prediction by ZEFSAII (Michael W. Deem and Ramdas Pophale) SiO2 
 PCOD9341727
Probable space group: P C A 21
;
_chemical_formula_sum "Si O2"
_cell_formula_units_Z 32
_cell_length_a 18.099831
_cell_length_b 8.258857
_cell_length_c 9.399236
_cell_angle_alpha 90.000000
_cell_angle_beta 90.000000
_cell_angle_gamma 90.000000
_cell_volume 1405.034604
_symmetry_space_group_name_H-M "P C A 21"
_symmetry_group_IT_number 29
_symmetry_cell_setting 'orthorhombic'
loop_
_space_group_symop_operation_xyz
x,y,z
-x,-y,1/2+z
1/2-x,y,1/2+z
1/2+x,-y,z
loop_
_atom_site_type_symbol
_atom_site_label
_atom_site_fract_x
_atom_site_fract_y
_atom_site_fract_z
Si Si1 0.124085 0.115442 0.456500
Si Si2 0.571828 0.890900 0.948365
Si Si3 0.523056 0.747281 0.679362
Si Si4 0.906186 0.421463 0.101065
Si Si5 0.718754 0.725629 0.993559
Si Si6 0.627788 0.237920 0.315529
Si Si7 0.497895 0.171904 0.755571
Si Si8 0.748188 0.495290 0.231001
O O1 0.072983 0.119812 0.597128
O O2 0.200880 0.193689 0.499523
O O3 0.075394 0.216968 0.344078
O O4 0.137570 0.941425 0.382350
O O5 0.551414 0.744219 0.841691
O O6 0.435384 0.773682 0.693753
O O7 0.537446 0.040229 0.859056
O O8 0.534064 0.877406 0.101176
O O9 0.544852 0.581859 0.604498
O O10 0.659050 0.866800 0.968081
O O11 0.942535 0.306149 0.218698
O O12 0.821630 0.453938 0.142925
O O13 0.903815 0.341672 0.946733
O O14 0.724417 0.592601 0.869083
O O15 0.702868 0.624602 0.136226
O O16 0.699666 0.335944 0.263525
#
# Coordination Sequence:
#
# PCOD9341727 Si02
#       8
#     4   4   4   4   4   4   4   4
#     4  12  27  52  76 111 156 197 250 328 384 473
#     4  12  25  48  73 110 149 202 255 313 384 466
#     4  12  25  47  78 107 147 205 254 313 390 450
#     4  12  26  46  75 108 157 196 250 326 370 463
#     4  12  26  50  76 109 154 204 254 311 403 462
#     4  12  28  48  75 115 155 194 264 319 384 456
#     4  12  27  46  77 111 153 197 264 315 384 462
#     4  12  26  49  72 109 157 201 257 319 379 474
#
# _framework density 22.775238999999999
#
# number of rings (size 3 to 8) (size 9 to 14) (size 15 to 20)
#    0.000    0.000    6.250    2.250    7.000    1.000 
#    2.250    0.000    0.000    0.000    0.000    0.000 
#    0.000    0.000    0.000    0.000    0.000    0.000 
#
# Total GULP energy -178900.318411 kJ/mol
# GULP energy per Si atom -5590.634950 kJ/mol
# Density = 2.272340 g / cm^3
# Si number density = 22.775239 Si / 1000 Ang^3
#
#
#
# Elastic Constant Matrix: (Units=GPa)
#
#
# Indices 1 2 3 4 5 6 
#
# 1 135.0646 43.6701 32.1358 0.0000 0.0000 0.0000
# 2 43.6701 85.5052 27.2982 0.0000 0.0000 0.0000
# 3 32.1358 27.2982 105.5368 0.0000 0.0000 0.0000
# 4 0.0000 0.0000 0.0000 24.7231 0.0000 0.0000
# 5 0.0000 0.0000 0.0000 0.0000 28.4280 0.0000
# 6 0.0000 0.0000 0.0000 0.0000 0.0000 42.7655
#
#
#
# Elastic Compliance Matrix: (Units=1/GPa)
#
#
# Indices 1 2 3 4 5 6 
#
# 1 0.009146 -0.004122 -0.001719 0.000000 0.000000 0.000000
# 2 -0.004122 0.014606 -0.002523 0.000000 0.000000 0.000000
# 3 -0.001719 -0.002523 0.010651 0.000000 0.000000 0.000000
# 4 0.000000 0.000000 0.000000 0.040448 0.000000 0.000000
# 5 0.000000 0.000000 0.000000 0.000000 0.035177 0.000000
# 6 0.000000 0.000000 0.000000 0.000000 0.000000 0.023383
#
#
# Mechanical properties :
#
#
# Convention : Reuss Voigt Hill
#
# Bulk Modulus (GPa) = 56.57516 59.14608 57.86062
# Shear Modulus (GPa) = 32.04520 34.05018 33.04769
#
# Velocity S-wave (km/s) = 3.75509 3.87079 3.81338
# Velocity P-wave (km/s) = 6.61026 6.78256 6.69697
#
# Compressibility (1/GPa) = 0.01767560
#
# Stress axis : x y z
#
# Youngs Moduli (GPa) = 109.34220 68.46513 93.88614
#
# Poissons Ratio (x) = 0.28223 0.16135
# Poissons Ratio (y) = 0.45074 0.23685
# Poissons Ratio (z) = 0.18791 0.17272
#
# Static dielectric constant tensor:
#      x y z
#    x 1.844290 0.000000 0.000000 
#    y 0.000000 1.905840 0.000000 
#    z 0.000000 0.000000 1.852830 
# 
# From -- ./inp_files/2307.got.cif
#   From: 2010.05.17/outbox.cif.g08.bks.cpg/sg29_2_cif.got.tgz:2307.got - 2010.06.04 01:19:37.
