data_PCOD9341296
_publ_section_title
;
Structure prediction by ZEFSAII (Michael W. Deem and Ramdas Pophale) SiO2 
 PCOD9341296
Probable space group: P C A 21
;
_chemical_formula_sum "Si O2"
_cell_formula_units_Z 32
_cell_length_a 11.134187
_cell_length_b 6.345801
_cell_length_c 17.701151
_cell_angle_alpha 90.000000
_cell_angle_beta 90.000000
_cell_angle_gamma 90.000000
_cell_volume 1250.680754
_symmetry_space_group_name_H-M "P C A 21"
_symmetry_group_IT_number 29
_symmetry_cell_setting 'orthorhombic'
loop_
_space_group_symop_operation_xyz
x,y,z
-x,-y,1/2+z
1/2-x,y,1/2+z
1/2+x,-y,z
loop_
_atom_site_type_symbol
_atom_site_label
_atom_site_fract_x
_atom_site_fract_y
_atom_site_fract_z
Si Si1 0.869155 0.501058 0.322210
Si Si2 0.533221 0.326529 0.528790
Si Si3 0.686906 0.187179 0.382883
Si Si4 0.148934 0.897031 0.668732
Si Si5 0.157524 0.293386 0.560567
Si Si6 0.272149 0.498277 0.688316
Si Si7 0.445310 0.182879 0.784892
Si Si8 0.173413 0.151056 0.942956
O O1 0.853521 0.548499 0.233628
O O2 0.867599 0.702489 0.374657
O O3 0.986200 0.360301 0.334610
O O4 0.742519 0.382641 0.338037
O O5 0.581847 0.241043 0.606693
O O6 0.536463 0.576739 0.543827
O O7 0.416382 0.194541 0.509956
O O8 0.614685 0.271019 0.455376
O O9 0.622508 0.002320 0.332400
O O10 0.808148 0.081250 0.415135
O O11 0.268281 0.758533 0.689744
O O12 0.057892 0.917109 0.738812
O O13 0.162373 0.109410 0.621832
O O14 0.254519 0.449260 0.599830
O O15 0.200153 0.215481 0.479279
O O16 0.362690 0.328885 0.728123
#
# Coordination Sequence:
#
# PCOD9341296 Si02
#       8
#     4   4   4   4   4   4   4   4
#     4  11  26  45  69 105 145 192 243 302 375 448
#     4  11  25  45  72 109 145 193 250 306 375 448
#     4  12  25  46  71 112 149 194 247 313 370 461
#     4  10  24  49  72 108 146 195 251 302 378 444
#     4  11  24  48  73 103 146 189 249 309 367 449
#     4  10  24  45  70 103 144 186 243 303 364 441
#     4  11  25  46  73 109 151 197 251 309 379 458
#     4  12  25  44  74 103 144 192 240 308 380 443
#
# _framework density 25.586068000000001
#
# number of rings (size 3 to 8) (size 9 to 14) (size 15 to 20)
#    0.000    1.000    3.750    1.500    7.000    2.000 
#    6.750    0.000    0.000    0.000    0.000    0.000 
#    0.000    0.000    0.000    0.000    0.000    0.000 
#
# Total GULP energy -178502.817865 kJ/mol
# GULP energy per Si atom -5578.213058 kJ/mol
# Density = 2.552783 g / cm^3
# Si number density = 25.586068 Si / 1000 Ang^3
#
#
#
# Elastic Constant Matrix: (Units=GPa)
#
#
# Indices 1 2 3 4 5 6 
#
# 1 45.5830 11.9660 10.3190 0.0000 0.0000 0.0000
# 2 11.9660 75.3004 22.8164 0.0000 0.0000 0.0000
# 3 10.3190 22.8164 101.4406 0.0000 0.0000 0.0000
# 4 0.0000 0.0000 0.0000 51.4481 0.0000 0.0000
# 5 0.0000 0.0000 0.0000 0.0000 46.0770 0.0000
# 6 0.0000 0.0000 0.0000 0.0000 0.0000 36.8089
#
#
#
# Elastic Compliance Matrix: (Units=1/GPa)
#
#
# Indices 1 2 3 4 5 6 
#
# 1 0.023144 -0.003181 -0.001639 0.000000 0.000000 0.000000
# 2 -0.003181 0.014689 -0.002980 0.000000 0.000000 0.000000
# 3 -0.001639 -0.002980 0.010695 0.000000 0.000000 0.000000
# 4 0.000000 0.000000 0.000000 0.019437 0.000000 0.000000
# 5 0.000000 0.000000 0.000000 0.000000 0.021703 0.000000
# 6 0.000000 0.000000 0.000000 0.000000 0.000000 0.027167
#
#
# Mechanical properties :
#
#
# Convention : Reuss Voigt Hill
#
# Bulk Modulus (GPa) = 30.36998 34.72521 32.54760
# Shear Modulus (GPa) = 34.86473 38.68163 36.77318
#
# Velocity S-wave (km/s) = 3.69541 3.89244 3.79520
# Velocity P-wave (km/s) = 5.48667 5.81402 5.65271
#
# Compressibility (1/GPa) = 0.03292725
#
# Stress axis : x y z
#
# Youngs Moduli (GPa) = 43.20752 68.07946 93.50153
#
# Poissons Ratio (x) = 0.21658 0.15323
# Poissons Ratio (y) = 0.13746 0.27866
# Poissons Ratio (z) = 0.07081 0.20289
#
# Static dielectric constant tensor:
#      x y z
#    x 2.129200 0.000000 0.000000 
#    y 0.000000 2.169650 0.000000 
#    z 0.000000 0.000000 1.990750 
# 
# From -- ./inp_files/5537.got.cif
#   From: 2010.05.17/outbox.cif.g08.bks.cpg/sg29_3_cif.got.tgz:5537.got - 2010.06.04 01:19:37.
