data_PCOD9341533
_publ_section_title
;
Structure prediction by ZEFSAII (Michael W. Deem and Ramdas Pophale) SiO2 
 PCOD9341533
Probable space group: P C A 21
;
_chemical_formula_sum "Si O2"
_cell_formula_units_Z 24
_cell_length_a 9.369542
_cell_length_b 7.299970
_cell_length_c 16.414720
_cell_angle_alpha 90.000000
_cell_angle_beta 90.000000
_cell_angle_gamma 90.000000
_cell_volume 1122.723768
_symmetry_space_group_name_H-M "P C A 21"
_symmetry_group_IT_number 29
_symmetry_cell_setting 'orthorhombic'
loop_
_space_group_symop_operation_xyz
x,y,z
-x,-y,1/2+z
1/2-x,y,1/2+z
1/2+x,-y,z
loop_
_atom_site_type_symbol
_atom_site_label
_atom_site_fract_x
_atom_site_fract_y
_atom_site_fract_z
Si Si1 0.121961 0.910698 0.394270
Si Si2 0.378039 0.910698 0.509402
Si Si3 0.486012 0.423747 0.296485
Si Si4 0.013987 0.423747 0.607187
Si Si5 0.196094 0.299155 0.044782
Si Si6 0.696093 0.700845 0.358890
O O1 0.250000 0.841859 0.451836
O O2 0.057541 0.751731 0.339652
O O3 0.181930 0.082907 0.342972
O O4 1.000000 1.000000 0.451836
O O5 0.442459 0.751732 0.564020
O O6 0.318070 0.082908 0.560700
O O7 0.523292 0.435770 0.201836
O O8 0.547347 0.600120 0.343228
O O9 0.317140 0.397286 0.306256
O O10 0.952652 0.600120 0.560443
O O11 0.182860 0.397287 0.597415
O O12 0.250000 0.315676 0.951836
#
# Coordination Sequence:
#
# PCOD9341533 Si02
#       6
#     4   4   4   4   4   4
#     4  11  23  45  69  95 125 173 224 263 317 389
#     4  11  23  45  69  95 125 173 224 263 317 389
#     4  12  26  42  65 101 135 169 214 274 333 377
#     4  12  26  42  65 101 135 169 214 274 333 377
#     4  11  24  44  70  93 132 175 223 262 317 395
#     4  11  24  44  70  93 132 175 223 262 317 395
#
# _framework density 21.376584000000001
#
# number of rings (size 3 to 8) (size 9 to 14) (size 15 to 20)
#    0.000    0.667    6.667    3.000    4.667    2.667 
#    0.000    0.000    0.000    0.000    0.000    0.000 
#    0.000    0.000    0.000    0.000    0.000    0.000 
#
# Total GULP energy -134328.129507 kJ/mol
# GULP energy per Si atom -5597.005396 kJ/mol
# Density = 2.132793 g / cm^3
# Si number density = 21.376584 Si / 1000 Ang^3
#
#
#
# Elastic Constant Matrix: (Units=GPa)
#
#
# Indices 1 2 3 4 5 6 
#
# 1 70.4962 -16.6781 -16.7349 0.0000 0.0000 0.0000
# 2 -16.6781 58.8521 0.4242 0.0000 0.0000 0.0000
# 3 -16.7349 0.4242 52.2505 0.0000 0.0000 0.0000
# 4 0.0000 0.0000 0.0000 2.6191 0.0000 0.0000
# 5 0.0000 0.0000 0.0000 0.0000 33.5120 0.0000
# 6 0.0000 0.0000 0.0000 0.0000 0.0000 33.5949
#
#
#
# Elastic Compliance Matrix: (Units=1/GPa)
#
#
# Indices 1 2 3 4 5 6 
#
# 1 0.016533 0.004647 0.005257 0.000000 0.000000 0.000000
# 2 0.004647 0.018299 0.001340 0.000000 0.000000 0.000000
# 3 0.005257 0.001340 0.020812 0.000000 0.000000 0.000000
# 4 0.000000 0.000000 0.000000 0.381806 0.000000 0.000000
# 5 0.000000 0.000000 0.000000 0.000000 0.029840 0.000000
# 6 0.000000 0.000000 0.000000 0.000000 0.000000 0.029766
#
#
# Mechanical properties :
#
#
# Convention : Reuss Voigt Hill
#
# Bulk Modulus (GPa) = 12.79878 12.84679 12.82279
# Shear Modulus (GPa) = 9.98780 28.25106 19.11943
#
# Velocity S-wave (km/s) = 2.16390 3.63931 2.99391
# Velocity P-wave (km/s) = 3.49908 4.86644 4.23827
#
# Compressibility (1/GPa) = 0.07813246
#
# Stress axis : x y z
#
# Youngs Moduli (GPa) = 60.48636 54.64753 48.05025
#
# Poissons Ratio (x) = -0.25396 -0.25262
# Poissons Ratio (y) = -0.28110 -0.06438
# Poissons Ratio (z) = -0.31800 -0.07322
#
# Static dielectric constant tensor:
#      x y z
#    x 1.820630 0.000000 0.000000 
#    y 0.000000 1.755230 0.000000 
#    z 0.000000 0.000000 1.754800 
# 
# From -- ./inp_files/4206.got.cif
#   From: 2010.05.17/outbox.cif.g08.bks.cpg/sg29_3_cif.got.tgz:4206.got - 2010.06.04 01:19:37.
