data_PCOD9341879
_publ_section_title
;
Structure prediction by ZEFSAII (Michael W. Deem and Ramdas Pophale) SiO2 
 PCOD9341879
Probable space group: P N C 2
;
_chemical_formula_sum "Si O2"
_cell_formula_units_Z 32
_cell_length_a 11.031289
_cell_length_b 11.819808
_cell_length_c 13.064022
_cell_angle_alpha 90.000000
_cell_angle_beta 90.000000
_cell_angle_gamma 90.000000
_cell_volume 1703.388016
_symmetry_space_group_name_H-M "P N C 2"
_symmetry_group_IT_number 30
_symmetry_cell_setting 'orthorhombic'
loop_
_space_group_symop_operation_xyz
x,y,z
-x,-y,z
-x,1/2+y,1/2+z
x,1/2-y,1/2+z
loop_
_atom_site_type_symbol
_atom_site_label
_atom_site_fract_x
_atom_site_fract_y
_atom_site_fract_z
Si Si1 0.210023 0.599763 0.455670
Si Si2 0.182840 0.710071 0.798481
Si Si3 0.332924 0.594526 0.968893
Si Si4 0.011068 0.634459 0.629280
Si Si5 0.582898 0.610834 0.696692
Si Si6 0.639965 0.278914 0.612739
Si Si7 0.236010 0.358714 0.524410
Si Si8 0.609964 0.657359 0.924687
O O1 0.191901 0.666684 0.350504
O O2 0.108669 0.640875 0.537141
O O3 0.331483 0.643033 0.513769
O O4 0.206414 0.464380 0.450106
O O5 0.224840 0.628759 0.891806
O O6 0.060048 0.689155 0.734443
O O7 0.283389 0.688544 0.711763
O O8 0.462450 0.649863 0.932541
O O9 0.347043 0.460911 0.973420
O O10 0.318122 0.655011 0.077632
O O11 0.000000 0.500000 0.649726
O O12 0.887014 0.680795 0.580326
O O13 0.500000 0.500000 0.712929
O O14 0.497656 0.706579 0.646935
O O15 0.686580 0.585877 0.616015
O O16 0.635404 0.649890 0.804014
O O17 0.317273 0.261943 0.472576
#
# Coordination Sequence:
#
# PCOD9341879 Si02
#       8
#     4   4   4   4   4   4   4   4
#     4   9  20  37  61  85 114 154 201 260 288 352
#     4  10  19  38  64  85 112 155 207 251 294 363
#     4  10  20  35  57  87 120 157 192 245 303 357
#     4   9  21  38  61  87 115 159 209 247 302 364
#     4  12  20  34  61  87 118 159 198 237 299 372
#     4  10  18  34  58  85 115 149 199 240 294 354
#     4  11  23  39  58  90 124 158 197 252 310 358
#     4  11  22  35  55  87 129 154 190 249 304 371
#
# _framework density 18.786089
#
# number of rings (size 3 to 8) (size 9 to 14) (size 15 to 20)
#    0.000    1.750    5.000    0.000    3.500    1.000 
#    2.250    0.000    0.000    0.000    0.000    0.000 
#    0.000    0.000    0.000    0.000    0.000    0.000 
#
# Total GULP energy -178294.156437 kJ/mol
# GULP energy per Si atom -5571.692389 kJ/mol
# Density = 1.874333 g / cm^3
# Si number density = 18.786089 Si / 1000 Ang^3
#
#
#
# Elastic Constant Matrix: (Units=GPa)
#
#
# Indices 1 2 3 4 5 6 
#
# 1 49.2876 25.0404 3.0694 0.0000 0.0000 0.0000
# 2 25.0404 90.1233 33.6686 0.0000 0.0000 0.0000
# 3 3.0694 33.6686 49.5450 0.0000 0.0000 0.0000
# 4 0.0000 0.0000 0.0000 29.0829 0.0000 0.0000
# 5 0.0000 0.0000 0.0000 0.0000 21.6327 0.0000
# 6 0.0000 0.0000 0.0000 0.0000 0.0000 22.1215
#
#
#
# Elastic Compliance Matrix: (Units=1/GPa)
#
#
# Indices 1 2 3 4 5 6 
#
# 1 0.024236 -0.008273 0.004121 0.000000 0.000000 0.000000
# 2 -0.008273 0.017695 -0.011513 0.000000 0.000000 0.000000
# 3 0.004121 -0.011513 0.027752 0.000000 0.000000 0.000000
# 4 0.000000 0.000000 0.000000 0.034384 0.000000 0.000000
# 5 0.000000 0.000000 0.000000 0.000000 0.046226 0.000000
# 6 0.000000 0.000000 0.000000 0.000000 0.000000 0.045205
#
#
# Mechanical properties :
#
#
# Convention : Reuss Voigt Hill
#
# Bulk Modulus (GPa) = 26.07373 34.72364 30.39868
# Shear Modulus (GPa) = 20.86699 23.04592 21.95646
#
# Velocity S-wave (km/s) = 3.33643 3.50631 3.42242
# Velocity P-wave (km/s) = 5.36207 5.90898 5.64216
#
# Compressibility (1/GPa) = 0.03835278
#
# Stress axis : x y z
#
# Youngs Moduli (GPa) = 41.26152 56.51163 36.03376
#
# Poissons Ratio (x) = 0.46753 -0.14848
# Poissons Ratio (y) = 0.34136 0.41484
# Poissons Ratio (z) = -0.17002 0.65059
#
# Static dielectric constant tensor:
#      x y z
#    x 1.720840 0.000000 0.000000 
#    y 0.000000 1.700530 0.000000 
#    z 0.000000 0.000000 1.642640 
# 
# From -- ./inp_files/4147.got.cif
#   From: 2010.05.17/outbox.cif.g08.bks.cpg/sg30_3_cif.got.tgz:4147.got - 2010.06.03 17:03:02.
