data_PCOD9341973
_publ_section_title
;
Structure prediction by ZEFSAII (Michael W. Deem and Ramdas Pophale) SiO2 
 PCOD9341973
Probable space group: P N C 2
;
_chemical_formula_sum "Si O2"
_cell_formula_units_Z 18
_cell_length_a 5.530856
_cell_length_b 7.177215
_cell_length_c 17.574009
_cell_angle_alpha 90.000000
_cell_angle_beta 90.000000
_cell_angle_gamma 90.000000
_cell_volume 697.620368
_symmetry_space_group_name_H-M "P N C 2"
_symmetry_group_IT_number 30
_symmetry_cell_setting 'orthorhombic'
loop_
_space_group_symop_operation_xyz
x,y,z
-x,-y,z
-x,1/2+y,1/2+z
x,1/2-y,1/2+z
loop_
_atom_site_type_symbol
_atom_site_label
_atom_site_fract_x
_atom_site_fract_y
_atom_site_fract_z
Si Si1 0.500000 0.500000 0.445071
Si Si2 0.886046 0.796928 0.045414
Si Si3 0.244733 0.231527 0.210116
Si Si4 0.711447 0.138137 0.433706
Si Si5 0.750204 0.171315 0.268816
O O1 0.342147 0.359042 0.495110
O O2 0.660891 0.350631 0.403532
O O3 0.796574 0.705471 0.123335
O O4 0.000000 0.000000 0.061526
O O5 0.079965 0.680938 0.995254
O O6 0.502547 0.278095 0.247713
O O7 0.000100 0.279268 0.255666
O O8 0.250076 0.004241 0.210432
O O9 0.759160 0.060859 0.349440
O O10 0.500000 0.000000 0.463293
#
# Coordination Sequence:
#
# PCOD9341973 Si02
#       5
#     2   4   4   4   4
#     4  10  24  40  66  94 144 178 238 294 382 426
#     4  10  21  38  65 101 139 186 242 304 371 450
#     4  10  19  36  65  98 132 186 242 284 361 445
#     4  11  24  41  66 105 141 187 240 314 372 449
#     4  10  20  35  66  99 135 185 247 287 363 443
#
# _framework density 25.801997
#
# number of rings (size 3 to 8) (size 9 to 14) (size 15 to 20)
#    0.000    1.778    4.444    1.333    6.222    0.889 
#    0.000    0.000    2.444    0.000    0.000    0.000 
#    0.000    0.000    0.000    0.000    0.000    0.000 
#
# Total GULP energy -100297.533156 kJ/mol
# GULP energy per Si atom -5572.085175 kJ/mol
# Density = 2.574327 g / cm^3
# Si number density = 25.801997 Si / 1000 Ang^3
#
#
#
# Elastic Constant Matrix: (Units=GPa)
#
#
# Indices 1 2 3 4 5 6 
#
# 1 231.7473 33.7438 66.6405 0.0000 0.0000 0.0000
# 2 33.7438 112.5463 8.9741 0.0000 0.0000 0.0000
# 3 66.6405 8.9741 135.3960 0.0000 0.0000 0.0000
# 4 0.0000 0.0000 0.0000 -18.3460 0.0000 0.0000
# 5 0.0000 0.0000 0.0000 0.0000 36.3504 0.0000
# 6 0.0000 0.0000 0.0000 0.0000 0.0000 11.1373
#
#
#
# Elastic Compliance Matrix: (Units=1/GPa)
#
#
# Indices 1 2 3 4 5 6 
#
# 1 0.005228 -0.001370 -0.002483 0.000000 0.000000 0.000000
# 2 -0.001370 0.009291 0.000058 0.000000 0.000000 0.000000
# 3 -0.002483 0.000058 0.008604 0.000000 0.000000 0.000000
# 4 0.000000 0.000000 0.000000 -0.054508 0.000000 0.000000
# 5 0.000000 0.000000 0.000000 0.000000 0.027510 0.000000
# 6 0.000000 0.000000 0.000000 0.000000 0.000000 0.089789
#
#
# Mechanical properties :
#
#
# Convention : Reuss Voigt Hill
#
# Bulk Modulus (GPa) = 64.36844 77.60070 70.98457
# Shear Modulus (GPa) = 50.66863 30.51708 40.59285
#
# Velocity S-wave (km/s) = 4.43623 3.44283 3.97072
# Velocity P-wave (km/s) = 7.15831 6.77826 6.97088
#
# Compressibility (1/GPa) = 0.01553556
#
# Stress axis : x y z
#
# Youngs Moduli (GPa) = 191.26507 107.62839 116.22813
#
# Poissons Ratio (x) = 0.14741 0.28854
# Poissons Ratio (y) = 0.26196 -0.00677
# Poissons Ratio (z) = 0.47483 -0.00627
#
# Static dielectric constant tensor:
#      x y z
#    x 2.426150 0.000000 0.000000 
#    y 0.000000 1.980700 0.000000 
#    z 0.000000 0.000000 1.944840 
# 
# From -- ./inp_files/5824.got.cif
#   From: 2010.05.17/outbox.cif.g08.bks.cpg/sg30_3_cif.got.tgz:5824.got - 2010.06.03 17:03:02.
