data_PCOD9341185
_publ_section_title
;
Structure prediction by ZEFSAII (Michael W. Deem and Ramdas Pophale) SiO2 
 PCOD9341185
Probable space group: P C A 21
;
_chemical_formula_sum "Si O2"
_cell_formula_units_Z 20
_cell_length_a 8.537423
_cell_length_b 11.468452
_cell_length_c 8.563307
_cell_angle_alpha 90.000000
_cell_angle_beta 90.000000
_cell_angle_gamma 90.000000
_cell_volume 838.442173
_symmetry_space_group_name_H-M "P C A 21"
_symmetry_group_IT_number 29
_symmetry_cell_setting 'orthorhombic'
loop_
_space_group_symop_operation_xyz
x,y,z
-x,-y,1/2+z
1/2-x,y,1/2+z
1/2+x,-y,z
loop_
_atom_site_type_symbol
_atom_site_label
_atom_site_fract_x
_atom_site_fract_y
_atom_site_fract_z
Si Si1 0.405894 0.424038 0.912460
Si Si2 0.512059 0.256576 0.163565
Si Si3 0.898528 0.884033 0.433809
Si Si4 0.797529 0.435677 0.197691
Si Si5 0.392952 0.028880 0.116615
O O1 0.288990 0.451121 0.771092
O O2 0.570513 0.410605 0.824936
O O3 0.405153 0.317667 0.032798
O O4 0.378036 0.531976 0.032918
O O5 0.165153 0.663683 0.182260
O O6 0.536887 0.123169 0.108375
O O7 0.425606 0.231647 0.330012
O O8 0.055090 0.914745 0.527668
O O9 0.754452 0.902138 0.548378
O O10 0.872225 0.982810 0.300556
#
# Coordination Sequence:
#
# PCOD9341185 Si02
#       5
#     4   4   4   4   4
#     4  12  24  44  74 102 153 187 255 307 364 456
#     4  10  26  41  74 105 150 198 244 301 389 433
#     4  10  23  46  72 108 147 189 250 307 373 451
#     4  12  24  48  68 111 145 199 250 308 370 446
#     4  10  23  45  74 106 147 193 247 309 372 452
#
# _framework density 23.853760000000001
#
# number of rings (size 3 to 8) (size 9 to 14) (size 15 to 20)
#    1.200    0.000    4.000    1.200    2.800    1.600 
#    0.000    0.000    0.000    0.000    0.000    0.000 
#    0.000    0.000    0.000    0.000    0.000    0.000 
#
# Total GULP energy -111444.095542 kJ/mol
# GULP energy per Si atom -5572.204777 kJ/mol
# Density = 2.379947 g / cm^3
# Si number density = 23.853760 Si / 1000 Ang^3
#
#
#
# Elastic Constant Matrix: (Units=GPa)
#
#
# Indices 1 2 3 4 5 6 
#
# 1 27.9324 6.0429 15.7092 0.0000 0.0000 0.0000
# 2 6.0429 43.1313 -7.8901 0.0000 0.0000 0.0000
# 3 15.7092 -7.8901 87.9088 0.0000 0.0000 0.0000
# 4 0.0000 0.0000 0.0000 45.5770 0.0000 0.0000
# 5 0.0000 0.0000 0.0000 0.0000 23.0510 0.0000
# 6 0.0000 0.0000 0.0000 0.0000 0.0000 38.5928
#
#
#
# Elastic Compliance Matrix: (Units=1/GPa)
#
#
# Indices 1 2 3 4 5 6 
#
# 1 0.041989 -0.007376 -0.008165 0.000000 0.000000 0.000000
# 2 -0.007376 0.024868 0.003550 0.000000 0.000000 0.000000
# 3 -0.008165 0.003550 0.013153 0.000000 0.000000 0.000000
# 4 0.000000 0.000000 0.000000 0.021941 0.000000 0.000000
# 5 0.000000 0.000000 0.000000 0.000000 0.043382 0.000000
# 6 0.000000 0.000000 0.000000 0.000000 0.000000 0.025912
#
#
# Mechanical properties :
#
#
# Convention : Reuss Voigt Hill
#
# Bulk Modulus (GPa) = 17.84874 20.74405 19.29639
# Shear Modulus (GPa) = 23.37505 31.11821 27.24663
#
# Velocity S-wave (km/s) = 3.13378 3.61576 3.38336
# Velocity P-wave (km/s) = 4.53794 5.11340 4.83424
#
# Compressibility (1/GPa) = 0.05602638
#
# Stress axis : x y z
#
# Youngs Moduli (GPa) = 23.81591 40.21242 76.02704
#
# Poissons Ratio (x) = 0.29663 0.62079
# Poissons Ratio (y) = 0.17568 -0.26991
# Poissons Ratio (z) = 0.19447 -0.14276
#
# Static dielectric constant tensor:
#      x y z
#    x 1.969360 0.000000 0.000000 
#    y 0.000000 1.962660 0.000000 
#    z 0.000000 0.000000 1.873580 
# 
# From -- ./inp_files/1111.got.cif
#   From: 2010.05.17/outbox.cif.g08.bks.cpg/sg29_1_cif.got.tgz:1111.got - 2010.06.04 01:19:37.
