data_PCOD9341535
_publ_section_title
;
Structure prediction by ZEFSAII (Michael W. Deem and Ramdas Pophale) SiO2 
 PCOD9341535
Probable space group: P C A 21
;
_chemical_formula_sum "Si O2"
_cell_formula_units_Z 24
_cell_length_a 13.495651
_cell_length_b 8.662795
_cell_length_c 9.642965
_cell_angle_alpha 90.000000
_cell_angle_beta 90.000000
_cell_angle_gamma 90.000000
_cell_volume 1127.359597
_symmetry_space_group_name_H-M "P C A 21"
_symmetry_group_IT_number 29
_symmetry_cell_setting 'orthorhombic'
loop_
_space_group_symop_operation_xyz
x,y,z
-x,-y,1/2+z
1/2-x,y,1/2+z
1/2+x,-y,z
loop_
_atom_site_type_symbol
_atom_site_label
_atom_site_fract_x
_atom_site_fract_y
_atom_site_fract_z
Si Si1 0.768547 0.967836 0.909740
Si Si2 0.979887 0.483883 0.348865
Si Si3 0.372873 0.532640 0.075842
Si Si4 0.318059 0.336104 0.513327
Si Si5 0.656971 0.125658 0.677538
Si Si6 0.554118 0.830188 0.251906
O O1 0.873458 0.940270 0.835386
O O2 0.705365 0.090861 0.824890
O O3 0.711400 0.804952 0.912911
O O4 0.787828 0.021238 0.065468
O O5 0.954567 0.522895 0.188981
O O6 0.884071 0.538400 0.433626
O O7 0.073338 0.557680 0.428137
O O8 0.005368 0.302036 0.348915
O O9 0.283195 0.414148 0.063897
O O10 0.335416 0.696372 0.132966
O O11 0.381543 0.262318 0.638005
O O12 0.539860 0.088526 0.681986
#
# Coordination Sequence:
#
# PCOD9341535 Si02
#       6
#     4   4   4   4   4   4
#     4  12  26  48  73 102 147 193 234 300 367 440
#     4  11  23  45  73 103 141 178 247 308 339 427
#     4  11  26  45  73 108 141 187 244 302 360 422
#     4  12  24  47  75 104 139 190 243 294 361 430
#     4  11  28  46  70 108 146 188 238 298 365 436
#     4  11  25  47  68 109 140 182 248 286 366 427
#
# _framework density 21.288679999999999
#
# number of rings (size 3 to 8) (size 9 to 14) (size 15 to 20)
#    0.000    0.667    6.667    1.000    7.000    0.000 
#    0.000    0.000    0.000    0.000    0.000    0.000 
#    0.000    0.000    0.000    0.000    0.000    0.000 
#
# Total GULP energy -134155.451902 kJ/mol
# GULP energy per Si atom -5589.810496 kJ/mol
# Density = 2.124023 g / cm^3
# Si number density = 21.288680 Si / 1000 Ang^3
#
#
#
# Elastic Constant Matrix: (Units=GPa)
#
#
# Indices 1 2 3 4 5 6 
#
# 1 97.4696 34.4831 27.2647 0.0000 0.0000 0.0000
# 2 34.4831 52.0350 10.5408 0.0000 0.0000 0.0000
# 3 27.2647 10.5408 47.1438 0.0000 0.0000 0.0000
# 4 0.0000 0.0000 0.0000 26.7913 0.0000 0.0000
# 5 0.0000 0.0000 0.0000 0.0000 49.3995 0.0000
# 6 0.0000 0.0000 0.0000 0.0000 0.0000 41.9887
#
#
#
# Elastic Compliance Matrix: (Units=1/GPa)
#
#
# Indices 1 2 3 4 5 6 
#
# 1 0.015272 -0.008727 -0.006881 0.000000 0.000000 0.000000
# 2 -0.008727 0.025116 -0.000569 0.000000 0.000000 0.000000
# 3 -0.006881 -0.000569 0.025318 0.000000 0.000000 0.000000
# 4 0.000000 0.000000 0.000000 0.037326 0.000000 0.000000
# 5 0.000000 0.000000 0.000000 0.000000 0.020243 0.000000
# 6 0.000000 0.000000 0.000000 0.000000 0.000000 0.023816
#
#
# Mechanical properties :
#
#
# Convention : Reuss Voigt Hill
#
# Bulk Modulus (GPa) = 29.98185 37.91395 33.94790
# Shear Modulus (GPa) = 26.23830 31.92655 29.08243
#
# Velocity S-wave (km/s) = 3.51451 3.87679 3.70009
# Velocity P-wave (km/s) = 5.53019 6.15528 5.85109
#
# Compressibility (1/GPa) = 0.03335352
#
# Stress axis : x y z
#
# Youngs Moduli (GPa) = 65.48059 39.81513 39.49705
#
# Poissons Ratio (x) = 0.34745 0.27178
# Poissons Ratio (y) = 0.57142 0.02247
# Poissons Ratio (z) = 0.45057 0.02265
#
# Static dielectric constant tensor:
#      x y z
#    x 1.769780 0.000000 0.000000 
#    y 0.000000 1.744640 0.000000 
#    z 0.000000 0.000000 1.789380 
# 
# From -- ./inp_files/1404.got.cif
#   From: 2010.05.17/outbox.cif.g08.bks.cpg/sg29_1_cif.got.tgz:1404.got - 2010.06.04 01:19:37.
