data_PCOD9341583
_publ_section_title
;
Structure prediction by ZEFSAII (Michael W. Deem and Ramdas Pophale) SiO2 
 PCOD9341583
Probable space group: P C A 21
;
_chemical_formula_sum "Si O2"
_cell_formula_units_Z 28
_cell_length_a 12.378152
_cell_length_b 5.144621
_cell_length_c 16.147163
_cell_angle_alpha 90.000000
_cell_angle_beta 90.000000
_cell_angle_gamma 90.000000
_cell_volume 1028.265884
_symmetry_space_group_name_H-M "P C A 21"
_symmetry_group_IT_number 29
_symmetry_cell_setting 'orthorhombic'
loop_
_space_group_symop_operation_xyz
x,y,z
-x,-y,1/2+z
1/2-x,y,1/2+z
1/2+x,-y,z
loop_
_atom_site_type_symbol
_atom_site_label
_atom_site_fract_x
_atom_site_fract_y
_atom_site_fract_z
Si Si1 0.918855 0.713574 0.620900
Si Si2 0.165940 0.711988 0.817264
Si Si3 0.439164 0.566324 0.782980
Si Si4 0.930654 0.901885 0.041250
Si Si5 0.830485 0.917224 0.859972
Si Si6 0.662431 0.369894 0.001951
Si Si7 0.734138 0.065922 0.647210
O O1 0.935354 0.475182 0.683598
O O2 0.848252 0.650494 0.541058
O O3 0.025638 0.827010 0.580273
O O4 0.847117 0.925212 0.668145
O O5 0.205500 0.010124 0.840160
O O6 0.199284 0.613469 0.908767
O O7 0.203752 0.738693 0.721426
O O8 0.051520 0.567540 0.809538
O O9 0.405983 0.845112 0.821438
O O10 0.354317 0.358755 0.818990
O O11 0.853154 0.844242 0.120576
O O12 0.865743 0.905515 0.955517
O O13 0.041235 0.749597 0.016261
O O14 0.741550 0.220171 0.063112
#
# Coordination Sequence:
#
# PCOD9341583 Si02
#       7
#     4   4   4   4   4   4   4
#     4  11  25  45  72 109 154 201 262 327 401 479
#     4  12  24  48  77 111 158 210 267 324 412 474
#     4  12  27  48  77 114 158 201 270 329 400 474
#     4  11  24  45  72 102 155 195 258 323 399 464
#     4  12  27  49  75 113 153 207 260 326 396 484
#     4  11  25  46  70 108 152 201 261 321 399 480
#     4  11  24  45  71 109 144 203 258 328 395 479
#
# _framework density 27.230315000000001
#
# number of rings (size 3 to 8) (size 9 to 14) (size 15 to 20)
#    0.000    0.571    5.714    1.714    2.000    3.429 
#    5.143    0.000    0.000    0.000    0.000    0.000 
#    0.000    0.000    0.000    0.000    0.000    0.000 
#
# Total GULP energy -156118.931233 kJ/mol
# GULP energy per Si atom -5575.676115 kJ/mol
# Density = 2.716834 g / cm^3
# Si number density = 27.230315 Si / 1000 Ang^3
#
#
#
# Elastic Constant Matrix: (Units=GPa)
#
#
# Indices 1 2 3 4 5 6 
#
# 1 101.9821 30.5329 51.2917 0.0000 0.0000 0.0000
# 2 30.5329 75.9763 54.1152 0.0000 0.0000 0.0000
# 3 51.2917 54.1152 235.8823 0.0000 0.0000 0.0000
# 4 0.0000 0.0000 0.0000 45.7456 0.0000 0.0000
# 5 0.0000 0.0000 0.0000 0.0000 47.4571 0.0000
# 6 0.0000 0.0000 0.0000 0.0000 0.0000 33.7146
#
#
#
# Elastic Compliance Matrix: (Units=1/GPa)
#
#
# Indices 1 2 3 4 5 6 
#
# 1 0.011725 -0.003462 -0.001755 0.000000 0.000000 0.000000
# 2 -0.003462 0.016755 -0.003091 0.000000 0.000000 0.000000
# 3 -0.001755 -0.003091 0.005330 0.000000 0.000000 0.000000
# 4 0.000000 0.000000 0.000000 0.021860 0.000000 0.000000
# 5 0.000000 0.000000 0.000000 0.000000 0.021072 0.000000
# 6 0.000000 0.000000 0.000000 0.000000 0.000000 0.029661
#
#
# Mechanical properties :
#
#
# Convention : Reuss Voigt Hill
#
# Bulk Modulus (GPa) = 58.16072 76.19115 67.17593
# Shear Modulus (GPa) = 38.83498 43.91018 41.37258
#
# Velocity S-wave (km/s) = 3.78056 4.02001 3.90212
# Velocity P-wave (km/s) = 6.36098 7.04190 6.71008
#
# Compressibility (1/GPa) = 0.01719374
#
# Stress axis : x y z
#
# Youngs Moduli (GPa) = 85.28859 59.68427 187.60833
#
# Poissons Ratio (x) = 0.20661 0.32932
# Poissons Ratio (y) = 0.29524 0.57992
# Poissons Ratio (z) = 0.14971 0.18449
#
# Static dielectric constant tensor:
#      x y z
#    x 2.472070 0.000000 0.000000 
#    y 0.000000 2.195070 0.000000 
#    z 0.000000 0.000000 2.033880 
# 
# From -- ./inp_files/4680.got.cif
#   From: 2010.05.17/outbox.cif.g08.bks.cpg/sg29_3_cif.got.tgz:4680.got - 2010.06.04 01:19:37.
