data_PCOD9341864
_publ_section_title
;
Structure prediction by ZEFSAII (Michael W. Deem and Ramdas Pophale) SiO2 
 PCOD9341864
Probable space group: P N C 2
;
_chemical_formula_sum "Si O2"
_cell_formula_units_Z 24
_cell_length_a 7.100505
_cell_length_b 5.345363
_cell_length_c 27.347928
_cell_angle_alpha 90.000000
_cell_angle_beta 90.000000
_cell_angle_gamma 90.000000
_cell_volume 1037.984501
_symmetry_space_group_name_H-M "P N C 2"
_symmetry_group_IT_number 30
_symmetry_cell_setting 'orthorhombic'
loop_
_space_group_symop_operation_xyz
x,y,z
-x,-y,z
-x,1/2+y,1/2+z
x,1/2-y,1/2+z
loop_
_atom_site_type_symbol
_atom_site_label
_atom_site_fract_x
_atom_site_fract_y
_atom_site_fract_z
Si Si1 0.217323 0.571605 0.527130
Si Si2 0.373669 0.250052 0.662429
Si Si3 0.791768 0.754875 0.373685
Si Si4 0.215426 0.072766 0.564769
Si Si5 0.782509 0.242225 0.915981
Si Si6 0.628360 0.748081 0.771876
O O1 0.299586 0.289741 0.529713
O O2 0.219895 0.689660 0.473369
O O3 0.000000 0.500000 0.539936
O O4 0.300445 0.791974 0.561356
O O5 0.500000 0.500000 0.655653
O O6 0.232064 0.200122 0.617850
O O7 0.288621 0.262245 0.716993
O O8 0.500000 0.000000 0.662304
O O9 0.699060 0.498475 0.390170
O O10 0.779000 0.763648 0.315370
O O11 0.002257 0.749449 0.395783
O O12 0.702264 0.996296 0.398611
O O13 0.000000 0.000000 0.552004
O O14 0.500000 0.500000 0.777112
O O15 0.500000 0.000000 0.775957
#
# Coordination Sequence:
#
# PCOD9341864 Si02
#       6
#     4   4   4   4   4   4
#     4  10  18  32  55  84 112 145 187 224 294 348
#     4  10  21  40  63  81 114 160 195 232 300 364
#     4  10  19  32  55  82 109 140 194 227 275 338
#     4  10  21  34  58  91 113 147 192 250 285 338
#     4  10  19  32  55  86 107 150 175 232 289 336
#     4  10  21  38  59  80 108 154 195 231 283 345
#
# _framework density 23.121734
#
# number of rings (size 3 to 8) (size 9 to 14) (size 15 to 20)
#    0.000    2.000    1.667    3.000    4.667    0.000 
#    3.000    0.000    7.333   20.000    0.000    0.000 
#    0.000    0.000    0.000    0.000    0.000    0.000 
#
# Total GULP energy -133863.748732 kJ/mol
# GULP energy per Si atom -5577.656197 kJ/mol
# Density = 2.306911 g / cm^3
# Si number density = 23.121734 Si / 1000 Ang^3
#
#
#
# Elastic Constant Matrix: (Units=GPa)
#
#
# Indices 1 2 3 4 5 6 
#
# 1 64.2721 14.2837 13.1287 0.0000 0.0000 0.0000
# 2 14.2837 249.2856 57.7637 0.0000 0.0000 0.0000
# 3 13.1287 57.7637 183.9844 0.0000 0.0000 0.0000
# 4 0.0000 0.0000 0.0000 42.6196 0.0000 0.0000
# 5 0.0000 0.0000 0.0000 0.0000 -62.0893 0.0000
# 6 0.0000 0.0000 0.0000 0.0000 0.0000 -8.4185
#
#
#
# Elastic Compliance Matrix: (Units=1/GPa)
#
#
# Indices 1 2 3 4 5 6 
#
# 1 0.015901 -0.000699 -0.000915 0.000000 0.000000 0.000000
# 2 -0.000699 0.004357 -0.001318 0.000000 0.000000 0.000000
# 3 -0.000915 -0.001318 0.005914 0.000000 0.000000 0.000000
# 4 0.000000 0.000000 0.000000 0.023463 0.000000 0.000000
# 5 0.000000 0.000000 0.000000 0.000000 -0.016106 0.000000
# 6 0.000000 0.000000 0.000000 0.000000 0.000000 -0.118786
#
#
# Mechanical properties :
#
#
# Convention : Reuss Voigt Hill
#
# Bulk Modulus (GPa) = 49.24194 74.21052 61.72623
# Shear Modulus (GPa) = -68.84921 21.91343 -23.46789
#
# Velocity S-wave (km/s) = -5.46274 3.08188 -3.18932
# Velocity P-wave (km/s) = 4.29483 6.69546 3.63205
#
# Compressibility (1/GPa) = 0.02030789
#
# Stress axis : x y z
#
# Youngs Moduli (GPa) = 62.88856 229.51973 169.08016
#
# Poissons Ratio (x) = 0.16045 0.15474
# Poissons Ratio (y) = 0.04396 0.22285
# Poissons Ratio (z) = 0.05756 0.30251
#
# Static dielectric constant tensor:
#      x y z
#    x 1.874090 0.000000 0.000000 
#    y 0.000000 1.975170 0.000000 
#    z 0.000000 0.000000 1.876430 
# 
# From -- ./inp_files/7321.got.cif
#   From: 2010.05.17/outbox.cif.g08.bks.cpg/sg30_4_cif.got.tgz:7321.got - 2010.06.03 17:03:02.
