data_PCOD9341883
_publ_section_title
;
Structure prediction by ZEFSAII (Michael W. Deem and Ramdas Pophale) SiO2 
 PCOD9341883
Probable space group: P N C 2
;
_chemical_formula_sum "Si O2"
_cell_formula_units_Z 30
_cell_length_a 7.604672
_cell_length_b 11.506392
_cell_length_c 18.519848
_cell_angle_alpha 90.000000
_cell_angle_beta 90.000000
_cell_angle_gamma 90.000000
_cell_volume 1620.529982
_symmetry_space_group_name_H-M "P N C 2"
_symmetry_group_IT_number 30
_symmetry_cell_setting 'orthorhombic'
loop_
_space_group_symop_operation_xyz
x,y,z
-x,-y,z
-x,1/2+y,1/2+z
x,1/2-y,1/2+z
loop_
_atom_site_type_symbol
_atom_site_label
_atom_site_fract_x
_atom_site_fract_y
_atom_site_fract_z
Si Si1 0.500000 0.361188 0.922680
Si Si2 0.795718 0.722299 0.026859
Si Si3 0.791995 0.363189 0.662973
Si Si4 0.199255 0.500000 0.130763
Si Si5 0.208005 0.136811 0.162973
Si Si6 0.500000 0.259983 0.766292
Si Si7 0.795718 0.277701 0.026859
Si Si8 0.500000 0.500000 0.248766
O O1 0.500000 0.500000 0.936565
O O2 0.500000 0.336898 0.837903
O O3 0.331805 0.302105 0.960674
O O4 0.668195 0.302105 0.960674
O O5 0.776488 0.611645 0.080066
O O6 0.750694 0.828788 0.080056
O O7 1.000000 0.730816 0.004897
O O8 0.764196 0.500000 0.674807
O O9 0.668395 0.291519 0.716826
O O10 0.750694 0.328788 0.580056
O O11 0.000000 0.336783 0.673552
O O12 0.223511 0.611645 0.080066
O O13 0.333585 0.500000 0.195548
O O14 0.000000 0.500000 0.157887
O O15 0.331605 0.208481 0.216826
O O16 0.500000 0.124089 0.787863
#
# Coordination Sequence:
#
# PCOD9341883 Si02
#       8
#     4   4   4   4   4   4   4   2
#     4  12  24  38  55  81 119 155 190 233 283 343
#     4  10  20  36  61  88 111 143 190 241 287 333
#     4  10  21  39  63  89 116 149 192 239 285 336
#     4  10  18  34  64  90 108 137 186 248 294 327
#     4  10  21  39  63  89 116 149 192 239 285 336
#     4  12  25  39  57  85 119 156 192 232 288 346
#     4  10  20  36  61  88 111 143 190 241 287 333
#     4  12  22  38  60  84 116 148 190 242 286 340
#
# _framework density 18.512460999999998
#
# number of rings (size 3 to 8) (size 9 to 14) (size 15 to 20)
#    0.000    1.333    4.000    2.800    0.000    1.067 
#    2.400    0.000    0.000    0.000    0.000    0.000 
#    0.000    0.000    0.000    0.000    0.000    0.000 
#
# Total GULP energy -167529.214774 kJ/mol
# GULP energy per Si atom -5584.307159 kJ/mol
# Density = 1.847033 g / cm^3
# Si number density = 18.512461 Si / 1000 Ang^3
#
#
#
# Elastic Constant Matrix: (Units=GPa)
#
#
# Indices 1 2 3 4 5 6 
#
# 1 74.3380 23.3649 49.4960 0.0000 0.0000 0.0000
# 2 23.3649 82.0911 9.6208 0.0000 0.0000 0.0000
# 3 49.4960 9.6208 78.8310 0.0000 0.0000 0.0000
# 4 0.0000 0.0000 0.0000 22.9702 0.0000 0.0000
# 5 0.0000 0.0000 0.0000 0.0000 10.8937 0.0000
# 6 0.0000 0.0000 0.0000 0.0000 0.0000 14.8158
#
#
#
# Elastic Compliance Matrix: (Units=1/GPa)
#
#
# Indices 1 2 3 4 5 6 
#
# 1 0.025283 -0.005413 -0.015214 0.000000 0.000000 0.000000
# 2 -0.005413 0.013517 0.001749 0.000000 0.000000 0.000000
# 3 -0.015214 0.001749 0.022025 0.000000 0.000000 0.000000
# 4 0.000000 0.000000 0.000000 0.043535 0.000000 0.000000
# 5 0.000000 0.000000 0.000000 0.000000 0.091796 0.000000
# 6 0.000000 0.000000 0.000000 0.000000 0.000000 0.067496
#
#
# Mechanical properties :
#
#
# Convention : Reuss Voigt Hill
#
# Bulk Modulus (GPa) = 43.34874 44.46928 43.90901
# Shear Modulus (GPa) = 16.17612 19.92117 18.04865
#
# Velocity S-wave (km/s) = 2.95921 3.28395 3.12580
# Velocity P-wave (km/s) = 5.92813 6.20101 6.06610
#
# Compressibility (1/GPa) = 0.02306872
#
# Stress axis : x y z
#
# Youngs Moduli (GPa) = 39.55158 73.97922 45.40396
#
# Poissons Ratio (x) = 0.40046 0.69078
# Poissons Ratio (y) = 0.21410 -0.07942
# Poissons Ratio (z) = 0.60175 -0.12940
#
# Static dielectric constant tensor:
#      x y z
#    x 1.639560 0.000000 0.000000 
#    y 0.000000 1.668610 0.000000 
#    z 0.000000 0.000000 1.580740 
# 
# From -- ./inp_files/5190.got.cif
#   From: 2010.05.17/outbox.cif.g08.bks.cpg/sg30_3_cif.got.tgz:5190.got - 2010.06.03 17:03:02.
