data_PCOD9341936
_publ_section_title
;
Structure prediction by ZEFSAII (Michael W. Deem and Ramdas Pophale) SiO2 
 PCOD9341936
Probable space group: P N C 2
;
_chemical_formula_sum "Si O2"
_cell_formula_units_Z 24
_cell_length_a 7.709025
_cell_length_b 25.061412
_cell_length_c 5.527673
_cell_angle_alpha 90.000000
_cell_angle_beta 90.000000
_cell_angle_gamma 90.000000
_cell_volume 1067.941181
_symmetry_space_group_name_H-M "P N C 2"
_symmetry_group_IT_number 30
_symmetry_cell_setting 'orthorhombic'
loop_
_space_group_symop_operation_xyz
x,y,z
-x,-y,z
-x,1/2+y,1/2+z
x,1/2-y,1/2+z
loop_
_atom_site_type_symbol
_atom_site_label
_atom_site_fract_x
_atom_site_fract_y
_atom_site_fract_z
Si Si1 0.727070 0.606401 0.824000
Si Si2 0.342881 0.602251 0.059643
Si Si3 0.252456 0.222418 0.474515
Si Si4 0.451198 0.053252 0.946572
Si Si5 0.182663 0.004425 0.574373
Si Si6 0.677071 0.277909 0.986260
O O1 0.801351 0.661826 0.913937
O O2 0.678258 0.598626 0.545486
O O3 0.531787 0.602291 0.934483
O O4 0.831526 0.553584 0.891172
O O5 0.387961 0.586156 0.337360
O O6 0.231807 0.552775 0.965923
O O7 0.268595 0.660728 0.023689
O O8 0.197844 0.242691 0.740095
O O9 0.464700 0.223044 0.481165
O O10 0.500000 0.000000 0.105072
O O11 0.337517 0.022845 0.746049
O O12 0.000000 0.000000 0.708100
O O13 0.732092 0.254938 0.725351
#
# Coordination Sequence:
#
# PCOD9341936 Si02
#       6
#     4   4   4   4   4   4
#     4  10  19  32  57  78 109 139 181 226 278 328
#     4   9  19  32  53  80 107 140 177 229 277 327
#     4   9  19  30  51  83 115 141 177 226 278 331
#     4   9  18  32  51  77 106 140 177 227 279 332
#     4  10  21  36  52  77 110 141 186 228 280 329
#     4   9  18  30  50  81 113 141 178 225 278 330
#
# _framework density 22.473148999999999
#
# number of rings (size 3 to 8) (size 9 to 14) (size 15 to 20)
#    0.000    2.667    0.000    2.500   14.000    0.667 
#    0.000    0.000    0.000    2.000    0.000    0.000 
#    0.000    0.000    0.000    0.000    0.000    0.000 
#
# Total GULP energy -133623.606682 kJ/mol
# GULP energy per Si atom -5567.650278 kJ/mol
# Density = 2.242200 g / cm^3
# Si number density = 22.473149 Si / 1000 Ang^3
#
#
#
# Elastic Constant Matrix: (Units=GPa)
#
#
# Indices 1 2 3 4 5 6 
#
# 1 47.7441 19.6982 2.3418 0.0000 0.0000 0.0000
# 2 19.6982 213.9887 68.7989 0.0000 0.0000 0.0000
# 3 2.3418 68.7989 86.0246 0.0000 0.0000 0.0000
# 4 0.0000 0.0000 0.0000 25.8831 0.0000 0.0000
# 5 0.0000 0.0000 0.0000 0.0000 -6.7598 0.0000
# 6 0.0000 0.0000 0.0000 0.0000 0.0000 -5.6547
#
#
#
# Elastic Compliance Matrix: (Units=1/GPa)
#
#
# Indices 1 2 3 4 5 6 
#
# 1 0.021891 -0.002455 0.001367 0.000000 0.000000 0.000000
# 2 -0.002455 0.006566 -0.005184 0.000000 0.000000 0.000000
# 3 0.001367 -0.005184 0.015734 0.000000 0.000000 0.000000
# 4 0.000000 0.000000 0.000000 0.038635 0.000000 0.000000
# 5 0.000000 0.000000 0.000000 0.000000 -0.147933 0.000000
# 6 0.000000 0.000000 0.000000 0.000000 0.000000 -0.176845
#
#
# Mechanical properties :
#
#
# Convention : Reuss Voigt Hill
#
# Bulk Modulus (GPa) = 31.59896 58.82614 45.21255
# Shear Modulus (GPa) = -22.84561 19.82163 -1.51199
#
# Velocity S-wave (km/s) = -3.19183 2.97309 -0.82113
# Velocity P-wave (km/s) = 0.71242 6.16593 4.38898
#
# Compressibility (1/GPa) = 0.03164662
#
# Stress axis : x y z
#
# Youngs Moduli (GPa) = 45.68158 152.30219 63.55839
#
# Poissons Ratio (x) = 0.37385 -0.08690
# Poissons Ratio (y) = 0.11213 0.32951
# Poissons Ratio (z) = -0.06246 0.78958
#
# Static dielectric constant tensor:
#      x y z
#    x 1.860310 0.000000 0.000000 
#    y 0.000000 1.895210 0.000000 
#    z 0.000000 0.000000 2.036050 
# 
# From -- ./inp_files/414.got.cif
#   From: 2010.05.17/outbox.cif.g08.bks.cpg/sg30_1_cif.got.tgz:414.got - 2010.06.03 17:03:02.
