data_PCOD9341070
_publ_section_title
;
Structure prediction by ZEFSAII (Michael W. Deem and Ramdas Pophale) SiO2 
 PCOD9341070
Probable space group: P C A 21
;
_chemical_formula_sum "Si O2"
_cell_formula_units_Z 32
_cell_length_a 13.240791
_cell_length_b 5.041067
_cell_length_c 19.739192
_cell_angle_alpha 90.000000
_cell_angle_beta 90.000000
_cell_angle_gamma 90.000000
_cell_volume 1317.545953
_symmetry_space_group_name_H-M "P C A 21"
_symmetry_group_IT_number 29
_symmetry_cell_setting 'orthorhombic'
loop_
_space_group_symop_operation_xyz
x,y,z
-x,-y,1/2+z
1/2-x,y,1/2+z
1/2+x,-y,z
loop_
_atom_site_type_symbol
_atom_site_label
_atom_site_fract_x
_atom_site_fract_y
_atom_site_fract_z
Si Si1 0.322774 0.865110 0.053910
Si Si2 0.110796 0.269594 0.283621
Si Si3 0.049139 0.331205 0.543940
Si Si4 0.099075 0.537791 0.152009
Si Si5 0.349177 0.503607 0.512212
Si Si6 0.768588 0.081214 0.197815
Si Si7 0.292246 0.439463 0.372804
Si Si8 0.095725 0.936941 0.821386
O O1 0.215124 0.770031 0.026487
O O2 0.308908 0.012247 0.125798
O O3 0.392605 0.076983 0.016609
O O4 0.381885 0.585654 0.059775
O O5 0.057368 0.432241 0.222675
O O6 0.184232 0.423649 0.335511
O O7 0.023443 0.111232 0.322019
O O8 0.188312 0.091362 0.239660
O O9 0.981817 0.277941 0.612481
O O10 0.962969 0.424540 0.491505
O O11 0.868961 0.767022 0.338282
O O12 0.131928 0.364340 0.085615
O O13 0.203754 0.664195 0.176516
O O14 0.291179 0.363752 0.451889
O O15 0.861733 0.125892 0.246611
O O16 0.339689 0.731394 0.366503
#
# Coordination Sequence:
#
# PCOD9341070 Si02
#       8
#     4   4   4   4   4   4   4   4
#     4  11  24  42  71 105 142 186 234 289 376 420
#     4  11  24  43  76 102 146 189 246 300 366 437
#     4  10  25  40  66 105 142 182 233 296 358 431
#     4   9  21  41  69 101 144 178 234 305 355 416
#     4   9  25  47  72 102 150 186 236 309 354 436
#     4  10  23  39  64 109 138 184 232 301 358 428
#     4  11  26  50  68 105 144 191 244 292 365 440
#     4  11  26  42  74  99 144 188 239 296 360 436
#
# _framework density 24.287579999999998
#
# number of rings (size 3 to 8) (size 9 to 14) (size 15 to 20)
#    0.750    1.000    1.250    0.750    8.750    5.000 
#    2.250    1.250    0.000    0.000    0.000    0.000 
#    0.000    0.000    0.000    0.000    0.000    0.000 
#
# Total GULP energy -178477.262520 kJ/mol
# GULP energy per Si atom -5577.414454 kJ/mol
# Density = 2.423230 g / cm^3
# Si number density = 24.287580 Si / 1000 Ang^3
#
#
#
# Elastic Constant Matrix: (Units=GPa)
#
#
# Indices 1 2 3 4 5 6 
#
# 1 96.1367 22.4904 -0.1133 0.0000 0.0000 0.0000
# 2 22.4904 53.1664 -2.7949 0.0000 0.0000 0.0000
# 3 -0.1133 -2.7949 56.2082 0.0000 0.0000 0.0000
# 4 0.0000 0.0000 0.0000 12.9173 0.0000 0.0000
# 5 0.0000 0.0000 0.0000 0.0000 18.7152 0.0000
# 6 0.0000 0.0000 0.0000 0.0000 0.0000 27.9030
#
#
#
# Elastic Compliance Matrix: (Units=1/GPa)
#
#
# Indices 1 2 3 4 5 6 
#
# 1 0.011547 -0.004896 -0.000220 0.000000 0.000000 0.000000
# 2 -0.004896 0.020934 0.001031 0.000000 0.000000 0.000000
# 3 -0.000220 0.001031 0.017842 0.000000 0.000000 0.000000
# 4 0.000000 0.000000 0.000000 0.077416 0.000000 0.000000
# 5 0.000000 0.000000 0.000000 0.000000 0.053432 0.000000
# 6 0.000000 0.000000 0.000000 0.000000 0.000000 0.035838
#
#
# Mechanical properties :
#
#
# Convention : Reuss Voigt Hill
#
# Bulk Modulus (GPa) = 23.72340 27.18619 25.45480
# Shear Modulus (GPa) = 20.90029 24.30237 22.60133
#
# Velocity S-wave (km/s) = 2.93667 3.16667 3.05384
# Velocity P-wave (km/s) = 4.61385 4.95865 4.78935
#
# Compressibility (1/GPa) = 0.04215247
#
# Stress axis : x y z
#
# Youngs Moduli (GPa) = 86.60240 47.76858 56.04813
#
# Poissons Ratio (x) = 0.23388 0.01234
# Poissons Ratio (y) = 0.42402 -0.05779
# Poissons Ratio (z) = 0.01907 -0.04925
#
# Static dielectric constant tensor:
#      x y z
#    x 1.943140 0.000000 0.000000 
#    y 0.000000 2.020200 0.000000 
#    z 0.000000 0.000000 2.051260 
# 
# From -- ./inp_files/5264.got.cif
#   From: 2010.05.17/outbox.cif.g08.bks.cpg/sg29_3_cif.got.tgz:5264.got - 2010.06.04 01:19:37.
