data_PCOD9341171
_publ_section_title
;
Structure prediction by ZEFSAII (Michael W. Deem and Ramdas Pophale) SiO2 
 PCOD9341171
Probable space group: P C A 21
;
_chemical_formula_sum "Si O2"
_cell_formula_units_Z 24
_cell_length_a 22.690113
_cell_length_b 5.110237
_cell_length_c 8.286862
_cell_angle_alpha 90.000000
_cell_angle_beta 90.000000
_cell_angle_gamma 90.000000
_cell_volume 960.877021
_symmetry_space_group_name_H-M "P C A 21"
_symmetry_group_IT_number 29
_symmetry_cell_setting 'orthorhombic'
loop_
_space_group_symop_operation_xyz
x,y,z
-x,-y,1/2+z
1/2-x,y,1/2+z
1/2+x,-y,z
loop_
_atom_site_type_symbol
_atom_site_label
_atom_site_fract_x
_atom_site_fract_y
_atom_site_fract_z
Si Si1 0.080293 0.999938 0.978570
Si Si2 0.311789 0.142652 0.285221
Si Si3 0.573179 0.855832 0.329255
Si Si4 0.622307 0.246862 0.571376
Si Si5 0.538166 0.504957 0.809989
Si Si6 0.808529 0.632175 0.924733
O O1 0.142089 0.139432 0.933436
O O2 0.039577 0.198985 0.873269
O O3 0.073271 0.702175 0.922528
O O4 0.063699 0.992963 0.163784
O O5 0.251644 0.249000 0.361101
O O6 0.333809 0.865013 0.209330
O O7 0.315188 0.301152 0.115876
O O8 0.526440 0.620540 0.317193
O O9 0.639297 0.749125 0.320154
O O10 0.579432 0.028810 0.491692
O O11 0.575552 0.457285 0.644981
O O12 0.669575 0.331808 0.433999
#
# Coordination Sequence:
#
# PCOD9341171 Si02
#       6
#     4   4   4   4   4   4
#     4  11  25  46  71 105 140 193 238 296 361 424
#     4  10  23  45  67 101 142 184 239 299 359 437
#     4  11  26  40  71 105 143 185 245 290 365 428
#     4  10  24  46  68 104 140 194 234 302 365 433
#     4  11  25  45  73 101 151 187 243 296 359 429
#     4  11  23  44  70 100 142 185 243 295 371 427
#
# _framework density 24.977181999999999
#
# number of rings (size 3 to 8) (size 9 to 14) (size 15 to 20)
#    0.000    1.333    1.667    2.000    7.000    2.667 
#    3.000    0.000    0.000    0.000    0.000    0.000 
#    0.000    0.000    0.000    0.000    0.000    0.000 
#
# Total GULP energy -133623.926497 kJ/mol
# GULP energy per Si atom -5567.663604 kJ/mol
# Density = 2.492033 g / cm^3
# Si number density = 24.977182 Si / 1000 Ang^3
#
#
#
# Elastic Constant Matrix: (Units=GPa)
#
#
# Indices 1 2 3 4 5 6 
#
# 1 174.8950 5.9642 36.7655 0.0000 0.0000 0.0000
# 2 5.9642 68.8780 25.9444 0.0000 0.0000 0.0000
# 3 36.7655 25.9444 101.1816 0.0000 0.0000 0.0000
# 4 0.0000 0.0000 0.0000 22.1143 0.0000 0.0000
# 5 0.0000 0.0000 0.0000 0.0000 30.3296 0.0000
# 6 0.0000 0.0000 0.0000 0.0000 0.0000 23.8836
#
#
#
# Elastic Compliance Matrix: (Units=1/GPa)
#
#
# Indices 1 2 3 4 5 6 
#
# 1 0.006198 0.000345 -0.002341 0.000000 0.000000 0.000000
# 2 0.000345 0.016090 -0.004251 0.000000 0.000000 0.000000
# 3 -0.002341 -0.004251 0.011824 0.000000 0.000000 0.000000
# 4 0.000000 0.000000 0.000000 0.045220 0.000000 0.000000
# 5 0.000000 0.000000 0.000000 0.000000 0.032971 0.000000
# 6 0.000000 0.000000 0.000000 0.000000 0.000000 0.041870
#
#
# Mechanical properties :
#
#
# Convention : Reuss Voigt Hill
#
# Bulk Modulus (GPa) = 46.25721 53.58921 49.92321
# Shear Modulus (GPa) = 28.75691 33.68419 31.22055
#
# Velocity S-wave (km/s) = 3.39680 3.67631 3.53932
# Velocity P-wave (km/s) = 5.82618 6.28667 6.06080
#
# Compressibility (1/GPa) = 0.02161825
#
# Stress axis : x y z
#
# Youngs Moduli (GPa) = 161.34311 62.15123 84.57590
#
# Poissons Ratio (x) = -0.02144 0.19795
# Poissons Ratio (y) = -0.05565 0.35953
# Poissons Ratio (z) = 0.37763 0.26420
#
# Static dielectric constant tensor:
#      x y z
#    x 2.012290 0.000000 0.000000 
#    y 0.000000 2.114490 0.000000 
#    z 0.000000 0.000000 2.057190 
# 
# From -- ./inp_files/2373.got.cif
#   From: 2010.05.17/outbox.cif.g08.bks.cpg/sg29_2_cif.got.tgz:2373.got - 2010.06.04 01:19:37.
