data_PCOD9341871
_publ_section_title
;
Structure prediction by ZEFSAII (Michael W. Deem and Ramdas Pophale) SiO2 
 PCOD9341871
Probable space group: P N C 2
;
_chemical_formula_sum "Si O2"
_cell_formula_units_Z 32
_cell_length_a 7.520929
_cell_length_b 8.329771
_cell_length_c 23.828197
_cell_angle_alpha 90.000000
_cell_angle_beta 90.000000
_cell_angle_gamma 90.000000
_cell_volume 1492.779742
_symmetry_space_group_name_H-M "P N C 2"
_symmetry_group_IT_number 30
_symmetry_cell_setting 'orthorhombic'
loop_
_space_group_symop_operation_xyz
x,y,z
-x,-y,z
-x,1/2+y,1/2+z
x,1/2-y,1/2+z
loop_
_atom_site_type_symbol
_atom_site_label
_atom_site_fract_x
_atom_site_fract_y
_atom_site_fract_z
Si Si1 0.929859 0.659037 0.439200
Si Si2 0.749450 0.628845 0.317449
Si Si3 0.816508 0.406614 0.894039
Si Si4 0.783081 0.491249 0.124688
Si Si5 0.649181 0.279357 0.298659
Si Si6 0.757547 0.340048 0.681930
Si Si7 0.206240 0.433793 0.001464
Si Si8 0.180572 0.293872 0.701177
O O1 0.833600 0.646422 0.378926
O O2 0.814120 0.749959 0.484829
O O3 0.000000 0.500000 0.465854
O O4 0.112425 0.746612 0.422783
O O5 0.769477 0.441182 0.300194
O O6 0.541539 0.668558 0.320833
O O7 0.810787 0.747375 0.267454
O O8 0.718369 0.361562 0.838174
O O9 0.000000 0.500000 0.880645
O O10 0.714086 0.493805 0.944191
O O11 0.721771 0.309265 0.139076
O O12 0.718472 0.532613 0.062045
O O13 0.741452 0.636549 0.168427
O O14 0.000000 0.500000 0.123610
O O15 0.647524 0.214496 0.236216
O O16 0.736055 0.535513 0.679673
O O17 0.969674 0.315391 0.690879
O O18 0.000000 0.500000 0.001834
#
# Coordination Sequence:
#
# PCOD9341871 Si02
#       8
#     4   4   4   4   4   4   4   4
#     4  10  18  33  54  82 109 149 189 233 285 342
#     4  11  23  35  54  81 121 152 193 240 293 351
#     4   9  19  34  54  79 111 151 192 231 287 351
#     4   9  17  37  56  81 119 143 185 246 289 337
#     4  11  22  36  53  81 117 159 190 241 294 351
#     4  10  21  34  58  82 113 153 190 235 291 342
#     4   8  18  34  54  81 112 145 184 240 288 341
#     4  10  21  35  55  88 111 152 194 229 288 359
#
# _framework density 21.436516999999998
#
# number of rings (size 3 to 8) (size 9 to 14) (size 15 to 20)
#    0.000    2.500    2.500    0.750    5.250    0.500 
#    9.000    0.000    0.000    3.000    0.000    0.000 
#    0.000    0.000    0.000    0.000    0.000    0.000 
#
# Total GULP energy -178191.192110 kJ/mol
# GULP energy per Si atom -5568.474753 kJ/mol
# Density = 2.138773 g / cm^3
# Si number density = 21.436517 Si / 1000 Ang^3
#
#
#
# Elastic Constant Matrix: (Units=GPa)
#
#
# Indices 1 2 3 4 5 6 
#
# 1 29.1738 14.0713 13.5862 0.0000 0.0000 0.0000
# 2 14.0713 135.1095 57.0118 0.0000 0.0000 0.0000
# 3 13.5862 57.0118 126.7797 0.0000 0.0000 0.0000
# 4 0.0000 0.0000 0.0000 22.9194 0.0000 0.0000
# 5 0.0000 0.0000 0.0000 0.0000 -26.2642 0.0000
# 6 0.0000 0.0000 0.0000 0.0000 0.0000 10.6884
#
#
#
# Elastic Compliance Matrix: (Units=1/GPa)
#
#
# Indices 1 2 3 4 5 6 
#
# 1 0.036848 -0.002680 -0.002744 0.000000 0.000000 0.000000
# 2 -0.002680 0.009330 -0.003908 0.000000 0.000000 0.000000
# 3 -0.002744 -0.003908 0.009939 0.000000 0.000000 0.000000
# 4 0.000000 0.000000 0.000000 0.043631 0.000000 0.000000
# 5 0.000000 0.000000 0.000000 0.000000 -0.038075 0.000000
# 6 0.000000 0.000000 0.000000 0.000000 0.000000 0.093559
#
#
# Mechanical properties :
#
#
# Convention : Reuss Voigt Hill
#
# Bulk Modulus (GPa) = 26.70018 51.15573 38.92795
# Shear Modulus (GPa) = 26.82689 15.22831 21.02760
#
# Velocity S-wave (km/s) = 3.54143 2.66821 3.13537
# Velocity P-wave (km/s) = 5.40415 5.77997 5.59522
#
# Compressibility (1/GPa) = 0.03745294
#
# Stress axis : x y z
#
# Youngs Moduli (GPa) = 27.13886 107.18483 100.61130
#
# Poissons Ratio (x) = 0.28724 0.27604
# Poissons Ratio (y) = 0.07273 0.39322
# Poissons Ratio (z) = 0.07446 0.41891
#
# Static dielectric constant tensor:
#      x y z
#    x 1.831310 0.000000 0.000000 
#    y 0.000000 1.890470 0.000000 
#    z 0.000000 0.000000 1.762730 
# 
# From -- ./inp_files/7371.got.cif
#   From: 2010.05.17/outbox.cif.g08.bks.cpg/sg30_4_cif.got.tgz:7371.got - 2010.06.03 17:03:02.
