data_PCOD9341455
_publ_section_title
;
Structure prediction by ZEFSAII (Michael W. Deem and Ramdas Pophale) SiO2 
 PCOD9341455
Probable space group: P C A 21
;
_chemical_formula_sum "Si O2"
_cell_formula_units_Z 32
_cell_length_a 12.223319
_cell_length_b 10.766650
_cell_length_c 11.629907
_cell_angle_alpha 90.000000
_cell_angle_beta 90.000000
_cell_angle_gamma 90.000000
_cell_volume 1530.544578
_symmetry_space_group_name_H-M "P C A 21"
_symmetry_group_IT_number 29
_symmetry_cell_setting 'orthorhombic'
loop_
_space_group_symop_operation_xyz
x,y,z
-x,-y,1/2+z
1/2-x,y,1/2+z
1/2+x,-y,z
loop_
_atom_site_type_symbol
_atom_site_label
_atom_site_fract_x
_atom_site_fract_y
_atom_site_fract_z
Si Si1 0.280413 0.331001 0.330610
Si Si2 0.938389 0.753013 0.717424
Si Si3 0.562930 0.496253 0.690661
Si Si4 0.293116 0.540230 0.977458
Si Si5 0.081971 0.875988 0.902683
Si Si6 0.895763 0.309018 0.600116
Si Si7 0.543298 0.841531 0.954152
Si Si8 0.181367 0.776644 0.330654
O O1 0.187753 0.266957 0.253081
O O2 0.340172 0.444925 0.265332
O O3 0.222224 0.399920 0.437076
O O4 0.371788 0.237557 0.377214
O O5 0.951565 0.789876 0.584201
O O6 0.000551 0.621949 0.741904
O O7 0.998972 0.852992 0.797713
O O8 0.609940 0.452704 0.568556
O O9 0.482814 0.610129 0.667939
O O10 0.313653 0.633646 0.872794
O O11 0.186278 0.594131 0.040389
O O12 0.205485 0.841863 0.864543
O O13 0.076153 0.014789 0.949003
O O14 0.053542 0.778424 0.003235
O O15 0.833712 0.225103 0.693877
O O16 0.422750 0.830424 0.898278
#
# Coordination Sequence:
#
# PCOD9341455 Si02
#       8
#     4   4   4   4   4   4   4   4
#     4  12  26  42  70 109 145 190 240 301 374 434
#     4  12  27  49  73 109 149 188 243 310 371 432
#     4  12  21  41  70 104 145 185 231 302 371 438
#     4  11  22  39  68 104 141 184 234 298 368 437
#     4  11  29  46  75 102 141 199 247 298 362 438
#     4  11  23  42  70 103 140 186 241 293 369 433
#     4  12  28  49  71 106 146 196 249 303 363 444
#     4  11  24  48  71 103 141 190 243 295 368 436
#
# _framework density 20.907589999999999
#
# number of rings (size 3 to 8) (size 9 to 14) (size 15 to 20)
#    0.000    0.500    2.500    6.750    5.250    0.000 
#    0.000    0.000    0.000    0.000    0.000    0.000 
#    0.000    0.000    0.000    0.000    0.000    0.000 
#
# Total GULP energy -179093.689603 kJ/mol
# GULP energy per Si atom -5596.677800 kJ/mol
# Density = 2.086000 g / cm^3
# Si number density = 20.907590 Si / 1000 Ang^3
#
#
#
# Elastic Constant Matrix: (Units=GPa)
#
#
# Indices 1 2 3 4 5 6 
#
# 1 82.8460 25.6629 22.7410 0.0000 0.0000 0.0000
# 2 25.6629 93.1829 13.4038 0.0000 0.0000 0.0000
# 3 22.7410 13.4038 81.5451 0.0000 0.0000 0.0000
# 4 0.0000 0.0000 0.0000 24.7900 0.0000 0.0000
# 5 0.0000 0.0000 0.0000 0.0000 -486.2677 0.0000
# 6 0.0000 0.0000 0.0000 0.0000 0.0000 20.0074
#
#
#
# Elastic Compliance Matrix: (Units=1/GPa)
#
#
# Indices 1 2 3 4 5 6 
#
# 1 0.014041 -0.003384 -0.003359 0.000000 0.000000 0.000000
# 2 -0.003384 0.011807 -0.000997 0.000000 0.000000 0.000000
# 3 -0.003359 -0.000997 0.013364 0.000000 0.000000 0.000000
# 4 0.000000 0.000000 0.000000 0.040339 0.000000 0.000000
# 5 0.000000 0.000000 0.000000 0.000000 -0.002056 0.000000
# 6 0.000000 0.000000 0.000000 0.000000 0.000000 0.049981
#
#
# Mechanical properties :
#
#
# Convention : Reuss Voigt Hill
#
# Bulk Modulus (GPa) = 42.13865 42.35438 42.24651
# Shear Modulus (GPa) = 33.14191 -75.24296 -21.05052
#
# Velocity S-wave (km/s) = 3.98573 -6.00554 -3.17651
# Velocity P-wave (km/s) = 6.43272 5.27131 2.60702
#
# Compressibility (1/GPa) = 0.02373118
#
# Stress axis : x y z
#
# Youngs Moduli (GPa) = 71.22051 84.69631 74.82824
#
# Poissons Ratio (x) = 0.28658 0.25138
# Poissons Ratio (y) = 0.24099 0.07461
# Poissons Ratio (z) = 0.23926 0.08445
#
# Static dielectric constant tensor:
#      x y z
#    x 6.019630 0.000000 0.000000 
#    y 0.000000 1.710010 0.000000 
#    z 0.000000 0.000000 1.795170 
# 
# From -- ./inp_files/3258.got.cif
#   From: 2010.05.17/outbox.cif.g08.bks.cpg/sg29_2_cif.got.tgz:3258.got - 2010.06.04 01:19:37.
