data_PCOD9341175
_publ_section_title
;
Structure prediction by ZEFSAII (Michael W. Deem and Ramdas Pophale) SiO2 
 PCOD9341175
Probable space group: P C A 21
;
_chemical_formula_sum "Si O2"
_cell_formula_units_Z 32
_cell_length_a 11.993714
_cell_length_b 8.790725
_cell_length_c 14.054111
_cell_angle_alpha 90.000000
_cell_angle_beta 90.000000
_cell_angle_gamma 90.000000
_cell_volume 1481.773290
_symmetry_space_group_name_H-M "P C A 21"
_symmetry_group_IT_number 29
_symmetry_cell_setting 'orthorhombic'
loop_
_space_group_symop_operation_xyz
x,y,z
-x,-y,1/2+z
1/2-x,y,1/2+z
1/2+x,-y,z
loop_
_atom_site_type_symbol
_atom_site_label
_atom_site_fract_x
_atom_site_fract_y
_atom_site_fract_z
Si Si1 0.839083 0.531292 0.951440
Si Si2 0.593518 0.851834 0.695214
Si Si3 0.997764 0.394355 0.105518
Si Si4 0.219596 0.218358 0.046931
Si Si5 0.186038 0.818611 0.706894
Si Si6 0.153045 0.663543 0.899887
Si Si7 0.118319 0.886287 0.062004
Si Si8 0.493184 0.572922 0.793229
O O1 0.737492 0.418385 0.970905
O O2 0.883274 0.473319 0.850676
O O3 0.935403 0.489797 0.024913
O O4 0.790277 0.700091 0.963190
O O5 0.695342 0.773643 0.636943
O O6 0.496510 0.896112 0.620232
O O7 0.541236 0.742443 0.776460
O O8 0.644258 0.011009 0.728359
O O9 0.912361 0.272943 0.152520
O O10 0.025460 0.511871 0.187907
O O11 0.107587 0.312403 0.067687
O O12 0.176562 0.046448 0.032764
O O13 0.207502 0.747413 0.809895
O O14 0.292452 0.819664 0.637901
O O15 0.082355 0.531089 0.849441
O O16 0.095259 0.786883 0.967803
#
# Coordination Sequence:
#
# PCOD9341175 Si02
#       8
#     4   4   4   4   4   4   4   4
#     4  12  24  43  68 104 140 189 243 298 367 423
#     4  11  23  45  72 104 143 197 236 299 367 438
#     4  11  23  46  68 101 147 188 235 307 359 441
#     4  11  25  43  73 104 142 194 245 297 365 449
#     4  10  23  45  68 104 142 190 240 290 373 438
#     4  11  25  42  68 102 138 187 237 296 356 434
#     4  11  23  46  72 101 147 190 240 299 365 440
#     4  11  26  42  69 104 143 187 242 300 366 429
#
# _framework density 21.595744
#
# number of rings (size 3 to 8) (size 9 to 14) (size 15 to 20)
#    0.000    1.000    3.750    2.250    3.500    2.000 
#    2.250    2.500    0.000    0.000    0.000    0.000 
#    0.000    0.000    0.000    0.000    0.000    0.000 
#
# Total GULP energy -178679.875438 kJ/mol
# GULP energy per Si atom -5583.746107 kJ/mol
# Density = 2.154659 g / cm^3
# Si number density = 21.595744 Si / 1000 Ang^3
#
#
#
# Elastic Constant Matrix: (Units=GPa)
#
#
# Indices 1 2 3 4 5 6 
#
# 1 82.5377 32.3100 20.7909 0.0000 0.0000 0.0000
# 2 32.3100 95.5566 39.2176 0.0000 0.0000 0.0000
# 3 20.7909 39.2176 89.2845 0.0000 0.0000 0.0000
# 4 0.0000 0.0000 0.0000 35.2549 0.0000 0.0000
# 5 0.0000 0.0000 0.0000 0.0000 30.3416 0.0000
# 6 0.0000 0.0000 0.0000 0.0000 0.0000 31.7973
#
#
#
# Elastic Compliance Matrix: (Units=1/GPa)
#
#
# Indices 1 2 3 4 5 6 
#
# 1 0.014117 -0.004177 -0.001452 0.000000 0.000000 0.000000
# 2 -0.004177 0.014002 -0.005178 0.000000 0.000000 0.000000
# 3 -0.001452 -0.005178 0.013813 0.000000 0.000000 0.000000
# 4 0.000000 0.000000 0.000000 0.028365 0.000000 0.000000
# 5 0.000000 0.000000 0.000000 0.000000 0.032958 0.000000
# 6 0.000000 0.000000 0.000000 0.000000 0.000000 0.031449
#
#
# Mechanical properties :
#
#
# Convention : Reuss Voigt Hill
#
# Bulk Modulus (GPa) = 49.21962 50.22398 49.72180
# Shear Modulus (GPa) = 30.65774 31.14944 30.90359
#
# Velocity S-wave (km/s) = 3.77187 3.80200 3.78696
# Velocity P-wave (km/s) = 6.46608 6.52537 6.49579
#
# Compressibility (1/GPa) = 0.02031710
#
# Stress axis : x y z
#
# Youngs Moduli (GPa) = 70.83812 71.41630 72.39720
#
# Poissons Ratio (x) = 0.29831 0.10516
# Poissons Ratio (y) = 0.29590 0.37486
# Poissons Ratio (z) = 0.10289 0.36978
#
# Static dielectric constant tensor:
#      x y z
#    x 1.957050 0.000000 0.000000 
#    y 0.000000 1.799190 0.000000 
#    z 0.000000 0.000000 1.784430 
# 
# From -- ./inp_files/4545.got.cif
#   From: 2010.05.17/outbox.cif.g08.bks.cpg/sg29_3_cif.got.tgz:4545.got - 2010.06.04 01:19:37.
