data_PCOD9341919
_publ_section_title
;
Structure prediction by ZEFSAII (Michael W. Deem and Ramdas Pophale) SiO2 
 PCOD9341919
Probable space group: P N C 2
;
_chemical_formula_sum "Si O2"
_cell_formula_units_Z 24
_cell_length_a 11.479678
_cell_length_b 12.194999
_cell_length_c 7.551817
_cell_angle_alpha 90.000000
_cell_angle_beta 90.000000
_cell_angle_gamma 90.000000
_cell_volume 1057.214066
_symmetry_space_group_name_H-M "P N C 2"
_symmetry_group_IT_number 30
_symmetry_cell_setting 'orthorhombic'
loop_
_space_group_symop_operation_xyz
x,y,z
-x,-y,z
-x,1/2+y,1/2+z
x,1/2-y,1/2+z
loop_
_atom_site_type_symbol
_atom_site_label
_atom_site_fract_x
_atom_site_fract_y
_atom_site_fract_z
Si Si1 0.938614 0.892229 0.178910
Si Si2 0.796861 0.010640 0.653684
Si Si3 0.564185 0.101473 0.703640
Si Si4 0.691141 0.886688 0.335353
Si Si5 0.015751 0.346614 0.086895
Si Si6 0.553036 0.705292 0.533518
O O1 0.799771 0.885587 0.198468
O O2 0.981834 0.782748 0.087688
O O3 0.975426 0.884324 0.384501
O O4 0.000000 0.000000 0.102364
O O5 0.690039 0.059066 0.763344
O O6 0.896554 0.101794 0.653446
O O7 0.731532 0.984904 0.465698
O O8 0.872071 0.899898 0.687670
O O9 0.550972 0.209929 0.584370
O O10 0.485272 0.132310 0.870610
O O11 0.500000 0.000000 0.609113
O O12 0.660679 0.784683 0.469791
O O13 0.584233 0.870879 0.200320
#
# Coordination Sequence:
#
# PCOD9341919 Si02
#       6
#     4   4   4   4   4   4
#     4  11  21  40  65 100 130 175 229 274 338 405
#     4  10  20  42  68  94 140 180 214 284 352 396
#     4  11  23  43  63  96 133 173 229 280 338 404
#     4  10  18  40  66  91 135 177 225 281 334 405
#     4  10  22  41  68  97 136 178 223 277 342 410
#     4  10  23  39  66  99 128 181 233 276 343 408
#
# _framework density 22.701170999999999
#
# number of rings (size 3 to 8) (size 9 to 14) (size 15 to 20)
#    0.000    1.667    5.000    2.000    2.333    1.333 
#    9.000    0.000    0.000    0.000    0.000    0.000 
#    0.000    0.000    0.000    0.000    0.000    0.000 
#
# Total GULP energy -133724.978667 kJ/mol
# GULP energy per Si atom -5571.874111 kJ/mol
# Density = 2.264950 g / cm^3
# Si number density = 22.701171 Si / 1000 Ang^3
#
#
#
# Elastic Constant Matrix: (Units=GPa)
#
#
# Indices 1 2 3 4 5 6 
#
# 1 119.7740 43.3573 -3.9553 0.0000 0.0000 0.0000
# 2 43.3573 138.2372 5.1457 0.0000 0.0000 0.0000
# 3 -3.9553 5.1457 21.1329 0.0000 0.0000 0.0000
# 4 0.0000 0.0000 0.0000 23.6377 0.0000 0.0000
# 5 0.0000 0.0000 0.0000 0.0000 11.7634 0.0000
# 6 0.0000 0.0000 0.0000 0.0000 0.0000 31.5893
#
#
#
# Elastic Compliance Matrix: (Units=1/GPa)
#
#
# Indices 1 2 3 4 5 6 
#
# 1 0.009552 -0.003090 0.002540 0.000000 0.000000 0.000000
# 2 -0.003090 0.008300 -0.002599 0.000000 0.000000 0.000000
# 3 0.002540 -0.002599 0.048428 0.000000 0.000000 0.000000
# 4 0.000000 0.000000 0.000000 0.042305 0.000000 0.000000
# 5 0.000000 0.000000 0.000000 0.000000 0.085009 0.000000
# 6 0.000000 0.000000 0.000000 0.000000 0.000000 0.031656
#
#
# Mechanical properties :
#
#
# Convention : Reuss Voigt Hill
#
# Bulk Modulus (GPa) = 16.67210 40.91548 28.79379
# Shear Modulus (GPa) = 19.87731 29.03784 24.45758
#
# Velocity S-wave (km/s) = 2.96228 3.58038 3.28589
# Velocity P-wave (km/s) = 4.36580 5.92915 5.20649
#
# Compressibility (1/GPa) = 0.05998046
#
# Stress axis : x y z
#
# Youngs Moduli (GPa) = 104.69409 120.48221 20.64924
#
# Poissons Ratio (x) = 0.37233 -0.05245
# Poissons Ratio (y) = 0.32354 0.05368
# Poissons Ratio (z) = -0.26595 0.31318
#
# Static dielectric constant tensor:
#      x y z
#    x 1.899820 0.000000 0.000000 
#    y 0.000000 1.818240 0.000000 
#    z 0.000000 0.000000 1.889690 
# 
# From -- ./inp_files/2335.got.cif
#   From: 2010.05.17/outbox.cif.g08.bks.cpg/sg30_2_cif.got.tgz:2335.got - 2010.06.03 17:03:02.
