data_PCOD9341221
_publ_section_title
;
Structure prediction by ZEFSAII (Michael W. Deem and Ramdas Pophale) SiO2 
 PCOD9341221
Probable space group: P C A 21
;
_chemical_formula_sum "Si O2"
_cell_formula_units_Z 28
_cell_length_a 4.650292
_cell_length_b 24.592598
_cell_length_c 8.717870
_cell_angle_alpha 90.000000
_cell_angle_beta 90.000000
_cell_angle_gamma 90.000000
_cell_volume 996.999690
_symmetry_space_group_name_H-M "P C A 21"
_symmetry_group_IT_number 29
_symmetry_cell_setting 'orthorhombic'
loop_
_space_group_symop_operation_xyz
x,y,z
-x,-y,1/2+z
1/2-x,y,1/2+z
1/2+x,-y,z
loop_
_atom_site_type_symbol
_atom_site_label
_atom_site_fract_x
_atom_site_fract_y
_atom_site_fract_z
Si Si1 0.355985 0.899262 0.657260
Si Si2 0.245716 0.392115 0.367009
Si Si3 0.443060 0.679119 0.618365
Si Si4 0.056409 0.536516 0.614773
Si Si5 0.435542 0.036331 0.438359
Si Si6 0.141401 0.817335 0.918622
Si Si7 0.439999 0.247907 0.637848
O O1 0.515868 0.942392 0.766038
O O2 0.088436 0.925954 0.564847
O O3 0.250456 0.858252 0.788216
O O4 0.515208 0.858382 0.538092
O O5 0.444818 0.352844 0.265670
O O6 0.043992 0.355694 0.474870
O O7 0.048245 0.429596 0.259813
O O8 0.448671 0.430606 0.468544
O O9 0.110820 0.694699 0.624225
O O10 0.608986 0.737135 0.615675
O O11 0.889064 0.478739 0.615501
O O12 0.102537 0.021557 0.453992
O O13 0.980938 0.774586 0.809006
O O14 0.406621 0.789668 0.010656
#
# Coordination Sequence:
#
# PCOD9341221 Si02
#       7
#     4   4   4   4   4   4   4
#     4   9  20  40  60  90 120 154 200 244 292 349
#     4  10  24  40  62  90 120 154 196 244 292 344
#     4  11  24  40  62  90 120 154 196 244 292 349
#     4  11  24  41  62  87 120 157 196 239 292 349
#     4  11  22  40  62  87 120 157 196 244 296 349
#     4   9  20  40  62  87 120 157 196 244 292 349
#     4  11  22  41  62  87 118 157 196 239 296 349
#
# _framework density 28.08426
#
# number of rings (size 3 to 8) (size 9 to 14) (size 15 to 20)
#    0.000    1.714    0.000    3.429    0.000    6.857 
#    0.000   28.571    0.000    0.000    0.000    0.000 
#    0.000    0.000    0.000    0.000    0.000    0.000 
#
# Total GULP energy -157351.912021 kJ/mol
# GULP energy per Si atom -5619.711144 kJ/mol
# Density = 2.802034 g / cm^3
# Si number density = 28.084260 Si / 1000 Ang^3
#
#
#
# Elastic Constant Matrix: (Units=GPa)
#
#
# Indices 1 2 3 4 5 6 
#
# 1 112.1810 20.6521 28.2513 0.0000 0.0000 0.0000
# 2 20.6521 115.0373 50.6619 0.0000 0.0000 0.0000
# 3 28.2513 50.6619 207.6270 0.0000 0.0000 0.0000
# 4 0.0000 0.0000 0.0000 64.5929 0.0000 0.0000
# 5 0.0000 0.0000 0.0000 0.0000 33.6853 0.0000
# 6 0.0000 0.0000 0.0000 0.0000 0.0000 31.6236
#
#
#
# Elastic Compliance Matrix: (Units=1/GPa)
#
#
# Indices 1 2 3 4 5 6 
#
# 1 0.009390 -0.001258 -0.000971 0.000000 0.000000 0.000000
# 2 -0.001258 0.009908 -0.002246 0.000000 0.000000 0.000000
# 3 -0.000971 -0.002246 0.005497 0.000000 0.000000 0.000000
# 4 0.000000 0.000000 0.000000 0.015482 0.000000 0.000000
# 5 0.000000 0.000000 0.000000 0.000000 0.029687 0.000000
# 6 0.000000 0.000000 0.000000 0.000000 0.000000 0.031622
#
#
# Mechanical properties :
#
#
# Convention : Reuss Voigt Hill
#
# Bulk Modulus (GPa) = 63.11501 70.44175 66.77838
# Shear Modulus (GPa) = 43.17151 48.33234 45.75193
#
# Velocity S-wave (km/s) = 3.92499 4.15297 4.04058
# Velocity P-wave (km/s) = 6.56223 6.93779 6.75262
#
# Compressibility (1/GPa) = 0.01584409
#
# Stress axis : x y z
#
# Youngs Moduli (GPa) = 106.49321 100.92820 181.93277
#
# Poissons Ratio (x) = 0.12700 0.17660
# Poissons Ratio (y) = 0.13400 0.40869
# Poissons Ratio (z) = 0.10337 0.22672
#
# Static dielectric constant tensor:
#      x y z
#    x 2.064740 0.000000 0.000000 
#    y 0.000000 2.266920 0.000000 
#    z 0.000000 0.000000 2.126320 
# 
# From -- ./inp_files/1004.got.cif
#   From: 2010.05.17/outbox.cif.g08.bks.cpg/sg29_1_cif.got.tgz:1004.got - 2010.06.04 01:19:37.
