data_PCOD9341791
_publ_section_title
;
Structure prediction by ZEFSAII (Michael W. Deem and Ramdas Pophale) SiO2 
 PCOD9341791
Probable space group: P C A 21
;
_chemical_formula_sum "Si O2"
_cell_formula_units_Z 32
_cell_length_a 12.000000
_cell_length_b 15.000000
_cell_length_c 9.000000
_cell_angle_alpha 90.000000
_cell_angle_beta 90.000000
_cell_angle_gamma 90.000000
_cell_volume 1620.000000
_symmetry_space_group_name_H-M "P C A 21"
_symmetry_group_IT_number 29
_symmetry_cell_setting 'orthorhombic'
loop_
_space_group_symop_operation_xyz
x,y,z
-x,-y,1/2+z
1/2-x,y,1/2+z
1/2+x,-y,z
loop_
_atom_site_type_symbol
_atom_site_label
_atom_site_fract_x
_atom_site_fract_y
_atom_site_fract_z
Si Si1 0.360877 0.457472 0.481130
Si Si2 0.915192 0.876142 0.665437
Si Si3 0.897752 0.527933 0.834731
Si Si4 0.825608 0.751682 0.430378
Si Si5 0.884721 0.020110 0.104069
Si Si6 0.489632 0.168089 0.184249
Si Si7 0.695059 0.052889 0.299569
Si Si8 0.434202 0.263925 0.890511
O O1 0.231214 0.485036 0.413870
O O2 0.483119 0.481148 0.397073
O O3 0.376154 0.486779 0.655907
O O4 0.351764 0.350007 0.475058
O O5 0.833934 0.818552 0.567188
O O6 0.979153 0.804950 0.768463
O O7 0.005484 0.925248 0.563765
O O8 0.856000 0.957464 0.748290
O O9 0.933418 0.631339 0.857581
O O10 0.915272 0.784679 0.310281
O O11 0.697739 0.757652 0.384148
O O12 0.821203 0.057651 0.245713
O O13 0.921734 0.919180 0.128812
O O14 0.799838 0.041343 0.974638
O O15 0.608919 0.129208 0.242149
O O16 0.490360 0.236696 0.046136
#
# Coordination Sequence:
#
# PCOD9341791 Si02
#       8
#     4   4   4   4   4   4   4   4
#     4  11  25  45  72 102 137 172 215 270 333 400
#     4  11  22  40  57  87 123 156 207 258 303 365
#     4  11  25  45  72 103 136 172 215 270 333 400
#     4  11  22  40  65  93 123 158 211 258 312 367
#     4  11  24  38  57  82 122 165 206 253 308 364
#     4  11  24  38  59  89 122 162 207 260 307 367
#     4  11  24  38  57  83 120 166 206 253 309 363
#     4  11  22  38  67  95 119 159 209 260 313 368
#
# _framework density 19.753086
#
# number of rings (size 3 to 8) (size 9 to 14) (size 15 to 20)
#    0.000    1.000    3.750    3.000   10.500    0.000 
#    0.000    2.500    0.000    0.000    0.000    0.000 
#    0.000    0.000    0.000    0.000    0.000    0.000 
#
# Total GULP energy -178141.219331 kJ/mol
# GULP energy per Si atom -5566.913104 kJ/mol
# Density = 1.970813 g / cm^3
# Si number density = 19.753086 Si / 1000 Ang^3
#
#
#
# Elastic Constant Matrix: (Units=GPa)
#
#
# Indices 1 2 3 4 5 6 
#
# 1 68.6625 18.2785 -1.5554 0.0000 0.0000 0.0000
# 2 18.2785 64.6665 7.3721 0.0000 0.0000 0.0000
# 3 -1.5554 7.3721 63.6614 0.0000 0.0000 0.0000
# 4 0.0000 0.0000 0.0000 22.9215 0.0000 0.0000
# 5 0.0000 0.0000 0.0000 0.0000 37.6941 0.0000
# 6 0.0000 0.0000 0.0000 0.0000 0.0000 27.7499
#
#
#
# Elastic Compliance Matrix: (Units=1/GPa)
#
#
# Indices 1 2 3 4 5 6 
#
# 1 0.015802 -0.004571 0.000915 0.000000 0.000000 0.000000
# 2 -0.004571 0.016993 -0.002079 0.000000 0.000000 0.000000
# 3 0.000915 -0.002079 0.015971 0.000000 0.000000 0.000000
# 4 0.000000 0.000000 0.000000 0.043627 0.000000 0.000000
# 5 0.000000 0.000000 0.000000 0.000000 0.026529 0.000000
# 6 0.000000 0.000000 0.000000 0.000000 0.000000 0.036036
#
#
# Mechanical properties :
#
#
# Convention : Reuss Voigt Hill
#
# Bulk Modulus (GPa) = 26.81253 27.24230 27.02742
# Shear Modulus (GPa) = 27.95478 29.19944 28.57711
#
# Velocity S-wave (km/s) = 3.76601 3.84894 3.80770
# Velocity P-wave (km/s) = 5.70208 5.79429 5.74837
#
# Compressibility (1/GPa) = 0.03729599
#
# Stress axis : x y z
#
# Youngs Moduli (GPa) = 63.28512 58.84775 62.61242
#
# Poissons Ratio (x) = 0.26898 -0.05731
# Poissons Ratio (y) = 0.28926 0.13020
# Poissons Ratio (z) = -0.05793 0.12237
#
# Static dielectric constant tensor:
#      x y z
#    x 1.710650 0.000000 0.000000 
#    y 0.000000 1.680550 0.000000 
#    z 0.000000 0.000000 1.800890 
# 
# From -- ./inp_files/1524.got.cif
#   From: 2010.05.17/outbox.ucp.g08.bks.cvg/sg29_1_cif.got.tgz:1524.got - 2010.06.11 15:24:14.
