data_PCOD9341890
_publ_section_title
;
Structure prediction by ZEFSAII (Michael W. Deem and Ramdas Pophale) SiO2 
 PCOD9341890
Probable space group: P N C 2
;
_chemical_formula_sum "Si O2"
_cell_formula_units_Z 26
_cell_length_a 7.409166
_cell_length_b 14.433180
_cell_length_c 10.358590
_cell_angle_alpha 90.000000
_cell_angle_beta 90.000000
_cell_angle_gamma 90.000000
_cell_volume 1107.725100
_symmetry_space_group_name_H-M "P N C 2"
_symmetry_group_IT_number 30
_symmetry_cell_setting 'orthorhombic'
loop_
_space_group_symop_operation_xyz
x,y,z
-x,-y,z
-x,1/2+y,1/2+z
x,1/2-y,1/2+z
loop_
_atom_site_type_symbol
_atom_site_label
_atom_site_fract_x
_atom_site_fract_y
_atom_site_fract_z
Si Si1 0.000000 0.000000 0.998481
Si Si2 0.936615 0.670349 0.627572
Si Si3 0.933468 0.678942 0.917493
Si Si4 0.500000 0.000000 0.946553
Si Si5 0.000000 0.000000 0.553365
Si Si6 0.782958 0.077576 0.787284
Si Si7 0.380560 0.670745 0.619023
Si Si8 0.349736 0.726207 0.880017
O O1 0.063902 0.921946 0.897076
O O2 0.881355 0.935183 0.091876
O O3 0.874367 0.696311 0.770931
O O4 0.875573 0.745301 0.522660
O O5 0.159300 0.669331 0.627346
O O6 0.152332 0.685248 0.908070
O O7 0.896374 0.575560 0.968064
O O8 0.664483 0.993521 0.844978
O O9 0.550855 0.083640 0.038811
O O10 0.132767 0.944138 0.650314
O O11 0.682069 0.174417 0.806407
O O12 0.445638 0.670465 0.766210
O O13 0.431288 0.754094 0.520541
#
# Coordination Sequence:
#
# PCOD9341890 Si02
#       8
#     2   4   4   2   2   4   4   4
#     4  11  17  32  54  88 106 146 182 236 274 330
#     4  10  19  32  54  84 109 148 181 237 271 342
#     4  10  19  32  53  84 115 141 189 229 283 327
#     4  10  18  36  52  84 102 154 178 238 274 348
#     4  11  21  32  54  88 112 146 186 244 278 332
#     4  10  20  32  59  80 113 143 193 227 285 332
#     4   9  17  30  57  76 105 133 194 223 275 316
#     4   9  16  33  53  84  98 147 182 235 254 341
#
# _framework density 23.471529
#
# number of rings (size 3 to 8) (size 9 to 14) (size 15 to 20)
#    0.000    2.154    4.615    3.231    2.154    0.000 
#    0.000    0.000    6.769   14.769    0.000    0.000 
#    0.000    0.000    0.000    0.000    0.000    0.000 
#
# Total GULP energy -144892.774020 kJ/mol
# GULP energy per Si atom -5572.799001 kJ/mol
# Density = 2.341811 g / cm^3
# Si number density = 23.471529 Si / 1000 Ang^3
#
#
#
# Elastic Constant Matrix: (Units=GPa)
#
#
# Indices 1 2 3 4 5 6 
#
# 1 56.2955 -15.1821 -2.0949 0.0000 0.0000 0.0000
# 2 -15.1821 66.0994 31.1570 0.0000 0.0000 0.0000
# 3 -2.0949 31.1570 179.6642 0.0000 0.0000 0.0000
# 4 0.0000 0.0000 0.0000 48.9747 0.0000 0.0000
# 5 0.0000 0.0000 0.0000 0.0000 -5.1718 0.0000
# 6 0.0000 0.0000 0.0000 0.0000 0.0000 17.7970
#
#
#
# Elastic Compliance Matrix: (Units=1/GPa)
#
#
# Indices 1 2 3 4 5 6 
#
# 1 0.018992 0.004637 -0.000583 0.000000 0.000000 0.000000
# 2 0.004637 0.017608 -0.002999 0.000000 0.000000 0.000000
# 3 -0.000583 -0.002999 0.006079 0.000000 0.000000 0.000000
# 4 0.000000 0.000000 0.000000 0.020419 0.000000 0.000000
# 5 0.000000 0.000000 0.000000 0.000000 -0.193357 0.000000
# 6 0.000000 0.000000 0.000000 0.000000 0.000000 0.056189
#
#
# Mechanical properties :
#
#
# Convention : Reuss Voigt Hill
#
# Bulk Modulus (GPa) = 22.32702 36.64656 29.48679
# Shear Modulus (GPa) = -81.63326 31.53191 -25.05067
#
# Velocity S-wave (km/s) = -5.90383 3.66923 -3.27047
# Velocity P-wave (km/s) = 6.07787 5.79639 1.29276
#
# Compressibility (1/GPa) = 0.04478877
#
# Stress axis : x y z
#
# Youngs Moduli (GPa) = 52.65310 56.79372 164.49273
#
# Poissons Ratio (x) = -0.26335 0.09585
# Poissons Ratio (y) = -0.24415 0.49338
# Poissons Ratio (z) = 0.03068 0.17035
#
# Static dielectric constant tensor:
#      x y z
#    x 2.144760 0.000000 0.000000 
#    y 0.000000 1.918540 0.000000 
#    z 0.000000 0.000000 1.901810 
# 
# From -- ./inp_files/1980.got.cif
#   From: 2010.05.17/outbox.cif.g08.bks.cpg/sg30_1_cif.got.tgz:1980.got - 2010.06.03 17:03:02.
