data_PCOD9341036
_publ_section_title
;
Structure prediction by ZEFSAII (Michael W. Deem and Ramdas Pophale) SiO2 
 PCOD9341036
Probable space group: P C A 21
;
_chemical_formula_sum "Si O2"
_cell_formula_units_Z 28
_cell_length_a 17.990177
_cell_length_b 5.224008
_cell_length_c 14.711958
_cell_angle_alpha 90.000000
_cell_angle_beta 90.000000
_cell_angle_gamma 90.000000
_cell_volume 1382.642003
_symmetry_space_group_name_H-M "P C A 21"
_symmetry_group_IT_number 29
_symmetry_cell_setting 'orthorhombic'
loop_
_space_group_symop_operation_xyz
x,y,z
-x,-y,1/2+z
1/2-x,y,1/2+z
1/2+x,-y,z
loop_
_atom_site_type_symbol
_atom_site_label
_atom_site_fract_x
_atom_site_fract_y
_atom_site_fract_z
Si Si1 0.898816 0.925341 0.544360
Si Si2 0.514754 0.774925 0.671249
Si Si3 0.268164 0.813575 0.610286
Si Si4 0.127128 0.462336 0.196253
Si Si5 0.827691 0.689789 0.079093
Si Si6 0.399872 0.332915 0.890583
Si Si7 0.501270 0.842707 0.879416
O O1 0.861380 0.710766 0.608001
O O2 0.931685 0.823118 0.450860
O O3 0.832158 0.130776 0.534474
O O4 0.966929 0.040992 0.604531
O O5 0.458841 0.539466 0.686712
O O6 0.591230 0.697383 0.625084
O O7 0.526108 0.869725 0.774421
O O8 0.321786 0.715942 0.692282
O O9 0.214075 0.574982 0.596753
O O10 0.217391 0.064589 0.615539
O O11 0.136947 0.321346 0.291149
O O12 0.841556 0.697774 0.971207
O O13 0.445562 0.601400 0.893277
O O14 0.457340 0.101848 0.901106
#
# Coordination Sequence:
#
# PCOD9341036 Si02
#       7
#     4   4   4   4   4   4   4
#     4  11  21  44  69  90 133 174 214 265 326 391
#     4  10  23  39  71  97 126 164 223 277 323 373
#     4  11  26  43  63  91 138 176 212 254 338 389
#     4  10  22  45  69  94 127 181 215 266 327 403
#     4  12  24  44  64  99 131 171 214 275 321 386
#     4  11  23  40  69  98 128 166 226 265 328 389
#     4  11  23  39  67 105 121 164 224 282 319 383
#
# _framework density 20.251085
#
# number of rings (size 3 to 8) (size 9 to 14) (size 15 to 20)
#    0.000    1.143    4.286    1.714    4.000    0.000 
#    5.143    0.000    0.000    0.000    0.000    0.000 
#    0.000    0.000    0.000    0.000    0.000    0.000 
#
# Total GULP energy -156195.085418 kJ/mol
# GULP energy per Si atom -5578.395908 kJ/mol
# Density = 2.020499 g / cm^3
# Si number density = 20.251085 Si / 1000 Ang^3
#
#
#
# Elastic Constant Matrix: (Units=GPa)
#
#
# Indices 1 2 3 4 5 6 
#
# 1 106.3824 42.5854 23.7258 0.0000 0.0000 0.0000
# 2 42.5854 99.1213 18.5887 0.0000 0.0000 0.0000
# 3 23.7258 18.5887 58.2087 0.0000 0.0000 0.0000
# 4 0.0000 0.0000 0.0000 16.9123 0.0000 0.0000
# 5 0.0000 0.0000 0.0000 0.0000 -0.8556 0.0000
# 6 0.0000 0.0000 0.0000 0.0000 0.0000 230.2796
#
#
#
# Elastic Compliance Matrix: (Units=1/GPa)
#
#
# Indices 1 2 3 4 5 6 
#
# 1 0.011968 -0.004496 -0.003442 0.000000 0.000000 0.000000
# 2 -0.004496 0.012420 -0.002134 0.000000 0.000000 0.000000
# 3 -0.003442 -0.002134 0.019264 0.000000 0.000000 0.000000
# 4 0.000000 0.000000 0.000000 0.059129 0.000000 0.000000
# 5 0.000000 0.000000 0.000000 0.000000 -1.168811 0.000000
# 6 0.000000 0.000000 0.000000 0.000000 0.000000 0.004343
#
#
# Mechanical properties :
#
#
# Convention : Reuss Voigt Hill
#
# Bulk Modulus (GPa) = 42.53891 48.16803 45.35347
# Shear Modulus (GPa) = -4.83696 61.18809 28.17557
#
# Velocity S-wave (km/s) = -1.54715 5.50276 3.73408
# Velocity P-wave (km/s) = 4.22608 8.01316 6.40588
#
# Compressibility (1/GPa) = 0.02350789
#
# Stress axis : x y z
#
# Youngs Moduli (GPa) = 83.55945 80.51236 51.91031
#
# Poissons Ratio (x) = 0.36199 0.17868
# Poissons Ratio (y) = 0.37569 0.11077
# Poissons Ratio (z) = 0.28762 0.17180
#
# Static dielectric constant tensor:
#      x y z
#    x 1.716350 0.000000 0.000000 
#    y 0.000000 1.775350 0.000000 
#    z 0.000000 0.000000 1.728460 
# 
# From -- ./inp_files/4657.got.cif
#   From: 2010.05.17/outbox.cif.g08.bks.cpg/sg29_3_cif.got.tgz:4657.got - 2010.06.04 01:19:37.
