data_PCOD9341506
_publ_section_title
;
Structure prediction by ZEFSAII (Michael W. Deem and Ramdas Pophale) SiO2 
 PCOD9341506
Probable space group: P C A 21
;
_chemical_formula_sum "Si O2"
_cell_formula_units_Z 24
_cell_length_a 9.011448
_cell_length_b 13.836336
_cell_length_c 8.243002
_cell_angle_alpha 90.000000
_cell_angle_beta 90.000000
_cell_angle_gamma 90.000000
_cell_volume 1027.782186
_symmetry_space_group_name_H-M "P C A 21"
_symmetry_group_IT_number 29
_symmetry_cell_setting 'orthorhombic'
loop_
_space_group_symop_operation_xyz
x,y,z
-x,-y,1/2+z
1/2-x,y,1/2+z
1/2+x,-y,z
loop_
_atom_site_type_symbol
_atom_site_label
_atom_site_fract_x
_atom_site_fract_y
_atom_site_fract_z
Si Si1 0.028333 0.104877 0.557590
Si Si2 0.531444 0.216810 0.594309
Si Si3 0.336657 0.746818 0.424236
Si Si4 0.160371 0.060720 0.914746
Si Si5 0.937743 0.570269 0.598273
Si Si6 0.305920 0.527569 0.297378
O O1 0.094958 0.074625 0.733017
O O2 0.164734 0.082911 0.433859
O O3 0.959991 0.214108 0.552233
O O4 0.889832 0.039445 0.498386
O O5 0.611530 0.197321 0.763781
O O6 0.669808 0.230592 0.474531
O O7 0.423606 0.137970 0.526014
O O8 0.439748 0.315242 0.619919
O O9 0.329656 0.633117 0.378426
O O10 0.849972 0.512544 0.737313
O O11 0.874963 0.546340 0.423758
O O12 0.104987 0.535573 0.627575
#
# Coordination Sequence:
#
# PCOD9341506 Si02
#       6
#     4   4   4   4   4   4
#     4  12  26  46  72 101 143 189 239 298 361 430
#     4  11  24  42  67  98 134 179 233 288 353 422
#     4  11  23  43  67  97 134 183 234 292 355 423
#     4  12  26  46  70 105 142 189 240 298 360 431
#     4  11  24  41  66  96 133 178 226 286 350 420
#     4  11  23  42  64  95 132 176 228 284 351 422
#
# _framework density 23.351251000000001
#
# number of rings (size 3 to 8) (size 9 to 14) (size 15 to 20)
#    0.000    0.667    0.000    9.000    0.000    6.667 
#    0.000    0.000    0.000    0.000    0.000    0.000 
#    0.000    0.000    0.000    0.000    0.000    0.000 
#
# Total GULP energy -134186.239530 kJ/mol
# GULP energy per Si atom -5591.093314 kJ/mol
# Density = 2.329810 g / cm^3
# Si number density = 23.351251 Si / 1000 Ang^3
#
#
#
# Elastic Constant Matrix: (Units=GPa)
#
#
# Indices 1 2 3 4 5 6 
#
# 1 90.3471 36.0236 7.3338 0.0000 0.0000 0.0000
# 2 36.0236 96.8960 25.2213 0.0000 0.0000 0.0000
# 3 7.3338 25.2213 82.1946 0.0000 0.0000 0.0000
# 4 0.0000 0.0000 0.0000 39.8445 0.0000 0.0000
# 5 0.0000 0.0000 0.0000 0.0000 34.6235 0.0000
# 6 0.0000 0.0000 0.0000 0.0000 0.0000 32.3923
#
#
#
# Elastic Compliance Matrix: (Units=1/GPa)
#
#
# Indices 1 2 3 4 5 6 
#
# 1 0.013004 -0.004926 0.000351 0.000000 0.000000 0.000000
# 2 -0.004926 0.013082 -0.003575 0.000000 0.000000 0.000000
# 3 0.000351 -0.003575 0.013232 0.000000 0.000000 0.000000
# 4 0.000000 0.000000 0.000000 0.025098 0.000000 0.000000
# 5 0.000000 0.000000 0.000000 0.000000 0.028882 0.000000
# 6 0.000000 0.000000 0.000000 0.000000 0.000000 0.030872
#
#
# Mechanical properties :
#
#
# Convention : Reuss Voigt Hill
#
# Bulk Modulus (GPa) = 43.44227 45.17723 44.30975
# Shear Modulus (GPa) = 33.75157 34.76266 34.25712
#
# Velocity S-wave (km/s) = 3.80595 3.86253 3.83435
# Velocity P-wave (km/s) = 6.16100 6.26746 6.21446
#
# Compressibility (1/GPa) = 0.02301906
#
# Stress axis : x y z
#
# Youngs Moduli (GPa) = 76.89927 76.43976 75.57545
#
# Poissons Ratio (x) = 0.37654 -0.02655
# Poissons Ratio (y) = 0.37881 0.27016
# Poissons Ratio (z) = -0.02701 0.27325
#
# Static dielectric constant tensor:
#      x y z
#    x 1.818940 0.000000 0.000000 
#    y 0.000000 1.910500 0.000000 
#    z 0.000000 0.000000 1.913250 
# 
# From -- ./inp_files/1159.got.cif
#   From: 2010.05.17/outbox.cif.g08.bks.cpg/sg29_1_cif.got.tgz:1159.got - 2010.06.04 01:19:37.
