data_PCOD9341560
_publ_section_title
;
Structure prediction by ZEFSAII (Michael W. Deem and Ramdas Pophale) SiO2 
 PCOD9341560
Probable space group: P C A 21
;
_chemical_formula_sum "Si O2"
_cell_formula_units_Z 24
_cell_length_a 8.365372
_cell_length_b 12.802522
_cell_length_c 8.324306
_cell_angle_alpha 90.000000
_cell_angle_beta 90.000000
_cell_angle_gamma 90.000000
_cell_volume 891.515351
_symmetry_space_group_name_H-M "P C A 21"
_symmetry_group_IT_number 29
_symmetry_cell_setting 'orthorhombic'
loop_
_space_group_symop_operation_xyz
x,y,z
-x,-y,1/2+z
1/2-x,y,1/2+z
1/2+x,-y,z
loop_
_atom_site_type_symbol
_atom_site_label
_atom_site_fract_x
_atom_site_fract_y
_atom_site_fract_z
Si Si1 0.687469 0.397485 0.844010
Si Si2 0.105170 0.135014 0.392810
Si Si3 0.886390 0.193452 0.832301
Si Si4 0.193961 0.266547 0.672991
Si Si5 0.099519 0.472474 0.152567
Si Si6 0.791139 0.059380 0.528575
O O1 0.744786 0.278620 0.836403
O O2 0.847568 0.461754 0.807475
O O3 0.569667 0.421761 0.695339
O O4 0.613207 0.446697 0.005200
O O5 0.106869 0.234863 0.509586
O O6 0.174805 0.182127 0.230571
O O7 0.931771 0.083731 0.400246
O O8 0.224286 0.052815 0.478907
O O9 0.865175 0.101951 0.695937
O O10 0.862061 0.133049 0.997591
O O11 0.052925 0.252529 0.804490
O O12 0.274870 0.377333 0.646919
#
# Coordination Sequence:
#
# PCOD9341560 Si02
#       6
#     4   4   4   4   4   4
#     4  12  26  45  70 100 138 183 236 296 358 424
#     4  11  24  42  68 101 138 178 224 276 339 412
#     4  11  25  45  69  99 135 177 226 282 343 410
#     4  11  25  45  69  99 135 177 226 282 343 409
#     4  12  26  45  69 100 137 183 236 296 358 424
#     4  11  24  42  67 101 137 178 224 276 339 411
#
# _framework density 26.920452999999998
#
# number of rings (size 3 to 8) (size 9 to 14) (size 15 to 20)
#    0.000    0.667    0.000    7.000    0.000   14.667 
#    0.000    1.667    0.000    0.000    0.000    0.000 
#    0.000    0.000    0.000    0.000    0.000    0.000 
#
# Total GULP energy -134395.962314 kJ/mol
# GULP energy per Si atom -5599.831763 kJ/mol
# Density = 2.685918 g / cm^3
# Si number density = 26.920453 Si / 1000 Ang^3
#
#
#
# Elastic Constant Matrix: (Units=GPa)
#
#
# Indices 1 2 3 4 5 6 
#
# 1 105.3548 31.7816 15.1870 0.0000 0.0000 0.0000
# 2 31.7816 149.3302 14.1648 0.0000 0.0000 0.0000
# 3 15.1870 14.1648 74.3926 0.0000 0.0000 0.0000
# 4 0.0000 0.0000 0.0000 28.2402 0.0000 0.0000
# 5 0.0000 0.0000 0.0000 0.0000 42.5841 0.0000
# 6 0.0000 0.0000 0.0000 0.0000 0.0000 37.0329
#
#
#
# Elastic Compliance Matrix: (Units=1/GPa)
#
#
# Indices 1 2 3 4 5 6 
#
# 1 0.010356 -0.002040 -0.001726 0.000000 0.000000 0.000000
# 2 -0.002040 0.007222 -0.000959 0.000000 0.000000 0.000000
# 3 -0.001726 -0.000959 0.013977 0.000000 0.000000 0.000000
# 4 0.000000 0.000000 0.000000 0.035410 0.000000 0.000000
# 5 0.000000 0.000000 0.000000 0.000000 0.023483 0.000000
# 6 0.000000 0.000000 0.000000 0.000000 0.000000 0.027003
#
#
# Mechanical properties :
#
#
# Convention : Reuss Voigt Hill
#
# Bulk Modulus (GPa) = 45.23729 50.14937 47.69333
# Shear Modulus (GPa) = 37.23875 39.43440 38.33658
#
# Velocity S-wave (km/s) = 3.72329 3.83149 3.77778
# Velocity P-wave (km/s) = 5.94344 6.18408 6.06495
#
# Compressibility (1/GPa) = 0.02210565
#
# Stress axis : x y z
#
# Youngs Moduli (GPa) = 96.56251 138.47092 71.54617
#
# Poissons Ratio (x) = 0.28253 0.12346
# Poissons Ratio (y) = 0.19702 0.06858
# Poissons Ratio (z) = 0.16663 0.13273
#
# Static dielectric constant tensor:
#      x y z
#    x 2.123670 0.000000 0.000000 
#    y 0.000000 2.078490 0.000000 
#    z 0.000000 0.000000 2.130870 
# 
# From -- ./inp_files/1132.got.cif
#   From: 2010.05.17/outbox.cif.g08.bks.cpg/sg29_1_cif.got.tgz:1132.got - 2010.06.04 01:19:37.
