data_PCOD9341301
_publ_section_title
;
Structure prediction by ZEFSAII (Michael W. Deem and Ramdas Pophale) SiO2 
 PCOD9341301
Probable space group: P C A 21
;
_chemical_formula_sum "Si O2"
_cell_formula_units_Z 20
_cell_length_a 10.268815
_cell_length_b 5.188333
_cell_length_c 13.290292
_cell_angle_alpha 90.000000
_cell_angle_beta 90.000000
_cell_angle_gamma 90.000000
_cell_volume 708.080599
_symmetry_space_group_name_H-M "P C A 21"
_symmetry_group_IT_number 29
_symmetry_cell_setting 'orthorhombic'
loop_
_space_group_symop_operation_xyz
x,y,z
-x,-y,1/2+z
1/2-x,y,1/2+z
1/2+x,-y,z
loop_
_atom_site_type_symbol
_atom_site_label
_atom_site_fract_x
_atom_site_fract_y
_atom_site_fract_z
Si Si1 0.329542 0.290669 0.498130
Si Si2 0.954106 0.939889 0.136577
Si Si3 0.775833 0.284724 0.655086
Si Si4 0.072890 0.421745 0.443274
Si Si5 0.861693 0.098714 0.336352
O O1 0.320194 0.447073 0.605688
O O2 0.225596 0.459267 0.434422
O O3 0.476097 0.345162 0.461807
O O4 0.308826 0.017315 0.440492
O O5 0.110570 0.927782 0.134493
O O6 0.906140 0.884544 0.250844
O O7 0.864986 0.189362 0.116044
O O8 0.921279 0.747507 0.046907
O O9 0.745686 0.255124 0.772319
O O10 0.994407 0.255331 0.360454
#
# Coordination Sequence:
#
# PCOD9341301 Si02
#       5
#     4   4   4   4   4
#     4  11  26  44  74 112 153 208 274 330 407 489
#     4   9  22  44  71 102 151 204 255 336 398 468
#     4   9  22  45  72 112 153 212 269 335 410 481
#     4  11  26  44  75 109 152 212 265 332 405 487
#     4  10  24  45  76 107 157 204 269 333 402 481
#
# _framework density 28.245374999999999
#
# number of rings (size 3 to 8) (size 9 to 14) (size 15 to 20)
#    1.200    0.800    0.000    1.200    8.400    3.200 
#    0.000    6.000    0.000    0.000    0.000    0.000 
#    0.000    0.000    0.000    0.000    0.000    0.000 
#
# Total GULP energy -111361.478389 kJ/mol
# GULP energy per Si atom -5568.073919 kJ/mol
# Density = 2.818109 g / cm^3
# Si number density = 28.245375 Si / 1000 Ang^3
#
#
#
# Elastic Constant Matrix: (Units=GPa)
#
#
# Indices 1 2 3 4 5 6 
#
# 1 112.6008 5.4451 17.3082 0.0000 0.0000 0.0000
# 2 5.4451 104.1022 39.8725 0.0000 0.0000 0.0000
# 3 17.3082 39.8725 163.6915 0.0000 0.0000 0.0000
# 4 0.0000 0.0000 0.0000 242.7916 0.0000 0.0000
# 5 0.0000 0.0000 0.0000 0.0000 45.1891 0.0000
# 6 0.0000 0.0000 0.0000 0.0000 0.0000 9.7560
#
#
#
# Elastic Compliance Matrix: (Units=1/GPa)
#
#
# Indices 1 2 3 4 5 6 
#
# 1 0.009029 -0.000118 -0.000926 0.000000 0.000000 0.000000
# 2 -0.000118 0.010596 -0.002569 0.000000 0.000000 0.000000
# 3 -0.000926 -0.002569 0.006833 0.000000 0.000000 0.000000
# 4 0.000000 0.000000 0.000000 0.004119 0.000000 0.000000
# 5 0.000000 0.000000 0.000000 0.000000 0.022129 0.000000
# 6 0.000000 0.000000 0.000000 0.000000 0.000000 0.102501
#
#
# Mechanical properties :
#
#
# Convention : Reuss Voigt Hill
#
# Bulk Modulus (GPa) = 51.99365 56.18291 54.08828
# Shear Modulus (GPa) = 29.61355 80.73192 55.17273
#
# Velocity S-wave (km/s) = 3.24147 5.35205 4.42445
# Velocity P-wave (km/s) = 5.69713 7.62409 6.72994
#
# Compressibility (1/GPa) = 0.01923312
#
# Stress axis : x y z
#
# Youngs Moduli (GPa) = 110.75470 94.37625 146.35666
#
# Poissons Ratio (x) = 0.01110 0.13553
# Poissons Ratio (y) = 0.01302 0.37592
# Poissons Ratio (z) = 0.10256 0.24241
#
# Static dielectric constant tensor:
#      x y z
#    x 2.437900 0.000000 0.000000 
#    y 0.000000 1.586270 0.000000 
#    z 0.000000 0.000000 2.241650 
# 
# From -- ./inp_files/4433.got.cif
#   From: 2010.05.17/outbox.cif.g08.bks.cpg/sg29_3_cif.got.tgz:4433.got - 2010.06.04 01:19:37.
