data_PCOD9341926
_publ_section_title
;
Structure prediction by ZEFSAII (Michael W. Deem and Ramdas Pophale) SiO2 
 PCOD9341926
Probable space group: P N C 2
;
_chemical_formula_sum "Si O2"
_cell_formula_units_Z 32
_cell_length_a 15.035569
_cell_length_b 5.870881
_cell_length_c 13.848043
_cell_angle_alpha 90.000000
_cell_angle_beta 90.000000
_cell_angle_gamma 90.000000
_cell_volume 1222.394955
_symmetry_space_group_name_H-M "P N C 2"
_symmetry_group_IT_number 30
_symmetry_cell_setting 'orthorhombic'
loop_
_space_group_symop_operation_xyz
x,y,z
-x,-y,z
-x,1/2+y,1/2+z
x,1/2-y,1/2+z
loop_
_atom_site_type_symbol
_atom_site_label
_atom_site_fract_x
_atom_site_fract_y
_atom_site_fract_z
Si Si1 0.092104 0.362341 0.723910
Si Si2 0.289752 0.019522 0.459272
Si Si3 0.399563 0.510340 0.654483
Si Si4 0.711386 0.483562 0.459678
Si Si5 0.097857 0.012409 0.548733
Si Si6 0.905154 0.988668 0.896827
Si Si7 0.168424 0.725122 0.224133
Si Si8 0.346400 0.009155 0.682678
O O1 0.095628 0.213661 0.627427
O O2 0.092107 0.218342 0.821629
O O3 0.183740 0.508094 0.726889
O O4 0.000000 0.500000 0.720637
O O5 0.310141 0.768181 0.415638
O O6 0.334470 0.016359 0.565921
O O7 0.315287 0.267837 0.416534
O O8 0.183386 0.021856 0.480720
O O9 0.500000 0.500000 0.615100
O O10 0.330138 0.521456 0.566062
O O11 0.394269 0.763930 0.703579
O O12 0.382892 0.262911 0.705841
O O13 0.818196 0.498280 0.460882
O O14 0.116972 0.809606 0.624009
O O15 0.000000 0.000000 0.503445
O O16 0.891028 0.186078 0.817981
O O17 0.000000 0.000000 0.947324
O O18 0.248530 0.547761 0.224711
#
# Coordination Sequence:
#
# PCOD9341926 Si02
#       8
#     4   4   4   4   4   4   4   4
#     4  11  19  32  54  78 111 158 212 251 293 350
#     4   9  21  35  52  77 114 144 191 242 305 353
#     4  10  20  40  65  91 119 148 191 246 317 384
#     4  10  23  39  55  84 114 158 204 245 289 355
#     4  10  19  29  48  76 106 145 193 251 300 350
#     4  11  23  36  53  80 118 169 216 248 285 343
#     4  10  20  34  52  80 115 150 198 247 296 350
#     4   9  20  34  61  91 114 144 182 246 315 376
#
# _framework density 26.178118000000001
#
# number of rings (size 3 to 8) (size 9 to 14) (size 15 to 20)
#    0.000    2.000    2.500    1.125   12.250    1.000 
#    0.000    0.000    0.000    1.500    0.000    0.000 
#    0.000    0.000    0.000    0.000    0.000    0.000 
#
# Total GULP energy -178541.204835 kJ/mol
# GULP energy per Si atom -5579.412651 kJ/mol
# Density = 2.611854 g / cm^3
# Si number density = 26.178118 Si / 1000 Ang^3
#
#
#
# Elastic Constant Matrix: (Units=GPa)
#
#
# Indices 1 2 3 4 5 6 
#
# 1 78.0002 17.0813 24.9011 0.0000 0.0000 0.0000
# 2 17.0813 248.8911 26.0494 0.0000 0.0000 0.0000
# 3 24.9011 26.0494 77.2571 0.0000 0.0000 0.0000
# 4 0.0000 0.0000 0.0000 29.8841 0.0000 0.0000
# 5 0.0000 0.0000 0.0000 0.0000 9.8969 0.0000
# 6 0.0000 0.0000 0.0000 0.0000 0.0000 28.8907
#
#
#
# Elastic Compliance Matrix: (Units=1/GPa)
#
#
# Indices 1 2 3 4 5 6 
#
# 1 0.014355 -0.000519 -0.004452 0.000000 0.000000 0.000000
# 2 -0.000519 0.004184 -0.001243 0.000000 0.000000 0.000000
# 3 -0.004452 -0.001243 0.014798 0.000000 0.000000 0.000000
# 4 0.000000 0.000000 0.000000 0.033463 0.000000 0.000000
# 5 0.000000 0.000000 0.000000 0.000000 0.101042 0.000000
# 6 0.000000 0.000000 0.000000 0.000000 0.000000 0.034613
#
#
# Mechanical properties :
#
#
# Convention : Reuss Voigt Hill
#
# Bulk Modulus (GPa) = 47.82830 60.02356 53.92593
# Shear Modulus (GPa) = 22.53748 36.14212 29.33980
#
# Velocity S-wave (km/s) = 2.93734 3.71970 3.35143
# Velocity P-wave (km/s) = 5.46022 6.43638 5.96829
#
# Compressibility (1/GPa) = 0.02090812
#
# Stress axis : x y z
#
# Youngs Moduli (GPa) = 69.66007 239.02978 67.57721
#
# Poissons Ratio (x) = 0.12412 0.30085
# Poissons Ratio (y) = 0.03617 0.08401
# Poissons Ratio (z) = 0.31012 0.29717
#
# Static dielectric constant tensor:
#      x y z
#    x 2.029170 0.000000 0.000000 
#    y 0.000000 2.263350 0.000000 
#    z 0.000000 0.000000 1.999070 
# 
# From -- ./inp_files/6628.got.cif
#   From: 2010.05.17/outbox.cif.g08.bks.cpg/sg30_4_cif.got.tgz:6628.got - 2010.06.03 17:03:02.
