data_PCOD9341268
_publ_section_title
;
Structure prediction by ZEFSAII (Michael W. Deem and Ramdas Pophale) SiO2 
 PCOD9341268
Probable space group: P C A 21
;
_chemical_formula_sum "Si O2"
_cell_formula_units_Z 20
_cell_length_a 5.197239
_cell_length_b 11.567014
_cell_length_c 12.600673
_cell_angle_alpha 90.000000
_cell_angle_beta 90.000000
_cell_angle_gamma 90.000000
_cell_volume 757.508815
_symmetry_space_group_name_H-M "P C A 21"
_symmetry_group_IT_number 29
_symmetry_cell_setting 'orthorhombic'
loop_
_space_group_symop_operation_xyz
x,y,z
-x,-y,1/2+z
1/2-x,y,1/2+z
1/2+x,-y,z
loop_
_atom_site_type_symbol
_atom_site_label
_atom_site_fract_x
_atom_site_fract_y
_atom_site_fract_z
Si Si1 0.964665 0.080385 0.215200
Si Si2 0.918690 0.076146 0.457380
Si Si3 0.808032 0.535465 0.959317
Si Si4 0.915810 0.443285 0.722211
Si Si5 0.709342 0.742501 0.593181
O O1 0.957288 0.121395 0.337584
O O2 0.056128 0.186089 0.143125
O O3 0.195257 0.986370 0.201552
O O4 0.005695 0.171223 0.540352
O O5 0.131264 0.973391 0.467938
O O6 0.593649 0.452977 0.008074
O O7 0.894049 0.473495 0.849152
O O8 0.703757 0.660546 0.994991
O O9 0.620181 0.456673 0.689250
O O10 0.067942 0.328607 0.688471
#
# Coordination Sequence:
#
# PCOD9341268 Si02
#       5
#     4   4   4   4   4
#     4  10  24  45  66 104 139 170 230 290 338 423
#     4  10  24  45  66 104 139 170 230 290 338 423
#     4  10  24  44  63  98 139 173 232 287 330 413
#     4  10  24  44  63  98 139 173 232 287 330 413
#     4  12  24  42  78  96 136 196 224 278 372 410
#
# _framework density 26.402332000000001
#
# number of rings (size 3 to 8) (size 9 to 14) (size 15 to 20)
#    0.000    1.600    0.000    2.400    5.600    6.400 
#   14.400    0.000    0.000    0.000    0.000    0.000 
#    0.000    0.000    0.000    0.000    0.000    0.000 
#
# Total GULP energy -111663.214122 kJ/mol
# GULP energy per Si atom -5583.160706 kJ/mol
# Density = 2.634224 g / cm^3
# Si number density = 26.402332 Si / 1000 Ang^3
#
#
#
# Elastic Constant Matrix: (Units=GPa)
#
#
# Indices 1 2 3 4 5 6 
#
# 1 131.5714 30.8002 18.5596 0.0000 0.0000 0.0000
# 2 30.8002 111.1399 66.7407 0.0000 0.0000 0.0000
# 3 18.5596 66.7407 142.1996 0.0000 0.0000 0.0000
# 4 0.0000 0.0000 0.0000 49.8665 0.0000 0.0000
# 5 0.0000 0.0000 0.0000 0.0000 51.6293 0.0000
# 6 0.0000 0.0000 0.0000 0.0000 0.0000 30.2502
#
#
#
# Elastic Compliance Matrix: (Units=1/GPa)
#
#
# Indices 1 2 3 4 5 6 
#
# 1 0.008128 -0.002249 -0.000005 0.000000 0.000000 0.000000
# 2 -0.002249 0.013151 -0.005879 0.000000 0.000000 0.000000
# 3 -0.000005 -0.005879 0.009792 0.000000 0.000000 0.000000
# 4 0.000000 0.000000 0.000000 0.020054 0.000000 0.000000
# 5 0.000000 0.000000 0.000000 0.000000 0.019369 0.000000
# 6 0.000000 0.000000 0.000000 0.000000 0.000000 0.033058
#
#
# Mechanical properties :
#
#
# Convention : Reuss Voigt Hill
#
# Bulk Modulus (GPa) = 67.54668 68.56799 68.05734
# Shear Modulus (GPa) = 40.07913 44.26989 42.17451
#
# Velocity S-wave (km/s) = 3.90040 4.09925 4.00106
# Velocity P-wave (km/s) = 6.77667 6.95930 6.86859
#
# Compressibility (1/GPa) = 0.01480458
#
# Stress axis : x y z
#
# Youngs Moduli (GPa) = 123.03570 76.03735 102.12107
#
# Poissons Ratio (x) = 0.17104 0.00052
# Poissons Ratio (y) = 0.27676 0.60037
# Poissons Ratio (z) = 0.00062 0.44702
#
# Static dielectric constant tensor:
#      x y z
#    x 2.211000 0.000000 0.000000 
#    y 0.000000 2.066370 0.000000 
#    z 0.000000 0.000000 2.416800 
# 
# From -- ./inp_files/4002.got.cif
#   From: 2010.05.17/outbox.cif.g08.bks.cpg/sg29_3_cif.got.tgz:4002.got - 2010.06.04 01:19:37.
