data_PCOD9341048
_publ_section_title
;
Structure prediction by ZEFSAII (Michael W. Deem and Ramdas Pophale) SiO2 
 PCOD9341048
Probable space group: P C A 21
;
_chemical_formula_sum "Si O2"
_cell_formula_units_Z 24
_cell_length_a 4.841987
_cell_length_b 19.806870
_cell_length_c 9.094959
_cell_angle_alpha 90.000000
_cell_angle_beta 90.000000
_cell_angle_gamma 90.000000
_cell_volume 872.248469
_symmetry_space_group_name_H-M "P C A 21"
_symmetry_group_IT_number 29
_symmetry_cell_setting 'orthorhombic'
loop_
_space_group_symop_operation_xyz
x,y,z
-x,-y,1/2+z
1/2-x,y,1/2+z
1/2+x,-y,z
loop_
_atom_site_type_symbol
_atom_site_label
_atom_site_fract_x
_atom_site_fract_y
_atom_site_fract_z
Si Si1 0.675738 0.370635 0.178800
Si Si2 0.479464 0.718627 0.935448
Si Si3 0.717707 0.156898 0.764443
Si Si4 0.102324 0.952220 0.473799
Si Si5 0.965686 0.545713 0.906696
Si Si6 0.776863 0.828984 0.086172
O O1 0.486612 0.333388 0.301048
O O2 0.909029 0.408842 0.275895
O O3 0.821836 0.317551 0.068950
O O4 0.521389 0.419804 0.064616
O O5 0.319692 0.780332 0.858978
O O6 0.733697 0.756724 0.011326
O O7 0.395277 0.170422 0.739196
O O8 0.785665 0.082399 0.822074
O O9 0.904468 0.159083 0.617096
O O10 0.896567 0.889959 0.515994
O O11 0.893213 0.012940 0.512766
O O12 0.150367 0.477488 0.898250
#
# Coordination Sequence:
#
# PCOD9341048 Si02
#       6
#     4   4   4   4   4   4
#     4  10  22  46  74 108 140 198 232 292 346 428
#     4  10  22  46  70 108 142 184 244 288 356 418
#     4  11  24  44  68  97 142 184 230 305 352 418
#     4  11  24  41  65 100 134 182 240 288 358 431
#     4  11  24  47  71 106 148 186 236 288 348 411
#     4  11  24  44  68  97 142 184 230 305 352 418
#
# _framework density 27.515091999999999
#
# number of rings (size 3 to 8) (size 9 to 14) (size 15 to 20)
#    0.000    1.333    1.667    3.000    0.000    8.000 
#   12.000    0.000    0.000    0.000    0.000    0.000 
#    0.000    0.000    0.000    0.000    0.000    0.000 
#
# Total GULP energy -134171.133492 kJ/mol
# GULP energy per Si atom -5590.463896 kJ/mol
# Density = 2.745247 g / cm^3
# Si number density = 27.515092 Si / 1000 Ang^3
#
#
#
# Elastic Constant Matrix: (Units=GPa)
#
#
# Indices 1 2 3 4 5 6 
#
# 1 142.4238 22.0815 22.8693 0.0000 0.0000 0.0000
# 2 22.0815 122.9250 53.9632 0.0000 0.0000 0.0000
# 3 22.8693 53.9632 112.2060 0.0000 0.0000 0.0000
# 4 0.0000 0.0000 0.0000 58.3878 0.0000 0.0000
# 5 0.0000 0.0000 0.0000 0.0000 60.2661 0.0000
# 6 0.0000 0.0000 0.0000 0.0000 0.0000 13.2170
#
#
#
# Elastic Compliance Matrix: (Units=1/GPa)
#
#
# Indices 1 2 3 4 5 6 
#
# 1 0.007326 -0.000837 -0.001091 0.000000 0.000000 0.000000
# 2 -0.000837 0.010408 -0.004835 0.000000 0.000000 0.000000
# 3 -0.001091 -0.004835 0.011460 0.000000 0.000000 0.000000
# 4 0.000000 0.000000 0.000000 0.017127 0.000000 0.000000
# 5 0.000000 0.000000 0.000000 0.000000 0.016593 0.000000
# 6 0.000000 0.000000 0.000000 0.000000 0.000000 0.075660
#
#
# Mechanical properties :
#
#
# Convention : Reuss Voigt Hill
#
# Bulk Modulus (GPa) = 63.82229 63.93141 63.87685
# Shear Modulus (GPa) = 31.78194 44.95022 38.36608
#
# Velocity S-wave (km/s) = 3.40232 4.04624 3.73817
# Velocity P-wave (km/s) = 6.21934 6.71676 6.47283
#
# Compressibility (1/GPa) = 0.01566851
#
# Stress axis : x y z
#
# Youngs Moduli (GPa) = 136.49602 96.08088 87.26274
#
# Poissons Ratio (x) = 0.08045 0.09516
# Poissons Ratio (y) = 0.11429 0.42190
# Poissons Ratio (z) = 0.14885 0.46453
#
# Static dielectric constant tensor:
#      x y z
#    x 1.955780 0.000000 0.000000 
#    y 0.000000 2.176820 0.000000 
#    z 0.000000 0.000000 2.272970 
# 
# From -- ./inp_files/992.got.cif
#   From: 2010.05.17/outbox.cif.g08.bks.cpg/sg29_1_cif.got.tgz:992.got - 2010.06.04 01:19:37.
