data_PCOD9341753
_publ_section_title
;
Structure prediction by ZEFSAII (Michael W. Deem and Ramdas Pophale) SiO2 
 PCOD9341753
Probable space group: P C A 21
;
_chemical_formula_sum "Si O2"
_cell_formula_units_Z 24
_cell_length_a 8.655546
_cell_length_b 12.087491
_cell_length_c 8.680270
_cell_angle_alpha 90.000000
_cell_angle_beta 90.000000
_cell_angle_gamma 90.000000
_cell_volume 908.163131
_symmetry_space_group_name_H-M "P C A 21"
_symmetry_group_IT_number 29
_symmetry_cell_setting 'orthorhombic'
loop_
_space_group_symop_operation_xyz
x,y,z
-x,-y,1/2+z
1/2-x,y,1/2+z
1/2+x,-y,z
loop_
_atom_site_type_symbol
_atom_site_label
_atom_site_fract_x
_atom_site_fract_y
_atom_site_fract_z
Si Si1 0.938391 0.360680 0.375000
Si Si2 0.673647 0.068858 0.530079
Si Si3 0.402020 0.436635 0.581363
Si Si4 0.855784 0.746361 0.096732
Si Si5 0.121505 0.061656 0.221481
Si Si6 0.389984 0.707260 0.855022
O O1 0.893952 0.440705 0.516043
O O2 0.775726 0.333464 0.296372
O O3 0.039253 0.429360 0.254802
O O4 0.041753 0.258396 0.438815
O O5 0.553744 0.077129 0.671897
O O6 0.656639 0.183124 0.445591
O O7 0.832589 0.042114 0.612280
O O8 0.645053 0.976335 0.396983
O O9 0.245492 0.365357 0.577476
O O10 0.525113 0.373176 0.474667
O O11 0.735331 0.841438 0.154773
O O12 0.981357 0.735916 0.230069
#
# Coordination Sequence:
#
# PCOD9341753 Si02
#       6
#     4   4   4   4   4   4
#     4  12  29  49  81 113 158 203 264 328 398 482
#     4  12  28  49  77 118 160 211 270 324 401 474
#     4  12  27  51  79 113 154 208 261 327 397 476
#     4  12  27  51  78 114 157 209 262 326 404 473
#     4  12  28  50  81 116 162 214 266 333 396 481
#     4  12  27  48  78 116 153 205 263 322 398 474
#
# _framework density 26.426967999999999
#
# number of rings (size 3 to 8) (size 9 to 14) (size 15 to 20)
#    0.000    0.000    1.667    7.000    9.333    4.000 
#    0.000    1.667    0.000    0.000    0.000    0.000 
#    0.000    0.000    0.000    0.000    0.000    0.000 
#
# Total GULP energy -134613.756970 kJ/mol
# GULP energy per Si atom -5608.906540 kJ/mol
# Density = 2.636682 g / cm^3
# Si number density = 26.426968 Si / 1000 Ang^3
#
#
#
# Elastic Constant Matrix: (Units=GPa)
#
#
# Indices 1 2 3 4 5 6 
#
# 1 106.1926 9.1856 -1.3470 0.0000 0.0000 0.0000
# 2 9.1856 93.5088 -2.8540 0.0000 0.0000 0.0000
# 3 -1.3470 -2.8540 99.4024 0.0000 0.0000 0.0000
# 4 0.0000 0.0000 0.0000 38.5570 0.0000 0.0000
# 5 0.0000 0.0000 0.0000 0.0000 53.0344 0.0000
# 6 0.0000 0.0000 0.0000 0.0000 0.0000 22.8545
#
#
#
# Elastic Compliance Matrix: (Units=1/GPa)
#
#
# Indices 1 2 3 4 5 6 
#
# 1 0.009499 -0.000930 0.000102 0.000000 0.000000 0.000000
# 2 -0.000930 0.010795 0.000297 0.000000 0.000000 0.000000
# 3 0.000102 0.000297 0.010070 0.000000 0.000000 0.000000
# 4 0.000000 0.000000 0.000000 0.025936 0.000000 0.000000
# 5 0.000000 0.000000 0.000000 0.000000 0.018856 0.000000
# 6 0.000000 0.000000 0.000000 0.000000 0.000000 0.043755
#
#
# Mechanical properties :
#
#
# Convention : Reuss Voigt Hill
#
# Bulk Modulus (GPa) = 34.12735 34.34144 34.23439
# Shear Modulus (GPa) = 38.53914 42.49713 40.51814
#
# Velocity S-wave (km/s) = 3.82295 4.01446 3.91987
# Velocity P-wave (km/s) = 5.69460 5.87460 5.78530
#
# Compressibility (1/GPa) = 0.02930201
#
# Stress axis : x y z
#
# Youngs Moduli (GPa) = 105.27878 92.63883 99.30452
#
# Poissons Ratio (x) = 0.08615 -0.01013
# Poissons Ratio (y) = 0.09790 -0.02953
# Poissons Ratio (z) = -0.01074 -0.02754
#
# Static dielectric constant tensor:
#      x y z
#    x 1.967950 0.000000 0.000000 
#    y 0.000000 2.106710 0.000000 
#    z 0.000000 0.000000 2.044220 
# 
# From -- ./inp_files/1142.got.cif
#   From: 2010.05.17/outbox.cif.g08.bks.cpg/sg29_1_cif.got.tgz:1142.got - 2010.06.04 01:19:37.
