data_PCOD9341062
_publ_section_title
;
Structure prediction by ZEFSAII (Michael W. Deem and Ramdas Pophale) SiO2 
 PCOD9341062
Probable space group: P C A 21
;
_chemical_formula_sum "Si O2"
_cell_formula_units_Z 16
_cell_length_a 14.515103
_cell_length_b 5.041319
_cell_length_c 9.062969
_cell_angle_alpha 90.000000
_cell_angle_beta 90.000000
_cell_angle_gamma 90.000000
_cell_volume 663.185154
_symmetry_space_group_name_H-M "P C A 21"
_symmetry_group_IT_number 29
_symmetry_cell_setting 'orthorhombic'
loop_
_space_group_symop_operation_xyz
x,y,z
-x,-y,1/2+z
1/2-x,y,1/2+z
1/2+x,-y,z
loop_
_atom_site_type_symbol
_atom_site_label
_atom_site_fract_x
_atom_site_fract_y
_atom_site_fract_z
Si Si1 0.453821 0.065606 0.190520
Si Si2 0.378558 0.625551 0.758141
Si Si3 0.312014 0.132292 0.937422
Si Si4 0.382720 0.954184 0.490220
O O1 0.511909 0.312451 0.257156
O O2 0.419601 0.894444 0.327441
O O3 0.530947 0.933463 0.084590
O O4 0.370582 0.153151 0.087050
O O5 0.347054 0.349322 0.822082
O O6 0.333631 0.848844 0.863355
O O7 0.351293 0.706939 0.591310
O O8 0.204261 0.141897 0.969902
#
# Coordination Sequence:
#
# PCOD9341062 Si02
#       4
#     4   4   4   4
#     4  10  22  48  75 110 158 201 264 315 394 456
#     4  10  25  46  71 106 151 197 258 311 388 444
#     4  12  24  48  73 113 149 204 259 319 382 463
#     4  10  23  46  77 111 156 202 255 323 382 465
#
# _framework density 24.125990000000002
#
# number of rings (size 3 to 8) (size 9 to 14) (size 15 to 20)
#    1.500    0.000    2.500    1.500    0.000    8.000 
#    4.500    0.000    0.000    0.000    0.000    0.000 
#    0.000    0.000    0.000    0.000    0.000    0.000 
#
# Total GULP energy -89439.139023 kJ/mol
# GULP energy per Si atom -5589.946189 kJ/mol
# Density = 2.407108 g / cm^3
# Si number density = 24.125990 Si / 1000 Ang^3
#
#
#
# Elastic Constant Matrix: (Units=GPa)
#
#
# Indices 1 2 3 4 5 6 
#
# 1 125.8607 10.5584 60.2977 0.0000 0.0000 0.0000
# 2 10.5584 48.8414 23.5659 0.0000 0.0000 0.0000
# 3 60.2977 23.5659 181.4391 0.0000 0.0000 0.0000
# 4 0.0000 0.0000 0.0000 14.7880 0.0000 0.0000
# 5 0.0000 0.0000 0.0000 0.0000 39.2943 0.0000
# 6 0.0000 0.0000 0.0000 0.0000 0.0000 6.3230
#
#
#
# Elastic Compliance Matrix: (Units=1/GPa)
#
#
# Indices 1 2 3 4 5 6 
#
# 1 0.009464 -0.000564 -0.003072 0.000000 0.000000 0.000000
# 2 -0.000564 0.021877 -0.002654 0.000000 0.000000 0.000000
# 3 -0.003072 -0.002654 0.006877 0.000000 0.000000 0.000000
# 4 0.000000 0.000000 0.000000 0.067622 0.000000 0.000000
# 5 0.000000 0.000000 0.000000 0.000000 0.025449 0.000000
# 6 0.000000 0.000000 0.000000 0.000000 0.000000 0.158153
#
#
# Mechanical properties :
#
#
# Convention : Reuss Voigt Hill
#
# Bulk Modulus (GPa) = 39.00366 60.55392 49.77879
# Shear Modulus (GPa) = 16.09950 29.52901 22.81426
#
# Velocity S-wave (km/s) = 2.58604 3.50230 3.07845
# Velocity P-wave (km/s) = 5.01184 6.44269 5.77178
#
# Compressibility (1/GPa) = 0.02563862
#
# Stress axis : x y z
#
# Youngs Moduli (GPa) = 105.65958 45.71037 145.40887
#
# Poissons Ratio (x) = 0.02577 0.44671
# Poissons Ratio (y) = 0.05956 0.38593
# Poissons Ratio (z) = 0.32459 0.12132
#
# Static dielectric constant tensor:
#      x y z
#    x 1.918730 0.000000 0.000000 
#    y 0.000000 1.929890 0.000000 
#    z 0.000000 0.000000 1.916360 
# 
# From -- ./inp_files/1939.got.cif
#   From: 2010.05.17/outbox.cif.g08.bks.cpg/sg29_1_cif.got.tgz:1939.got - 2010.06.04 01:19:37.
