data_PCOD9341117
_publ_section_title
;
Structure prediction by ZEFSAII (Michael W. Deem and Ramdas Pophale) SiO2 
 PCOD9341117
Probable space group: P C A 21
;
_chemical_formula_sum "Si O2"
_cell_formula_units_Z 28
_cell_length_a 14.202568
_cell_length_b 4.894398
_cell_length_c 15.762860
_cell_angle_alpha 90.000000
_cell_angle_beta 90.000000
_cell_angle_gamma 90.000000
_cell_volume 1095.724009
_symmetry_space_group_name_H-M "P C A 21"
_symmetry_group_IT_number 29
_symmetry_cell_setting 'orthorhombic'
loop_
_space_group_symop_operation_xyz
x,y,z
-x,-y,1/2+z
1/2-x,y,1/2+z
1/2+x,-y,z
loop_
_atom_site_type_symbol
_atom_site_label
_atom_site_fract_x
_atom_site_fract_y
_atom_site_fract_z
Si Si1 0.441709 0.142940 0.107800
Si Si2 0.757548 0.830984 0.222777
Si Si3 0.946140 0.664624 0.658076
Si Si4 0.162519 0.804300 0.358597
Si Si5 0.019625 0.829033 0.842216
Si Si6 0.688139 0.712150 0.457948
Si Si7 0.136010 0.337601 0.882740
O O1 0.348318 0.094197 0.166053
O O2 0.517778 0.357329 0.144438
O O3 0.502742 0.869569 0.091357
O O4 0.390264 0.284681 0.028580
O O5 0.666211 0.706182 0.173336
O O6 0.713300 0.090417 0.273388
O O7 0.802728 0.630338 0.294899
O O8 0.998392 0.758388 0.744747
O O9 0.209894 0.971911 0.435443
O O10 0.066361 0.973150 0.362689
O O11 0.150867 0.490650 0.383037
O O12 0.051532 0.547947 0.884014
O O13 0.103129 0.031306 0.867692
O O14 0.795812 0.609174 0.462551
#
# Coordination Sequence:
#
# PCOD9341117 Si02
#       7
#     4   4   4   4   4   4   4
#     4  12  25  45  67  98 148 176 225 285 360 407
#     4  10  23  43  73 102 135 180 236 293 336 417
#     4  11  24  41  69 103 129 182 228 283 349 411
#     4  10  23  42  68  95 136 174 240 274 343 405
#     4  11  20  39  68 101 122 172 230 289 325 405
#     4  11  24  43  62  96 136 190 209 289 344 420
#     4  11  21  39  69  97 132 172 232 279 345 395
#
# _framework density 25.553882999999999
#
# number of rings (size 3 to 8) (size 9 to 14) (size 15 to 20)
#    0.000    1.143    2.857    3.429    0.000    8.000 
#    7.714    0.000    0.000    0.000    0.000    0.000 
#    0.000    0.000    0.000    0.000    0.000    0.000 
#
# Total GULP energy -156081.696506 kJ/mol
# GULP energy per Si atom -5574.346304 kJ/mol
# Density = 2.549572 g / cm^3
# Si number density = 25.553883 Si / 1000 Ang^3
#
#
#
# Elastic Constant Matrix: (Units=GPa)
#
#
# Indices 1 2 3 4 5 6 
#
# 1 110.5742 19.8693 -9.8681 0.0000 0.0000 0.0000
# 2 19.8693 105.7604 -3.2923 0.0000 0.0000 0.0000
# 3 -9.8681 -3.2923 37.6949 0.0000 0.0000 0.0000
# 4 0.0000 0.0000 0.0000 23.4601 0.0000 0.0000
# 5 0.0000 0.0000 0.0000 0.0000 12.4782 0.0000
# 6 0.0000 0.0000 0.0000 0.0000 0.0000 37.3374
#
#
#
# Elastic Compliance Matrix: (Units=1/GPa)
#
#
# Indices 1 2 3 4 5 6 
#
# 1 0.009563 -0.001723 0.002353 0.000000 0.000000 0.000000
# 2 -0.001723 0.009792 0.000404 0.000000 0.000000 0.000000
# 3 0.002353 0.000404 0.027180 0.000000 0.000000 0.000000
# 4 0.000000 0.000000 0.000000 0.042626 0.000000 0.000000
# 5 0.000000 0.000000 0.000000 0.000000 0.080139 0.000000
# 6 0.000000 0.000000 0.000000 0.000000 0.000000 0.026783
#
#
# Mechanical properties :
#
#
# Convention : Reuss Voigt Hill
#
# Bulk Modulus (GPa) = 20.57507 29.71636 25.14572
# Shear Modulus (GPa) = 23.78499 31.14317 27.46408
#
# Velocity S-wave (km/s) = 3.05418 3.49481 3.28190
# Velocity P-wave (km/s) = 4.52840 5.28575 4.92166
#
# Compressibility (1/GPa) = 0.04860251
#
# Stress axis : x y z
#
# Youngs Moduli (GPa) = 104.56546 102.12732 36.79162
#
# Poissons Ratio (x) = 0.17601 -0.08657
# Poissons Ratio (y) = 0.18021 -0.01487
# Poissons Ratio (z) = -0.24605 -0.04126
#
# Static dielectric constant tensor:
#      x y z
#    x 2.229520 0.000000 0.000000 
#    y 0.000000 1.997430 0.000000 
#    z 0.000000 0.000000 2.176040 
# 
# From -- ./inp_files/5191.got.cif
#   From: 2010.05.17/outbox.cif.g08.bks.cpg/sg29_3_cif.got.tgz:5191.got - 2010.06.04 01:19:37.
