data_PCOD9341383
_publ_section_title
;
Structure prediction by ZEFSAII (Michael W. Deem and Ramdas Pophale) SiO2 
 PCOD9341383
Probable space group: P C A 21
;
_chemical_formula_sum "Si O2"
_cell_formula_units_Z 20
_cell_length_a 5.154181
_cell_length_b 15.941252
_cell_length_c 9.109601
_cell_angle_alpha 90.000000
_cell_angle_beta 90.000000
_cell_angle_gamma 90.000000
_cell_volume 748.482151
_symmetry_space_group_name_H-M "P C A 21"
_symmetry_group_IT_number 29
_symmetry_cell_setting 'orthorhombic'
loop_
_space_group_symop_operation_xyz
x,y,z
-x,-y,1/2+z
1/2-x,y,1/2+z
1/2+x,-y,z
loop_
_atom_site_type_symbol
_atom_site_label
_atom_site_fract_x
_atom_site_fract_y
_atom_site_fract_z
Si Si1 0.361918 0.113645 0.963930
Si Si2 0.731787 0.338909 0.264161
Si Si3 0.125786 0.779883 0.510948
Si Si4 0.505234 0.011509 0.713892
Si Si5 0.988095 0.553668 0.008620
O O1 0.589038 0.180084 0.989490
O O2 0.322935 0.082179 0.797080
O O3 0.090798 0.149856 0.016409
O O4 0.415486 0.028658 0.056672
O O5 0.568468 0.281190 0.374452
O O6 0.924406 0.391703 0.368250
O O7 0.880094 0.276444 0.155523
O O8 0.559858 0.396853 0.157520
O O9 0.278702 0.944690 0.757038
O O10 0.690855 0.524519 0.005644
#
# Coordination Sequence:
#
# PCOD9341383 Si02
#       5
#     4   4   4   4   4
#     4  12  28  48  72 105 140 195 245 316 374 435
#     4  10  26  48  72 112 150 194 244 296 360 460
#     4  11  28  47  72 104 151 195 239 300 379 445
#     4  12  26  48  72 104 138 182 256 312 368 440
#     4  11  24  45  78 111 149 190 244 296 357 420
#
# _framework density 26.720741
#
# number of rings (size 3 to 8) (size 9 to 14) (size 15 to 20)
#    0.000    0.800    0.000    4.800    8.400    9.600 
#    0.000    0.000    0.000    0.000    0.000    0.000 
#    0.000    0.000    0.000    0.000    0.000    0.000 
#
# Total GULP energy -111725.581858 kJ/mol
# GULP energy per Si atom -5586.279093 kJ/mol
# Density = 2.665992 g / cm^3
# Si number density = 26.720741 Si / 1000 Ang^3
#
#
#
# Elastic Constant Matrix: (Units=GPa)
#
#
# Indices 1 2 3 4 5 6 
#
# 1 121.2653 -5.3325 3.8381 0.0000 0.0000 0.0000
# 2 -5.3325 98.0729 56.0633 0.0000 0.0000 0.0000
# 3 3.8381 56.0633 184.2127 0.0000 0.0000 0.0000
# 4 0.0000 0.0000 0.0000 50.5934 0.0000 0.0000
# 5 0.0000 0.0000 0.0000 0.0000 16.8284 0.0000
# 6 0.0000 0.0000 0.0000 0.0000 0.0000 20.0240
#
#
#
# Elastic Compliance Matrix: (Units=1/GPa)
#
#
# Indices 1 2 3 4 5 6 
#
# 1 0.008287 0.000665 -0.000375 0.000000 0.000000 0.000000
# 2 0.000665 0.012397 -0.003787 0.000000 0.000000 0.000000
# 3 -0.000375 -0.003787 0.006589 0.000000 0.000000 0.000000
# 4 0.000000 0.000000 0.000000 0.019765 0.000000 0.000000
# 5 0.000000 0.000000 0.000000 0.000000 0.059423 0.000000
# 6 0.000000 0.000000 0.000000 0.000000 0.000000 0.049940
#
#
# Mechanical properties :
#
#
# Convention : Reuss Voigt Hill
#
# Bulk Modulus (GPa) = 49.30995 56.96541 53.13768
# Shear Modulus (GPa) = 29.38474 40.75464 35.06969
#
# Velocity S-wave (km/s) = 3.31977 3.90963 3.62671
# Velocity P-wave (km/s) = 5.76093 6.46106 6.12101
#
# Compressibility (1/GPa) = 0.02027988
#
# Stress axis : x y z
#
# Youngs Moduli (GPa) = 120.66370 80.66194 151.77218
#
# Poissons Ratio (x) = -0.05364 0.05692
# Poissons Ratio (y) = -0.08024 0.57474
# Poissons Ratio (z) = 0.04526 0.30546
#
# Static dielectric constant tensor:
#      x y z
#    x 1.569550 0.000000 0.000000 
#    y 0.000000 -1.889490 0.000000 
#    z 0.000000 0.000000 1.923860 
# 
# From -- ./inp_files/989.got.cif
#   From: 2010.05.17/outbox.cif.g08.bks.cpg/sg29_1_cif.got.tgz:989.got - 2010.06.04 01:19:37.
