data_PCOD9341420
_publ_section_title
;
Structure prediction by ZEFSAII (Michael W. Deem and Ramdas Pophale) SiO2 
 PCOD9341420
Probable space group: P C A 21
;
_chemical_formula_sum "Si O2"
_cell_formula_units_Z 32
_cell_length_a 18.100613
_cell_length_b 4.786269
_cell_length_c 16.441660
_cell_angle_alpha 90.000000
_cell_angle_beta 90.000000
_cell_angle_gamma 90.000000
_cell_volume 1424.413397
_symmetry_space_group_name_H-M "P C A 21"
_symmetry_group_IT_number 29
_symmetry_cell_setting 'orthorhombic'
loop_
_space_group_symop_operation_xyz
x,y,z
-x,-y,1/2+z
1/2-x,y,1/2+z
1/2+x,-y,z
loop_
_atom_site_type_symbol
_atom_site_label
_atom_site_fract_x
_atom_site_fract_y
_atom_site_fract_z
Si Si1 0.251332 0.790756 0.130060
Si Si2 0.059790 0.501757 0.887796
Si Si3 0.297382 0.520297 0.285928
Si Si4 0.760374 0.729374 0.522846
Si Si5 0.058215 0.201941 0.275312
Si Si6 0.711771 0.954527 0.348651
Si Si7 0.579157 0.988042 0.999846
Si Si8 0.078473 0.733070 0.167585
O O1 0.303806 0.665568 0.198859
O O2 0.246868 0.586338 0.051815
O O3 0.167294 0.796518 0.166210
O O4 0.275101 0.084559 0.093934
O O5 0.127037 0.427142 0.828155
O O6 0.093388 0.757290 0.939427
O O7 0.994786 0.634904 0.835552
O O8 0.036188 0.248177 0.947395
O O9 0.250233 0.240199 0.280998
O O10 0.248675 0.741798 0.339088
O O11 0.729270 0.817822 0.435796
O O12 0.846180 0.822063 0.522004
O O13 0.126576 0.085677 0.328005
O O14 0.074858 0.416617 0.200474
O O15 0.032673 0.920127 0.231258
O O16 0.551484 0.152667 0.079979
#
# Coordination Sequence:
#
# PCOD9341420 Si02
#       8
#     4   4   4   4   4   4   4   4
#     4  11  21  36  62  92 124 159 212 265 315 368
#     4  12  24  42  64  97 131 172 214 264 321 389
#     4  12  22  40  63  93 127 164 215 266 322 371
#     4  11  21  36  62  92 124 159 212 265 315 368
#     4  12  24  42  64  97 131 172 214 264 321 389
#     4  12  22  40  63  93 127 164 215 266 322 371
#     4  11  22  40  66  93 126 166 220 265 315 384
#     4  11  22  40  66  93 126 166 220 265 315 384
#
# _framework density 22.465387
#
# number of rings (size 3 to 8) (size 9 to 14) (size 15 to 20)
#    0.000    0.500    5.000    6.000    0.000    0.000 
#    0.000    3.750    0.000    0.000    0.000    0.000 
#    0.000    0.000    0.000    0.000    0.000    0.000 
#
# Total GULP energy -178711.275576 kJ/mol
# GULP energy per Si atom -5584.727362 kJ/mol
# Density = 2.241425 g / cm^3
# Si number density = 22.465387 Si / 1000 Ang^3
#
#
#
# Elastic Constant Matrix: (Units=GPa)
#
#
# Indices 1 2 3 4 5 6 
#
# 1 29.9522 -3.3735 9.2555 0.0000 0.0000 0.0000
# 2 -3.3735 95.6353 6.2481 0.0000 0.0000 0.0000
# 3 9.2555 6.2481 101.4837 0.0000 0.0000 0.0000
# 4 0.0000 0.0000 0.0000 39.4564 0.0000 0.0000
# 5 0.0000 0.0000 0.0000 0.0000 16.5699 0.0000
# 6 0.0000 0.0000 0.0000 0.0000 0.0000 16.0193
#
#
#
# Elastic Compliance Matrix: (Units=1/GPa)
#
#
# Indices 1 2 3 4 5 6 
#
# 1 0.034548 0.001430 -0.003239 0.000000 0.000000 0.000000
# 2 0.001430 0.010558 -0.000780 0.000000 0.000000 0.000000
# 3 -0.003239 -0.000780 0.010197 0.000000 0.000000 0.000000
# 4 0.000000 0.000000 0.000000 0.025344 0.000000 0.000000
# 5 0.000000 0.000000 0.000000 0.000000 0.060350 0.000000
# 6 0.000000 0.000000 0.000000 0.000000 0.000000 0.062425
#
#
# Mechanical properties :
#
#
# Convention : Reuss Voigt Hill
#
# Bulk Modulus (GPa) = 19.95001 27.92571 23.93786
# Shear Modulus (GPa) = 22.19167 28.73852 25.46509
#
# Velocity S-wave (km/s) = 3.14636 3.58052 3.37044
# Velocity P-wave (km/s) = 4.70097 5.43609 5.08184
#
# Compressibility (1/GPa) = 0.05012529
#
# Stress axis : x y z
#
# Youngs Moduli (GPa) = 28.94487 94.71638 98.06565
#
# Poissons Ratio (x) = -0.13547 0.31763
# Poissons Ratio (y) = -0.04140 0.07654
# Poissons Ratio (z) = 0.09375 0.07392
#
# Static dielectric constant tensor:
#      x y z
#    x 1.819210 0.000000 0.000000 
#    y 0.000000 1.836950 0.000000 
#    z 0.000000 0.000000 1.901430 
# 
# From -- ./inp_files/4805.got.cif
#   From: 2010.05.17/outbox.cif.g08.bks.cpg/sg29_3_cif.got.tgz:4805.got - 2010.06.04 01:19:37.
