data_PCOD9341243
_publ_section_title
;
Structure prediction by ZEFSAII (Michael W. Deem and Ramdas Pophale) SiO2 
 PCOD9341243
Probable space group: P C A 21
;
_chemical_formula_sum "Si O2"
_cell_formula_units_Z 32
_cell_length_a 8.919282
_cell_length_b 5.409743
_cell_length_c 28.243980
_cell_angle_alpha 90.000000
_cell_angle_beta 90.000000
_cell_angle_gamma 90.000000
_cell_volume 1362.800939
_symmetry_space_group_name_H-M "P C A 21"
_symmetry_group_IT_number 29
_symmetry_cell_setting 'orthorhombic'
loop_
_space_group_symop_operation_xyz
x,y,z
-x,-y,1/2+z
1/2-x,y,1/2+z
1/2+x,-y,z
loop_
_atom_site_type_symbol
_atom_site_label
_atom_site_fract_x
_atom_site_fract_y
_atom_site_fract_z
Si Si1 0.869237 0.713207 0.669800
Si Si2 0.577723 0.240897 0.028943
Si Si3 0.883809 0.031255 0.220360
Si Si4 0.469409 0.282699 0.921575
Si Si5 0.126749 0.662851 0.249760
Si Si6 0.259413 0.265018 0.562549
Si Si7 0.465817 0.660743 0.842407
Si Si8 0.222433 0.030504 0.870557
O O1 0.892586 0.460232 0.698333
O O2 0.813285 0.709217 0.616711
O O3 0.026274 0.853257 0.676300
O O4 0.743635 0.852525 0.700620
O O5 0.681027 0.480136 0.039210
O O6 0.420934 0.248088 0.058146
O O7 0.664640 0.983532 0.040254
O O8 0.525077 0.271226 0.974673
O O9 0.796134 0.240429 0.249246
O O10 0.005589 0.883066 0.250067
O O11 0.446261 0.539428 0.894085
O O12 0.594619 0.148971 0.889740
O O13 0.312001 0.144344 0.914824
O O14 0.080580 0.506326 0.295989
O O15 0.345016 0.881636 0.841376
O O16 0.635183 0.757388 0.842430
#
# Coordination Sequence:
#
# PCOD9341243 Si02
#       8
#     4   4   4   4   4   4   4   4
#     4  11  25  43  71  97 140 181 239 297 360 437
#     4  12  29  49  79 111 152 198 255 314 387 453
#     4  10  24  42  68  95 142 181 236 289 365 424
#     4  11  25  43  71  97 140 181 239 297 360 437
#     4  11  24  42  68 102 140 187 238 293 363 438
#     4  12  29  49  79 111 152 198 255 314 387 453
#     4  11  24  42  68 102 140 187 238 293 363 438
#     4  10  24  42  68  95 142 181 236 289 365 424
#
# _framework density 23.481051999999998
#
# number of rings (size 3 to 8) (size 9 to 14) (size 15 to 20)
#    0.000    1.000    0.000    4.500   14.000    8.000 
#    0.000    0.000    0.000    0.000    0.000    0.000 
#    0.000    0.000    0.000    0.000    0.000    0.000 
#
# Total GULP energy -178971.086700 kJ/mol
# GULP energy per Si atom -5592.846459 kJ/mol
# Density = 2.342761 g / cm^3
# Si number density = 23.481052 Si / 1000 Ang^3
#
#
#
# Elastic Constant Matrix: (Units=GPa)
#
#
# Indices 1 2 3 4 5 6 
#
# 1 84.1104 18.0461 -20.0648 0.0000 0.0000 0.0000
# 2 18.0461 84.9851 4.1092 0.0000 0.0000 0.0000
# 3 -20.0648 4.1092 82.9149 0.0000 0.0000 0.0000
# 4 0.0000 0.0000 0.0000 23.5333 0.0000 0.0000
# 5 0.0000 0.0000 0.0000 0.0000 35.3676 0.0000
# 6 0.0000 0.0000 0.0000 0.0000 0.0000 156.6674
#
#
#
# Elastic Compliance Matrix: (Units=1/GPa)
#
#
# Indices 1 2 3 4 5 6 
#
# 1 0.013337 -0.002995 0.003376 0.000000 0.000000 0.000000
# 2 -0.002995 0.012468 -0.001343 0.000000 0.000000 0.000000
# 3 0.003376 -0.001343 0.012944 0.000000 0.000000 0.000000
# 4 0.000000 0.000000 0.000000 0.042493 0.000000 0.000000
# 5 0.000000 0.000000 0.000000 0.000000 0.028274 0.000000
# 6 0.000000 0.000000 0.000000 0.000000 0.000000 0.006383
#
#
# Mechanical properties :
#
#
# Convention : Reuss Voigt Hill
#
# Bulk Modulus (GPa) = 27.15566 28.46570 27.81068
# Shear Modulus (GPa) = 38.43243 59.77498 49.10370
#
# Velocity S-wave (km/s) = 4.05006 5.05094 4.57793
# Velocity P-wave (km/s) = 5.78452 6.79449 6.30974
#
# Compressibility (1/GPa) = 0.03682473
#
# Stress axis : x y z
#
# Youngs Moduli (GPa) = 74.97865 80.20704 77.25557
#
# Poissons Ratio (x) = 0.24024 -0.26081
# Poissons Ratio (y) = 0.22458 0.10373
# Poissons Ratio (z) = -0.25312 0.10770
#
# Static dielectric constant tensor:
#      x y z
#    x 1.833090 0.000000 0.000000 
#    y 0.000000 1.980540 0.000000 
#    z 0.000000 0.000000 1.922030 
# 
# From -- ./inp_files/5817.got.cif
#   From: 2010.05.17/outbox.cif.g08.bks.cpg/sg29_3_cif.got.tgz:5817.got - 2010.06.04 01:19:37.
