data_PCOD9341594
_publ_section_title
;
Structure prediction by ZEFSAII (Michael W. Deem and Ramdas Pophale) SiO2 
 PCOD9341594
Probable space group: P C A 21
;
_chemical_formula_sum "Si O2"
_cell_formula_units_Z 24
_cell_length_a 9.836782
_cell_length_b 4.810520
_cell_length_c 18.357313
_cell_angle_alpha 90.000000
_cell_angle_beta 90.000000
_cell_angle_gamma 90.000000
_cell_volume 868.668722
_symmetry_space_group_name_H-M "P C A 21"
_symmetry_group_IT_number 29
_symmetry_cell_setting 'orthorhombic'
loop_
_space_group_symop_operation_xyz
x,y,z
-x,-y,1/2+z
1/2-x,y,1/2+z
1/2+x,-y,z
loop_
_atom_site_type_symbol
_atom_site_label
_atom_site_fract_x
_atom_site_fract_y
_atom_site_fract_z
Si Si1 0.461895 0.021602 0.049960
Si Si2 0.618946 0.229091 0.828076
Si Si3 0.721786 0.542784 0.200779
Si Si4 0.863710 0.723368 0.427109
Si Si5 0.277333 0.647459 0.541709
Si Si6 0.939182 0.039945 0.709776
O O1 0.304750 0.936253 0.039389
O O2 0.492214 0.945722 0.134466
O O3 0.560149 0.292775 0.044196
O O4 0.532935 0.844652 0.986158
O O5 0.701899 0.400661 0.767380
O O6 0.568347 0.479510 0.879049
O O7 0.509002 0.059245 0.782556
O O8 0.684967 0.986048 0.878477
O O9 0.767042 0.491125 0.117931
O O10 0.702777 0.870012 0.209646
O O11 0.580389 0.369261 0.206071
O O12 0.751693 0.548240 0.472738
#
# Coordination Sequence:
#
# PCOD9341594 Si02
#       6
#     4   4   4   4   4   4
#     4  11  25  50  80 115 155 212 268 322 396 479
#     4  12  26  48  71 115 152 198 256 333 399 463
#     4  11  24  46  75 106 146 204 261 317 390 474
#     4  12  26  48  72 115 156 202 258 331 400 463
#     4  11  25  50  81 115 156 213 270 329 394 489
#     4  11  24  46  75 108 145 205 261 318 381 482
#
# _framework density 27.628481000000001
#
# number of rings (size 3 to 8) (size 9 to 14) (size 15 to 20)
#    0.000    0.667    5.000    2.000    0.000    5.333 
#    6.000    0.000    0.000    0.000    0.000    0.000 
#    0.000    0.000    0.000    0.000    0.000    0.000 
#
# Total GULP energy -134203.993333 kJ/mol
# GULP energy per Si atom -5591.833056 kJ/mol
# Density = 2.756560 g / cm^3
# Si number density = 27.628481 Si / 1000 Ang^3
#
#
#
# Elastic Constant Matrix: (Units=GPa)
#
#
# Indices 1 2 3 4 5 6 
#
# 1 53.4999 11.5389 34.4794 0.0000 0.0000 0.0000
# 2 11.5389 144.3831 53.2497 0.0000 0.0000 0.0000
# 3 34.4794 53.2497 178.5185 0.0000 0.0000 0.0000
# 4 0.0000 0.0000 0.0000 63.1341 0.0000 0.0000
# 5 0.0000 0.0000 0.0000 0.0000 30.1029 0.0000
# 6 0.0000 0.0000 0.0000 0.0000 0.0000 26.4501
#
#
#
# Elastic Compliance Matrix: (Units=1/GPa)
#
#
# Indices 1 2 3 4 5 6 
#
# 1 0.021355 -0.000208 -0.004062 0.000000 0.000000 0.000000
# 2 -0.000208 0.007784 -0.002282 0.000000 0.000000 0.000000
# 3 -0.004062 -0.002282 0.007067 0.000000 0.000000 0.000000
# 4 0.000000 0.000000 0.000000 0.015839 0.000000 0.000000
# 5 0.000000 0.000000 0.000000 0.000000 0.033219 0.000000
# 6 0.000000 0.000000 0.000000 0.000000 0.000000 0.037807
#
#
# Mechanical properties :
#
#
# Convention : Reuss Voigt Hill
#
# Bulk Modulus (GPa) = 43.28837 63.88194 53.58515
# Shear Modulus (GPa) = 34.75202 42.41298 38.58250
#
# Velocity S-wave (km/s) = 3.55044 3.92231 3.74100
# Velocity P-wave (km/s) = 5.70172 6.60944 6.17228
#
# Compressibility (1/GPa) = 0.02310089
#
# Stress axis : x y z
#
# Youngs Moduli (GPa) = 46.82821 128.46584 141.50577
#
# Poissons Ratio (x) = 0.02678 0.57484
# Poissons Ratio (y) = 0.00976 0.32287
# Poissons Ratio (z) = 0.19023 0.29312
#
# Static dielectric constant tensor:
#      x y z
#    x 2.280760 0.000000 0.000000 
#    y 0.000000 2.107110 0.000000 
#    z 0.000000 0.000000 2.138340 
# 
# From -- ./inp_files/5053.got.cif
#   From: 2010.05.17/outbox.cif.g08.bks.cpg/sg29_3_cif.got.tgz:5053.got - 2010.06.04 01:19:37.
