data_PCOD9341386
_publ_section_title
;
Structure prediction by ZEFSAII (Michael W. Deem and Ramdas Pophale) SiO2 
 PCOD9341386
Probable space group: P C A 21
;
_chemical_formula_sum "Si O2"
_cell_formula_units_Z 16
_cell_length_a 12.246776
_cell_length_b 6.420831
_cell_length_c 7.646284
_cell_angle_alpha 90.000000
_cell_angle_beta 90.000000
_cell_angle_gamma 90.000000
_cell_volume 601.261559
_symmetry_space_group_name_H-M "P C A 21"
_symmetry_group_IT_number 29
_symmetry_cell_setting 'orthorhombic'
loop_
_space_group_symop_operation_xyz
x,y,z
-x,-y,1/2+z
1/2-x,y,1/2+z
1/2+x,-y,z
loop_
_atom_site_type_symbol
_atom_site_label
_atom_site_fract_x
_atom_site_fract_y
_atom_site_fract_z
Si Si1 0.124385 0.351683 0.558800
Si Si2 0.810288 0.214140 0.160737
Si Si3 0.668403 0.938891 0.990406
Si Si4 0.972519 0.291559 0.872236
O O1 0.180086 0.537856 0.676742
O O2 0.221760 0.202415 0.499008
O O3 0.029715 0.264427 0.684787
O O4 0.064703 0.468855 0.399374
O O5 0.854576 0.078238 0.318594
O O6 0.872701 0.182217 0.975824
O O7 0.690730 0.118713 0.131434
O O8 0.570400 0.778350 0.003096
#
# Coordination Sequence:
#
# PCOD9341386 Si02
#       4
#     4   4   4   4
#     4  10  26  49  74 116 158 216 267 339 405 485
#     4  10  28  45  77 114 153 210 271 328 408 484
#     4  12  24  51  77 116 157 209 268 335 406 489
#     4  10  26  49  74 114 160 209 270 338 405 478
#
# _framework density 26.610714000000002
#
# number of rings (size 3 to 8) (size 9 to 14) (size 15 to 20)
#    1.500    0.000    2.500    0.000    7.000    6.000 
#    0.000    0.000    0.000    0.000    0.000    0.000 
#    0.000    0.000    0.000    0.000    0.000    0.000 
#
# Total GULP energy -89157.331683 kJ/mol
# GULP energy per Si atom -5572.333230 kJ/mol
# Density = 2.655015 g / cm^3
# Si number density = 26.610714 Si / 1000 Ang^3
#
#
#
# Elastic Constant Matrix: (Units=GPa)
#
#
# Indices 1 2 3 4 5 6 
#
# 1 96.3033 58.2604 12.2765 0.0000 0.0000 0.0000
# 2 58.2604 133.4544 23.1530 0.0000 0.0000 0.0000
# 3 12.2765 23.1530 116.6955 0.0000 0.0000 0.0000
# 4 0.0000 0.0000 0.0000 18.6699 0.0000 0.0000
# 5 0.0000 0.0000 0.0000 0.0000 31.8776 0.0000
# 6 0.0000 0.0000 0.0000 0.0000 0.0000 36.9072
#
#
#
# Elastic Compliance Matrix: (Units=1/GPa)
#
#
# Indices 1 2 3 4 5 6 
#
# 1 0.014119 -0.006117 -0.000272 0.000000 0.000000 0.000000
# 2 -0.006117 0.010410 -0.001422 0.000000 0.000000 0.000000
# 3 -0.000272 -0.001422 0.008880 0.000000 0.000000 0.000000
# 4 0.000000 0.000000 0.000000 0.053562 0.000000 0.000000
# 5 0.000000 0.000000 0.000000 0.000000 0.031370 0.000000
# 6 0.000000 0.000000 0.000000 0.000000 0.000000 0.027095
#
#
# Mechanical properties :
#
#
# Convention : Reuss Voigt Hill
#
# Bulk Modulus (GPa) = 56.21625 59.31481 57.76553
# Shear Modulus (GPa) = 29.94262 34.34181 32.14222
#
# Velocity S-wave (km/s) = 3.35805 3.59629 3.47921
# Velocity P-wave (km/s) = 6.01720 6.29147 6.15586
#
# Compressibility (1/GPa) = 0.01778845
#
# Stress axis : x y z
#
# Youngs Moduli (GPa) = 70.82759 96.06061 112.61232
#
# Poissons Ratio (x) = 0.58756 0.03060
# Poissons Ratio (y) = 0.43322 0.16013
# Poissons Ratio (z) = 0.01925 0.13659
#
# Static dielectric constant tensor:
#      x y z
#    x 2.068750 0.000000 0.000000 
#    y 0.000000 2.156690 0.000000 
#    z 0.000000 0.000000 2.133300 
# 
# From -- ./inp_files/1308.got.cif
#   From: 2010.05.17/outbox.cif.g08.bks.cpg/sg29_1_cif.got.tgz:1308.got - 2010.06.04 01:19:37.
