data_PCOD9341029
_publ_section_title
;
Structure prediction by ZEFSAII (Michael W. Deem and Ramdas Pophale) SiO2 
 PCOD9341029
Probable space group: P C A 21
;
_chemical_formula_sum "Si O2"
_cell_formula_units_Z 28
_cell_length_a 11.907334
_cell_length_b 5.900479
_cell_length_c 16.347123
_cell_angle_alpha 90.000000
_cell_angle_beta 90.000000
_cell_angle_gamma 90.000000
_cell_volume 1148.532093
_symmetry_space_group_name_H-M "P C A 21"
_symmetry_group_IT_number 29
_symmetry_cell_setting 'orthorhombic'
loop_
_space_group_symop_operation_xyz
x,y,z
-x,-y,1/2+z
1/2-x,y,1/2+z
1/2+x,-y,z
loop_
_atom_site_type_symbol
_atom_site_label
_atom_site_fract_x
_atom_site_fract_y
_atom_site_fract_z
Si Si1 0.016614 0.671348 0.132640
Si Si2 0.295237 0.964374 0.562716
Si Si3 0.052615 0.916382 0.300411
Si Si4 0.762824 0.431513 0.853616
Si Si5 0.619876 0.424367 0.516854
Si Si6 0.167555 0.287171 0.206879
Si Si7 0.599840 0.728206 0.937016
O O1 0.084934 0.839930 0.074016
O O2 0.007005 0.784859 0.220963
O O3 0.099218 0.460535 0.150791
O O4 0.901702 0.599847 0.089452
O O5 0.204147 0.772270 0.544446
O O6 0.279954 0.095278 0.648780
O O7 0.306262 0.134827 0.486895
O O8 0.171915 0.801193 0.329468
O O9 0.959756 0.884850 0.369476
O O10 0.080358 0.164168 0.268280
O O11 0.757498 0.570625 0.769412
O O12 0.644811 0.493919 0.896757
O O13 0.843596 0.514331 0.927934
O O14 0.497294 0.325845 0.500657
#
# Coordination Sequence:
#
# PCOD9341029 Si02
#       7
#     4   4   4   4   4   4   4
#     4  10  22  45  67 104 139 178 236 285 344 421
#     4  11  25  43  72 100 142 181 235 290 350 419
#     4   9  23  43  70 101 136 183 230 285 351 420
#     4  10  24  43  68  99 142 177 232 287 347 418
#     4  11  24  43  72 101 138 185 230 288 356 413
#     4  10  22  46  69 102 141 180 238 288 350 428
#     4  11  24  45  68 103 138 182 231 283 354 419
#
# _framework density 24.378941999999999
#
# number of rings (size 3 to 8) (size 9 to 14) (size 15 to 20)
#    0.000    1.714    1.429    0.857    6.000    4.571 
#    2.571    0.000    0.000    0.000    0.000    0.000 
#    0.000    0.000    0.000    0.000    0.000    0.000 
#
# Total GULP energy -156454.495952 kJ/mol
# GULP energy per Si atom -5587.660570 kJ/mol
# Density = 2.432345 g / cm^3
# Si number density = 24.378942 Si / 1000 Ang^3
#
#
#
# Elastic Constant Matrix: (Units=GPa)
#
#
# Indices 1 2 3 4 5 6 
#
# 1 50.8824 12.8202 8.8873 0.0000 0.0000 0.0000
# 2 12.8202 47.2468 21.6306 0.0000 0.0000 0.0000
# 3 8.8873 21.6306 113.7807 0.0000 0.0000 0.0000
# 4 0.0000 0.0000 0.0000 33.9785 0.0000 0.0000
# 5 0.0000 0.0000 0.0000 0.0000 38.1151 0.0000
# 6 0.0000 0.0000 0.0000 0.0000 0.0000 29.5737
#
#
#
# Elastic Compliance Matrix: (Units=1/GPa)
#
#
# Indices 1 2 3 4 5 6 
#
# 1 0.021134 -0.005454 -0.000614 0.000000 0.000000 0.000000
# 2 -0.005454 0.024591 -0.004249 0.000000 0.000000 0.000000
# 3 -0.000614 -0.004249 0.009645 0.000000 0.000000 0.000000
# 4 0.000000 0.000000 0.000000 0.029430 0.000000 0.000000
# 5 0.000000 0.000000 0.000000 0.000000 0.026236 0.000000
# 6 0.000000 0.000000 0.000000 0.000000 0.000000 0.033814
#
#
# Mechanical properties :
#
#
# Convention : Reuss Voigt Hill
#
# Bulk Modulus (GPa) = 28.78816 33.17623 30.98220
# Shear Modulus (GPa) = 28.23871 31.57159 29.90515
#
# Velocity S-wave (km/s) = 3.40711 3.60256 3.50620
# Velocity P-wave (km/s) = 5.22610 5.56262 5.39698
#
# Compressibility (1/GPa) = 0.03473650
#
# Stress axis : x y z
#
# Youngs Moduli (GPa) = 47.31606 40.66608 103.68554
#
# Poissons Ratio (x) = 0.22178 0.06366
# Poissons Ratio (y) = 0.25804 0.44055
# Poissons Ratio (z) = 0.02905 0.17279
#
# Static dielectric constant tensor:
#      x y z
#    x 1.962110 0.000000 0.000000 
#    y 0.000000 2.039190 0.000000 
#    z 0.000000 0.000000 1.938350 
# 
# From -- ./inp_files/5122.got.cif
#   From: 2010.05.17/outbox.cif.g08.bks.cpg/sg29_3_cif.got.tgz:5122.got - 2010.06.04 01:19:37.
