data_PCOD9341464
_publ_section_title
;
Structure prediction by ZEFSAII (Michael W. Deem and Ramdas Pophale) SiO2 
 PCOD9341464
Probable space group: P C A 21
;
_chemical_formula_sum "Si O2"
_cell_formula_units_Z 32
_cell_length_a 11.153731
_cell_length_b 5.626122
_cell_length_c 21.592101
_cell_angle_alpha 90.000000
_cell_angle_beta 90.000000
_cell_angle_gamma 90.000000
_cell_volume 1354.952949
_symmetry_space_group_name_H-M "P C A 21"
_symmetry_group_IT_number 29
_symmetry_cell_setting 'orthorhombic'
loop_
_space_group_symop_operation_xyz
x,y,z
-x,-y,1/2+z
1/2-x,y,1/2+z
1/2+x,-y,z
loop_
_atom_site_type_symbol
_atom_site_label
_atom_site_fract_x
_atom_site_fract_y
_atom_site_fract_z
Si Si1 0.497580 0.000960 0.872060
Si Si2 0.989060 0.657172 0.047182
Si Si3 0.151545 0.629589 0.648977
Si Si4 0.192195 0.982545 0.064884
Si Si5 0.510745 0.023848 0.725864
Si Si6 0.738635 0.787690 0.180994
Si Si7 0.204872 0.177077 0.448358
Si Si8 0.099893 0.497663 0.926114
O O1 0.513368 0.991294 0.799001
O O2 0.360949 0.037357 0.894387
O O3 0.561274 0.250975 0.895491
O O4 0.538823 0.745381 0.899719
O O5 0.060679 0.879782 0.073742
O O6 0.932356 0.515454 0.102353
O O7 0.073451 0.512298 0.999932
O O8 0.890553 0.752229 0.000108
O O9 0.217460 0.806676 0.600918
O O10 0.060386 0.729965 0.699369
O O11 0.253105 0.494130 0.689494
O O12 0.212837 0.210779 0.106880
O O13 0.209785 0.017114 0.991825
O O14 0.367591 0.048563 0.708338
O O15 0.624647 0.866450 0.699142
O O16 0.262258 0.417598 0.422045
#
# Coordination Sequence:
#
# PCOD9341464 Si02
#       8
#     4   4   4   4   4   4   4   4
#     4  11  28  49  72 105 143 203 260 319 380 459
#     4  11  22  41  70 108 144 189 240 309 390 466
#     4  11  23  42  71 105 149 197 249 317 390 470
#     4  11  23  40  69 109 147 190 243 312 396 468
#     4  11  28  46  75 106 145 207 263 327 387 465
#     4  11  25  48  72 111 150 202 257 327 396 472
#     4  11  23  43  72 105 147 194 241 314 385 461
#     4  11  26  47  71 105 145 194 253 313 382 459
#
# _framework density 23.617059000000001
#
# number of rings (size 3 to 8) (size 9 to 14) (size 15 to 20)
#    0.000    1.000    1.250    4.500    7.000    4.000 
#    0.000    0.000    0.000    0.000    0.000    0.000 
#    0.000    0.000    0.000    0.000    0.000    0.000 
#
# Total GULP energy -178295.721946 kJ/mol
# GULP energy per Si atom -5571.741311 kJ/mol
# Density = 2.356331 g / cm^3
# Si number density = 23.617059 Si / 1000 Ang^3
#
#
#
# Elastic Constant Matrix: (Units=GPa)
#
#
# Indices 1 2 3 4 5 6 
#
# 1 62.1938 17.5368 4.0010 0.0000 0.0000 0.0000
# 2 17.5368 71.1565 18.4833 0.0000 0.0000 0.0000
# 3 4.0010 18.4833 86.3971 0.0000 0.0000 0.0000
# 4 0.0000 0.0000 0.0000 -0.8434 0.0000 0.0000
# 5 0.0000 0.0000 0.0000 0.0000 20.7424 0.0000
# 6 0.0000 0.0000 0.0000 0.0000 0.0000 55.7776
#
#
#
# Elastic Compliance Matrix: (Units=1/GPa)
#
#
# Indices 1 2 3 4 5 6 
#
# 1 0.017281 -0.004289 0.000117 0.000000 0.000000 0.000000
# 2 -0.004289 0.015945 -0.003213 0.000000 0.000000 0.000000
# 3 0.000117 -0.003213 0.012256 0.000000 0.000000 0.000000
# 4 0.000000 0.000000 0.000000 -1.185704 0.000000 0.000000
# 5 0.000000 0.000000 0.000000 0.000000 0.048210 0.000000
# 6 0.000000 0.000000 0.000000 0.000000 0.000000 0.017928
#
#
# Mechanical properties :
#
#
# Convention : Reuss Voigt Hill
#
# Bulk Modulus (GPa) = 32.55950 33.30996 32.93473
# Shear Modulus (GPa) = -4.76610 27.11707 11.17548
#
# Velocity S-wave (km/s) = -1.42213 3.39218 2.17767
# Velocity P-wave (km/s) = 3.33463 5.42931 4.50539
#
# Compressibility (1/GPa) = 0.03071300
#
# Stress axis : x y z
#
# Youngs Moduli (GPa) = 57.86800 62.71500 81.59065
#
# Poissons Ratio (x) = 0.26901 -0.00958
# Poissons Ratio (y) = 0.24822 0.26212
# Poissons Ratio (z) = -0.00679 0.20148
#
# Static dielectric constant tensor:
#      x y z
#    x 2.127850 0.000000 0.000000 
#    y 0.000000 2.164470 0.000000 
#    z 0.000000 0.000000 1.908780 
# 
# From -- ./inp_files/5523.got.cif
#   From: 2010.05.17/outbox.cif.g08.bks.cpg/sg29_3_cif.got.tgz:5523.got - 2010.06.04 01:19:37.
