data_PCOD9341840
_publ_section_title
;
Structure prediction by ZEFSAII (Michael W. Deem and Ramdas Pophale) SiO2 
 PCOD9341840
Probable space group: P N C 2
;
_chemical_formula_sum "Si O2"
_cell_formula_units_Z 22
_cell_length_a 9.076968
_cell_length_b 13.652419
_cell_length_c 8.429937
_cell_angle_alpha 90.000000
_cell_angle_beta 90.000000
_cell_angle_gamma 90.000000
_cell_volume 1044.659461
_symmetry_space_group_name_H-M "P N C 2"
_symmetry_group_IT_number 30
_symmetry_cell_setting 'orthorhombic'
loop_
_space_group_symop_operation_xyz
x,y,z
-x,-y,z
-x,1/2+y,1/2+z
x,1/2-y,1/2+z
loop_
_atom_site_type_symbol
_atom_site_label
_atom_site_fract_x
_atom_site_fract_y
_atom_site_fract_z
Si Si1 0.000000 0.500000 0.929461
Si Si2 0.000000 0.000000 0.876374
Si Si3 0.757248 0.869678 0.062239
Si Si4 0.145720 0.817308 0.888916
Si Si5 0.500000 0.000000 0.152917
Si Si6 0.854280 0.817308 0.416918
Si Si7 0.242752 0.869678 0.243595
O O1 0.899810 0.584146 0.010695
O O2 0.885594 0.434567 0.825956
O O3 0.100190 0.915854 0.795139
O O4 0.885594 0.934567 0.979878
O O5 0.607990 0.930897 0.052981
O O6 0.802011 0.852774 0.245159
O O7 0.743514 0.760616 0.991738
O O8 0.256486 0.739384 0.814096
O O9 1.000000 0.750000 0.902917
O O10 0.197989 0.852774 0.060675
O O11 0.392010 0.930897 0.252853
#
# Coordination Sequence:
#
# PCOD9341840 Si02
#       7
#     2   2   4   4   2   4   4
#     4  10  17  38  63  86 119 158 205 248 301 356
#     4  10  17  38  63  86 119 158 205 248 301 356
#     4  11  22  38  61  90 118 162 203 247 299 365
#     4  10  19  35  64  89 113 153 207 257 293 346
#     4  12  24  38  64  82 130 178 192 230 312 384
#     4  10  19  35  64  89 113 153 207 257 293 346
#     4  11  22  38  61  90 118 162 203 247 299 365
#
# _framework density 21.059495999999999
#
# number of rings (size 3 to 8) (size 9 to 14) (size 15 to 20)
#    0.000    1.455    3.636    5.455    0.000    1.455 
#    0.000   14.545    0.000    2.182    0.000    0.000 
#    0.000    0.000    0.000    0.000    0.000    0.000 
#
# Total GULP energy -122646.412268 kJ/mol
# GULP energy per Si atom -5574.836921 kJ/mol
# Density = 2.101156 g / cm^3
# Si number density = 21.059496 Si / 1000 Ang^3
#
#
#
# Elastic Constant Matrix: (Units=GPa)
#
#
# Indices 1 2 3 4 5 6 
#
# 1 101.1500 50.9334 8.1062 0.0000 0.0000 0.0000
# 2 50.9334 226.7648 22.5831 0.0000 0.0000 0.0000
# 3 8.1062 22.5831 27.5967 0.0000 0.0000 0.0000
# 4 0.0000 0.0000 0.0000 35.5592 0.0000 0.0000
# 5 0.0000 0.0000 0.0000 0.0000 5.5975 0.0000
# 6 0.0000 0.0000 0.0000 0.0000 0.0000 59.6718
#
#
#
# Elastic Compliance Matrix: (Units=1/GPa)
#
#
# Indices 1 2 3 4 5 6 
#
# 1 0.011192 -0.002380 -0.001340 0.000000 0.000000 0.000000
# 2 -0.002380 0.005307 -0.003644 0.000000 0.000000 0.000000
# 3 -0.001340 -0.003644 0.039612 0.000000 0.000000 0.000000
# 4 0.000000 0.000000 0.000000 0.028122 0.000000 0.000000
# 5 0.000000 0.000000 0.000000 0.000000 0.178651 0.000000
# 6 0.000000 0.000000 0.000000 0.000000 0.000000 0.016758
#
#
# Mechanical properties :
#
#
# Convention : Reuss Voigt Hill
#
# Bulk Modulus (GPa) = 24.16433 57.63967 40.90200
# Shear Modulus (GPa) = 16.22503 38.42495 27.32499
#
# Velocity S-wave (km/s) = 2.77869 4.27616 3.60601
# Velocity P-wave (km/s) = 4.66841 7.19792 6.06647
#
# Compressibility (1/GPa) = 0.04138331
#
# Stress axis : x y z
#
# Youngs Moduli (GPa) = 89.34676 188.41505 25.24510
#
# Poissons Ratio (x) = 0.44852 0.03382
# Poissons Ratio (y) = 0.21269 0.09199
# Poissons Ratio (z) = 0.11969 0.68658
#
# Static dielectric constant tensor:
#      x y z
#    x 2.058360 0.000000 0.000000 
#    y 0.000000 1.770350 0.000000 
#    z 0.000000 0.000000 1.837740 
# 
# From -- ./inp_files/1809.got.cif
#   From: 2010.05.17/outbox.cif.g08.bks.cpg/sg30_1_cif.got.tgz:1809.got - 2010.06.03 17:03:02.
