data_PCOD9341804
_publ_section_title
;
Structure prediction by ZEFSAII (Michael W. Deem and Ramdas Pophale) SiO2 
 PCOD9341804
Probable space group: P N C 2
;
_chemical_formula_sum "Si O2"
_cell_formula_units_Z 24
_cell_length_a 26.426305
_cell_length_b 6.874422
_cell_length_c 5.407882
_cell_angle_alpha 90.000000
_cell_angle_beta 90.000000
_cell_angle_gamma 90.000000
_cell_volume 982.425979
_symmetry_space_group_name_H-M "P N C 2"
_symmetry_group_IT_number 30
_symmetry_cell_setting 'orthorhombic'
loop_
_space_group_symop_operation_xyz
x,y,z
-x,-y,z
-x,1/2+y,1/2+z
x,1/2-y,1/2+z
loop_
_atom_site_type_symbol
_atom_site_label
_atom_site_fract_x
_atom_site_fract_y
_atom_site_fract_z
Si Si1 0.551481 0.622063 0.690860
Si Si2 0.018087 0.279669 0.577695
Si Si3 0.094474 0.645446 0.048681
Si Si4 0.194933 0.621723 0.196061
Si Si5 0.303663 0.516457 0.067833
Si Si6 0.656868 0.461048 0.568801
O O1 0.500000 0.500000 0.677920
O O2 0.553539 0.767732 0.454898
O O3 0.599541 0.478901 0.660465
O O4 0.047779 0.254318 0.828390
O O5 0.966919 0.145991 0.572796
O O6 0.000000 0.500000 0.567830
O O7 0.102509 0.814181 0.259120
O O8 0.141069 0.514870 0.143313
O O9 0.196675 0.719094 0.468875
O O10 0.246001 0.503131 0.156056
O O11 0.338361 0.448611 0.295517
O O12 0.321185 0.743392 0.038176
O O13 0.310332 0.443939 0.788689
#
# Coordination Sequence:
#
# PCOD9341804 Si02
#       6
#     4   4   4   4   4   4
#     4  12  28  46  66  90 119 159 192 236 286 336
#     4  10  19  33  50  76 107 147 187 238 290 338
#     4   8  16  25  42  66 108 134 171 233 278 321
#     4  10  14  25  41  76 112 133 174 219 292 310
#     4  10  17  30  55  85 111 142 171 233 269 328
#     4  10  20  33  55  80 116 137 184 217 276 325
#
# _framework density 24.429321999999999
#
# number of rings (size 3 to 8) (size 9 to 14) (size 15 to 20)
#    0.000    2.000    3.333    2.000    4.667    0.000 
#    0.000    0.000    0.000    0.000    0.000    2.333 
#    0.000    0.000    0.000    0.000    0.000    0.000 
#
# Total GULP energy -133668.928103 kJ/mol
# GULP energy per Si atom -5569.538671 kJ/mol
# Density = 2.437372 g / cm^3
# Si number density = 24.429322 Si / 1000 Ang^3
#
#
#
# Elastic Constant Matrix: (Units=GPa)
#
#
# Indices 1 2 3 4 5 6 
#
# 1 140.4066 4.9641 -12.7803 0.0000 0.0000 0.0000
# 2 4.9641 55.8164 -4.6566 0.0000 0.0000 0.0000
# 3 -12.7803 -4.6566 204.8241 0.0000 0.0000 0.0000
# 4 0.0000 0.0000 0.0000 39.0397 0.0000 0.0000
# 5 0.0000 0.0000 0.0000 0.0000 38.3272 0.0000
# 6 0.0000 0.0000 0.0000 0.0000 0.0000 17.8930
#
#
#
# Elastic Compliance Matrix: (Units=1/GPa)
#
#
# Indices 1 2 3 4 5 6 
#
# 1 0.007183 -0.000603 0.000434 0.000000 0.000000 0.000000
# 2 -0.000603 0.018000 0.000372 0.000000 0.000000 0.000000
# 3 0.000434 0.000372 0.004918 0.000000 0.000000 0.000000
# 4 0.000000 0.000000 0.000000 0.025615 0.000000 0.000000
# 5 0.000000 0.000000 0.000000 0.000000 0.026091 0.000000
# 6 0.000000 0.000000 0.000000 0.000000 0.000000 0.055888
#
#
# Mechanical properties :
#
#
# Convention : Reuss Voigt Hill
#
# Bulk Modulus (GPa) = 32.77787 41.78905 37.28346
# Shear Modulus (GPa) = 33.90808 46.61998 40.26403
#
# Velocity S-wave (km/s) = 3.72964 4.37322 4.06419
# Velocity P-wave (km/s) = 5.65628 6.53018 6.10888
#
# Compressibility (1/GPa) = 0.03050839
#
# Stress axis : x y z
#
# Youngs Moduli (GPa) = 139.21711 55.55413 203.34300
#
# Poissons Ratio (x) = 0.03348 -0.08835
# Poissons Ratio (y) = 0.08389 -0.07557
# Poissons Ratio (z) = -0.06049 -0.02065
#
# Static dielectric constant tensor:
#      x y z
#    x 1.988880 0.000000 0.000000 
#    y 0.000000 1.234740 0.000000 
#    z 0.000000 0.000000 1.998100 
# 
# From -- ./inp_files/1075.got.cif
#   From: 2010.05.17/outbox.cif.g08.bks.cpg/sg30_1_cif.got.tgz:1075.got - 2010.06.03 17:03:02.
