data_PCOD9341949
_publ_section_title
;
Structure prediction by ZEFSAII (Michael W. Deem and Ramdas Pophale) SiO2 
 PCOD9341949
Probable space group: P N C 2
;
_chemical_formula_sum "Si O2"
_cell_formula_units_Z 30
_cell_length_a 10.654826
_cell_length_b 13.800356
_cell_length_c 10.012407
_cell_angle_alpha 90.000000
_cell_angle_beta 90.000000
_cell_angle_gamma 90.000000
_cell_volume 1472.228249
_symmetry_space_group_name_H-M "P N C 2"
_symmetry_group_IT_number 30
_symmetry_cell_setting 'orthorhombic'
loop_
_space_group_symop_operation_xyz
x,y,z
-x,-y,z
-x,1/2+y,1/2+z
x,1/2-y,1/2+z
loop_
_atom_site_type_symbol
_atom_site_label
_atom_site_fract_x
_atom_site_fract_y
_atom_site_fract_z
Si Si1 0.897577 0.284234 0.434480
Si Si2 0.609612 0.849583 0.734872
Si Si3 0.294851 0.609562 0.864407
Si Si4 0.202065 0.490155 0.107483
Si Si5 0.481628 0.240516 0.469835
Si Si6 0.320513 0.908330 0.051995
Si Si7 0.500000 0.500000 0.378573
Si Si8 0.981185 0.154647 0.663775
O O1 0.810616 0.194498 0.381500
O O2 0.804490 0.369720 0.480526
O O3 0.964674 0.244984 0.566648
O O4 0.992435 0.314637 0.317385
O O5 0.706588 0.935418 0.708847
O O6 0.592223 0.798258 0.596097
O O7 0.616255 0.776292 0.857632
O O8 0.486070 0.908482 0.781487
O O9 0.425774 0.659466 0.908249
O O10 0.300957 0.579426 0.709722
O O11 0.262728 0.521936 0.966352
O O12 0.146418 0.590975 0.161626
O O13 0.087146 0.414431 0.102139
O O14 0.574296 0.324375 0.527177
O O15 0.381076 0.000504 0.977507
#
# Coordination Sequence:
#
# PCOD9341949 Si02
#       8
#     4   4   4   4   4   4   2   4
#     4  10  19  35  66  85 113 149 214 247 296 352
#     4  11  21  39  54  86 117 166 186 254 297 378
#     4  10  19  36  60  93 115 159 199 258 293 376
#     4  10  23  37  61  83 126 151 205 249 327 342
#     4  10  21  34  60  86 123 153 209 235 301 370
#     4  10  19  34  57  94 116 156 198 253 290 374
#     4  10  22  32  58  84 128 144 198 244 312 350
#     4  10  21  40  62  88 110 159 203 263 291 369
#
# _framework density 20.377275000000001
#
# number of rings (size 3 to 8) (size 9 to 14) (size 15 to 20)
#    0.000    1.867    2.667    1.600    0.000    2.133 
#    0.000    0.000    8.800    0.000    0.000    0.000 
#    0.000    0.000    0.000    0.000    0.000    0.000 
#
# Total GULP energy -167204.880448 kJ/mol
# GULP energy per Si atom -5573.496015 kJ/mol
# Density = 2.033090 g / cm^3
# Si number density = 20.377275 Si / 1000 Ang^3
#
#
#
# Elastic Constant Matrix: (Units=GPa)
#
#
# Indices 1 2 3 4 5 6 
#
# 1 34.8318 21.2809 33.0530 0.0000 0.0000 0.0000
# 2 21.2809 57.0167 54.9624 0.0000 0.0000 0.0000
# 3 33.0530 54.9624 185.2111 0.0000 0.0000 0.0000
# 4 0.0000 0.0000 0.0000 35.0259 0.0000 0.0000
# 5 0.0000 0.0000 0.0000 0.0000 19.6057 0.0000
# 6 0.0000 0.0000 0.0000 0.0000 0.0000 27.0719
#
#
#
# Elastic Compliance Matrix: (Units=1/GPa)
#
#
# Indices 1 2 3 4 5 6 
#
# 1 0.038911 -0.010966 -0.003690 0.000000 0.000000 0.000000
# 2 -0.010966 0.027657 -0.006250 0.000000 0.000000 0.000000
# 3 -0.003690 -0.006250 0.007913 0.000000 0.000000 0.000000
# 4 0.000000 0.000000 0.000000 0.028550 0.000000 0.000000
# 5 0.000000 0.000000 0.000000 0.000000 0.051006 0.000000
# 6 0.000000 0.000000 0.000000 0.000000 0.000000 0.036939
#
#
# Mechanical properties :
#
#
# Convention : Reuss Voigt Hill
#
# Bulk Modulus (GPa) = 30.61141 55.07249 42.84195
# Shear Modulus (GPa) = 20.51907 27.52493 24.02200
#
# Velocity S-wave (km/s) = 3.17670 3.67926 3.43718
# Velocity P-wave (km/s) = 5.33949 6.71821 6.06814
#
# Compressibility (1/GPa) = 0.03266755
#
# Stress axis : x y z
#
# Youngs Moduli (GPa) = 25.69997 36.15754 126.38180
#
# Poissons Ratio (x) = 0.39651 0.46632
# Poissons Ratio (y) = 0.28183 0.78992
# Poissons Ratio (z) = 0.09483 0.22599
#
# Static dielectric constant tensor:
#      x y z
#    x 1.785130 0.000000 0.000000 
#    y 0.000000 1.804660 0.000000 
#    z 0.000000 0.000000 1.715860 
# 
# From -- ./inp_files/2465.got.cif
#   From: 2010.05.17/outbox.cif.g08.bks.cpg/sg30_2_cif.got.tgz:2465.got - 2010.06.03 17:03:02.
