data_PCOD9341525
_publ_section_title
;
Structure prediction by ZEFSAII (Michael W. Deem and Ramdas Pophale) SiO2 
 PCOD9341525
Probable space group: P C A 21
;
_chemical_formula_sum "Si O2"
_cell_formula_units_Z 32
_cell_length_a 10.746279
_cell_length_b 15.446059
_cell_length_c 8.984200
_cell_angle_alpha 90.000000
_cell_angle_beta 90.000000
_cell_angle_gamma 90.000000
_cell_volume 1491.266330
_symmetry_space_group_name_H-M "P C A 21"
_symmetry_group_IT_number 29
_symmetry_cell_setting 'orthorhombic'
loop_
_space_group_symop_operation_xyz
x,y,z
-x,-y,1/2+z
1/2-x,y,1/2+z
1/2+x,-y,z
loop_
_atom_site_type_symbol
_atom_site_label
_atom_site_fract_x
_atom_site_fract_y
_atom_site_fract_z
Si Si1 0.912290 0.243616 0.588380
Si Si2 0.873581 0.777765 0.885205
Si Si3 0.630985 0.973667 0.479421
Si Si4 0.132759 0.948695 0.152152
Si Si5 0.340862 0.480371 0.239049
Si Si6 0.257933 0.602627 0.992100
Si Si7 0.691641 0.677272 0.098984
Si Si8 0.991944 0.341229 0.841602
O O1 0.847437 0.154017 0.627678
O O2 0.832098 0.329741 0.570279
O O3 0.983557 0.232477 0.432923
O O4 0.007863 0.263691 0.724369
O O5 0.840758 0.875764 0.925561
O O6 0.845963 0.749573 0.718437
O O7 0.798979 0.712211 0.991187
O O8 0.498658 0.972672 0.569045
O O9 0.747017 0.004901 0.579744
O O10 0.621431 0.028741 0.326874
O O11 0.307386 0.530601 0.389772
O O12 0.240815 0.406763 0.189314
O O13 0.469249 0.429735 0.259490
O O14 0.339900 0.550960 0.110865
O O15 0.350875 0.657658 0.891799
O O16 0.578827 0.661986 0.985670
#
# Coordination Sequence:
#
# PCOD9341525 Si02
#       8
#     4   4   4   4   4   4   4   4
#     4  11  27  49  67 103 145 188 230 298 353 430
#     4  11  23  44  72 101 144 174 239 282 357 421
#     4  11  25  47  75 112 140 194 232 308 358 448
#     4  11  26  48  78 107 152 186 247 293 378 439
#     4  12  25  44  66  98 135 182 242 286 344 414
#     4  12  28  45  66  99 135 186 236 291 355 411
#     4  12  23  43  69 104 135 188 230 294 346 415
#     4  12  27  44  69  98 138 190 230 294 349 414
#
# _framework density 21.458271
#
# number of rings (size 3 to 8) (size 9 to 14) (size 15 to 20)
#    0.000    0.500    5.000    1.500    7.000    4.000 
#    2.250    0.000    0.000    0.000    0.000    0.000 
#    0.000    0.000    0.000    0.000    0.000    0.000 
#
# Total GULP energy -178877.642655 kJ/mol
# GULP energy per Si atom -5589.926333 kJ/mol
# Density = 2.140943 g / cm^3
# Si number density = 21.458271 Si / 1000 Ang^3
#
#
#
# Elastic Constant Matrix: (Units=GPa)
#
#
# Indices 1 2 3 4 5 6 
#
# 1 59.3990 17.4472 16.3505 0.0000 0.0000 0.0000
# 2 17.4472 66.8572 10.6164 0.0000 0.0000 0.0000
# 3 16.3505 10.6164 90.5651 0.0000 0.0000 0.0000
# 4 0.0000 0.0000 0.0000 20.6542 0.0000 0.0000
# 5 0.0000 0.0000 0.0000 0.0000 29.2275 0.0000
# 6 0.0000 0.0000 0.0000 0.0000 0.0000 7.1354
#
#
#
# Elastic Compliance Matrix: (Units=1/GPa)
#
#
# Indices 1 2 3 4 5 6 
#
# 1 0.018950 -0.004485 -0.002895 0.000000 0.000000 0.000000
# 2 -0.004485 0.016303 -0.001101 0.000000 0.000000 0.000000
# 3 -0.002895 -0.001101 0.011694 0.000000 0.000000 0.000000
# 4 0.000000 0.000000 0.000000 0.048416 0.000000 0.000000
# 5 0.000000 0.000000 0.000000 0.000000 0.034214 0.000000
# 6 0.000000 0.000000 0.000000 0.000000 0.000000 0.140146
#
#
# Mechanical properties :
#
#
# Convention : Reuss Voigt Hill
#
# Bulk Modulus (GPa) = 33.35343 33.96107 33.65725
# Shear Modulus (GPa) = 16.85312 22.89722 19.87517
#
# Velocity S-wave (km/s) = 2.80552 3.27013 3.04669
# Velocity P-wave (km/s) = 5.10605 5.48810 5.30052
#
# Compressibility (1/GPa) = 0.02998192
#
# Stress axis : x y z
#
# Youngs Moduli (GPa) = 52.77098 61.33969 85.51687
#
# Poissons Ratio (x) = 0.27513 0.24760
# Poissons Ratio (y) = 0.23670 0.09418
# Poissons Ratio (z) = 0.15279 0.06755
#
# Static dielectric constant tensor:
#      x y z
#    x 1.785250 0.000000 0.000000 
#    y 0.000000 1.778960 0.000000 
#    z 0.000000 0.000000 1.789070 
# 
# From -- ./inp_files/1585.got.cif
#   From: 2010.05.17/outbox.cif.g08.bks.cpg/sg29_1_cif.got.tgz:1585.got - 2010.06.04 01:19:37.
