data_PCOD9341736
_publ_section_title
;
Structure prediction by ZEFSAII (Michael W. Deem and Ramdas Pophale) SiO2 
 PCOD9341736
Probable space group: P C A 21
;
_chemical_formula_sum "Si O2"
_cell_formula_units_Z 24
_cell_length_a 17.284570
_cell_length_b 6.577487
_cell_length_c 8.752197
_cell_angle_alpha 90.000000
_cell_angle_beta 90.000000
_cell_angle_gamma 90.000000
_cell_volume 995.028826
_symmetry_space_group_name_H-M "P C A 21"
_symmetry_group_IT_number 29
_symmetry_cell_setting 'orthorhombic'
loop_
_space_group_symop_operation_xyz
x,y,z
-x,-y,1/2+z
1/2-x,y,1/2+z
1/2+x,-y,z
loop_
_atom_site_type_symbol
_atom_site_label
_atom_site_fract_x
_atom_site_fract_y
_atom_site_fract_z
Si Si1 0.978830 0.102404 0.832160
Si Si2 0.419520 0.818271 0.494905
Si Si3 0.357513 0.665489 0.032376
Si Si4 0.710652 0.708974 0.363295
Si Si5 0.887192 0.570456 0.332488
Si Si6 0.732838 0.005011 0.090472
O O1 0.947456 0.123086 0.662456
O O2 0.052280 0.250353 0.843351
O O3 0.915004 0.177819 0.951811
O O4 0.013999 0.886100 0.878125
O O5 0.402866 0.582931 0.471405
O O6 0.337049 0.932002 0.477792
O O7 0.396362 0.550150 0.173610
O O8 0.283692 0.788851 0.103590
O O9 0.335293 0.497220 0.902742
O O10 0.798948 0.640074 0.340370
O O11 0.695938 0.875935 0.230381
O O12 0.709725 0.843009 0.515670
#
# Coordination Sequence:
#
# PCOD9341736 Si02
#       6
#     4   4   4   4   4   4
#     4  12  29  46  75 108 150 199 246 310 382 449
#     4  12  27  48  73 108 151 195 250 313 380 449
#     4  12  28  48  76 113 147 197 257 311 373 458
#     4  12  26  44  75 109 145 194 249 305 378 447
#     4  12  26  48  73 104 152 194 245 309 375 450
#     4  12  26  46  76 106 147 193 249 308 374 451
#
# _framework density 24.119902
#
# number of rings (size 3 to 8) (size 9 to 14) (size 15 to 20)
#    0.000    0.000    5.000    4.000    7.000    5.333 
#    0.000    0.000    0.000    0.000    0.000    0.000 
#    0.000    0.000    0.000    0.000    0.000    0.000 
#
# Total GULP energy -134305.057156 kJ/mol
# GULP energy per Si atom -5596.044048 kJ/mol
# Density = 2.406500 g / cm^3
# Si number density = 24.119902 Si / 1000 Ang^3
#
#
#
# Elastic Constant Matrix: (Units=GPa)
#
#
# Indices 1 2 3 4 5 6 
#
# 1 73.3041 16.1060 -4.5986 0.0000 0.0000 0.0000
# 2 16.1060 69.7864 -1.0301 0.0000 0.0000 0.0000
# 3 -4.5986 -1.0301 62.3967 0.0000 0.0000 0.0000
# 4 0.0000 0.0000 0.0000 38.3487 0.0000 0.0000
# 5 0.0000 0.0000 0.0000 0.0000 34.2087 0.0000
# 6 0.0000 0.0000 0.0000 0.0000 0.0000 36.0182
#
#
#
# Elastic Compliance Matrix: (Units=1/GPa)
#
#
# Indices 1 2 3 4 5 6 
#
# 1 0.014434 -0.003316 0.001009 0.000000 0.000000 0.000000
# 2 -0.003316 0.015095 0.000005 0.000000 0.000000 0.000000
# 3 0.001009 0.000005 0.016101 0.000000 0.000000 0.000000
# 4 0.000000 0.000000 0.000000 0.026077 0.000000 0.000000
# 5 0.000000 0.000000 0.000000 0.000000 0.029232 0.000000
# 6 0.000000 0.000000 0.000000 0.000000 0.000000 0.027764
#
#
# Mechanical properties :
#
#
# Convention : Reuss Voigt Hill
#
# Bulk Modulus (GPa) = 24.37560 25.16019 24.76789
# Shear Modulus (GPa) = 34.01778 34.71577 34.36678
#
# Velocity S-wave (km/s) = 3.75955 3.79793 3.77879
# Velocity P-wave (km/s) = 5.38271 5.44851 5.41571
#
# Compressibility (1/GPa) = 0.04102463
#
# Stress axis : x y z
#
# Youngs Moduli (GPa) = 69.28209 66.24765 62.10817
#
# Poissons Ratio (x) = 0.21970 -0.06267
# Poissons Ratio (y) = 0.22976 -0.00030
# Poissons Ratio (z) = -0.06991 -0.00032
#
# Static dielectric constant tensor:
#      x y z
#    x 1.901810 0.000000 0.000000 
#    y 0.000000 1.923220 0.000000 
#    z 0.000000 0.000000 1.961410 
# 
# From -- ./inp_files/2002.got.cif
#   From: 2010.05.17/outbox.cif.g08.bks.cpg/sg29_2_cif.got.tgz:2002.got - 2010.06.04 01:19:37.
