data_PCOD9341802
_publ_section_title
;
Structure prediction by ZEFSAII (Michael W. Deem and Ramdas Pophale) SiO2 
 PCOD9341802
Probable space group: P N C 2
;
_chemical_formula_sum "Si O2"
_cell_formula_units_Z 32
_cell_length_a 19.380346
_cell_length_b 12.719996
_cell_length_c 5.252387
_cell_angle_alpha 90.000000
_cell_angle_beta 90.000000
_cell_angle_gamma 90.000000
_cell_volume 1294.807537
_symmetry_space_group_name_H-M "P N C 2"
_symmetry_group_IT_number 30
_symmetry_cell_setting 'orthorhombic'
loop_
_space_group_symop_operation_xyz
x,y,z
-x,-y,z
-x,1/2+y,1/2+z
x,1/2-y,1/2+z
loop_
_atom_site_type_symbol
_atom_site_label
_atom_site_fract_x
_atom_site_fract_y
_atom_site_fract_z
Si Si1 0.318665 0.820964 0.478950
Si Si2 0.172773 0.679773 0.869821
Si Si3 0.515884 0.877228 0.802451
Si Si4 0.880058 0.679398 0.871650
Si Si5 0.027024 0.679336 0.977750
Si Si6 0.671338 0.861766 0.985951
Si Si7 0.729326 0.620906 0.987331
Si Si8 0.461587 0.608996 0.804289
O O1 0.319291 0.769139 0.758106
O O2 0.244857 0.876634 0.429149
O O3 0.387116 0.887596 0.430334
O O4 0.172639 0.725694 0.582671
O O5 0.099941 0.623667 0.923774
O O6 0.591808 0.859078 0.910394
O O7 0.510902 0.836017 0.513389
O O8 0.500000 0.000000 0.754485
O O9 0.459238 0.848107 0.016494
O O10 0.878456 0.728233 0.587928
O O11 0.809422 0.618071 0.918162
O O12 0.953791 0.624903 0.923283
O O13 0.027016 0.773676 0.764149
O O14 0.704867 0.745142 0.015188
O O15 0.711142 0.922325 0.762852
O O16 0.683144 0.916294 0.254316
O O17 0.500000 0.500000 0.756734
#
# Coordination Sequence:
#
# PCOD9341802 Si02
#       8
#     4   4   4   4   4   4   4   4
#     4  10  19  33  50  73  99 125 161 204 246 291
#     4   8  14  25  39  59  89 119 153 184 228 270
#     4  10  21  37  52  64  86 121 158 200 239 283
#     4  10  14  23  36  54  86 120 154 171 207 272
#     4   8  14  20  34  55  79 120 157 172 205 266
#     4  10  18  30  43  61  85 115 148 187 229 272
#     4  10  17  28  41  63  91 117 143 182 227 275
#     4  10  21  38  53  69  93 127 162 205 250 297
#
# _framework density 24.714096999999999
#
# number of rings (size 3 to 8) (size 9 to 14) (size 15 to 20)
#    0.000    2.500    2.500    1.500    0.000    0.000 
#   13.500    0.000    0.000    0.000    0.000    0.000 
#    0.000    0.000    0.000   27.000   18.000    0.000 
#
# Total GULP energy -178542.100414 kJ/mol
# GULP energy per Si atom -5579.440638 kJ/mol
# Density = 2.465785 g / cm^3
# Si number density = 24.714097 Si / 1000 Ang^3
#
#
#
# Elastic Constant Matrix: (Units=GPa)
#
#
# Indices 1 2 3 4 5 6 
#
# 1 177.5000 19.8741 -26.4523 0.0000 0.0000 0.0000
# 2 19.8741 55.8429 -5.5057 0.0000 0.0000 0.0000
# 3 -26.4523 -5.5057 149.9175 0.0000 0.0000 0.0000
# 4 0.0000 0.0000 0.0000 14.2878 0.0000 0.0000
# 5 0.0000 0.0000 0.0000 0.0000 44.2820 0.0000
# 6 0.0000 0.0000 0.0000 0.0000 0.0000 20.9177
#
#
#
# Elastic Compliance Matrix: (Units=1/GPa)
#
#
# Indices 1 2 3 4 5 6 
#
# 1 0.006009 -0.002041 0.000985 0.000000 0.000000 0.000000
# 2 -0.002041 0.018666 0.000325 0.000000 0.000000 0.000000
# 3 0.000985 0.000325 0.006856 0.000000 0.000000 0.000000
# 4 0.000000 0.000000 0.000000 0.069990 0.000000 0.000000
# 5 0.000000 0.000000 0.000000 0.000000 0.022583 0.000000
# 6 0.000000 0.000000 0.000000 0.000000 0.000000 0.047806
#
#
# Mechanical properties :
#
#
# Convention : Reuss Voigt Hill
#
# Bulk Modulus (GPa) = 33.25616 39.89919 36.57767
# Shear Modulus (GPa) = 27.26356 42.25379 34.75867
#
# Velocity S-wave (km/s) = 3.32499 4.13934 3.75431
# Velocity P-wave (km/s) = 5.31284 6.24699 5.79876
#
# Compressibility (1/GPa) = 0.03006961
#
# Stress axis : x y z
#
# Youngs Moduli (GPa) = 166.41085 53.57334 145.85466
#
# Poissons Ratio (x) = 0.10937 -0.14371
# Poissons Ratio (y) = 0.33973 -0.04745
# Poissons Ratio (z) = -0.16397 -0.01743
#
# Static dielectric constant tensor:
#      x y z
#    x 1.992010 0.000000 0.000000 
#    y 0.000000 1.852270 0.000000 
#    z 0.000000 0.000000 2.007320 
# 
# From -- ./inp_files/1016.got.cif
#   From: 2010.05.17/outbox.cif.g08.bks.cpg/sg30_1_cif.got.tgz:1016.got - 2010.06.03 17:03:02.
