data_PCOD9341238
_publ_section_title
;
Structure prediction by ZEFSAII (Michael W. Deem and Ramdas Pophale) SiO2 
 PCOD9341238
Probable space group: P C A 21
;
_chemical_formula_sum "Si O2"
_cell_formula_units_Z 32
_cell_length_a 15.533160
_cell_length_b 8.510649
_cell_length_c 11.751561
_cell_angle_alpha 90.000000
_cell_angle_beta 90.000000
_cell_angle_gamma 90.000000
_cell_volume 1553.524313
_symmetry_space_group_name_H-M "P C A 21"
_symmetry_group_IT_number 29
_symmetry_cell_setting 'orthorhombic'
loop_
_space_group_symop_operation_xyz
x,y,z
-x,-y,1/2+z
1/2-x,y,1/2+z
1/2+x,-y,z
loop_
_atom_site_type_symbol
_atom_site_label
_atom_site_fract_x
_atom_site_fract_y
_atom_site_fract_z
Si Si1 0.034449 0.326749 0.185340
Si Si2 0.078202 0.661216 0.280974
Si Si3 0.872361 0.896900 0.073006
Si Si4 0.819790 0.208728 0.578803
Si Si5 0.630405 0.261228 0.526297
Si Si6 0.686575 0.833802 0.041529
Si Si7 0.912901 0.864713 0.328063
Si Si8 0.527103 0.191527 0.926062
O O1 0.064889 0.501984 0.211905
O O2 0.114247 0.237497 0.124744
O O3 0.949962 0.310315 0.105495
O O4 0.007607 0.261539 0.309022
O O5 0.136126 0.768577 0.200105
O O6 0.120434 0.653826 0.405319
O O7 0.985866 0.738882 0.303054
O O8 0.786539 0.794308 0.057093
O O9 0.879908 0.926499 0.207522
O O10 0.872622 0.069633 0.014219
O O11 0.954366 0.807032 0.022753
O O12 0.726322 0.287999 0.574354
O O13 0.885931 0.263963 0.479744
O O14 0.811579 0.021977 0.560238
O O15 0.658797 0.798180 0.912419
O O16 0.952788 0.010550 0.396286
#
# Coordination Sequence:
#
# PCOD9341238 Si02
#       8
#     4   4   4   4   4   4   4   4
#     4  12  26  44  64  97 139 180 218 276 335 407
#     4  12  25  43  67  89 139 187 215 271 337 406
#     4  11  22  40  74 103 130 171 227 289 343 394
#     4  10  24  42  70  98 126 170 232 277 344 397
#     4  11  24  44  69 100 133 176 226 282 339 403
#     4  10  24  42  67 101 134 170 227 292 334 395
#     4  11  21  43  68  94 132 175 224 283 337 396
#     4  11  22  40  67  98 127 167 223 284 333 402
#
# _framework density 20.598326
#
# number of rings (size 3 to 8) (size 9 to 14) (size 15 to 20)
#    0.000    1.000    5.000    1.500    5.250    2.000 
#    4.500    0.000    0.000    0.000    0.000    0.000 
#    0.000    0.000    0.000    0.000    0.000    0.000 
#
# Total GULP energy -178697.757795 kJ/mol
# GULP energy per Si atom -5584.304931 kJ/mol
# Density = 2.055144 g / cm^3
# Si number density = 20.598326 Si / 1000 Ang^3
#
#
#
# Elastic Constant Matrix: (Units=GPa)
#
#
# Indices 1 2 3 4 5 6 
#
# 1 148.5859 14.8917 49.1656 0.0000 0.0000 0.0000
# 2 14.8917 25.2156 6.7414 0.0000 0.0000 0.0000
# 3 49.1656 6.7414 102.3343 0.0000 0.0000 0.0000
# 4 0.0000 0.0000 0.0000 -7.4810 0.0000 0.0000
# 5 0.0000 0.0000 0.0000 0.0000 11.8328 0.0000
# 6 0.0000 0.0000 0.0000 0.0000 0.0000 -15.0834
#
#
#
# Elastic Compliance Matrix: (Units=1/GPa)
#
#
# Indices 1 2 3 4 5 6 
#
# 1 0.008369 -0.003937 -0.003762 0.000000 0.000000 0.000000
# 2 -0.003937 0.042221 -0.000890 0.000000 0.000000 0.000000
# 3 -0.003762 -0.000890 0.011638 0.000000 0.000000 0.000000
# 4 0.000000 0.000000 0.000000 -0.133672 0.000000 0.000000
# 5 0.000000 0.000000 0.000000 0.000000 0.084511 0.000000
# 6 0.000000 0.000000 0.000000 0.000000 0.000000 -0.066298
#
#
# Mechanical properties :
#
#
# Convention : Reuss Voigt Hill
#
# Bulk Modulus (GPa) = 22.19703 46.41480 34.30591
# Shear Modulus (GPa) = -237.67810 11.54281 -113.06764
#
# Velocity S-wave (km/s) = -10.75349 2.36979 -7.41693
# Velocity P-wave (km/s) = 11.97430 5.48362 7.52708
#
# Compressibility (1/GPa) = 0.04505108
#
# Stress axis : x y z
#
# Youngs Moduli (GPa) = 119.48302 23.68489 85.92725
#
# Poissons Ratio (x) = 0.09325 0.32323
# Poissons Ratio (y) = 0.47041 0.07646
# Poissons Ratio (z) = 0.44945 0.02108
#
# Static dielectric constant tensor:
#      x y z
#    x 1.783580 0.000000 0.000000 
#    y 0.000000 1.771320 0.000000 
#    z 0.000000 0.000000 1.728890 
# 
# From -- ./inp_files/3470.got.cif
#   From: 2010.05.17/outbox.cif.g08.bks.cpg/sg29_2_cif.got.tgz:3470.got - 2010.06.04 01:19:37.
