data_PCOD9341154
_publ_section_title
;
Structure prediction by ZEFSAII (Michael W. Deem and Ramdas Pophale) SiO2 
 PCOD9341154
Probable space group: P C A 21
;
_chemical_formula_sum "Si O2"
_cell_formula_units_Z 28
_cell_length_a 15.097818
_cell_length_b 8.238623
_cell_length_c 8.838722
_cell_angle_alpha 90.000000
_cell_angle_beta 90.000000
_cell_angle_gamma 90.000000
_cell_volume 1099.406474
_symmetry_space_group_name_H-M "P C A 21"
_symmetry_group_IT_number 29
_symmetry_cell_setting 'orthorhombic'
loop_
_space_group_symop_operation_xyz
x,y,z
-x,-y,1/2+z
1/2-x,y,1/2+z
1/2+x,-y,z
loop_
_atom_site_type_symbol
_atom_site_label
_atom_site_fract_x
_atom_site_fract_y
_atom_site_fract_z
Si Si1 0.287370 0.917091 0.723480
Si Si2 0.342041 0.445610 0.290800
Si Si3 0.699210 0.421346 0.101528
Si Si4 0.967891 0.500123 0.820550
Si Si5 0.227129 0.130083 0.957728
Si Si6 0.480835 0.849320 0.840612
Si Si7 0.560130 0.832686 0.504156
O O1 0.261637 0.755989 0.635398
O O2 0.378127 0.867481 0.799586
O O3 0.217151 0.980060 0.842628
O O4 0.308403 0.070899 0.617406
O O5 0.318808 0.570214 0.425029
O O6 0.274335 0.453516 0.153199
O O7 0.437991 0.498855 0.236088
O O8 0.322998 0.278637 0.381053
O O9 0.613789 0.469492 0.204819
O O10 0.982752 0.330601 0.914347
O O11 0.960596 0.663878 0.917609
O O12 0.333527 0.148852 0.980557
O O13 0.533941 0.836978 0.681583
O O14 0.494586 0.014220 0.934301
#
# Coordination Sequence:
#
# PCOD9341154 Si02
#       7
#     4   4   4   4   4   4   4
#     4  10  23  44  67 101 142 179 235 301 354 439
#     4  12  26  43  77 104 146 198 240 311 368 451
#     4  11  25  47  71 109 146 189 254 298 378 445
#     4  11  25  46  70 106 150 196 243 306 371 449
#     4  11  24  42  72 101 139 187 235 298 368 431
#     4  10  26  43  72 104 141 190 244 303 367 446
#     4  11  25  47  71 107 148 187 249 305 370 449
#
# _framework density 25.468288000000001
#
# number of rings (size 3 to 8) (size 9 to 14) (size 15 to 20)
#    0.000    1.143    1.429    3.429    8.000    3.429 
#    0.000    0.000    0.000    0.000    0.000    0.000 
#    0.000    0.000    0.000    0.000    0.000    0.000 
#
# Total GULP energy -156564.109725 kJ/mol
# GULP energy per Si atom -5591.575347 kJ/mol
# Density = 2.541032 g / cm^3
# Si number density = 25.468288 Si / 1000 Ang^3
#
#
#
# Elastic Constant Matrix: (Units=GPa)
#
#
# Indices 1 2 3 4 5 6 
#
# 1 102.7856 8.1663 5.8349 0.0000 0.0000 0.0000
# 2 8.1663 151.8014 41.3212 0.0000 0.0000 0.0000
# 3 5.8349 41.3212 65.5451 0.0000 0.0000 0.0000
# 4 0.0000 0.0000 0.0000 44.5508 0.0000 0.0000
# 5 0.0000 0.0000 0.0000 0.0000 25.9362 0.0000
# 6 0.0000 0.0000 0.0000 0.0000 0.0000 20.4655
#
#
#
# Elastic Compliance Matrix: (Units=1/GPa)
#
#
# Indices 1 2 3 4 5 6 
#
# 1 0.009794 -0.000350 -0.000652 0.000000 0.000000 0.000000
# 2 -0.000350 0.007965 -0.004990 0.000000 0.000000 0.000000
# 3 -0.000652 -0.004990 0.018460 0.000000 0.000000 0.000000
# 4 0.000000 0.000000 0.000000 0.022446 0.000000 0.000000
# 5 0.000000 0.000000 0.000000 0.000000 0.038556 0.000000
# 6 0.000000 0.000000 0.000000 0.000000 0.000000 0.048863
#
#
# Mechanical properties :
#
#
# Convention : Reuss Voigt Hill
#
# Bulk Modulus (GPa) = 41.25951 47.86411 44.56181
# Shear Modulus (GPa) = 30.09418 35.84448 32.96933
#
# Velocity S-wave (km/s) = 3.44122 3.75562 3.60185
# Velocity P-wave (km/s) = 5.65905 6.13520 5.90193
#
# Compressibility (1/GPa) = 0.02423684
#
# Stress axis : x y z
#
# Youngs Moduli (GPa) = 102.10604 125.55458 54.16977
#
# Poissons Ratio (x) = 0.04388 0.03529
# Poissons Ratio (y) = 0.03569 0.27031
# Poissons Ratio (z) = 0.06652 0.62652
#
# Static dielectric constant tensor:
#      x y z
#    x 2.015080 0.000000 0.000000 
#    y 0.000000 2.143510 0.000000 
#    z 0.000000 0.000000 1.979260 
# 
# From -- ./inp_files/2066.got.cif
#   From: 2010.05.17/outbox.cif.g08.bks.cpg/sg29_2_cif.got.tgz:2066.got - 2010.06.04 01:19:37.
