data_PCOD9341356
_publ_section_title
;
Structure prediction by ZEFSAII (Michael W. Deem and Ramdas Pophale) SiO2 
 PCOD9341356
Probable space group: P C A 21
;
_chemical_formula_sum "Si O2"
_cell_formula_units_Z 28
_cell_length_a 12.644709
_cell_length_b 11.567189
_cell_length_c 8.222896
_cell_angle_alpha 90.000000
_cell_angle_beta 90.000000
_cell_angle_gamma 90.000000
_cell_volume 1202.711513
_symmetry_space_group_name_H-M "P C A 21"
_symmetry_group_IT_number 29
_symmetry_cell_setting 'orthorhombic'
loop_
_space_group_symop_operation_xyz
x,y,z
-x,-y,1/2+z
1/2-x,y,1/2+z
1/2+x,-y,z
loop_
_atom_site_type_symbol
_atom_site_label
_atom_site_fract_x
_atom_site_fract_y
_atom_site_fract_z
Si Si1 0.239384 0.534351 0.312410
Si Si2 0.365754 0.381531 0.059324
Si Si3 0.013905 0.112365 0.968099
Si Si4 0.730785 0.850896 0.040531
Si Si5 0.823397 0.028061 0.809816
Si Si6 0.389444 0.659054 0.564182
Si Si7 0.596631 0.126130 0.820369
O O1 0.309708 0.465358 0.185309
O O2 0.155292 0.443498 0.386167
O O3 0.322267 0.574830 0.447295
O O4 0.177590 0.641549 0.229869
O O5 0.303339 0.259609 0.064369
O O6 0.489239 0.373305 0.094326
O O7 0.964060 0.139269 0.146745
O O8 0.124250 0.180488 0.937780
O O9 0.919092 0.116499 0.836174
O O10 0.049604 0.980772 0.924727
O O11 0.673818 0.919527 0.187025
O O12 0.804066 0.953177 0.972073
O O13 0.716806 0.096397 0.776141
O O14 0.398908 0.772171 0.451332
#
# Coordination Sequence:
#
# PCOD9341356 Si02
#       7
#     4   4   4   4   4   4   4
#     4  10  25  47  69 107 137 181 248 299 371 432
#     4  11  23  46  74 102 142 180 242 311 359 431
#     4  11  23  42  63 100 140 187 228 295 346 432
#     4  11  23  39  68 100 135 188 236 285 369 423
#     4  11  22  40  59  97 142 179 236 284 345 439
#     4  11  25  45  73 100 141 190 233 300 369 428
#     4  11  25  41  66  96 139 185 233 284 355 433
#
# _framework density 23.280729999999998
#
# number of rings (size 3 to 8) (size 9 to 14) (size 15 to 20)
#    0.000    1.143    2.857    2.571    4.000    0.000 
#    0.000    0.000    0.000    0.000    0.000    0.000 
#    0.000    0.000    0.000    0.000    0.000    0.000 
#
# Total GULP energy -156173.661197 kJ/mol
# GULP energy per Si atom -5577.630757 kJ/mol
# Density = 2.322774 g / cm^3
# Si number density = 23.280730 Si / 1000 Ang^3
#
#
#
# Elastic Constant Matrix: (Units=GPa)
#
#
# Indices 1 2 3 4 5 6 
#
# 1 151.4523 18.4602 0.7257 0.0000 0.0000 0.0000
# 2 18.4602 48.4268 12.3464 0.0000 0.0000 0.0000
# 3 0.7257 12.3464 56.2783 0.0000 0.0000 0.0000
# 4 0.0000 0.0000 0.0000 50.8955 0.0000 0.0000
# 5 0.0000 0.0000 0.0000 0.0000 29.5801 0.0000
# 6 0.0000 0.0000 0.0000 0.0000 0.0000 24.2326
#
#
#
# Elastic Compliance Matrix: (Units=1/GPa)
#
#
# Indices 1 2 3 4 5 6 
#
# 1 0.006939 -0.002778 0.000520 0.000000 0.000000 0.000000
# 2 -0.002778 0.022985 -0.005007 0.000000 0.000000 0.000000
# 3 0.000520 -0.005007 0.018860 0.000000 0.000000 0.000000
# 4 0.000000 0.000000 0.000000 0.019648 0.000000 0.000000
# 5 0.000000 0.000000 0.000000 0.000000 0.033806 0.000000
# 6 0.000000 0.000000 0.000000 0.000000 0.000000 0.041267
#
#
# Mechanical properties :
#
#
# Convention : Reuss Voigt Hill
#
# Bulk Modulus (GPa) = 29.19237 35.46911 32.33074
# Shear Modulus (GPa) = 29.50674 35.91666 32.71170
#
# Velocity S-wave (km/s) = 3.56396 3.93206 3.75253
# Velocity P-wave (km/s) = 5.43160 5.99027 5.71776
#
# Compressibility (1/GPa) = 0.03425553
#
# Stress axis : x y z
#
# Youngs Moduli (GPa) = 144.11709 43.50671 53.02091
#
# Poissons Ratio (x) = 0.12084 -0.02756
# Poissons Ratio (y) = 0.40030 0.26546
# Poissons Ratio (z) = -0.07492 0.21782
#
# Static dielectric constant tensor:
#      x y z
#    x 1.926100 0.000000 0.000000 
#    y 0.000000 1.865270 0.000000 
#    z 0.000000 0.000000 2.175980 
# 
# From -- ./inp_files/1500.got.cif
#   From: 2010.05.17/outbox.cif.g08.bks.cpg/sg29_1_cif.got.tgz:1500.got - 2010.06.04 01:19:37.
