data_PCOD9341900
_publ_section_title
;
Structure prediction by ZEFSAII (Michael W. Deem and Ramdas Pophale) SiO2 
 PCOD9341900
Probable space group: P N C 2
;
_chemical_formula_sum "Si O2"
_cell_formula_units_Z 32
_cell_length_a 11.350254
_cell_length_b 7.737454
_cell_length_c 14.763140
_cell_angle_alpha 90.000000
_cell_angle_beta 90.000000
_cell_angle_gamma 90.000000
_cell_volume 1296.529488
_symmetry_space_group_name_H-M "P N C 2"
_symmetry_group_IT_number 30
_symmetry_cell_setting 'orthorhombic'
loop_
_space_group_symop_operation_xyz
x,y,z
-x,-y,z
-x,1/2+y,1/2+z
x,1/2-y,1/2+z
loop_
_atom_site_type_symbol
_atom_site_label
_atom_site_fract_x
_atom_site_fract_y
_atom_site_fract_z
Si Si1 0.929102 0.182822 0.235640
Si Si2 0.688404 0.934302 0.530154
Si Si3 0.779417 0.361213 0.382679
Si Si4 0.837954 0.770436 0.661601
Si Si5 0.532213 0.299311 0.301557
Si Si6 0.235062 0.930646 0.079284
Si Si7 0.463493 0.757851 0.086151
Si Si8 0.279788 0.268500 0.852681
O O1 0.882941 0.282123 0.322876
O O2 0.818690 0.155143 0.168978
O O3 0.027435 0.293770 0.184561
O O4 0.000000 0.000000 0.251778
O O5 0.772662 0.931228 0.617770
O O6 0.592037 0.781203 0.546868
O O7 0.753441 0.892831 0.435959
O O8 0.614376 0.107659 0.539529
O O9 0.657790 0.272740 0.348347
O O10 0.806818 0.339823 0.487990
O O11 0.755701 0.568209 0.371437
O O12 0.818834 0.621276 0.587094
O O13 0.774197 0.704439 0.753232
O O14 0.500000 0.500000 0.315280
O O15 0.532190 0.268594 0.194210
O O16 0.420288 0.202504 0.342802
O O17 0.377636 0.922128 0.074872
#
# Coordination Sequence:
#
# PCOD9341900 Si02
#       8
#     4   4   4   4   4   4   4   4
#     4  10  25  45  67  95 140 182 234 300 350 407
#     4  11  22  42  64 103 142 180 227 296 347 433
#     4  11  22  43  72 101 134 190 235 283 365 431
#     4  11  24  45  64  97 137 175 235 298 339 407
#     4  10  18  37  65  96 138 182 229 286 352 439
#     4  11  24  44  70  99 134 180 230 295 352 424
#     4  11  21  40  67  95 144 187 223 281 369 426
#     4  11  23  41  69 103 139 183 234 295 361 434
#
# _framework density 24.681274999999999
#
# number of rings (size 3 to 8) (size 9 to 14) (size 15 to 20)
#    0.000    1.250    5.000    1.500    0.000    4.000 
#    6.750    0.000    0.000    0.000    0.000    0.000 
#    0.000    0.000    0.000    0.000    0.000    0.000 
#
# Total GULP energy -178999.766798 kJ/mol
# GULP energy per Si atom -5593.742712 kJ/mol
# Density = 2.462510 g / cm^3
# Si number density = 24.681275 Si / 1000 Ang^3
#
#
#
# Elastic Constant Matrix: (Units=GPa)
#
#
# Indices 1 2 3 4 5 6 
#
# 1 62.0669 13.1438 3.4930 0.0000 0.0000 0.0000
# 2 13.1438 66.6180 12.5030 0.0000 0.0000 0.0000
# 3 3.4930 12.5030 144.5309 0.0000 0.0000 0.0000
# 4 0.0000 0.0000 0.0000 23.5891 0.0000 0.0000
# 5 0.0000 0.0000 0.0000 0.0000 16.9595 0.0000
# 6 0.0000 0.0000 0.0000 0.0000 0.0000 30.3120
#
#
#
# Elastic Compliance Matrix: (Units=1/GPa)
#
#
# Indices 1 2 3 4 5 6 
#
# 1 0.016816 -0.003295 -0.000121 0.000000 0.000000 0.000000
# 2 -0.003295 0.015904 -0.001296 0.000000 0.000000 0.000000
# 3 -0.000121 -0.001296 0.007034 0.000000 0.000000 0.000000
# 4 0.000000 0.000000 0.000000 0.042392 0.000000 0.000000
# 5 0.000000 0.000000 0.000000 0.000000 0.058964 0.000000
# 6 0.000000 0.000000 0.000000 0.000000 0.000000 0.032990
#
#
# Mechanical properties :
#
#
# Convention : Reuss Voigt Hill
#
# Bulk Modulus (GPa) = 32.97143 36.83285 34.90214
# Shear Modulus (GPa) = 25.82157 30.44384 28.13271
#
# Velocity S-wave (km/s) = 3.23801 3.51590 3.37981
# Velocity P-wave (km/s) = 5.23140 5.60695 5.42243
#
# Compressibility (1/GPa) = 0.03032929
#
# Stress axis : x y z
#
# Youngs Moduli (GPa) = 59.46618 62.87587 142.16659
#
# Poissons Ratio (x) = 0.20718 0.01725
# Poissons Ratio (y) = 0.19595 0.18428
# Poissons Ratio (z) = 0.00722 0.08150
#
# Static dielectric constant tensor:
#      x y z
#    x 1.942570 0.000000 0.000000 
#    y 0.000000 2.110540 0.000000 
#    z 0.000000 0.000000 1.945620 
# 
# From -- ./inp_files/5544.got.cif
#   From: 2010.05.17/outbox.cif.g08.bks.cpg/sg30_3_cif.got.tgz:5544.got - 2010.06.03 17:03:02.
