data_PCOD9341809
_publ_section_title
;
Structure prediction by ZEFSAII (Michael W. Deem and Ramdas Pophale) SiO2 
 PCOD9341809
Probable space group: P N C 2
;
_chemical_formula_sum "Si O2"
_cell_formula_units_Z 20
_cell_length_a 5.519595
_cell_length_b 23.290837
_cell_length_c 6.671794
_cell_angle_alpha 90.000000
_cell_angle_beta 90.000000
_cell_angle_gamma 90.000000
_cell_volume 857.699066
_symmetry_space_group_name_H-M "P N C 2"
_symmetry_group_IT_number 30
_symmetry_cell_setting 'orthorhombic'
loop_
_space_group_symop_operation_xyz
x,y,z
-x,-y,z
-x,1/2+y,1/2+z
x,1/2-y,1/2+z
loop_
_atom_site_type_symbol
_atom_site_label
_atom_site_fract_x
_atom_site_fract_y
_atom_site_fract_z
Si Si1 0.249998 0.466699 0.044580
Si Si2 0.749932 0.160329 0.959708
Si Si3 0.749924 0.207367 0.510781
Si Si4 0.750068 0.614972 0.398250
Si Si5 0.750073 0.660961 0.968739
O O1 0.500000 0.500000 0.006968
O O2 0.249976 0.444824 0.276897
O O3 0.000000 0.500000 0.006952
O O4 0.249987 0.406717 0.924905
O O5 0.749911 0.170447 0.716861
O O6 0.749962 0.224814 0.041707
O O7 0.503316 0.126281 0.006856
O O8 0.996528 0.126271 0.006838
O O9 0.497476 0.190825 0.406651
O O10 0.002345 0.190808 0.406643
O O11 0.750087 0.661502 0.214045
#
# Coordination Sequence:
#
# PCOD9341809 Si02
#       5
#     4   4   4   4   4
#     4  10  16  26  44  62  90 118 140 180 238 260
#     4  10  17  29  43  61  89 123 142 176 216 256
#     4  10  17  29  43  61  89 123 142 176 216 256
#     4   8  17  27  39  61  89 111 140 183 213 258
#     4   8  17  27  39  61  89 111 140 183 213 258
#
# _framework density 23.318203
#
# number of rings (size 3 to 8) (size 9 to 14) (size 15 to 20)
#    1.200    1.600    0.000    3.600    0.000    0.000 
#    0.000    0.000    0.000    0.000    0.000    0.000 
#    0.000   32.000    0.000    0.000    0.000    0.000 
#
# Total GULP energy -111528.302724 kJ/mol
# GULP energy per Si atom -5576.415136 kJ/mol
# Density = 2.326513 g / cm^3
# Si number density = 23.318203 Si / 1000 Ang^3
#
#
#
# Elastic Constant Matrix: (Units=GPa)
#
#
# Indices 1 2 3 4 5 6 
#
# 1 310.3701 97.2375 18.0372 0.0000 0.0000 0.0000
# 2 97.2375 84.6693 -5.2886 0.0000 0.0000 0.0000
# 3 18.0372 -5.2886 57.6122 0.0000 0.0000 0.0000
# 4 0.0000 0.0000 0.0000 -9.6785 0.0000 0.0000
# 5 0.0000 0.0000 0.0000 0.0000 -1.8816 0.0000
# 6 0.0000 0.0000 0.0000 0.0000 0.0000 50.8806
#
#
#
# Elastic Compliance Matrix: (Units=1/GPa)
#
#
# Indices 1 2 3 4 5 6 
#
# 1 0.005304 -0.006230 -0.002232 0.000000 0.000000 0.000000
# 2 -0.006230 0.019198 0.003713 0.000000 0.000000 0.000000
# 3 -0.002232 0.003713 0.018397 0.000000 0.000000 0.000000
# 4 0.000000 0.000000 0.000000 -0.103322 0.000000 0.000000
# 5 0.000000 0.000000 0.000000 0.000000 -0.531471 0.000000
# 6 0.000000 0.000000 0.000000 0.000000 0.000000 0.019654
#
#
# Mechanical properties :
#
#
# Convention : Reuss Voigt Hill
#
# Bulk Modulus (GPa) = 29.94120 74.73600 52.33860
# Shear Modulus (GPa) = -9.06441 30.70848 10.82203
#
# Velocity S-wave (km/s) = -1.97375 3.63289 2.15664
# Velocity P-wave (km/s) = 2.77017 7.05105 5.35683
#
# Compressibility (1/GPa) = 0.03339880
#
# Stress axis : x y z
#
# Youngs Moduli (GPa) = 188.55022 52.08956 54.35622
#
# Poissons Ratio (x) = 0.32453 0.12134
# Poissons Ratio (y) = 1.17473 -0.20182
# Poissons Ratio (z) = 0.42091 -0.19340
#
# Static dielectric constant tensor:
#      x y z
#    x 1.956400 0.000000 0.000000 
#    y 0.000000 1.799440 0.000000 
#    z 0.000000 0.000000 1.979120 
# 
# From -- ./inp_files/3137.got.cif
#   From: 2010.05.17/outbox.cif.g08.bks.cpg/sg30_2_cif.got.tgz:3137.got - 2010.06.03 17:03:02.
