data_PCOD9341872
_publ_section_title
;
Structure prediction by ZEFSAII (Michael W. Deem and Ramdas Pophale) SiO2 
 PCOD9341872
Probable space group: P N C 2
;
_chemical_formula_sum "Si O2"
_cell_formula_units_Z 26
_cell_length_a 13.643424
_cell_length_b 16.021664
_cell_length_c 5.656006
_cell_angle_alpha 90.000000
_cell_angle_beta 90.000000
_cell_angle_gamma 90.000000
_cell_volume 1236.348360
_symmetry_space_group_name_H-M "P N C 2"
_symmetry_group_IT_number 30
_symmetry_cell_setting 'orthorhombic'
loop_
_space_group_symop_operation_xyz
x,y,z
-x,-y,z
-x,1/2+y,1/2+z
x,1/2-y,1/2+z
loop_
_atom_site_type_symbol
_atom_site_label
_atom_site_fract_x
_atom_site_fract_y
_atom_site_fract_z
Si Si1 0.000000 0.000000 0.562561
Si Si2 0.258046 0.119702 0.615295
Si Si3 0.091287 0.264203 0.570624
Si Si4 0.160281 0.061946 0.212985
Si Si5 0.823611 0.052827 0.830314
Si Si6 0.453648 0.200777 0.765694
Si Si7 0.675479 0.199906 0.739247
O O1 0.072841 0.053067 0.402206
O O2 0.932192 0.057959 0.724545
O O3 0.184713 0.200434 0.599813
O O4 0.259306 0.090731 0.341441
O O5 0.360321 0.142407 0.729839
O O6 0.219948 0.035409 0.738657
O O7 0.038770 0.244213 0.324249
O O8 0.128007 0.359533 0.556574
O O9 0.168396 0.970153 0.104945
O O10 0.755416 0.127817 0.761028
O O11 0.446310 0.258920 0.528244
O O12 0.563884 0.165217 0.749110
O O13 0.685650 0.245080 0.482164
#
# Coordination Sequence:
#
# PCOD9341872 Si02
#       7
#     2   4   4   4   4   4   4
#     4  10  24  42  64  96 128 174 220 288 352 388
#     4  10  21  34  65 101 135 171 207 268 334 407
#     4  10  18  33  55  92 127 159 198 242 323 393
#     4  10  21  38  63  93 132 176 212 272 337 405
#     4  11  23  43  69  93 130 175 226 283 343 397
#     4  10  21  39  65  99 141 179 218 265 325 392
#     4  10  25  47  71  95 131 183 232 276 324 394
#
# _framework density 21.029672999999999
#
# number of rings (size 3 to 8) (size 9 to 14) (size 15 to 20)
#    0.000    1.846    1.538    2.308    6.462    0.615 
#    0.000    4.615    0.000    0.000    0.000    0.000 
#    0.000    0.000    0.000    0.000    0.000    0.000 
#
# Total GULP energy -144783.229124 kJ/mol
# GULP energy per Si atom -5568.585736 kJ/mol
# Density = 2.098181 g / cm^3
# Si number density = 21.029673 Si / 1000 Ang^3
#
#
#
# Elastic Constant Matrix: (Units=GPa)
#
#
# Indices 1 2 3 4 5 6 
#
# 1 103.0438 41.0977 19.6910 0.0000 0.0000 0.0000
# 2 41.0977 55.3866 9.5325 0.0000 0.0000 0.0000
# 3 19.6910 9.5325 104.7261 0.0000 0.0000 0.0000
# 4 0.0000 0.0000 0.0000 13.9359 0.0000 0.0000
# 5 0.0000 0.0000 0.0000 0.0000 18.7196 0.0000
# 6 0.0000 0.0000 0.0000 0.0000 0.0000 34.7694
#
#
#
# Elastic Compliance Matrix: (Units=1/GPa)
#
#
# Indices 1 2 3 4 5 6 
#
# 1 0.014084 -0.010154 -0.001724 0.000000 0.000000 0.000000
# 2 -0.010154 0.025662 -0.000427 0.000000 0.000000 0.000000
# 3 -0.001724 -0.000427 0.009912 0.000000 0.000000 0.000000
# 4 0.000000 0.000000 0.000000 0.071757 0.000000 0.000000
# 5 0.000000 0.000000 0.000000 0.000000 0.053420 0.000000
# 6 0.000000 0.000000 0.000000 0.000000 0.000000 0.028761
#
#
# Mechanical properties :
#
#
# Convention : Reuss Voigt Hill
#
# Bulk Modulus (GPa) = 39.92109 44.86654 42.39381
# Shear Modulus (GPa) = 21.13681 26.34067 23.73874
#
# Velocity S-wave (km/s) = 3.17376 3.54297 3.36344
# Velocity P-wave (km/s) = 5.69691 6.17398 5.94024
#
# Compressibility (1/GPa) = 0.02504942
#
# Stress axis : x y z
#
# Youngs Moduli (GPa) = 71.00430 38.96737 100.89095
#
# Poissons Ratio (x) = 0.39566 0.17392
# Poissons Ratio (y) = 0.72095 0.04306
# Poissons Ratio (z) = 0.12240 0.01663
#
# Static dielectric constant tensor:
#      x y z
#    x 1.753680 0.000000 0.000000 
#    y 0.000000 1.749890 0.000000 
#    z 0.000000 0.000000 2.036730 
# 
# From -- ./inp_files/920.got.cif
#   From: 2010.05.17/outbox.cif.g08.bks.cpg/sg30_1_cif.got.tgz:920.got - 2010.06.03 17:03:02.
