data_PCOD9341415
_publ_section_title
;
Structure prediction by ZEFSAII (Michael W. Deem and Ramdas Pophale) SiO2 
 PCOD9341415
Probable space group: P C A 21
;
_chemical_formula_sum "Si O2"
_cell_formula_units_Z 32
_cell_length_a 18.970375
_cell_length_b 7.863644
_cell_length_c 9.364191
_cell_angle_alpha 90.000000
_cell_angle_beta 90.000000
_cell_angle_gamma 90.000000
_cell_volume 1396.915137
_symmetry_space_group_name_H-M "P C A 21"
_symmetry_group_IT_number 29
_symmetry_cell_setting 'orthorhombic'
loop_
_space_group_symop_operation_xyz
x,y,z
-x,-y,1/2+z
1/2-x,y,1/2+z
1/2+x,-y,z
loop_
_atom_site_type_symbol
_atom_site_label
_atom_site_fract_x
_atom_site_fract_y
_atom_site_fract_z
Si Si1 0.579523 0.545127 0.351240
Si Si2 0.641041 0.036200 0.433273
Si Si3 0.634969 0.392154 0.062715
Si Si4 0.420108 0.976300 0.636320
Si Si5 0.068107 0.205100 0.594162
Si Si6 0.796323 0.369010 0.022178
Si Si7 0.494561 0.744370 0.018120
Si Si8 0.408306 0.558763 0.245580
O O1 0.597674 0.500718 0.187613
O O2 0.554546 0.714650 0.435212
O O3 0.654479 0.492311 0.426625
O O4 0.470792 0.669397 0.173005
O O5 0.626440 0.970243 0.273797
O O6 0.698871 0.182957 0.448183
O O7 0.566738 0.128463 0.466915
O O8 0.639227 0.900831 0.561198
O O9 0.620385 0.191586 0.084351
O O10 0.717854 0.425383 0.052558
O O11 0.602786 0.433453 0.911154
O O12 0.500700 0.899152 0.654844
O O13 0.435938 0.140938 0.537361
O O14 0.083223 0.366681 0.691159
O O15 0.838798 0.362656 0.170587
O O16 0.477269 0.592819 0.908403
#
# Coordination Sequence:
#
# PCOD9341415 Si02
#       8
#     4   4   4   4   4   4   4   4
#     4   9  19  41  61  87 124 171 194 266 321 370
#     4   9  18  39  64  85 115 168 198 258 318 354
#     4  12  21  33  65  94 117 166 221 243 318 388
#     4  11  21  34  64  92 118 165 207 255 313 382
#     4   9  21  41  62  86 132 157 204 264 324 376
#     4   9  19  40  63  86 121 161 218 261 300 379
#     4   8  18  37  54  84 124 154 201 246 315 368
#     4   9  21  37  61  90 121 170 201 263 315 373
#
# _framework density 22.907622
#
# number of rings (size 3 to 8) (size 9 to 14) (size 15 to 20)
#    0.000    3.000    2.500    0.750    3.500    1.000 
#    2.250    1.250   11.000    0.000    0.000    0.000 
#    0.000    0.000    0.000    0.000    0.000    0.000 
#
# Total GULP energy -178340.760522 kJ/mol
# GULP energy per Si atom -5573.148766 kJ/mol
# Density = 2.285548 g / cm^3
# Si number density = 22.907622 Si / 1000 Ang^3
#
#
#
# Elastic Constant Matrix: (Units=GPa)
#
#
# Indices 1 2 3 4 5 6 
#
# 1 109.5931 -2.2702 25.1994 0.0000 0.0000 0.0000
# 2 -2.2702 34.0696 -9.6214 0.0000 0.0000 0.0000
# 3 25.1994 -9.6214 141.2238 0.0000 0.0000 0.0000
# 4 0.0000 0.0000 0.0000 14.8084 0.0000 0.0000
# 5 0.0000 0.0000 0.0000 0.0000 10.1634 0.0000
# 6 0.0000 0.0000 0.0000 0.0000 0.0000 28.9032
#
#
#
# Elastic Compliance Matrix: (Units=1/GPa)
#
#
# Indices 1 2 3 4 5 6 
#
# 1 0.009516 0.000158 -0.001687 0.000000 0.000000 0.000000
# 2 0.000158 0.029930 0.002011 0.000000 0.000000 0.000000
# 3 -0.001687 0.002011 0.007519 0.000000 0.000000 0.000000
# 4 0.000000 0.000000 0.000000 0.067529 0.000000 0.000000
# 5 0.000000 0.000000 0.000000 0.000000 0.098392 0.000000
# 6 0.000000 0.000000 0.000000 0.000000 0.000000 0.034598
#
#
# Mechanical properties :
#
#
# Convention : Reuss Voigt Hill
#
# Bulk Modulus (GPa) = 20.86478 34.61136 27.73807
# Shear Modulus (GPa) = 19.04777 28.88025 23.96401
#
# Velocity S-wave (km/s) = 2.88671 3.55452 3.23788
# Velocity P-wave (km/s) = 4.49875 5.65580 5.11013
#
# Compressibility (1/GPa) = 0.04792765
#
# Stress axis : x y z
#
# Youngs Moduli (GPa) = 105.08749 33.41123 132.99593
#
# Poissons Ratio (x) = -0.00527 0.22440
# Poissons Ratio (y) = -0.01656 -0.26745
# Poissons Ratio (z) = 0.17731 -0.06719
#
# Static dielectric constant tensor:
#      x y z
#    x 1.881650 0.000000 0.000000 
#    y 0.000000 2.137360 0.000000 
#    z 0.000000 0.000000 1.981380 
# 
# From -- ./inp_files/2283.got.cif
#   From: 2010.05.17/outbox.cif.g08.bks.cpg/sg29_2_cif.got.tgz:2283.got - 2010.06.04 01:19:37.
