data_PCOD9341160
_publ_section_title
;
Structure prediction by ZEFSAII (Michael W. Deem and Ramdas Pophale) SiO2 
 PCOD9341160
Probable space group: P C A 21
;
_chemical_formula_sum "Si O2"
_cell_formula_units_Z 32
_cell_length_a 17.074302
_cell_length_b 5.625399
_cell_length_c 13.924382
_cell_angle_alpha 90.000000
_cell_angle_beta 90.000000
_cell_angle_gamma 90.000000
_cell_volume 1337.433569
_symmetry_space_group_name_H-M "P C A 21"
_symmetry_group_IT_number 29
_symmetry_cell_setting 'orthorhombic'
loop_
_space_group_symop_operation_xyz
x,y,z
-x,-y,1/2+z
1/2-x,y,1/2+z
1/2+x,-y,z
loop_
_atom_site_type_symbol
_atom_site_label
_atom_site_fract_x
_atom_site_fract_y
_atom_site_fract_z
Si Si1 0.873632 0.542487 0.341130
Si Si2 0.789034 0.043962 0.335070
Si Si3 0.410766 0.022697 0.648293
Si Si4 0.738913 0.270548 0.145475
Si Si5 0.160491 0.724788 0.456531
Si Si6 0.362247 0.413930 0.775899
Si Si7 0.507134 0.659890 0.000297
Si Si8 0.517758 0.641073 0.679022
O O1 0.838227 0.283416 0.362058
O O2 0.950239 0.570942 0.406422
O O3 0.905124 0.560200 0.232640
O O4 0.823315 0.783546 0.356374
O O5 0.710717 0.085298 0.396794
O O6 0.777482 0.085500 0.220590
O O7 0.376884 0.147052 0.742965
O O8 0.428771 0.199436 0.562205
O O9 0.344673 0.840180 0.613110
O O10 0.495178 0.916280 0.676676
O O11 0.792713 0.324913 0.054764
O O12 0.710909 0.488686 0.212831
O O13 0.151699 0.499490 0.383926
O O14 0.071693 0.803003 0.477450
O O15 0.441606 0.536573 0.734967
O O16 0.481559 0.448997 0.070732
#
# Coordination Sequence:
#
# PCOD9341160 Si02
#       8
#     4   4   4   4   4   4   4   4
#     4  12  27  49  75 107 151 200 251 313 381 458
#     4  11  29  48  74 109 152 201 247 313 387 456
#     4  10  23  44  74 103 145 198 241 315 381 450
#     4  10  23  44  69 101 149 187 247 304 380 448
#     4  11  23  47  69 109 142 197 248 312 373 456
#     4   9  21  43  67  98 145 189 240 300 377 437
#     4  11  25  45  73 109 146 195 258 311 377 453
#     4  10  23  44  71 104 144 191 250 312 370 448
#
# _framework density 23.926421000000001
#
# number of rings (size 3 to 8) (size 9 to 14) (size 15 to 20)
#    0.000    1.500    1.250    1.500   15.750    0.000 
#    2.250    0.000    0.000    0.000    0.000    0.000 
#    0.000    0.000    0.000    0.000    0.000    0.000 
#
# Total GULP energy -178844.240817 kJ/mol
# GULP energy per Si atom -5588.882526 kJ/mol
# Density = 2.387196 g / cm^3
# Si number density = 23.926421 Si / 1000 Ang^3
#
#
#
# Elastic Constant Matrix: (Units=GPa)
#
#
# Indices 1 2 3 4 5 6 
#
# 1 99.0038 26.3885 44.1520 0.0000 0.0000 0.0000
# 2 26.3885 75.0452 18.0385 0.0000 0.0000 0.0000
# 3 44.1520 18.0385 137.0846 0.0000 0.0000 0.0000
# 4 0.0000 0.0000 0.0000 17.4127 0.0000 0.0000
# 5 0.0000 0.0000 0.0000 0.0000 52.1139 0.0000
# 6 0.0000 0.0000 0.0000 0.0000 0.0000 23.7975
#
#
#
# Elastic Compliance Matrix: (Units=1/GPa)
#
#
# Indices 1 2 3 4 5 6 
#
# 1 0.012665 -0.003586 -0.003607 0.000000 0.000000 0.000000
# 2 -0.003586 0.014776 -0.000789 0.000000 0.000000 0.000000
# 3 -0.003607 -0.000789 0.008560 0.000000 0.000000 0.000000
# 4 0.000000 0.000000 0.000000 0.057430 0.000000 0.000000
# 5 0.000000 0.000000 0.000000 0.000000 0.019189 0.000000
# 6 0.000000 0.000000 0.000000 0.000000 0.000000 0.042021
#
#
# Mechanical properties :
#
#
# Convention : Reuss Voigt Hill
#
# Bulk Modulus (GPa) = 49.91036 54.25460 52.08248
# Shear Modulus (GPa) = 28.20304 33.50179 30.85242
#
# Velocity S-wave (km/s) = 3.43700 3.74599 3.59482
# Velocity P-wave (km/s) = 6.05441 6.43698 6.24862
#
# Compressibility (1/GPa) = 0.02003592
#
# Stress axis : x y z
#
# Youngs Moduli (GPa) = 78.95602 67.67667 116.81638
#
# Poissons Ratio (x) = 0.24272 0.42139
# Poissons Ratio (y) = 0.28317 0.09219
# Poissons Ratio (z) = 0.28482 0.05341
#
# Static dielectric constant tensor:
#      x y z
#    x 1.958500 0.000000 0.000000 
#    y 0.000000 2.001890 0.000000 
#    z 0.000000 0.000000 1.909650 
# 
# From -- ./inp_files/3846.got.cif
#   From: 2010.05.17/outbox.cif.g08.bks.cpg/sg29_2_cif.got.tgz:3846.got - 2010.06.04 01:19:37.
