data_PCOD9341639
_publ_section_title
;
Structure prediction by ZEFSAII (Michael W. Deem and Ramdas Pophale) SiO2 
 PCOD9341639
Probable space group: P C A 21
;
_chemical_formula_sum "Si O2"
_cell_formula_units_Z 24
_cell_length_a 9.784776
_cell_length_b 8.709264
_cell_length_c 10.863522
_cell_angle_alpha 90.000000
_cell_angle_beta 90.000000
_cell_angle_gamma 90.000000
_cell_volume 925.769762
_symmetry_space_group_name_H-M "P C A 21"
_symmetry_group_IT_number 29
_symmetry_cell_setting 'orthorhombic'
loop_
_space_group_symop_operation_xyz
x,y,z
-x,-y,1/2+z
1/2-x,y,1/2+z
1/2+x,-y,z
loop_
_atom_site_type_symbol
_atom_site_label
_atom_site_fract_x
_atom_site_fract_y
_atom_site_fract_z
Si Si1 0.007917 0.590754 0.309050
Si Si2 0.313667 0.231811 0.456457
Si Si3 0.830668 0.172067 0.193521
Si Si4 0.736998 0.484073 0.636052
Si Si5 0.073254 0.957197 0.113412
Si Si6 0.483479 0.277372 0.914841
O O1 0.947307 0.740542 0.373618
O O2 0.888344 0.552031 0.212502
O O3 0.146028 0.564450 0.233936
O O4 0.016332 0.460717 0.415498
O O5 0.289192 0.382063 0.544914
O O6 0.170759 0.225165 0.382062
O O7 0.340859 0.077445 0.530993
O O8 0.813424 0.313153 0.095671
O O9 0.682335 0.099147 0.213427
O O10 0.903182 0.236576 0.314423
O O11 0.938240 0.045503 0.151499
O O12 0.024805 0.809164 0.037640
#
# Coordination Sequence:
#
# PCOD9341639 Si02
#       6
#     4   4   4   4   4   4
#     4  11  25  46  76 109 147 192 251 322 373 450
#     4  12  26  46  79 107 151 197 259 309 387 458
#     4  11  28  48  73 109 154 198 253 315 385 453
#     4  11  26  46  75 111 147 196 251 315 381 450
#     4  12  27  47  75 110 148 205 250 319 377 465
#     4  11  26  49  72 112 151 198 254 310 387 456
#
# _framework density 25.924374
#
# number of rings (size 3 to 8) (size 9 to 14) (size 15 to 20)
#    0.000    0.667    3.333    3.000    9.333    4.000 
#    0.000    0.000    0.000    0.000    0.000    0.000 
#    0.000    0.000    0.000    0.000    0.000    0.000 
#
# Total GULP energy -134380.112157 kJ/mol
# GULP energy per Si atom -5599.171340 kJ/mol
# Density = 2.586537 g / cm^3
# Si number density = 25.924374 Si / 1000 Ang^3
#
#
#
# Elastic Constant Matrix: (Units=GPa)
#
#
# Indices 1 2 3 4 5 6 
#
# 1 164.0963 45.3041 37.6039 0.0000 0.0000 0.0000
# 2 45.3041 105.5264 30.8383 0.0000 0.0000 0.0000
# 3 37.6039 30.8383 31.9922 0.0000 0.0000 0.0000
# 4 0.0000 0.0000 0.0000 43.2737 0.0000 0.0000
# 5 0.0000 0.0000 0.0000 0.0000 49.2618 0.0000
# 6 0.0000 0.0000 0.0000 0.0000 0.0000 13.9406
#
#
#
# Elastic Compliance Matrix: (Units=1/GPa)
#
#
# Indices 1 2 3 4 5 6 
#
# 1 0.008416 -0.001006 -0.008924 0.000000 0.000000 0.000000
# 2 -0.001006 0.013313 -0.011651 0.000000 0.000000 0.000000
# 3 -0.008924 -0.011651 0.052977 0.000000 0.000000 0.000000
# 4 0.000000 0.000000 0.000000 0.023109 0.000000 0.000000
# 5 0.000000 0.000000 0.000000 0.000000 0.020300 0.000000
# 6 0.000000 0.000000 0.000000 0.000000 0.000000 0.071733
#
#
# Mechanical properties :
#
#
# Convention : Reuss Voigt Hill
#
# Bulk Modulus (GPa) = 31.69910 58.78971 45.24441
# Shear Modulus (GPa) = 20.53204 33.81980 27.17592
#
# Velocity S-wave (km/s) = 2.81730 3.61578 3.24122
# Velocity P-wave (km/s) = 4.77880 6.33707 5.61228
#
# Compressibility (1/GPa) = 0.03154664
#
# Stress axis : x y z
#
# Youngs Moduli (GPa) = 118.81429 75.11636 18.87622
#
# Poissons Ratio (x) = 0.07554 0.16844
# Poissons Ratio (y) = 0.11948 0.21992
# Poissons Ratio (z) = 1.06024 0.87515
#
# Static dielectric constant tensor:
#      x y z
#    x 2.006320 0.000000 0.000000 
#    y 0.000000 2.048880 0.000000 
#    z 0.000000 0.000000 2.041580 
# 
# From -- ./inp_files/2805.got.cif
#   From: 2010.05.17/outbox.cif.g08.bks.cpg/sg29_2_cif.got.tgz:2805.got - 2010.06.04 01:19:37.
