data_PCOD9341859
_publ_section_title
;
Structure prediction by ZEFSAII (Michael W. Deem and Ramdas Pophale) SiO2 
 PCOD9341859
Probable space group: P N C 2
;
_chemical_formula_sum "Si O2"
_cell_formula_units_Z 24
_cell_length_a 5.589394
_cell_length_b 16.273990
_cell_length_c 9.072630
_cell_angle_alpha 90.000000
_cell_angle_beta 90.000000
_cell_angle_gamma 90.000000
_cell_volume 825.262230
_symmetry_space_group_name_H-M "P N C 2"
_symmetry_group_IT_number 30
_symmetry_cell_setting 'orthorhombic'
loop_
_space_group_symop_operation_xyz
x,y,z
-x,-y,z
-x,1/2+y,1/2+z
x,1/2-y,1/2+z
loop_
_atom_site_type_symbol
_atom_site_label
_atom_site_fract_x
_atom_site_fract_y
_atom_site_fract_z
Si Si1 0.033114 0.210866 0.016610
Si Si2 0.981371 0.144986 0.704190
Si Si3 0.403338 0.199887 0.272752
Si Si4 0.699318 0.074565 0.109704
Si Si5 0.251097 0.463716 0.884516
Si Si6 0.510629 0.613947 0.306317
O O1 0.906317 0.293232 0.073387
O O2 0.268309 0.215027 0.117671
O O3 0.931150 0.119300 0.044636
O O4 0.030256 0.208327 0.841205
O O5 0.241418 0.099252 0.716258
O O6 0.743107 0.092337 0.731940
O O7 0.261491 0.135410 0.377800
O O8 0.498926 0.287004 0.326130
O O9 0.624019 0.142289 0.229911
O O10 0.515687 0.078599 0.971281
O O11 0.739910 0.995215 0.211703
O O12 0.500000 0.500000 0.947165
O O13 0.000000 0.500000 0.943115
#
# Coordination Sequence:
#
# PCOD9341859 Si02
#       6
#     4   4   4   4   4   4
#     4  10  18  31  48  70 108 135 178 216 276 326
#     4  10  20  30  48  70 102 142 172 216 272 326
#     4  10  18  32  46  72 105 139 177 219 278 327
#     4  10  18  32  46  72 105 139 177 219 278 327
#     4  10  20  30  48  70 102 142 174 226 276 334
#     4  10  20  30  48  70 102 142 170 218 270 334
#
# _framework density 29.081662000000001
#
# number of rings (size 3 to 8) (size 9 to 14) (size 15 to 20)
#    0.000    2.000    5.000    0.000    0.000    0.000 
#    0.000    0.000    0.000    0.000    0.000    0.000 
#    0.000   65.333    0.000    0.000    0.000    0.000 
#
# Total GULP energy -133990.438191 kJ/mol
# GULP energy per Si atom -5582.934925 kJ/mol
# Density = 2.901547 g / cm^3
# Si number density = 29.081662 Si / 1000 Ang^3
#
#
#
# Elastic Constant Matrix: (Units=GPa)
#
#
# Indices 1 2 3 4 5 6 
#
# 1 190.9085 19.9348 21.9367 0.0000 0.0000 0.0000
# 2 19.9348 187.4202 30.9849 0.0000 0.0000 0.0000
# 3 21.9367 30.9849 112.4271 0.0000 0.0000 0.0000
# 4 0.0000 0.0000 0.0000 29.1827 0.0000 0.0000
# 5 0.0000 0.0000 0.0000 0.0000 42.1987 0.0000
# 6 0.0000 0.0000 0.0000 0.0000 0.0000 22.2492
#
#
#
# Elastic Compliance Matrix: (Units=1/GPa)
#
#
# Indices 1 2 3 4 5 6 
#
# 1 0.005389 -0.000418 -0.000936 0.000000 0.000000 0.000000
# 2 -0.000418 0.005623 -0.001468 0.000000 0.000000 0.000000
# 3 -0.000936 -0.001468 0.009482 0.000000 0.000000 0.000000
# 4 0.000000 0.000000 0.000000 0.034267 0.000000 0.000000
# 5 0.000000 0.000000 0.000000 0.000000 0.023697 0.000000
# 6 0.000000 0.000000 0.000000 0.000000 0.000000 0.044946
#
#
# Mechanical properties :
#
#
# Convention : Reuss Voigt Hill
#
# Bulk Modulus (GPa) = 67.34592 70.71873 69.03233
# Shear Modulus (GPa) = 37.31376 46.58608 41.94992
#
# Velocity S-wave (km/s) = 3.58588 4.00672 3.80213
# Velocity P-wave (km/s) = 6.35236 6.76574 6.56231
#
# Compressibility (1/GPa) = 0.01484871
#
# Stress axis : x y z
#
# Youngs Moduli (GPa) = 185.54977 177.84713 105.46401
#
# Poissons Ratio (x) = 0.07442 0.09874
# Poissons Ratio (y) = 0.07764 0.15482
# Poissons Ratio (z) = 0.17372 0.26108
#
# Static dielectric constant tensor:
#      x y z
#    x 2.626990 0.000000 0.000000 
#    y 0.000000 2.285140 0.000000 
#    z 0.000000 0.000000 2.329250 
# 
# From -- ./inp_files/3200.got.cif
#   From: 2010.05.17/outbox.cif.g08.bks.cpg/sg30_2_cif.got.tgz:3200.got - 2010.06.03 17:03:02.
