data_PCOD9341413
_publ_section_title
;
Structure prediction by ZEFSAII (Michael W. Deem and Ramdas Pophale) SiO2 
 PCOD9341413
Probable space group: P C A 21
;
_chemical_formula_sum "Si O2"
_cell_formula_units_Z 20
_cell_length_a 15.245910
_cell_length_b 13.563641
_cell_length_c 4.962554
_cell_angle_alpha 90.000000
_cell_angle_beta 90.000000
_cell_angle_gamma 90.000000
_cell_volume 1026.206790
_symmetry_space_group_name_H-M "P C A 21"
_symmetry_group_IT_number 29
_symmetry_cell_setting 'orthorhombic'
loop_
_space_group_symop_operation_xyz
x,y,z
-x,-y,1/2+z
1/2-x,y,1/2+z
1/2+x,-y,z
loop_
_atom_site_type_symbol
_atom_site_label
_atom_site_fract_x
_atom_site_fract_y
_atom_site_fract_z
Si Si1 0.501517 0.221087 0.673430
Si Si2 0.615553 0.824963 0.676029
Si Si3 0.058614 0.977831 0.801698
Si Si4 0.199745 0.369919 0.796432
Si Si5 0.979905 0.561677 0.574679
O O1 0.466240 0.198037 0.375337
O O2 0.523607 0.336206 0.675569
O O3 0.572504 0.138198 0.753495
O O4 0.420307 0.202026 0.880320
O O5 0.630828 0.941257 0.718896
O O6 0.688663 0.748761 0.772304
O O7 0.976538 0.003962 0.602461
O O8 0.222168 0.400161 0.494517
O O9 0.111191 0.409397 0.928920
O O10 0.031378 0.506193 0.336630
#
# Coordination Sequence:
#
# PCOD9341413 Si02
#       5
#     4   4   4   4   4
#     4   9  16  28  45  69  98 125 158 204 251 292
#     4   9  16  28  45  69  97 125 154 194 246 307
#     4   8  14  24  42  66  94 121 146 181 234 293
#     4  11  21  34  51  74 102 134 168 211 268 327
#     4  11  21  34  51  74 103 135 176 226 265 297
#
# _framework density 19.489248
#
# number of rings (size 3 to 8) (size 9 to 14) (size 15 to 20)
#    0.000    2.400    0.000    6.000    0.000    0.000 
#    0.000    0.000    0.000    0.000    0.000    8.400 
#    0.000    0.000    0.000    0.000    0.000    0.000 
#
# Total GULP energy -111341.096263 kJ/mol
# GULP energy per Si atom -5567.054813 kJ/mol
# Density = 1.944489 g / cm^3
# Si number density = 19.489248 Si / 1000 Ang^3
#
#
#
# Elastic Constant Matrix: (Units=GPa)
#
#
# Indices 1 2 3 4 5 6 
#
# 1 27.2362 22.1373 12.2553 0.0000 0.0000 0.0000
# 2 22.1373 136.9778 34.2700 0.0000 0.0000 0.0000
# 3 12.2553 34.2700 104.2403 0.0000 0.0000 0.0000
# 4 0.0000 0.0000 0.0000 33.3056 0.0000 0.0000
# 5 0.0000 0.0000 0.0000 0.0000 22.2541 0.0000
# 6 0.0000 0.0000 0.0000 0.0000 0.0000 19.1295
#
#
#
# Elastic Compliance Matrix: (Units=1/GPa)
#
#
# Indices 1 2 3 4 5 6 
#
# 1 0.043128 -0.006212 -0.003028 0.000000 0.000000 0.000000
# 2 -0.006212 0.008850 -0.002179 0.000000 0.000000 0.000000
# 3 -0.003028 -0.002179 0.010666 0.000000 0.000000 0.000000
# 4 0.000000 0.000000 0.000000 0.030025 0.000000 0.000000
# 5 0.000000 0.000000 0.000000 0.000000 0.044935 0.000000
# 6 0.000000 0.000000 0.000000 0.000000 0.000000 0.052275
#
#
# Mechanical properties :
#
#
# Convention : Reuss Voigt Hill
#
# Bulk Modulus (GPa) = 25.12312 45.08662 35.10487
# Shear Modulus (GPa) = 22.12529 28.25728 25.19128
#
# Velocity S-wave (km/s) = 3.37301 3.81187 3.59914
# Velocity P-wave (km/s) = 5.29984 6.52366 5.94334
#
# Compressibility (1/GPa) = 0.03980397
#
# Stress axis : x y z
#
# Youngs Moduli (GPa) = 23.18695 112.99930 93.75938
#
# Poissons Ratio (x) = 0.70200 0.28391
# Poissons Ratio (y) = 0.14405 0.20430
# Poissons Ratio (z) = 0.07021 0.24623
#
# Static dielectric constant tensor:
#      x y z
#    x 1.700820 0.000000 0.000000 
#    y 0.000000 1.796130 0.000000 
#    z 0.000000 0.000000 1.680100 
# 
# From -- ./inp_files/85.got.cif
#   From: 2010.05.17/outbox.cif.g08.bks.cpg/sg29_1_cif.got.tgz:85.got - 2010.06.04 01:19:37.
