data_PCOD9341368
_publ_section_title
;
Structure prediction by ZEFSAII (Michael W. Deem and Ramdas Pophale) SiO2 
 PCOD9341368
Probable space group: P C A 21
;
_chemical_formula_sum "Si O2"
_cell_formula_units_Z 12
_cell_length_a 10.103347
_cell_length_b 4.916473
_cell_length_c 9.790732
_cell_angle_alpha 90.000000
_cell_angle_beta 90.000000
_cell_angle_gamma 90.000000
_cell_volume 486.333393
_symmetry_space_group_name_H-M "P C A 21"
_symmetry_group_IT_number 29
_symmetry_cell_setting 'orthorhombic'
loop_
_space_group_symop_operation_xyz
x,y,z
-x,-y,1/2+z
1/2-x,y,1/2+z
1/2+x,-y,z
loop_
_atom_site_type_symbol
_atom_site_label
_atom_site_fract_x
_atom_site_fract_y
_atom_site_fract_z
Si Si1 0.785030 0.719986 0.437070
Si Si2 0.129170 0.556409 0.666682
Si Si3 0.972438 0.922221 0.024894
O O1 0.835399 0.522077 0.319282
O O2 0.747699 0.548181 0.570657
O O3 0.896769 0.941781 0.467404
O O4 0.641210 0.861918 0.410406
O O5 0.093549 0.861938 0.629690
O O6 0.014563 0.355969 0.609204
#
# Coordination Sequence:
#
# PCOD9341368 Si02
#       3
#     4   4   4
#     4  10  26  44  71 101 139 183 229 292 349 413
#     4  10  26  40  73  96 143 173 236 281 351 418
#     4  10  26  42  70 101 136 182 231 281 354 411
#
# _framework density 24.674430999999998
#
# number of rings (size 3 to 8) (size 9 to 14) (size 15 to 20)
#    2.000    0.000    0.000    0.000   14.000    2.667 
#    0.000    0.000    0.000    0.000    0.000    0.000 
#    0.000    0.000    0.000    0.000    0.000    0.000 
#
# Total GULP energy -67072.088263 kJ/mol
# GULP energy per Si atom -5589.340689 kJ/mol
# Density = 2.461827 g / cm^3
# Si number density = 24.674431 Si / 1000 Ang^3
#
#
#
# Elastic Constant Matrix: (Units=GPa)
#
#
# Indices 1 2 3 4 5 6 
#
# 1 101.3152 9.5661 0.2163 0.0000 0.0000 0.0000
# 2 9.5661 87.2733 -0.2278 0.0000 0.0000 0.0000
# 3 0.2163 -0.2278 77.4310 0.0000 0.0000 0.0000
# 4 0.0000 0.0000 0.0000 33.9175 0.0000 0.0000
# 5 0.0000 0.0000 0.0000 0.0000 16.4627 0.0000
# 6 0.0000 0.0000 0.0000 0.0000 0.0000 38.1360
#
#
#
# Elastic Compliance Matrix: (Units=1/GPa)
#
#
# Indices 1 2 3 4 5 6 
#
# 1 0.009973 -0.001093 -0.000031 0.000000 0.000000 0.000000
# 2 -0.001093 0.011578 0.000037 0.000000 0.000000 0.000000
# 3 -0.000031 0.000037 0.012915 0.000000 0.000000 0.000000
# 4 0.000000 0.000000 0.000000 0.029483 0.000000 0.000000
# 5 0.000000 0.000000 0.000000 0.000000 0.060743 0.000000
# 6 0.000000 0.000000 0.000000 0.000000 0.000000 0.026222
#
#
# Mechanical properties :
#
#
# Convention : Reuss Voigt Hill
#
# Bulk Modulus (GPa) = 30.96731 31.68095 31.32413
# Shear Modulus (GPa) = 30.51502 34.80091 32.65796
#
# Velocity S-wave (km/s) = 3.52050 3.75961 3.64202
# Velocity P-wave (km/s) = 5.39470 5.63149 5.51437
#
# Compressibility (1/GPa) = 0.03229212
#
# Stress axis : x y z
#
# Youngs Moduli (GPa) = 100.26588 86.36928 77.42984
#
# Poissons Ratio (x) = 0.09443 0.00241
# Poissons Ratio (y) = 0.10962 -0.00287
# Poissons Ratio (z) = 0.00312 -0.00321
#
# Static dielectric constant tensor:
#      x y z
#    x 2.009670 0.000000 0.000000 
#    y 0.000000 1.950280 0.000000 
#    z 0.000000 0.000000 1.923970 
# 
# From -- ./inp_files/1287.got.cif
#   From: 2010.05.17/outbox.cif.g08.bks.cpg/sg29_1_cif.got.tgz:1287.got - 2010.06.04 01:19:37.
