data_PCOD9341051
_publ_section_title
;
Structure prediction by ZEFSAII (Michael W. Deem and Ramdas Pophale) SiO2 
 PCOD9341051
Probable space group: P C A 21
;
_chemical_formula_sum "Si O2"
_cell_formula_units_Z 28
_cell_length_a 25.317004
_cell_length_b 5.209057
_cell_length_c 8.334069
_cell_angle_alpha 90.000000
_cell_angle_beta 90.000000
_cell_angle_gamma 90.000000
_cell_volume 1099.077992
_symmetry_space_group_name_H-M "P C A 21"
_symmetry_group_IT_number 29
_symmetry_cell_setting 'orthorhombic'
loop_
_space_group_symop_operation_xyz
x,y,z
-x,-y,1/2+z
1/2-x,y,1/2+z
1/2+x,-y,z
loop_
_atom_site_type_symbol
_atom_site_label
_atom_site_fract_x
_atom_site_fract_y
_atom_site_fract_z
Si Si1 0.770647 0.449118 0.034830
Si Si2 0.960959 0.489235 0.930089
Si Si3 0.437628 0.790136 0.413678
Si Si4 0.668572 0.497752 0.872287
Si Si5 0.324697 0.045422 0.916157
Si Si6 0.076357 0.012859 0.248083
Si Si7 0.593080 0.830158 0.686071
O O1 0.795828 0.449504 0.212455
O O2 0.708896 0.510172 0.019024
O O3 0.783171 0.176101 0.953657
O O4 0.799546 0.675245 0.935494
O O5 0.945992 0.211004 0.865677
O O6 0.938442 0.703850 0.807006
O O7 0.022957 0.550941 0.931403
O O8 0.933928 0.586935 0.096466
O O9 0.377098 0.706646 0.400687
O O10 0.444408 0.953752 0.573238
O O11 0.447763 0.969139 0.259703
O O12 0.632910 0.740688 0.825094
O O13 0.359673 0.998639 0.759333
O O14 0.369063 0.037821 0.056001
#
# Coordination Sequence:
#
# PCOD9341051 Si02
#       7
#     4   4   4   4   4   4   4
#     4  11  25  45  71 101 137 195 234 310 358 435
#     4  11  27  47  75 105 156 196 238 297 387 435
#     4  12  27  43  76 109 150 188 254 305 359 450
#     4  11  27  45  72 105 146 188 253 298 373 430
#     4  10  22  46  71  97 144 185 242 290 379 417
#     4  11  26  46  72 112 142 195 247 308 358 455
#     4  10  24  48  71 105 145 195 238 306 362 452
#
# _framework density 25.475899999999999
#
# number of rings (size 3 to 8) (size 9 to 14) (size 15 to 20)
#    0.000    1.143    1.429    3.429   12.000    1.143 
#    0.000    0.000    0.000    0.000    0.000    0.000 
#    0.000    0.000    0.000    0.000    0.000    0.000 
#
# Total GULP energy -156874.215918 kJ/mol
# GULP energy per Si atom -5602.650569 kJ/mol
# Density = 2.541792 g / cm^3
# Si number density = 25.475900 Si / 1000 Ang^3
#
#
#
# Elastic Constant Matrix: (Units=GPa)
#
#
# Indices 1 2 3 4 5 6 
#
# 1 135.4135 23.5156 37.1761 0.0000 0.0000 0.0000
# 2 23.5156 79.1551 21.7495 0.0000 0.0000 0.0000
# 3 37.1761 21.7495 55.1036 0.0000 0.0000 0.0000
# 4 0.0000 0.0000 0.0000 28.8826 0.0000 0.0000
# 5 0.0000 0.0000 0.0000 0.0000 39.1356 0.0000
# 6 0.0000 0.0000 0.0000 0.0000 0.0000 41.7575
#
#
#
# Elastic Compliance Matrix: (Units=1/GPa)
#
#
# Indices 1 2 3 4 5 6 
#
# 1 0.009155 -0.001147 -0.005724 0.000000 0.000000 0.000000
# 2 -0.001147 0.014314 -0.004876 0.000000 0.000000 0.000000
# 3 -0.005724 -0.004876 0.023934 0.000000 0.000000 0.000000
# 4 0.000000 0.000000 0.000000 0.034623 0.000000 0.000000
# 5 0.000000 0.000000 0.000000 0.000000 0.025552 0.000000
# 6 0.000000 0.000000 0.000000 0.000000 0.000000 0.023948
#
#
# Mechanical properties :
#
#
# Convention : Reuss Voigt Hill
#
# Bulk Modulus (GPa) = 41.82465 48.28383 45.05424
# Shear Modulus (GPa) = 30.67672 34.43718 32.55695
#
# Velocity S-wave (km/s) = 3.47385 3.68061 3.57872
# Velocity P-wave (km/s) = 5.70466 6.08740 5.89913
#
# Compressibility (1/GPa) = 0.02390935
#
# Stress axis : x y z
#
# Youngs Moduli (GPa) = 109.22450 69.86187 41.78175
#
# Poissons Ratio (x) = 0.08014 0.23916
# Poissons Ratio (y) = 0.12530 0.20372
# Poissons Ratio (z) = 0.62520 0.34063
#
# Static dielectric constant tensor:
#      x y z
#    x 2.002630 0.000000 0.000000 
#    y 0.000000 1.974320 0.000000 
#    z 0.000000 0.000000 2.038320 
# 
# From -- ./inp_files/2531.got.cif
#   From: 2010.05.17/outbox.cif.g08.bks.cpg/sg29_2_cif.got.tgz:2531.got - 2010.06.04 01:19:37.
