data_PCOD9341462
_publ_section_title
;
Structure prediction by ZEFSAII (Michael W. Deem and Ramdas Pophale) SiO2 
 PCOD9341462
Probable space group: P C A 21
;
_chemical_formula_sum "Si O2"
_cell_formula_units_Z 28
_cell_length_a 4.979198
_cell_length_b 17.632607
_cell_length_c 13.187787
_cell_angle_alpha 90.000000
_cell_angle_beta 90.000000
_cell_angle_gamma 90.000000
_cell_volume 1157.838132
_symmetry_space_group_name_H-M "P C A 21"
_symmetry_group_IT_number 29
_symmetry_cell_setting 'orthorhombic'
loop_
_space_group_symop_operation_xyz
x,y,z
-x,-y,1/2+z
1/2-x,y,1/2+z
1/2+x,-y,z
loop_
_atom_site_type_symbol
_atom_site_label
_atom_site_fract_x
_atom_site_fract_y
_atom_site_fract_z
Si Si1 0.921137 0.367694 0.439410
Si Si2 0.180502 0.329619 0.235433
Si Si3 0.123017 0.156400 0.297079
Si Si4 0.881002 0.046723 0.133739
Si Si5 0.448343 0.549388 0.642050
Si Si6 0.075362 0.290000 0.014628
Si Si7 0.102162 0.869402 0.431119
O O1 0.029022 0.372906 0.325976
O O2 0.961410 0.434318 0.520802
O O3 0.113657 0.303276 0.489303
O O4 0.613035 0.342204 0.444276
O O5 0.215691 0.242717 0.273433
O O6 0.442314 0.377472 0.202440
O O7 0.024542 0.317351 0.129121
O O8 0.379288 0.115472 0.345861
O O9 0.883293 0.150590 0.378732
O O10 0.998882 0.116006 0.198718
O O11 0.886419 0.065782 0.014775
O O12 0.578212 0.023185 0.157072
O O13 0.157482 0.517509 0.665394
O O14 0.996043 0.204973 0.991630
#
# Coordination Sequence:
#
# PCOD9341462 Si02
#       7
#     4   4   4   4   4   4   4
#     4  11  24  42  69 100 139 179 236 293 357 413
#     4  11  24  44  75 103 137 188 242 300 356 423
#     4  12  26  44  74 108 139 184 247 301 356 423
#     4  12  28  49  71 103 147 196 237 293 366 442
#     4  11  26  46  66 100 144 187 230 288 356 438
#     4  11  22  41  66 105 135 172 233 298 351 413
#     4  12  24  44  71 103 143 180 237 297 364 416
#
# _framework density 24.183001000000001
#
# number of rings (size 3 to 8) (size 9 to 14) (size 15 to 20)
#    0.000    0.571    4.286    3.429    0.000   11.429 
#    0.000    0.000    0.000    0.000    0.000    0.000 
#    0.000    0.000    0.000    0.000    0.000    0.000 
#
# Total GULP energy -156740.252521 kJ/mol
# GULP energy per Si atom -5597.866161 kJ/mol
# Density = 2.412796 g / cm^3
# Si number density = 24.183001 Si / 1000 Ang^3
#
#
#
# Elastic Constant Matrix: (Units=GPa)
#
#
# Indices 1 2 3 4 5 6 
#
# 1 68.3768 10.3211 22.0797 0.0000 0.0000 0.0000
# 2 10.3211 72.0436 35.4042 0.0000 0.0000 0.0000
# 3 22.0797 35.4042 142.1089 0.0000 0.0000 0.0000
# 4 0.0000 0.0000 0.0000 46.5390 0.0000 0.0000
# 5 0.0000 0.0000 0.0000 0.0000 37.1720 0.0000
# 6 0.0000 0.0000 0.0000 0.0000 0.0000 28.1327
#
#
#
# Elastic Compliance Matrix: (Units=1/GPa)
#
#
# Indices 1 2 3 4 5 6 
#
# 1 0.015485 -0.001181 -0.002112 0.000000 0.000000 0.000000
# 2 -0.001181 0.015907 -0.003780 0.000000 0.000000 0.000000
# 3 -0.002112 -0.003780 0.008307 0.000000 0.000000 0.000000
# 4 0.000000 0.000000 0.000000 0.021487 0.000000 0.000000
# 5 0.000000 0.000000 0.000000 0.000000 0.026902 0.000000
# 6 0.000000 0.000000 0.000000 0.000000 0.000000 0.035546
#
#
# Mechanical properties :
#
#
# Convention : Reuss Voigt Hill
#
# Bulk Modulus (GPa) = 39.13182 46.45992 42.79587
# Shear Modulus (GPa) = 34.17732 36.68369 35.43051
#
# Velocity S-wave (km/s) = 3.76344 3.89899 3.83181
# Velocity P-wave (km/s) = 5.92463 6.28673 6.10837
#
# Compressibility (1/GPa) = 0.02555465
#
# Stress axis : x y z
#
# Youngs Moduli (GPa) = 64.57874 62.86541 120.38642
#
# Poissons Ratio (x) = 0.07422 0.25423
# Poissons Ratio (y) = 0.07624 0.45501
# Poissons Ratio (z) = 0.13638 0.23760
#
# Static dielectric constant tensor:
#      x y z
#    x 1.864130 0.000000 0.000000 
#    y 0.000000 1.921390 0.000000 
#    z 0.000000 0.000000 1.928220 
# 
# From -- ./inp_files/4088.got.cif
#   From: 2010.05.17/outbox.cif.g08.bks.cpg/sg29_3_cif.got.tgz:4088.got - 2010.06.04 01:19:37.
