data_PCOD9341342
_publ_section_title
;
Structure prediction by ZEFSAII (Michael W. Deem and Ramdas Pophale) SiO2 
 PCOD9341342
Probable space group: P C A 21
;
_chemical_formula_sum "Si O2"
_cell_formula_units_Z 28
_cell_length_a 9.712458
_cell_length_b 12.004926
_cell_length_c 11.187021
_cell_angle_alpha 90.000000
_cell_angle_beta 90.000000
_cell_angle_gamma 90.000000
_cell_volume 1304.376886
_symmetry_space_group_name_H-M "P C A 21"
_symmetry_group_IT_number 29
_symmetry_cell_setting 'orthorhombic'
loop_
_space_group_symop_operation_xyz
x,y,z
-x,-y,1/2+z
1/2-x,y,1/2+z
1/2+x,-y,z
loop_
_atom_site_type_symbol
_atom_site_label
_atom_site_fract_x
_atom_site_fract_y
_atom_site_fract_z
Si Si1 0.983344 0.697145 0.126230
Si Si2 0.079262 0.498173 0.807856
Si Si3 0.622756 0.104131 0.560409
Si Si4 0.304697 0.650895 0.117339
Si Si5 0.831800 0.902834 0.208675
Si Si6 0.828808 0.939765 0.475630
Si Si7 0.171315 0.443421 0.449968
O O1 0.142694 0.674133 0.100609
O O2 0.935205 0.607123 0.222873
O O3 0.955125 0.818604 0.178612
O O4 0.885947 0.665913 0.014732
O O5 0.162430 0.599800 0.747352
O O6 0.169118 0.452131 0.917851
O O7 0.927321 0.540827 0.836831
O O8 0.621700 0.233473 0.588430
O O9 0.492707 0.065158 0.482947
O O10 0.622614 0.029679 0.681211
O O11 0.759778 0.061609 0.491629
O O12 0.354174 0.552446 0.030790
O O13 0.785799 0.892185 0.345955
O O14 0.723715 0.882038 0.099626
#
# Coordination Sequence:
#
# PCOD9341342 Si02
#       7
#     4   4   4   4   4   4   4
#     4  11  24  43  70 101 141 181 239 293 363 431
#     4  11  24  42  70 100 139 180 235 292 360 427
#     4  10  25  44  73 100 146 181 244 290 362 430
#     4  11  24  44  70 103 134 190 235 289 365 430
#     4  10  26  45  72 105 146 185 241 295 362 426
#     4  10  25  45  70 108 139 193 232 300 358 430
#     4  11  24  43  67 103 137 182 232 297 356 434
#
# _framework density 21.466187000000001
#
# number of rings (size 3 to 8) (size 9 to 14) (size 15 to 20)
#    0.857    0.571    2.857    0.857    6.000    2.286 
#    2.571    0.000    0.000    0.000    0.000    0.000 
#    0.000    0.000    0.000    0.000    0.000    0.000 
#
# Total GULP energy -156086.582287 kJ/mol
# GULP energy per Si atom -5574.520796 kJ/mol
# Density = 2.141733 g / cm^3
# Si number density = 21.466187 Si / 1000 Ang^3
#
#
#
# Elastic Constant Matrix: (Units=GPa)
#
#
# Indices 1 2 3 4 5 6 
#
# 1 59.8605 22.6363 10.9150 0.0000 0.0000 0.0000
# 2 22.6363 60.8230 15.6644 0.0000 0.0000 0.0000
# 3 10.9150 15.6644 85.9931 0.0000 0.0000 0.0000
# 4 0.0000 0.0000 0.0000 15.9425 0.0000 0.0000
# 5 0.0000 0.0000 0.0000 0.0000 32.0217 0.0000
# 6 0.0000 0.0000 0.0000 0.0000 0.0000 27.6626
#
#
#
# Elastic Compliance Matrix: (Units=1/GPa)
#
#
# Indices 1 2 3 4 5 6 
#
# 1 0.019562 -0.006968 -0.001214 0.000000 0.000000 0.000000
# 2 -0.006968 0.019732 -0.002710 0.000000 0.000000 0.000000
# 3 -0.001214 -0.002710 0.012277 0.000000 0.000000 0.000000
# 4 0.000000 0.000000 0.000000 0.062726 0.000000 0.000000
# 5 0.000000 0.000000 0.000000 0.000000 0.031229 0.000000
# 6 0.000000 0.000000 0.000000 0.000000 0.000000 0.036150
#
#
# Mechanical properties :
#
#
# Convention : Reuss Voigt Hill
#
# Bulk Modulus (GPa) = 33.57089 33.90088 33.73589
# Shear Modulus (GPa) = 23.43166 25.62275 24.52721
#
# Velocity S-wave (km/s) = 3.30746 3.45865 3.38390
# Velocity P-wave (km/s) = 5.50079 5.63708 5.56935
#
# Compressibility (1/GPa) = 0.02978771
#
# Stress axis : x y z
#
# Youngs Moduli (GPa) = 51.12049 50.67862 81.45611
#
# Poissons Ratio (x) = 0.35311 0.09887
# Poissons Ratio (y) = 0.35619 0.22075
# Poissons Ratio (z) = 0.06205 0.13734
#
# Static dielectric constant tensor:
#      x y z
#    x 1.776510 0.000000 0.000000 
#    y 0.000000 1.738690 0.000000 
#    z 0.000000 0.000000 1.840230 
# 
# From -- ./inp_files/2892.got.cif
#   From: 2010.05.17/outbox.cif.g08.bks.cpg/sg29_2_cif.got.tgz:2892.got - 2010.06.04 01:19:37.
