data_PCOD9341451
_publ_section_title
;
Structure prediction by ZEFSAII (Michael W. Deem and Ramdas Pophale) SiO2 
 PCOD9341451
Probable space group: P C A 21
;
_chemical_formula_sum "Si O2"
_cell_formula_units_Z 32
_cell_length_a 10.442740
_cell_length_b 6.624942
_cell_length_c 21.612874
_cell_angle_alpha 90.000000
_cell_angle_beta 90.000000
_cell_angle_gamma 90.000000
_cell_volume 1495.233667
_symmetry_space_group_name_H-M "P C A 21"
_symmetry_group_IT_number 29
_symmetry_cell_setting 'orthorhombic'
loop_
_space_group_symop_operation_xyz
x,y,z
-x,-y,1/2+z
1/2-x,y,1/2+z
1/2+x,-y,z
loop_
_atom_site_type_symbol
_atom_site_label
_atom_site_fract_x
_atom_site_fract_y
_atom_site_fract_z
Si Si1 0.394730 0.295670 0.853930
Si Si2 0.103694 0.694595 0.021958
Si Si3 0.003653 0.552874 0.633068
Si Si4 0.333260 0.887462 0.071932
Si Si5 0.364346 0.156817 0.716191
Si Si6 0.913330 0.853358 0.178098
Si Si7 0.034563 0.959956 0.445012
Si Si8 0.127473 0.431128 0.908002
O O1 0.400797 0.252566 0.781501
O O2 0.259099 0.399954 0.870784
O O3 0.516091 0.432836 0.875653
O O4 0.396779 0.077003 0.888902
O O5 0.185364 0.839140 0.066759
O O6 0.029891 0.549982 0.068336
O O7 0.166470 0.541099 0.972438
O O8 0.032387 0.853660 0.979372
O O9 0.109090 0.716532 0.615795
O O10 0.053852 0.381780 0.678920
O O11 0.886537 0.674465 0.663163
O O12 0.375725 0.088124 0.107115
O O13 0.378881 0.874256 0.000879
O O14 0.215689 0.095233 0.715462
O O15 0.463972 0.978612 0.700581
O O16 0.938918 0.784987 0.422725
#
# Coordination Sequence:
#
# PCOD9341451 Si02
#       8
#     4   4   4   4   4   4   4   4
#     4  11  28  47  70 100 135 190 238 286 348 413
#     4  11  22  38  67 104 138 176 218 276 351 414
#     4  11  23  41  68 104 138 179 223 283 350 409
#     4  11  22  38  67 104 138 176 218 276 351 414
#     4  11  28  47  70 100 135 190 238 286 348 413
#     4  11  25  47  70 104 141 179 233 290 347 418
#     4  11  23  41  68 104 138 179 223 283 350 409
#     4  11  25  47  70 104 141 179 233 290 347 418
#
# _framework density 21.401339
#
# number of rings (size 3 to 8) (size 9 to 14) (size 15 to 20)
#    0.000    1.000    2.500    3.000    7.000    4.000 
#    0.000    0.000    0.000    0.000    0.000    0.000 
#    0.000    0.000    0.000    0.000    0.000    0.000 
#
# Total GULP energy -178652.920727 kJ/mol
# GULP energy per Si atom -5582.903773 kJ/mol
# Density = 2.135263 g / cm^3
# Si number density = 21.401339 Si / 1000 Ang^3
#
#
#
# Elastic Constant Matrix: (Units=GPa)
#
#
# Indices 1 2 3 4 5 6 
#
# 1 76.5765 28.7272 10.0302 0.0000 0.0000 0.0000
# 2 28.7272 91.6029 29.4063 0.0000 0.0000 0.0000
# 3 10.0302 29.4063 71.6130 0.0000 0.0000 0.0000
# 4 0.0000 0.0000 0.0000 60.6641 0.0000 0.0000
# 5 0.0000 0.0000 0.0000 0.0000 10.0775 0.0000
# 6 0.0000 0.0000 0.0000 0.0000 0.0000 -38.6815
#
#
#
# Elastic Compliance Matrix: (Units=1/GPa)
#
#
# Indices 1 2 3 4 5 6 
#
# 1 0.014802 -0.004580 -0.000192 0.000000 0.000000 0.000000
# 2 -0.004580 0.013992 -0.005104 0.000000 0.000000 0.000000
# 3 -0.000192 -0.005104 0.016087 0.000000 0.000000 0.000000
# 4 0.000000 0.000000 0.000000 0.016484 0.000000 0.000000
# 5 0.000000 0.000000 0.000000 0.000000 0.099231 0.000000
# 6 0.000000 0.000000 0.000000 0.000000 0.000000 -0.025852
#
#
# Mechanical properties :
#
#
# Convention : Reuss Voigt Hill
#
# Bulk Modulus (GPa) = 39.79714 41.79109 40.79411
# Shear Modulus (GPa) = 30.69880 17.85392 24.27636
#
# Velocity S-wave (km/s) = 3.79150 2.89146 3.37165
# Velocity P-wave (km/s) = 6.14844 5.54230 5.85322
#
# Compressibility (1/GPa) = 0.02512744
#
# Stress axis : x y z
#
# Youngs Moduli (GPa) = 67.55693 71.47194 62.16339
#
# Poissons Ratio (x) = 0.32736 0.01196
# Poissons Ratio (y) = 0.30943 0.31727
# Poissons Ratio (z) = 0.01300 0.36478
#
# Static dielectric constant tensor:
#      x y z
#    x 1.807230 0.000000 0.000000 
#    y 0.000000 1.757270 0.000000 
#    z 0.000000 0.000000 1.808440 
# 
# From -- ./inp_files/5516.got.cif
#   From: 2010.05.17/outbox.cif.g08.bks.cpg/sg29_3_cif.got.tgz:5516.got - 2010.06.04 01:19:37.
