data_PCOD9341769
_publ_section_title
;
Structure prediction by ZEFSAII (Michael W. Deem and Ramdas Pophale) SiO2 
 PCOD9341769
Probable space group: P C A 21
;
_chemical_formula_sum "Si O2"
_cell_formula_units_Z 20
_cell_length_a 16.060329
_cell_length_b 5.150072
_cell_length_c 8.155036
_cell_angle_alpha 90.000000
_cell_angle_beta 90.000000
_cell_angle_gamma 90.000000
_cell_volume 674.518120
_symmetry_space_group_name_H-M "P C A 21"
_symmetry_group_IT_number 29
_symmetry_cell_setting 'orthorhombic'
loop_
_space_group_symop_operation_xyz
x,y,z
-x,-y,1/2+z
1/2-x,y,1/2+z
1/2+x,-y,z
loop_
_atom_site_type_symbol
_atom_site_label
_atom_site_fract_x
_atom_site_fract_y
_atom_site_fract_z
Si Si1 0.418814 0.478276 0.273110
Si Si2 0.997615 0.190773 0.564202
Si Si3 0.847039 0.839239 0.536730
Si Si4 0.269246 0.669995 0.695680
Si Si5 0.116942 0.738824 0.504735
O O1 0.443285 0.688466 0.411906
O O2 0.356480 0.260990 0.351092
O O3 0.506503 0.297807 0.257516
O O4 0.438209 0.496302 0.066251
O O5 0.937294 0.925538 0.596180
O O6 0.081033 0.020569 0.519213
O O7 0.805194 0.593432 0.623493
O O8 0.791727 0.083613 0.585189
O O9 0.167835 0.672330 0.687507
O O10 0.315631 0.695683 0.867429
#
# Coordination Sequence:
#
# PCOD9341769 Si02
#       5
#     4   4   4   4   4
#     4  12  29  51  86 132 168 230 295 368 442 517
#     4  12  30  51  91 131 176 233 298 374 436 532
#     4  12  29  55  86 123 177 226 292 361 434 535
#     4  12  32  56  84 126 175 234 292 359 454 530
#     4  12  32  53  89 124 178 235 293 374 444 538
#
# _framework density 29.650798999999999
#
# number of rings (size 3 to 8) (size 9 to 14) (size 15 to 20)
#    0.000    0.000    2.000    3.600   19.600    0.000 
#    0.000    0.000    0.000    0.000    0.000    0.000 
#    0.000    0.000    0.000    0.000    0.000    0.000 
#
# Total GULP energy -111815.263004 kJ/mol
# GULP energy per Si atom -5590.763150 kJ/mol
# Density = 2.958331 g / cm^3
# Si number density = 29.650799 Si / 1000 Ang^3
#
#
#
# Elastic Constant Matrix: (Units=GPa)
#
#
# Indices 1 2 3 4 5 6 
#
# 1 161.4844 77.0323 60.4768 0.0000 0.0000 0.0000
# 2 77.0323 279.5013 81.5754 0.0000 0.0000 0.0000
# 3 60.4768 81.5754 102.5619 0.0000 0.0000 0.0000
# 4 0.0000 0.0000 0.0000 67.9323 0.0000 0.0000
# 5 0.0000 0.0000 0.0000 0.0000 61.8455 0.0000
# 6 0.0000 0.0000 0.0000 0.0000 0.0000 57.9019
#
#
#
# Elastic Compliance Matrix: (Units=1/GPa)
#
#
# Indices 1 2 3 4 5 6 
#
# 1 0.008202 -0.001106 -0.003957 0.000000 0.000000 0.000000
# 2 -0.001106 0.004808 -0.003173 0.000000 0.000000 0.000000
# 3 -0.003957 -0.003173 0.014607 0.000000 0.000000 0.000000
# 4 0.000000 0.000000 0.000000 0.014721 0.000000 0.000000
# 5 0.000000 0.000000 0.000000 0.000000 0.016169 0.000000
# 6 0.000000 0.000000 0.000000 0.000000 0.000000 0.017271
#
#
# Mechanical properties :
#
#
# Convention : Reuss Voigt Hill
#
# Bulk Modulus (GPa) = 89.71114 109.07960 99.39537
# Shear Modulus (GPa) = 52.10310 59.16684 55.63497
#
# Velocity S-wave (km/s) = 4.19647 4.47190 4.33637
# Velocity P-wave (km/s) = 7.33499 7.97068 7.65943
#
# Compressibility (1/GPa) = 0.01114689
#
# Stress axis : x y z
#
# Youngs Moduli (GPa) = 121.92377 207.96614 68.46087
#
# Poissons Ratio (x) = 0.22993 0.27090
# Poissons Ratio (y) = 0.13480 0.21720
# Poissons Ratio (z) = 0.48244 0.65980
#
# Static dielectric constant tensor:
#      x y z
#    x 2.716870 0.000000 0.000000 
#    y 0.000000 2.327590 0.000000 
#    z 0.000000 0.000000 2.674520 
# 
# From -- ./inp_files/1986.got.cif
#   From: 2010.05.17/outbox.cif.g08.bks.cpg/sg29_1_cif.got.tgz:1986.got - 2010.06.04 01:19:37.
