data_PCOD9341563
_publ_section_title
;
Structure prediction by ZEFSAII (Michael W. Deem and Ramdas Pophale) SiO2 
 PCOD9341563
Probable space group: P C A 21
;
_chemical_formula_sum "Si O2"
_cell_formula_units_Z 24
_cell_length_a 12.999746
_cell_length_b 6.381530
_cell_length_c 13.754132
_cell_angle_alpha 90.000000
_cell_angle_beta 90.000000
_cell_angle_gamma 90.000000
_cell_volume 1141.018984
_symmetry_space_group_name_H-M "P C A 21"
_symmetry_group_IT_number 29
_symmetry_cell_setting 'orthorhombic'
loop_
_space_group_symop_operation_xyz
x,y,z
-x,-y,1/2+z
1/2-x,y,1/2+z
1/2+x,-y,z
loop_
_atom_site_type_symbol
_atom_site_label
_atom_site_fract_x
_atom_site_fract_y
_atom_site_fract_z
Si Si1 0.379979 0.199992 0.776110
Si Si2 0.882272 0.886380 0.454888
Si Si3 0.379979 0.800008 0.276110
Si Si4 0.750000 1.000000 0.614137
Si Si5 0.882272 0.113620 0.954889
Si Si6 0.750000 0.500000 0.402935
O O1 0.500000 0.221046 0.748539
O O2 0.337775 0.395060 0.836571
O O3 0.303130 0.164762 0.686529
O O4 0.372338 0.002151 0.850852
O O5 0.843546 0.043379 0.539295
O O6 1.000000 0.829542 0.469548
O O7 0.809235 0.684037 0.459104
O O8 0.872338 0.002151 0.350852
O O9 0.303130 0.835238 0.186529
O O10 0.337775 0.604940 0.336571
O O11 0.656454 0.956621 0.539295
O O12 0.809235 0.315963 0.959104
#
# Coordination Sequence:
#
# PCOD9341563 Si02
#       6
#     4   4   4   4   4   4
#     4  11  24  43  66  95 133 174 214 267 330 387
#     4  11  24  43  66  95 133 174 214 267 330 387
#     4  11  24  43  66  95 133 174 214 267 330 387
#     4  12  20  46  64  94 126 174 214 272 316 386
#     4  11  24  43  66  95 133 174 214 267 330 387
#     4  12  20  46  68  96 130 176 216 274 320 392
#
# _framework density 21.033829999999998
#
# number of rings (size 3 to 8) (size 9 to 14) (size 15 to 20)
#    0.000    0.667    6.667    2.000    0.000    1.333 
#    0.000    0.000    0.000    0.000    0.000    0.000 
#    0.000    0.000    0.000    0.000    0.000    0.000 
#
# Total GULP energy -133822.261915 kJ/mol
# GULP energy per Si atom -5575.927580 kJ/mol
# Density = 2.098596 g / cm^3
# Si number density = 21.033830 Si / 1000 Ang^3
#
#
#
# Elastic Constant Matrix: (Units=GPa)
#
#
# Indices 1 2 3 4 5 6 
#
# 1 156.6589 55.2444 38.2771 0.0000 0.0000 0.0000
# 2 55.2444 78.2258 21.3550 0.0000 0.0000 0.0000
# 3 38.2771 21.3550 96.2452 0.0000 0.0000 0.0000
# 4 0.0000 0.0000 0.0000 21.2738 0.0000 0.0000
# 5 0.0000 0.0000 0.0000 0.0000 27.9531 0.0000
# 6 0.0000 0.0000 0.0000 0.0000 0.0000 28.1101
#
#
#
# Elastic Compliance Matrix: (Units=1/GPa)
#
#
# Indices 1 2 3 4 5 6 
#
# 1 0.008953 -0.005696 -0.002297 0.000000 0.000000 0.000000
# 2 -0.005696 0.017231 -0.001558 0.000000 0.000000 0.000000
# 3 -0.002297 -0.001558 0.011649 0.000000 0.000000 0.000000
# 4 0.000000 0.000000 0.000000 0.047006 0.000000 0.000000
# 5 0.000000 0.000000 0.000000 0.000000 0.035774 0.000000
# 6 0.000000 0.000000 0.000000 0.000000 0.000000 0.035574
#
#
# Mechanical properties :
#
#
# Convention : Reuss Voigt Hill
#
# Bulk Modulus (GPa) = 53.38393 62.32029 57.85211
# Shear Modulus (GPa) = 27.54305 29.88429 28.71367
#
# Velocity S-wave (km/s) = 3.62258 3.77340 3.69876
# Velocity P-wave (km/s) = 6.55229 6.97694 6.76795
#
# Compressibility (1/GPa) = 0.01873223
#
# Stress axis : x y z
#
# Youngs Moduli (GPa) = 111.69355 58.03393 85.84194
#
# Poissons Ratio (x) = 0.33055 0.19717
# Poissons Ratio (y) = 0.63618 0.13375
# Poissons Ratio (z) = 0.25655 0.09042
#
# Static dielectric constant tensor:
#      x y z
#    x 1.756640 0.000000 0.000000 
#    y 0.000000 1.741830 0.000000 
#    z 0.000000 0.000000 1.792740 
# 
# From -- ./inp_files/4636.got.cif
#   From: 2010.05.17/outbox.cif.g08.bks.cpg/sg29_3_cif.got.tgz:4636.got - 2010.06.04 01:19:37.
