data_PCOD9341710
_publ_section_title
;
Structure prediction by ZEFSAII (Michael W. Deem and Ramdas Pophale) SiO2 
 PCOD9341710
Probable space group: P C A 21
;
_chemical_formula_sum "Si O2"
_cell_formula_units_Z 16
_cell_length_a 20.234533
_cell_length_b 6.673273
_cell_length_c 4.703330
_cell_angle_alpha 90.000000
_cell_angle_beta 90.000000
_cell_angle_gamma 90.000000
_cell_volume 635.093297
_symmetry_space_group_name_H-M "P C A 21"
_symmetry_group_IT_number 29
_symmetry_cell_setting 'orthorhombic'
loop_
_space_group_symop_operation_xyz
x,y,z
-x,-y,1/2+z
1/2-x,y,1/2+z
1/2+x,-y,z
loop_
_atom_site_type_symbol
_atom_site_label
_atom_site_fract_x
_atom_site_fract_y
_atom_site_fract_z
Si Si1 0.206739 0.463485 0.931490
Si Si2 0.623399 0.866422 0.276484
Si Si3 0.497297 0.636867 0.272942
Si Si4 0.630827 0.146090 0.770673
O O1 0.224227 0.438536 0.600777
O O2 0.178539 0.689436 0.917158
O O3 0.162410 0.300462 0.091557
O O4 0.556207 0.771115 0.396142
O O5 0.658470 0.995787 0.527490
O O6 0.603154 0.020172 0.031879
O O7 0.472246 0.496735 0.524535
O O8 0.433227 0.743786 0.143738
#
# Coordination Sequence:
#
# PCOD9341710 Si02
#       4
#     4   4   4   4
#     4  12  28  48  72 104 146 196 250 298 356 430
#     4  12  26  46  74 107 144 189 241 304 372 439
#     4  12  24  44  76 106 146 186 232 304 380 442
#     4  12  26  46  74 107 144 189 241 304 372 439
#
# _framework density 25.193152000000001
#
# number of rings (size 3 to 8) (size 9 to 14) (size 15 to 20)
#    0.000    0.000    2.500    7.500    3.500    6.000 
#    0.000    0.000    0.000    0.000    0.000    0.000 
#    0.000    0.000    0.000    0.000    0.000    0.000 
#
# Total GULP energy -89398.920331 kJ/mol
# GULP energy per Si atom -5587.432521 kJ/mol
# Density = 2.513581 g / cm^3
# Si number density = 25.193152 Si / 1000 Ang^3
#
#
#
# Elastic Constant Matrix: (Units=GPa)
#
#
# Indices 1 2 3 4 5 6 
#
# 1 55.1247 42.4111 5.3462 0.0000 0.0000 0.0000
# 2 42.4111 127.8448 49.4067 0.0000 0.0000 0.0000
# 3 5.3462 49.4067 116.6159 0.0000 0.0000 0.0000
# 4 0.0000 0.0000 0.0000 63.3432 0.0000 0.0000
# 5 0.0000 0.0000 0.0000 0.0000 37.0600 0.0000
# 6 0.0000 0.0000 0.0000 0.0000 0.0000 19.6351
#
#
#
# Elastic Compliance Matrix: (Units=1/GPa)
#
#
# Indices 1 2 3 4 5 6 
#
# 1 0.025123 -0.009434 0.002845 0.000000 0.000000 0.000000
# 2 -0.009434 0.012896 -0.005031 0.000000 0.000000 0.000000
# 3 0.002845 -0.005031 0.010576 0.000000 0.000000 0.000000
# 4 0.000000 0.000000 0.000000 0.015787 0.000000 0.000000
# 5 0.000000 0.000000 0.000000 0.000000 0.026983 0.000000
# 6 0.000000 0.000000 0.000000 0.000000 0.000000 0.050929
#
#
# Mechanical properties :
#
#
# Convention : Reuss Voigt Hill
#
# Bulk Modulus (GPa) = 39.43945 54.87926 47.15936
# Shear Modulus (GPa) = 28.73804 37.50242 33.12023
#
# Velocity S-wave (km/s) = 3.38110 3.86242 3.62975
# Velocity P-wave (km/s) = 5.56159 6.45924 6.02715
#
# Compressibility (1/GPa) = 0.02535532
#
# Stress axis : x y z
#
# Youngs Moduli (GPa) = 39.80459 77.54455 94.55143
#
# Poissons Ratio (x) = 0.73153 -0.26900
# Poissons Ratio (y) = 0.37550 0.47570
# Poissons Ratio (z) = -0.11325 0.39013
#
# Static dielectric constant tensor:
#      x y z
#    x 1.908870 0.000000 0.000000 
#    y 0.000000 2.135850 0.000000 
#    z 0.000000 0.000000 1.939890 
# 
# From -- ./inp_files/489.got.cif
#   From: 2010.05.17/outbox.cif.g08.bks.cpg/sg29_1_cif.got.tgz:489.got - 2010.06.04 01:19:37.
