data_PCOD9341914
_publ_section_title
;
Structure prediction by ZEFSAII (Michael W. Deem and Ramdas Pophale) SiO2 
 PCOD9341914
Probable space group: P N C 2
;
_chemical_formula_sum "Si O2"
_cell_formula_units_Z 32
_cell_length_a 11.454703
_cell_length_b 8.218456
_cell_length_c 14.908490
_cell_angle_alpha 90.000000
_cell_angle_beta 90.000000
_cell_angle_gamma 90.000000
_cell_volume 1403.484840
_symmetry_space_group_name_H-M "P N C 2"
_symmetry_group_IT_number 30
_symmetry_cell_setting 'orthorhombic'
loop_
_space_group_symop_operation_xyz
x,y,z
-x,-y,z
-x,1/2+y,1/2+z
x,1/2-y,1/2+z
loop_
_atom_site_type_symbol
_atom_site_label
_atom_site_fract_x
_atom_site_fract_y
_atom_site_fract_z
Si Si1 0.935315 0.342704 0.207630
Si Si2 0.676260 0.888252 0.579274
Si Si3 0.784477 0.421704 0.381397
Si Si4 0.826553 0.678744 0.706937
Si Si5 0.540612 0.310638 0.321308
Si Si6 0.203183 0.882143 0.077214
Si Si7 0.435012 0.741488 0.115676
Si Si8 0.298082 0.297153 0.885298
O O1 0.866479 0.390306 0.297001
O O2 0.849688 0.261914 0.136483
O O3 0.000000 0.500000 0.168756
O O4 0.041554 0.222725 0.230922
O O5 0.758299 0.830414 0.660693
O O6 0.565768 0.764669 0.578981
O O7 0.730554 0.878813 0.480289
O O8 0.622688 0.064638 0.598017
O O9 0.665752 0.318526 0.368156
O O10 0.841234 0.378606 0.476196
O O11 0.749632 0.611853 0.385460
O O12 0.827896 0.544652 0.629813
O O13 0.757742 0.624982 0.796088
O O14 0.500000 0.500000 0.310375
O O15 0.555518 0.238182 0.222354
O O16 0.437758 0.215819 0.371495
O O17 0.343902 0.867961 0.075511
#
# Coordination Sequence:
#
# PCOD9341914 Si02
#       8
#     4   4   4   4   4   4   4   4
#     4  12  26  47  75  95 131 188 236 283 355 418
#     4  11  22  42  69 104 141 189 232 280 341 427
#     4  11  23  45  73 102 136 188 231 284 352 422
#     4  12  25  45  67 102 139 179 234 297 341 406
#     4  10  18  38  71  99 137 185 227 269 345 421
#     4  12  27  45  72 106 140 175 235 298 348 416
#     4  11  21  42  68 101 148 187 226 279 355 415
#     4  11  22  42  71 105 143 184 227 287 348 417
#
# _framework density 22.800387000000001
#
# number of rings (size 3 to 8) (size 9 to 14) (size 15 to 20)
#    0.000    0.750    6.250    2.625    0.000    3.500 
#    4.500    1.250    0.000    0.000    0.000    0.000 
#    0.000    0.000    0.000    0.000    0.000    0.000 
#
# Total GULP energy -179215.029458 kJ/mol
# GULP energy per Si atom -5600.469671 kJ/mol
# Density = 2.274849 g / cm^3
# Si number density = 22.800387 Si / 1000 Ang^3
#
#
#
# Elastic Constant Matrix: (Units=GPa)
#
#
# Indices 1 2 3 4 5 6 
#
# 1 99.1773 11.4299 19.3096 0.0000 0.0000 0.0000
# 2 11.4299 38.1923 11.3589 0.0000 0.0000 0.0000
# 3 19.3096 11.3589 165.3687 0.0000 0.0000 0.0000
# 4 0.0000 0.0000 0.0000 16.0834 0.0000 0.0000
# 5 0.0000 0.0000 0.0000 0.0000 -5.8485 0.0000
# 6 0.0000 0.0000 0.0000 0.0000 0.0000 23.3239
#
#
#
# Elastic Compliance Matrix: (Units=1/GPa)
#
#
# Indices 1 2 3 4 5 6 
#
# 1 0.010616 -0.002867 -0.001043 0.000000 0.000000 0.000000
# 2 -0.002867 0.027504 -0.001554 0.000000 0.000000 0.000000
# 3 -0.001043 -0.001554 0.006276 0.000000 0.000000 0.000000
# 4 0.000000 0.000000 0.000000 0.062176 0.000000 0.000000
# 5 0.000000 0.000000 0.000000 0.000000 -0.170985 0.000000
# 6 0.000000 0.000000 0.000000 0.000000 0.000000 0.042875
#
#
# Mechanical properties :
#
#
# Convention : Reuss Voigt Hill
#
# Bulk Modulus (GPa) = 29.87994 42.99280 36.43637
# Shear Modulus (GPa) = 9177.67545 24.08776 4600.88160
#
# Velocity S-wave (km/s) = 63.51351 3.25385 44.96973
# Velocity P-wave (km/s) = 73.42857 5.74577 52.08056
#
# Compressibility (1/GPa) = 0.03346727
#
# Stress axis : x y z
#
# Youngs Moduli (GPa) = 94.19401 36.35881 159.34683
#
# Poissons Ratio (x) = 0.10424 0.16615
# Poissons Ratio (y) = 0.27006 0.24769
# Poissons Ratio (z) = 0.09822 0.05652
#
# Static dielectric constant tensor:
#      x y z
#    x 1.833180 0.000000 0.000000 
#    y 0.000000 1.881330 0.000000 
#    z 0.000000 0.000000 1.812750 
# 
# From -- ./inp_files/5543.got.cif
#   From: 2010.05.17/outbox.cif.g08.bks.cpg/sg30_3_cif.got.tgz:5543.got - 2010.06.03 17:03:02.
