data_PCOD9341226
_publ_section_title
;
Structure prediction by ZEFSAII (Michael W. Deem and Ramdas Pophale) SiO2 
 PCOD9341226
Probable space group: P C A 21
;
_chemical_formula_sum "Si O2"
_cell_formula_units_Z 28
_cell_length_a 26.167300
_cell_length_b 5.220863
_cell_length_c 8.300982
_cell_angle_alpha 90.000000
_cell_angle_beta 90.000000
_cell_angle_gamma 90.000000
_cell_volume 1134.046030
_symmetry_space_group_name_H-M "P C A 21"
_symmetry_group_IT_number 29
_symmetry_cell_setting 'orthorhombic'
loop_
_space_group_symop_operation_xyz
x,y,z
-x,-y,1/2+z
1/2-x,y,1/2+z
1/2+x,-y,z
loop_
_atom_site_type_symbol
_atom_site_label
_atom_site_fract_x
_atom_site_fract_y
_atom_site_fract_z
Si Si1 0.984372 0.007901 0.507020
Si Si2 0.237991 0.697505 0.518584
Si Si3 0.702108 0.969684 0.252529
Si Si4 0.905598 0.717611 0.688850
Si Si5 0.596157 0.715814 0.833381
Si Si6 0.051935 0.507574 0.509854
Si Si7 0.293973 0.367248 0.308525
O O1 0.950141 0.930055 0.662692
O O2 0.905612 0.583736 0.511620
O O3 0.028095 0.789348 0.503191
O O4 0.007447 0.289417 0.508260
O O5 0.289821 0.564464 0.455099
O O6 0.207806 0.527573 0.644982
O O7 0.261581 0.940460 0.608694
O O8 0.201996 0.795027 0.376145
O O9 0.647745 0.862636 0.208626
O O10 0.738325 0.755202 0.327425
O O11 0.944720 0.942961 0.361162
O O12 0.916750 0.551523 0.846456
O O13 0.581058 0.550123 0.678023
O O14 0.655184 0.799476 0.812742
#
# Coordination Sequence:
#
# PCOD9341226 Si02
#       7
#     4   4   4   4   4   4   4
#     4  10  26  49  73 104 147 188 245 314 370 436
#     4  10  24  40  72  94 154 194 234 304 368 436
#     4  11  23  46  65 105 147 184 244 300 367 452
#     4  10  25  43  73 103 137 195 235 301 374 444
#     4  10  25  43  73 103 137 195 235 301 374 444
#     4  12  24  51  71 108 143 190 247 312 366 446
#     4  11  23  46  65 105 147 184 244 300 367 452
#
# _framework density 24.690356000000001
#
# number of rings (size 3 to 8) (size 9 to 14) (size 15 to 20)
#    0.857    0.571    0.000    4.286    4.000    2.286 
#   15.429    0.000    0.000    0.000    0.000    0.000 
#    0.000    0.000    0.000    0.000    0.000    0.000 
#
# Total GULP energy -156473.058821 kJ/mol
# GULP energy per Si atom -5588.323529 kJ/mol
# Density = 2.463416 g / cm^3
# Si number density = 24.690356 Si / 1000 Ang^3
#
#
#
# Elastic Constant Matrix: (Units=GPa)
#
#
# Indices 1 2 3 4 5 6 
#
# 1 109.4929 9.2844 39.4327 0.0000 0.0000 0.0000
# 2 9.2844 51.0231 14.6051 0.0000 0.0000 0.0000
# 3 39.4327 14.6051 138.2221 0.0000 0.0000 0.0000
# 4 0.0000 0.0000 0.0000 10.7034 0.0000 0.0000
# 5 0.0000 0.0000 0.0000 0.0000 -3.8938 0.0000
# 6 0.0000 0.0000 0.0000 0.0000 0.0000 -35.1467
#
#
#
# Elastic Compliance Matrix: (Units=1/GPa)
#
#
# Indices 1 2 3 4 5 6 
#
# 1 0.010234 -0.001059 -0.002808 0.000000 0.000000 0.000000
# 2 -0.001059 0.020320 -0.001845 0.000000 0.000000 0.000000
# 3 -0.002808 -0.001845 0.008231 0.000000 0.000000 0.000000
# 4 0.000000 0.000000 0.000000 0.093429 0.000000 0.000000
# 5 0.000000 0.000000 0.000000 0.000000 -0.256818 0.000000
# 6 0.000000 0.000000 0.000000 0.000000 0.000000 -0.028452
#
#
# Mechanical properties :
#
#
# Convention : Reuss Voigt Hill
#
# Bulk Modulus (GPa) = 36.54745 47.26472 41.90609
# Shear Modulus (GPa) = -37.73178 10.02697 -13.85241
#
# Velocity S-wave (km/s) = -3.91346 2.01740 -2.37121
# Velocity P-wave (km/s) = 2.36342 4.96096 3.08426
#
# Compressibility (1/GPa) = 0.02736169
#
# Stress axis : x y z
#
# Youngs Moduli (GPa) = 97.71395 49.21326 121.49629
#
# Poissons Ratio (x) = 0.05209 0.34113
# Poissons Ratio (y) = 0.10343 0.22417
# Poissons Ratio (z) = 0.27436 0.09080
#
# Static dielectric constant tensor:
#      x y z
#    x 1.966590 0.000000 0.000000 
#    y 0.000000 1.943220 0.000000 
#    z 0.000000 0.000000 2.018120 
# 
# From -- ./inp_files/2546.got.cif
#   From: 2010.05.17/outbox.cif.g08.bks.cpg/sg29_2_cif.got.tgz:2546.got - 2010.06.04 01:19:37.
