data_PCOD9341398
_publ_section_title
;
Structure prediction by ZEFSAII (Michael W. Deem and Ramdas Pophale) SiO2 
 PCOD9341398
Probable space group: P C A 21
;
_chemical_formula_sum "Si O2"
_cell_formula_units_Z 24
_cell_length_a 8.304033
_cell_length_b 8.774007
_cell_length_c 15.398311
_cell_angle_alpha 90.000000
_cell_angle_beta 90.000000
_cell_angle_gamma 90.000000
_cell_volume 1121.915453
_symmetry_space_group_name_H-M "P C A 21"
_symmetry_group_IT_number 29
_symmetry_cell_setting 'orthorhombic'
loop_
_space_group_symop_operation_xyz
x,y,z
-x,-y,1/2+z
1/2-x,y,1/2+z
1/2+x,-y,z
loop_
_atom_site_type_symbol
_atom_site_label
_atom_site_fract_x
_atom_site_fract_y
_atom_site_fract_z
Si Si1 0.921968 0.074614 0.889410
Si Si2 0.084870 0.457132 0.990717
Si Si3 0.966333 0.542441 0.798746
Si Si4 0.223738 0.732009 0.237982
Si Si5 0.201752 0.728982 0.548622
Si Si6 0.767009 0.770377 0.891423
O O1 0.826707 0.139551 0.806309
O O2 0.103911 0.133670 0.879907
O O3 0.907343 0.893927 0.899126
O O4 0.843300 0.150568 0.974781
O O5 0.229883 0.337256 0.973868
O O6 0.004727 0.475516 0.895099
O O7 0.155728 0.617557 0.018383
O O8 0.955652 0.380515 0.053561
O O9 0.912848 0.400281 0.740622
O O10 0.816436 0.656830 0.814160
O O11 0.116521 0.642011 0.768431
O O12 0.254225 0.794068 0.142028
#
# Coordination Sequence:
#
# PCOD9341398 Si02
#       6
#     4   4   4   4   4   4
#     4  11  23  42  61  91 131 166 209 250 320 381
#     4  11  19  40  65  91 121 164 212 261 306 364
#     4  12  19  40  67  92 121 166 212 259 310 365
#     4  12  22  39  64  94 128 166 210 260 312 371
#     4  11  23  38  63  93 128 163 211 259 311 370
#     4  11  22  39  70  89 123 175 202 257 319 367
#
# _framework density 21.391985999999999
#
# number of rings (size 3 to 8) (size 9 to 14) (size 15 to 20)
#    0.000    0.667    8.333    2.000    0.000    0.000 
#    0.000    8.333    0.000    0.000    0.000    0.000 
#    0.000    0.000    0.000    0.000    0.000    0.000 
#
# Total GULP energy -134156.994512 kJ/mol
# GULP energy per Si atom -5589.874771 kJ/mol
# Density = 2.134330 g / cm^3
# Si number density = 21.391986 Si / 1000 Ang^3
#
#
#
# Elastic Constant Matrix: (Units=GPa)
#
#
# Indices 1 2 3 4 5 6 
#
# 1 44.7174 -1.1741 -9.1740 0.0000 0.0000 0.0000
# 2 -1.1741 67.4497 16.2646 0.0000 0.0000 0.0000
# 3 -9.1740 16.2646 42.9099 0.0000 0.0000 0.0000
# 4 0.0000 0.0000 0.0000 7.7005 0.0000 0.0000
# 5 0.0000 0.0000 0.0000 0.0000 18.5291 0.0000
# 6 0.0000 0.0000 0.0000 0.0000 0.0000 43.2078
#
#
#
# Elastic Compliance Matrix: (Units=1/GPa)
#
#
# Indices 1 2 3 4 5 6 
#
# 1 0.023436 -0.000881 0.005344 0.000000 0.000000 0.000000
# 2 -0.000881 0.016350 -0.006386 0.000000 0.000000 0.000000
# 3 0.005344 -0.006386 0.026868 0.000000 0.000000 0.000000
# 4 0.000000 0.000000 0.000000 0.129861 0.000000 0.000000
# 5 0.000000 0.000000 0.000000 0.000000 0.053969 0.000000
# 6 0.000000 0.000000 0.000000 0.000000 0.000000 0.023144
#
#
# Mechanical properties :
#
#
# Convention : Reuss Voigt Hill
#
# Bulk Modulus (GPa) = 15.92107 18.54553 17.23330
# Shear Modulus (GPa) = 16.75550 23.83152 20.29351
#
# Velocity S-wave (km/s) = 2.80172 3.34134 3.08336
# Velocity P-wave (km/s) = 4.23377 4.85534 4.55517
#
# Compressibility (1/GPa) = 0.06280986
#
# Stress axis : x y z
#
# Youngs Moduli (GPa) = 42.66942 61.16066 37.21936
#
# Poissons Ratio (x) = 0.05387 -0.19892
# Poissons Ratio (y) = 0.03758 0.23767
# Poissons Ratio (z) = -0.22804 0.39056
#
# Static dielectric constant tensor:
#      x y z
#    x 1.841950 0.000000 0.000000 
#    y 0.000000 1.766880 0.000000 
#    z 0.000000 0.000000 1.761490 
# 
# From -- ./inp_files/4181.got.cif
#   From: 2010.05.17/outbox.cif.g08.bks.cpg/sg29_3_cif.got.tgz:4181.got - 2010.06.04 01:19:37.
