data_PCOD9341843
_publ_section_title
;
Structure prediction by ZEFSAII (Michael W. Deem and Ramdas Pophale) SiO2 
 PCOD9341843
Probable space group: P N C 2
;
_chemical_formula_sum "Si O2"
_cell_formula_units_Z 20
_cell_length_a 8.494599
_cell_length_b 9.811831
_cell_length_c 11.391928
_cell_angle_alpha 90.000000
_cell_angle_beta 90.000000
_cell_angle_gamma 90.000000
_cell_volume 949.489514
_symmetry_space_group_name_H-M "P N C 2"
_symmetry_group_IT_number 30
_symmetry_cell_setting 'orthorhombic'
loop_
_space_group_symop_operation_xyz
x,y,z
-x,-y,z
-x,1/2+y,1/2+z
x,1/2-y,1/2+z
loop_
_atom_site_type_symbol
_atom_site_label
_atom_site_fract_x
_atom_site_fract_y
_atom_site_fract_z
Si Si1 0.000000 0.500000 0.958151
Si Si2 0.665998 0.017844 0.662586
Si Si3 0.845966 0.671714 0.329207
Si Si4 0.000000 0.000000 0.028274
Si Si5 0.097717 0.735584 0.141323
Si Si6 0.665284 0.932254 0.395765
O O1 0.161358 0.501965 0.883632
O O2 0.014761 0.633232 0.044050
O O3 0.728962 0.170388 0.648416
O O4 0.500000 0.000000 0.723242
O O5 0.792510 0.944855 0.741289
O O6 0.651879 0.940624 0.537900
O O7 0.708187 0.782620 0.347900
O O8 0.891572 0.595823 0.447883
O O9 0.999264 0.730663 0.262404
O O10 0.901386 0.109439 0.100516
O O11 0.500000 0.000000 0.352702
#
# Coordination Sequence:
#
# PCOD9341843 Si02
#       6
#     2   4   4   2   4   4
#     4  10  17  41  68  80 128 186 213 265 354 388
#     4  10  21  44  65  89 138 181 218 286 353 409
#     4  12  20  42  67  95 139 179 229 284 349 413
#     4  12  23  39  72 106 136 172 249 279 342 436
#     4  11  21  41  67  98 131 181 232 283 337 420
#     4  10  22  40  67  95 130 178 227 280 341 410
#
# _framework density 21.063950999999999
#
# number of rings (size 3 to 8) (size 9 to 14) (size 15 to 20)
#    0.000    1.200    8.000    0.000    0.000    0.800 
#   18.000    0.000    0.000    0.000    0.000    0.000 
#    0.000    0.000    0.000    0.000    0.000    0.000 
#
# Total GULP energy -111427.968713 kJ/mol
# GULP energy per Si atom -5571.398436 kJ/mol
# Density = 2.101601 g / cm^3
# Si number density = 21.063951 Si / 1000 Ang^3
#
#
#
# Elastic Constant Matrix: (Units=GPa)
#
#
# Indices 1 2 3 4 5 6 
#
# 1 133.8337 41.7304 9.5668 0.0000 0.0000 0.0000
# 2 41.7304 141.2329 36.3155 0.0000 0.0000 0.0000
# 3 9.5668 36.3155 41.3676 0.0000 0.0000 0.0000
# 4 0.0000 0.0000 0.0000 -2.2394 0.0000 0.0000
# 5 0.0000 0.0000 0.0000 0.0000 11.9159 0.0000
# 6 0.0000 0.0000 0.0000 0.0000 0.0000 40.2345
#
#
#
# Elastic Compliance Matrix: (Units=1/GPa)
#
#
# Indices 1 2 3 4 5 6 
#
# 1 0.008233 -0.002510 0.000299 0.000000 0.000000 0.000000
# 2 -0.002510 0.009910 -0.008119 0.000000 0.000000 0.000000
# 3 0.000299 -0.008119 0.031232 0.000000 0.000000 0.000000
# 4 0.000000 0.000000 0.000000 -0.446539 0.000000 0.000000
# 5 0.000000 0.000000 0.000000 0.000000 0.083921 0.000000
# 6 0.000000 0.000000 0.000000 0.000000 0.000000 0.024854
#
#
# Mechanical properties :
#
#
# Convention : Reuss Voigt Hill
#
# Bulk Modulus (GPa) = 34.82442 54.62885 44.72663
# Shear Modulus (GPa) = -19.36801 25.23697 2.93448
#
# Velocity S-wave (km/s) = -3.03559 3.46513 1.18159
# Velocity P-wave (km/s) = 2.06934 6.48078 4.81055
#
# Compressibility (1/GPa) = 0.02871548
#
# Stress axis : x y z
#
# Youngs Moduli (GPa) = 121.46128 100.91152 32.01861
#
# Poissons Ratio (x) = 0.25324 -0.00958
# Poissons Ratio (y) = 0.30481 0.25996
# Poissons Ratio (z) = -0.03632 0.81931
#
# Static dielectric constant tensor:
#      x y z
#    x 1.841160 0.000000 0.000000 
#    y 0.000000 1.821390 0.000000 
#    z 0.000000 0.000000 1.782260 
# 
# From -- ./inp_files/3542.got.cif
#   From: 2010.05.17/outbox.cif.g08.bks.cpg/sg30_2_cif.got.tgz:3542.got - 2010.06.03 17:03:02.
