data_PCOD9341193
_publ_section_title
;
Structure prediction by ZEFSAII (Michael W. Deem and Ramdas Pophale) SiO2 
 PCOD9341193
Probable space group: P C A 21
;
_chemical_formula_sum "Si O2"
_cell_formula_units_Z 24
_cell_length_a 13.044677
_cell_length_b 4.911963
_cell_length_c 15.071694
_cell_angle_alpha 90.000000
_cell_angle_beta 90.000000
_cell_angle_gamma 90.000000
_cell_volume 965.718353
_symmetry_space_group_name_H-M "P C A 21"
_symmetry_group_IT_number 29
_symmetry_cell_setting 'orthorhombic'
loop_
_space_group_symop_operation_xyz
x,y,z
-x,-y,1/2+z
1/2-x,y,1/2+z
1/2+x,-y,z
loop_
_atom_site_type_symbol
_atom_site_label
_atom_site_fract_x
_atom_site_fract_y
_atom_site_fract_z
Si Si1 0.337729 0.327937 0.788430
Si Si2 0.896135 0.629606 0.021034
Si Si3 0.291084 0.829151 0.903585
Si Si4 0.772812 0.001005 0.137439
Si Si5 0.899548 0.105278 0.522354
Si Si6 0.483732 0.709971 0.157810
O O1 0.297425 0.618968 0.820815
O O2 0.448944 0.331078 0.744010
O O3 0.336299 0.115627 0.870251
O O4 0.267739 0.194916 0.713237
O O5 0.001047 0.746638 0.982157
O O6 0.945820 0.571705 0.118246
O O7 0.803462 0.825039 0.049800
O O8 0.855551 0.354069 0.975032
O O9 0.177607 0.889950 0.938974
O O10 0.680977 0.198451 0.101367
O O11 0.876900 0.136420 0.169840
O O12 0.949752 0.850116 0.577168
#
# Coordination Sequence:
#
# PCOD9341193 Si02
#       6
#     4   4   4   4   4   4
#     4  11  29  43  71 107 154 187 241 307 381 425
#     4  11  25  44  79 102 141 198 257 296 359 451
#     4  12  27  47  68 111 153 187 240 315 370 430
#     4  10  23  46  73 102 140 196 248 302 358 446
#     4  10  24  44  73 103 139 192 246 298 361 441
#     4  10  24  44  74 101 141 194 254 292 359 447
#
# _framework density 24.851969
#
# number of rings (size 3 to 8) (size 9 to 14) (size 15 to 20)
#    0.000    1.333    1.667    1.000   18.667    2.667 
#    0.000    0.000    0.000    0.000    0.000    0.000 
#    0.000    0.000    0.000    0.000    0.000    0.000 
#
# Total GULP energy -133919.886664 kJ/mol
# GULP energy per Si atom -5579.995278 kJ/mol
# Density = 2.479540 g / cm^3
# Si number density = 24.851969 Si / 1000 Ang^3
#
#
#
# Elastic Constant Matrix: (Units=GPa)
#
#
# Indices 1 2 3 4 5 6 
#
# 1 150.6253 25.9418 32.2971 0.0000 0.0000 0.0000
# 2 25.9418 61.9983 -24.1425 0.0000 0.0000 0.0000
# 3 32.2971 -24.1425 57.6078 0.0000 0.0000 0.0000
# 4 0.0000 0.0000 0.0000 41.9528 0.0000 0.0000
# 5 0.0000 0.0000 0.0000 0.0000 43.7803 0.0000
# 6 0.0000 0.0000 0.0000 0.0000 0.0000 17.5072
#
#
#
# Elastic Compliance Matrix: (Units=1/GPa)
#
#
# Indices 1 2 3 4 5 6 
#
# 1 0.009758 -0.007425 -0.008582 0.000000 0.000000 0.000000
# 2 -0.007425 0.024925 0.014608 0.000000 0.000000 0.000000
# 3 -0.008582 0.014608 0.028293 0.000000 0.000000 0.000000
# 4 0.000000 0.000000 0.000000 0.023836 0.000000 0.000000
# 5 0.000000 0.000000 0.000000 0.000000 0.022841 0.000000
# 6 0.000000 0.000000 0.000000 0.000000 0.000000 0.057119
#
#
# Mechanical properties :
#
#
# Convention : Reuss Voigt Hill
#
# Bulk Modulus (GPa) = 16.61756 37.60268 27.11012
# Shear Modulus (GPa) = 26.36713 36.39039 31.37876
#
# Velocity S-wave (km/s) = 3.26078 3.83075 3.55720
# Velocity P-wave (km/s) = 4.56925 5.89319 5.27294
#
# Compressibility (1/GPa) = 0.06017732
#
# Stress axis : x y z
#
# Youngs Moduli (GPa) = 102.47954 40.12044 35.34496
#
# Poissons Ratio (x) = 0.29790 0.30335
# Poissons Ratio (y) = 0.76092 -0.51633
# Poissons Ratio (z) = 0.87953 -0.58610
#
# Static dielectric constant tensor:
#      x y z
#    x 2.021160 0.000000 0.000000 
#    y 0.000000 2.025940 0.000000 
#    z 0.000000 0.000000 2.160110 
# 
# From -- ./inp_files/4452.got.cif
#   From: 2010.05.17/outbox.cif.g08.bks.cpg/sg29_3_cif.got.tgz:4452.got - 2010.06.04 01:19:37.
