data_PCOD9341730
_publ_section_title
;
Structure prediction by ZEFSAII (Michael W. Deem and Ramdas Pophale) SiO2 
 PCOD9341730
Probable space group: P C A 21
;
_chemical_formula_sum "Si O2"
_cell_formula_units_Z 32
_cell_length_a 8.754702
_cell_length_b 9.662782
_cell_length_c 16.136166
_cell_angle_alpha 90.000000
_cell_angle_beta 90.000000
_cell_angle_gamma 90.000000
_cell_volume 1365.035363
_symmetry_space_group_name_H-M "P C A 21"
_symmetry_group_IT_number 29
_symmetry_cell_setting 'orthorhombic'
loop_
_space_group_symop_operation_xyz
x,y,z
-x,-y,1/2+z
1/2-x,y,1/2+z
1/2+x,-y,z
loop_
_atom_site_type_symbol
_atom_site_label
_atom_site_fract_x
_atom_site_fract_y
_atom_site_fract_z
Si Si1 0.397433 0.884203 0.293840
Si Si2 0.539803 0.178691 0.048459
Si Si3 0.936900 0.153451 0.854038
Si Si4 0.897433 0.615797 0.768651
Si Si5 0.624421 0.598103 0.460262
Si Si6 0.960197 0.678691 0.514031
Si Si7 0.875579 0.098103 0.102228
Si Si8 0.563100 0.653451 0.708453
O O1 0.500000 0.750000 0.281245
O O2 0.351823 0.931359 0.199918
O O3 0.244138 0.854406 0.344122
O O4 0.492134 0.003315 0.338858
O O5 0.716553 0.140999 0.059831
O O6 0.492739 0.278352 0.124270
O O7 0.444586 0.037716 0.059020
O O8 0.491047 0.272273 0.970824
O O9 1.000000 0.250000 0.781245
O O10 0.992739 0.221648 0.938220
O O11 0.992134 0.496685 0.723632
O O12 0.851823 0.568641 0.862573
O O13 0.744138 0.645594 0.718369
O O14 0.783447 0.640999 0.502660
O O15 0.555414 0.462284 0.503470
O O16 0.008953 0.772273 0.591666
#
# Coordination Sequence:
#
# PCOD9341730 Si02
#       8
#     4   4   4   4   4   4   4   4
#     4  12  27  45  78 107 147 192 245 303 363 436
#     4  12  29  48  77 107 155 192 248 301 374 437
#     4  12  25  48  75 108 144 193 245 302 362 429
#     4  12  27  45  78 107 147 192 245 303 363 436
#     4  12  27  49  72 109 146 196 241 303 365 441
#     4  12  29  48  77 107 155 192 248 301 374 437
#     4  12  27  49  72 109 146 196 241 303 365 441
#     4  12  25  48  75 108 144 193 245 302 362 429
#
# _framework density 23.442613999999999
#
# number of rings (size 3 to 8) (size 9 to 14) (size 15 to 20)
#    0.000    0.000    5.000    3.000   10.500    0.000 
#    0.000    0.000    0.000    0.000    0.000    0.000 
#    0.000    0.000    0.000    0.000    0.000    0.000 
#
# Total GULP energy -179590.233140 kJ/mol
# GULP energy per Si atom -5612.194786 kJ/mol
# Density = 2.338926 g / cm^3
# Si number density = 23.442614 Si / 1000 Ang^3
#
#
#
# Elastic Constant Matrix: (Units=GPa)
#
#
# Indices 1 2 3 4 5 6 
#
# 1 184.8779 84.1714 15.7476 0.0000 0.0000 0.0000
# 2 84.1714 190.8712 18.3190 0.0000 0.0000 0.0000
# 3 15.7476 18.3190 89.5527 0.0000 0.0000 0.0000
# 4 0.0000 0.0000 0.0000 44.1541 0.0000 0.0000
# 5 0.0000 0.0000 0.0000 0.0000 30.8042 0.0000
# 6 0.0000 0.0000 0.0000 0.0000 0.0000 56.2122
#
#
#
# Elastic Compliance Matrix: (Units=1/GPa)
#
#
# Indices 1 2 3 4 5 6 
#
# 1 0.006799 -0.002941 -0.000594 0.000000 0.000000 0.000000
# 2 -0.002941 0.006616 -0.000836 0.000000 0.000000 0.000000
# 3 -0.000594 -0.000836 0.011442 0.000000 0.000000 0.000000
# 4 0.000000 0.000000 0.000000 0.022648 0.000000 0.000000
# 5 0.000000 0.000000 0.000000 0.000000 0.032463 0.000000
# 6 0.000000 0.000000 0.000000 0.000000 0.000000 0.017790
#
#
# Mechanical properties :
#
#
# Convention : Reuss Voigt Hill
#
# Bulk Modulus (GPa) = 62.05553 77.97531 70.01542
# Shear Modulus (GPa) = 44.69401 49.37170 47.03285
#
# Velocity S-wave (km/s) = 4.37112 4.59417 4.48403
# Velocity P-wave (km/s) = 7.21140 7.84068 7.53261
#
# Compressibility (1/GPa) = 0.01611460
#
# Stress axis : x y z
#
# Youngs Moduli (GPa) = 147.08965 151.14033 87.39642
#
# Poissons Ratio (x) = 0.44451 0.05190
# Poissons Ratio (y) = 0.43260 0.07309
# Poissons Ratio (z) = 0.08735 0.12639
#
# Static dielectric constant tensor:
#      x y z
#    x 1.843680 0.000000 0.000000 
#    y 0.000000 1.828580 0.000000 
#    z 0.000000 0.000000 1.968690 
# 
# From -- ./inp_files/5425.got.cif
#   From: 2010.05.17/outbox.cif.g08.bks.cpg/sg29_3_cif.got.tgz:5425.got - 2010.06.04 01:19:37.
