data_PCOD9341684
_publ_section_title
;
Structure prediction by ZEFSAII (Michael W. Deem and Ramdas Pophale) SiO2 
 PCOD9341684
Probable space group: P C A 21
;
_chemical_formula_sum "Si O2"
_cell_formula_units_Z 20
_cell_length_a 11.250991
_cell_length_b 8.544556
_cell_length_c 7.763086
_cell_angle_alpha 90.000000
_cell_angle_beta 90.000000
_cell_angle_gamma 90.000000
_cell_volume 746.302120
_symmetry_space_group_name_H-M "P C A 21"
_symmetry_group_IT_number 29
_symmetry_cell_setting 'orthorhombic'
loop_
_space_group_symop_operation_xyz
x,y,z
-x,-y,1/2+z
1/2-x,y,1/2+z
1/2+x,-y,z
loop_
_atom_site_type_symbol
_atom_site_label
_atom_site_fract_x
_atom_site_fract_y
_atom_site_fract_z
Si Si1 0.920928 0.929331 0.575130
Si Si2 0.730784 0.769539 0.788971
Si Si3 0.997793 0.723450 0.115583
Si Si4 0.387470 0.701768 0.963934
Si Si5 0.655411 0.423463 0.834396
O O1 0.837824 0.890398 0.412079
O O2 0.050117 0.858856 0.532215
O O3 0.935020 0.110293 0.611782
O O4 0.357816 0.167962 0.728129
O O5 0.641956 0.759147 0.621861
O O6 0.719445 0.591607 0.857821
O O7 0.030428 0.651506 0.302643
O O8 0.051682 0.618732 0.966493
O O9 0.379470 0.597956 0.135837
O O10 0.257536 0.703073 0.881865
#
# Coordination Sequence:
#
# PCOD9341684 Si02
#       5
#     4   4   4   4   4
#     4  11  29  48  77 116 162 209 265 335 396 487
#     4  11  29  50  79 118 158 214 273 331 410 472
#     4  11  29  49  79 115 164 209 275 327 410 478
#     4  11  27  47  79 115 157 205 267 324 405 463
#     4  12  26  50  84 110 161 211 268 341 395 494
#
# _framework density 26.798798000000001
#
# number of rings (size 3 to 8) (size 9 to 14) (size 15 to 20)
#    0.000    0.800    2.000    1.200   19.600    1.600 
#    0.000    0.000    0.000    0.000    0.000    0.000 
#    0.000    0.000    0.000    0.000    0.000    0.000 
#
# Total GULP energy -112144.673663 kJ/mol
# GULP energy per Si atom -5607.233683 kJ/mol
# Density = 2.673780 g / cm^3
# Si number density = 26.798798 Si / 1000 Ang^3
#
#
#
# Elastic Constant Matrix: (Units=GPa)
#
#
# Indices 1 2 3 4 5 6 
#
# 1 114.5944 56.8322 28.9476 0.0000 0.0000 0.0000
# 2 56.8322 180.5535 73.1339 0.0000 0.0000 0.0000
# 3 28.9476 73.1339 152.7454 0.0000 0.0000 0.0000
# 4 0.0000 0.0000 0.0000 46.2839 0.0000 0.0000
# 5 0.0000 0.0000 0.0000 0.0000 56.6263 0.0000
# 6 0.0000 0.0000 0.0000 0.0000 0.0000 34.7361
#
#
#
# Elastic Compliance Matrix: (Units=1/GPa)
#
#
# Indices 1 2 3 4 5 6 
#
# 1 0.010371 -0.003062 -0.000499 0.000000 0.000000 0.000000
# 2 -0.003062 0.007775 -0.003142 0.000000 0.000000 0.000000
# 3 -0.000499 -0.003142 0.008146 0.000000 0.000000 0.000000
# 4 0.000000 0.000000 0.000000 0.021606 0.000000 0.000000
# 5 0.000000 0.000000 0.000000 0.000000 0.017660 0.000000
# 6 0.000000 0.000000 0.000000 0.000000 0.000000 0.028788
#
#
# Mechanical properties :
#
#
# Convention : Reuss Voigt Hill
#
# Bulk Modulus (GPa) = 77.61220 85.08009 81.34614
# Shear Modulus (GPa) = 44.62317 46.79456 45.70886
#
# Velocity S-wave (km/s) = 4.08501 4.18322 4.13441
# Velocity P-wave (km/s) = 7.16057 7.42624 7.29462
#
# Compressibility (1/GPa) = 0.01288457
#
# Stress axis : x y z
#
# Youngs Moduli (GPa) = 96.42015 128.61274 122.75890
#
# Poissons Ratio (x) = 0.39385 0.06129
# Poissons Ratio (y) = 0.29527 0.38576
# Poissons Ratio (z) = 0.04814 0.40416
#
# Static dielectric constant tensor:
#      x y z
#    x 2.115310 0.000000 0.000000 
#    y 0.000000 2.021680 0.000000 
#    z 0.000000 0.000000 2.109160 
# 
# From -- ./inp_files/1643.got.cif
#   From: 2010.05.17/outbox.cif.g08.bks.cpg/sg29_1_cif.got.tgz:1643.got - 2010.06.04 01:19:37.
