data_PCOD9341265
_publ_section_title
;
Structure prediction by ZEFSAII (Michael W. Deem and Ramdas Pophale) SiO2 
 PCOD9341265
Probable space group: P C A 21
;
_chemical_formula_sum "Si O2"
_cell_formula_units_Z 20
_cell_length_a 7.394185
_cell_length_b 7.082849
_cell_length_c 15.850097
_cell_angle_alpha 90.000000
_cell_angle_beta 90.000000
_cell_angle_gamma 90.000000
_cell_volume 830.099629
_symmetry_space_group_name_H-M "P C A 21"
_symmetry_group_IT_number 29
_symmetry_cell_setting 'orthorhombic'
loop_
_space_group_symop_operation_xyz
x,y,z
-x,-y,1/2+z
1/2-x,y,1/2+z
1/2+x,-y,z
loop_
_atom_site_type_symbol
_atom_site_label
_atom_site_fract_x
_atom_site_fract_y
_atom_site_fract_z
Si Si1 0.343396 0.725415 0.691390
Si Si2 0.657002 0.380849 0.435699
Si Si3 0.374163 0.391599 0.561277
Si Si4 0.738918 0.852862 0.714323
Si Si5 0.953034 0.335446 0.319869
O O1 0.394441 0.593191 0.611421
O O2 0.534703 0.787320 0.732229
O O3 0.185700 0.615814 0.743565
O O4 0.245884 0.928556 0.687739
O O5 0.541888 0.297216 0.512175
O O6 0.742713 0.559063 0.484771
O O7 0.813381 0.259095 0.391347
O O8 0.537430 0.480130 0.363640
O O9 0.303080 0.255998 0.631709
O O10 0.884507 0.795045 0.786539
#
# Coordination Sequence:
#
# PCOD9341265 Si02
#       5
#     4   4   4   4   4
#     4  12  26  46  76 108 141 192 251 297 352 433
#     4  10  24  43  70 106 141 190 235 288 374 428
#     4  11  23  46  75 100 143 193 238 303 361 422
#     4  12  26  46  76 107 142 189 252 297 351 433
#     4  11  25  43  69 105 147 184 240 299 354 434
#
# _framework density 24.093492999999999
#
# number of rings (size 3 to 8) (size 9 to 14) (size 15 to 20)
#    0.000    0.800    4.000    2.400   11.200    0.000 
#    0.000    8.000    0.000    0.000    0.000    0.000 
#    0.000    0.000    0.000    0.000    0.000    0.000 
#
# Total GULP energy -111523.253158 kJ/mol
# GULP energy per Si atom -5576.162658 kJ/mol
# Density = 2.403865 g / cm^3
# Si number density = 24.093493 Si / 1000 Ang^3
#
#
#
# Elastic Constant Matrix: (Units=GPa)
#
#
# Indices 1 2 3 4 5 6 
#
# 1 140.4075 30.4744 53.1328 0.0000 0.0000 0.0000
# 2 30.4744 98.5626 53.1349 0.0000 0.0000 0.0000
# 3 53.1328 53.1349 105.1468 0.0000 0.0000 0.0000
# 4 0.0000 0.0000 0.0000 5.6218 0.0000 0.0000
# 5 0.0000 0.0000 0.0000 0.0000 63.3424 0.0000
# 6 0.0000 0.0000 0.0000 0.0000 0.0000 25.9734
#
#
#
# Elastic Compliance Matrix: (Units=1/GPa)
#
#
# Indices 1 2 3 4 5 6 
#
# 1 0.008820 -0.000446 -0.004232 0.000000 0.000000 0.000000
# 2 -0.000446 0.013967 -0.006833 0.000000 0.000000 0.000000
# 3 -0.004232 -0.006833 0.015102 0.000000 0.000000 0.000000
# 4 0.000000 0.000000 0.000000 0.177878 0.000000 0.000000
# 5 0.000000 0.000000 0.000000 0.000000 0.015787 0.000000
# 6 0.000000 0.000000 0.000000 0.000000 0.000000 0.038501
#
#
# Mechanical properties :
#
#
# Convention : Reuss Voigt Hill
#
# Bulk Modulus (GPa) = 67.25680 68.62234 67.93957
# Shear Modulus (GPa) = 16.77669 32.81251 24.79460
#
# Velocity S-wave (km/s) = 2.64164 3.69437 3.21144
# Velocity P-wave (km/s) = 6.10573 6.83677 6.48156
#
# Compressibility (1/GPa) = 0.01486838
#
# Stress axis : x y z
#
# Youngs Moduli (GPa) = 113.37526 71.59567 66.21680
#
# Poissons Ratio (x) = 0.03192 0.28022
# Poissons Ratio (y) = 0.05054 0.45246
# Poissons Ratio (z) = 0.47978 0.48921
#
# Static dielectric constant tensor:
#      x y z
#    x 2.079680 0.000000 0.000000 
#    y 0.000000 1.894480 0.000000 
#    z 0.000000 0.000000 1.952720 
# 
# From -- ./inp_files/4167.got.cif
#   From: 2010.05.17/outbox.cif.g08.bks.cpg/sg29_3_cif.got.tgz:4167.got - 2010.06.04 01:19:37.
