data_PCOD9341681
_publ_section_title
;
Structure prediction by ZEFSAII (Michael W. Deem and Ramdas Pophale) SiO2 
 PCOD9341681
Probable space group: P C A 21
;
_chemical_formula_sum "Si O2"
_cell_formula_units_Z 20
_cell_length_a 15.235617
_cell_length_b 5.208035
_cell_length_c 9.338094
_cell_angle_alpha 90.000000
_cell_angle_beta 90.000000
_cell_angle_gamma 90.000000
_cell_volume 740.955596
_symmetry_space_group_name_H-M "P C A 21"
_symmetry_group_IT_number 29
_symmetry_cell_setting 'orthorhombic'
loop_
_space_group_symop_operation_xyz
x,y,z
-x,-y,1/2+z
1/2-x,y,1/2+z
1/2+x,-y,z
loop_
_atom_site_type_symbol
_atom_site_label
_atom_site_fract_x
_atom_site_fract_y
_atom_site_fract_z
Si Si1 0.717055 0.533749 0.817100
Si Si2 0.918406 0.509244 0.779948
Si Si3 0.683883 0.017432 0.631970
Si Si4 0.860739 0.180138 0.530726
Si Si5 0.502724 0.195188 0.518418
O O1 0.821054 0.586461 0.832583
O O2 0.677780 0.765289 0.727257
O O3 0.700917 0.272399 0.726522
O O4 0.670519 0.449683 0.963371
O O5 0.899201 0.253663 0.685557
O O6 0.964515 0.700475 0.668780
O O7 0.978858 0.429664 0.911606
O O8 0.772620 0.010599 0.538697
O O9 0.596463 0.063432 0.543493
O O10 0.935489 0.013389 0.456782
#
# Coordination Sequence:
#
# PCOD9341681 Si02
#       5
#     4   4   4   4   4
#     4  11  26  53  82 120 170 234 291 364 448 525
#     4  11  28  51  83 125 173 231 301 370 446 530
#     4  11  27  50  84 120 171 232 287 368 442 525
#     4  11  27  50  82 121 178 227 296 368 451 532
#     4  12  28  52  85 128 178 234 305 370 449 536
#
# _framework density 26.992169000000001
#
# number of rings (size 3 to 8) (size 9 to 14) (size 15 to 20)
#    0.000    0.800    4.000    0.000   11.200    0.000 
#    0.000    0.000    0.000    0.000    0.000    0.000 
#    0.000    0.000    0.000    0.000    0.000    0.000 
#
# Total GULP energy -112374.376971 kJ/mol
# GULP energy per Si atom -5618.718849 kJ/mol
# Density = 2.693073 g / cm^3
# Si number density = 26.992169 Si / 1000 Ang^3
#
#
#
# Elastic Constant Matrix: (Units=GPa)
#
#
# Indices 1 2 3 4 5 6 
#
# 1 167.1319 46.9567 46.7478 0.0000 0.0000 0.0000
# 2 46.9567 169.6935 52.8721 0.0000 0.0000 0.0000
# 3 46.7478 52.8721 94.7854 0.0000 0.0000 0.0000
# 4 0.0000 0.0000 0.0000 50.7915 0.0000 0.0000
# 5 0.0000 0.0000 0.0000 0.0000 40.2911 0.0000
# 6 0.0000 0.0000 0.0000 0.0000 0.0000 45.3218
#
#
#
# Elastic Compliance Matrix: (Units=1/GPa)
#
#
# Indices 1 2 3 4 5 6 
#
# 1 0.007094 -0.001057 -0.002909 0.000000 0.000000 0.000000
# 2 -0.001057 0.007290 -0.003545 0.000000 0.000000 0.000000
# 3 -0.002909 -0.003545 0.013963 0.000000 0.000000 0.000000
# 4 0.000000 0.000000 0.000000 0.019688 0.000000 0.000000
# 5 0.000000 0.000000 0.000000 0.000000 0.024819 0.000000
# 6 0.000000 0.000000 0.000000 0.000000 0.000000 0.022064
#
#
# Mechanical properties :
#
#
# Convention : Reuss Voigt Hill
#
# Bulk Modulus (GPa) = 75.05189 80.52931 77.79060
# Shear Modulus (GPa) = 43.71301 46.28316 44.99808
#
# Velocity S-wave (km/s) = 4.02863 4.14537 4.08742
# Velocity P-wave (km/s) = 7.03600 7.26713 7.15250
#
# Compressibility (1/GPa) = 0.01332411
#
# Stress axis : x y z
#
# Youngs Moduli (GPa) = 140.96630 137.17486 71.61964
#
# Poissons Ratio (x) = 0.14493 0.20837
# Poissons Ratio (y) = 0.14893 0.25392
# Poissons Ratio (z) = 0.41012 0.48633
#
# Static dielectric constant tensor:
#      x y z
#    x 2.075770 0.000000 0.000000 
#    y 0.000000 2.037250 0.000000 
#    z 0.000000 0.000000 2.163460 
# 
# From -- ./inp_files/3333.got.cif
#   From: 2010.05.17/outbox.cif.g08.bks.cpg/sg29_2_cif.got.tgz:3333.got - 2010.06.04 01:19:37.
