data_PCOD9341579
_publ_section_title
;
Structure prediction by ZEFSAII (Michael W. Deem and Ramdas Pophale) SiO2 
 PCOD9341579
Probable space group: P C A 21
;
_chemical_formula_sum "Si O2"
_cell_formula_units_Z 20
_cell_length_a 8.678834
_cell_length_b 7.446793
_cell_length_c 13.197648
_cell_angle_alpha 90.000000
_cell_angle_beta 90.000000
_cell_angle_gamma 90.000000
_cell_volume 852.957131
_symmetry_space_group_name_H-M "P C A 21"
_symmetry_group_IT_number 29
_symmetry_cell_setting 'orthorhombic'
loop_
_space_group_symop_operation_xyz
x,y,z
-x,-y,1/2+z
1/2-x,y,1/2+z
1/2+x,-y,z
loop_
_atom_site_type_symbol
_atom_site_label
_atom_site_fract_x
_atom_site_fract_y
_atom_site_fract_z
Si Si1 0.496539 0.916700 0.412750
Si Si2 0.080269 0.689742 0.476282
Si Si3 0.261389 0.376132 0.390198
Si Si4 0.903640 0.870033 0.227082
Si Si5 0.211016 0.861652 0.108295
O O1 0.625168 0.765010 0.411275
O O2 0.377947 0.879111 0.501939
O O3 0.571732 0.107731 0.437410
O O4 0.417363 0.961716 0.305611
O O5 0.181415 0.567213 0.402174
O O6 0.160377 0.709623 0.586084
O O7 0.903496 0.626269 0.469622
O O8 0.333622 0.300130 0.286021
O O9 0.073326 0.826268 0.186420
O O10 0.794425 0.952954 0.140574
#
# Coordination Sequence:
#
# PCOD9341579 Si02
#       5
#     4   4   4   4   4
#     4  11  24  47  80 105 155 198 250 318 380 444
#     4  11  24  44  75 104 148 196 244 307 376 436
#     4  11  25  49  75 109 154 198 246 316 377 445
#     4  11  25  44  78 115 146 203 257 308 381 458
#     4  12  24  44  82 113 145 205 259 303 386 459
#
# _framework density 23.447838000000001
#
# number of rings (size 3 to 8) (size 9 to 14) (size 15 to 20)
#    0.000    0.800    4.000    3.600    2.800    0.000 
#    0.000    8.000   13.200    0.000    0.000    0.000 
#    0.000    0.000    0.000    0.000    0.000    0.000 
#
# Total GULP energy -111804.470198 kJ/mol
# GULP energy per Si atom -5590.223510 kJ/mol
# Density = 2.339447 g / cm^3
# Si number density = 23.447838 Si / 1000 Ang^3
#
#
#
# Elastic Constant Matrix: (Units=GPa)
#
#
# Indices 1 2 3 4 5 6 
#
# 1 89.0758 21.3490 13.5632 0.0000 0.0000 0.0000
# 2 21.3490 81.7882 -6.0250 0.0000 0.0000 0.0000
# 3 13.5632 -6.0250 59.5791 0.0000 0.0000 0.0000
# 4 0.0000 0.0000 0.0000 31.0003 0.0000 0.0000
# 5 0.0000 0.0000 0.0000 0.0000 60.1551 0.0000
# 6 0.0000 0.0000 0.0000 0.0000 0.0000 29.6002
#
#
#
# Elastic Compliance Matrix: (Units=1/GPa)
#
#
# Indices 1 2 3 4 5 6 
#
# 1 0.012558 -0.003515 -0.003214 0.000000 0.000000 0.000000
# 2 -0.003515 0.013302 0.002145 0.000000 0.000000 0.000000
# 3 -0.003214 0.002145 0.017733 0.000000 0.000000 0.000000
# 4 0.000000 0.000000 0.000000 0.032258 0.000000 0.000000
# 5 0.000000 0.000000 0.000000 0.000000 0.016624 0.000000
# 6 0.000000 0.000000 0.000000 0.000000 0.000000 0.033784
#
#
# Mechanical properties :
#
#
# Convention : Reuss Voigt Hill
#
# Bulk Modulus (GPa) = 29.04787 32.02417 30.53602
# Shear Modulus (GPa) = 34.03641 37.58818 35.81230
#
# Velocity S-wave (km/s) = 3.81409 4.00816 3.91233
# Velocity P-wave (km/s) = 5.64018 5.92518 5.78443
#
# Compressibility (1/GPa) = 0.03442593
#
# Stress axis : x y z
#
# Youngs Moduli (GPa) = 79.62904 75.17544 56.39168
#
# Poissons Ratio (x) = 0.26423 0.18126
# Poissons Ratio (y) = 0.27988 -0.12098
# Poissons Ratio (z) = 0.25595 -0.16128
#
# Static dielectric constant tensor:
#      x y z
#    x 2.021500 0.000000 0.000000 
#    y 0.000000 1.829790 0.000000 
#    z 0.000000 0.000000 2.010600 
# 
# From -- ./inp_files/4168.got.cif
#   From: 2010.05.17/outbox.cif.g08.bks.cpg/sg29_3_cif.got.tgz:4168.got - 2010.06.04 01:19:37.
