data_PCOD9341075
_publ_section_title
;
Structure prediction by ZEFSAII (Michael W. Deem and Ramdas Pophale) SiO2 
 PCOD9341075
Probable space group: P C A 21
;
_chemical_formula_sum "Si O2"
_cell_formula_units_Z 24
_cell_length_a 8.172331
_cell_length_b 15.921248
_cell_length_c 7.650594
_cell_angle_alpha 90.000000
_cell_angle_beta 90.000000
_cell_angle_gamma 90.000000
_cell_volume 995.447158
_symmetry_space_group_name_H-M "P C A 21"
_symmetry_group_IT_number 29
_symmetry_cell_setting 'orthorhombic'
loop_
_space_group_symop_operation_xyz
x,y,z
-x,-y,1/2+z
1/2-x,y,1/2+z
1/2+x,-y,z
loop_
_atom_site_type_symbol
_atom_site_label
_atom_site_fract_x
_atom_site_fract_y
_atom_site_fract_z
Si Si1 0.319022 0.581774 0.048680
Si Si2 0.680979 0.081774 0.548677
Si Si3 0.482189 0.083004 0.185030
Si Si4 0.686911 0.750000 0.795854
Si Si5 0.983743 0.250000 0.156159
Si Si6 0.017811 0.416996 0.685032
O O1 0.376320 0.666571 0.145714
O O2 0.123373 0.585985 0.038814
O O3 0.371262 0.497688 0.150148
O O4 0.414685 0.578225 0.865228
O O5 0.585315 0.078225 0.365225
O O6 0.876627 0.085985 0.538811
O O7 0.623680 0.166571 0.645712
O O8 0.628739 0.997687 0.650145
O O9 0.372448 0.165703 0.199266
O O10 0.882484 0.750001 0.807881
O O11 0.627553 0.665703 0.699267
O O12 0.595592 0.750000 0.981202
#
# Coordination Sequence:
#
# PCOD9341075 Si02
#       6
#     4   4   4   4   4   4
#     4  11  23  40  61  88 119 155 196 242 292 347
#     4  11  23  40  61  88 119 155 196 242 292 347
#     4  11  23  40  61  88 119 155 196 242 292 347
#     4  10  23  40  60  86 118 154 195 240 291 346
#     4  10  23  40  60  86 118 154 195 240 291 346
#     4  11  23  40  61  88 119 155 196 242 292 347
#
# _framework density 24.109766
#
# number of rings (size 3 to 8) (size 9 to 14) (size 15 to 20)
#    0.000    1.333    0.000    5.000    0.000   10.667 
#    0.000    0.000    0.000    0.000    0.000    0.000 
#    0.000    0.000    0.000    0.000    0.000    0.000 
#
# Total GULP energy -134532.188445 kJ/mol
# GULP energy per Si atom -5605.507852 kJ/mol
# Density = 2.405489 g / cm^3
# Si number density = 24.109766 Si / 1000 Ang^3
#
#
#
# Elastic Constant Matrix: (Units=GPa)
#
#
# Indices 1 2 3 4 5 6 
#
# 1 71.2706 29.7189 -22.3076 0.0000 0.0000 0.0000
# 2 29.7189 184.9090 23.8275 0.0000 0.0000 0.0000
# 3 -22.3076 23.8275 61.4032 0.0000 0.0000 0.0000
# 4 0.0000 0.0000 0.0000 28.7845 0.0000 0.0000
# 5 0.0000 0.0000 0.0000 0.0000 38.5417 0.0000
# 6 0.0000 0.0000 0.0000 0.0000 0.0000 48.3582
#
#
#
# Elastic Compliance Matrix: (Units=1/GPa)
#
#
# Indices 1 2 3 4 5 6 
#
# 1 0.018254 -0.003988 0.008179 0.000000 0.000000 0.000000
# 2 -0.003988 0.006564 -0.003996 0.000000 0.000000 0.000000
# 3 0.008179 -0.003996 0.020808 0.000000 0.000000 0.000000
# 4 0.000000 0.000000 0.000000 0.034741 0.000000 0.000000
# 5 0.000000 0.000000 0.000000 0.000000 0.025946 0.000000
# 6 0.000000 0.000000 0.000000 0.000000 0.000000 0.020679
#
#
# Mechanical properties :
#
#
# Convention : Reuss Voigt Hill
#
# Bulk Modulus (GPa) = 21.73135 42.22892 31.98014
# Shear Modulus (GPa) = 35.22627 42.22647 38.72637
#
# Velocity S-wave (km/s) = 3.82655 4.18954 4.01216
# Velocity P-wave (km/s) = 5.34382 6.39971 5.89545
#
# Compressibility (1/GPa) = 0.04601647
#
# Stress axis : x y z
#
# Youngs Moduli (GPa) = 54.78276 152.34852 48.05886
#
# Poissons Ratio (x) = 0.60753 -0.39308
# Poissons Ratio (y) = 0.21846 0.19204
# Poissons Ratio (z) = -0.44807 0.60876
#
# Static dielectric constant tensor:
#      x y z
#    x 1.845160 0.000000 0.000000 
#    y 0.000000 1.833360 0.000000 
#    z 0.000000 0.000000 2.006950 
# 
# From -- ./inp_files/1131.got.cif
#   From: 2010.05.17/outbox.cif.g08.bks.cpg/sg29_1_cif.got.tgz:1131.got - 2010.06.04 01:19:37.
