data_PCOD9341023
_publ_section_title
;
Structure prediction by ZEFSAII (Michael W. Deem and Ramdas Pophale) SiO2 
 PCOD9341023
Probable space group: P C A 21
;
_chemical_formula_sum "Si O2"
_cell_formula_units_Z 32
_cell_length_a 30.866499
_cell_length_b 9.383413
_cell_length_c 4.996794
_cell_angle_alpha 90.000000
_cell_angle_beta 90.000000
_cell_angle_gamma 90.000000
_cell_volume 1447.236976
_symmetry_space_group_name_H-M "P C A 21"
_symmetry_group_IT_number 29
_symmetry_cell_setting 'orthorhombic'
loop_
_space_group_symop_operation_xyz
x,y,z
-x,-y,1/2+z
1/2-x,y,1/2+z
1/2+x,-y,z
loop_
_atom_site_type_symbol
_atom_site_label
_atom_site_fract_x
_atom_site_fract_y
_atom_site_fract_z
Si Si1 0.520042 0.432700 0.607510
Si Si2 0.108807 0.495872 0.298053
Si Si3 0.358866 0.950631 0.268383
Si Si4 0.409206 0.192309 0.975753
Si Si5 0.014501 0.193944 0.829042
Si Si6 0.778126 0.184466 0.473023
Si Si7 0.352926 0.636382 0.266992
Si Si8 0.057683 0.953075 0.097766
O O1 0.486818 0.512712 0.405026
O O2 0.566193 0.447868 0.460695
O O3 0.500441 0.274807 0.592506
O O4 0.105190 0.323184 0.288824
O O5 0.118486 0.571664 0.013266
O O6 0.146132 0.531718 0.515830
O O7 0.310822 0.942963 0.388991
O O8 0.365426 0.792865 0.137499
O O9 0.393814 0.932607 0.502998
O O10 0.371935 0.094823 0.114272
O O11 0.443353 0.259277 0.187582
O O12 0.436603 0.072275 0.823548
O O13 0.030330 0.033889 0.873101
O O14 0.969477 0.183202 0.673252
O O15 0.736858 0.179770 0.277732
O O16 0.806852 0.323069 0.399730
#
# Coordination Sequence:
#
# PCOD9341023 Si02
#       8
#     4   4   4   4   4   4   4   4
#     4  12  25  39  59  85 128 178 238 273 331 366
#     4  12  24  43  63  95 139 176 229 281 330 399
#     4   9  25  39  70 100 126 173 223 273 344 406
#     4  11  24  41  62  92 138 183 226 280 342 390
#     4  11  23  37  57  86 123 187 229 285 314 383
#     4  10  22  44  76 106 133 159 218 279 348 422
#     4  10  25  42  69 102 124 171 218 271 342 401
#     4  11  22  39  60  88 135 171 239 272 337 381
#
# _framework density 22.111098999999999
#
# number of rings (size 3 to 8) (size 9 to 14) (size 15 to 20)
#    0.750    0.500    2.500    3.000    8.750    0.000 
#    0.000    0.000    0.000    4.500    0.000    0.000 
#    0.000    0.000    0.000    0.000    0.000    0.000 
#
# Total GULP energy -178353.407990 kJ/mol
# GULP energy per Si atom -5573.544000 kJ/mol
# Density = 2.206077 g / cm^3
# Si number density = 22.111099 Si / 1000 Ang^3
#
#
#
# Elastic Constant Matrix: (Units=GPa)
#
#
# Indices 1 2 3 4 5 6 
#
# 1 71.5255 16.5952 1.8841 0.0000 0.0000 0.0000
# 2 16.5952 83.7809 18.2597 0.0000 0.0000 0.0000
# 3 1.8841 18.2597 58.6584 0.0000 0.0000 0.0000
# 4 0.0000 0.0000 0.0000 33.4874 0.0000 0.0000
# 5 0.0000 0.0000 0.0000 0.0000 34.2080 0.0000
# 6 0.0000 0.0000 0.0000 0.0000 0.0000 23.0505
#
#
#
# Elastic Compliance Matrix: (Units=1/GPa)
#
#
# Indices 1 2 3 4 5 6 
#
# 1 0.014666 -0.003006 0.000465 0.000000 0.000000 0.000000
# 2 -0.003006 0.013421 -0.004081 0.000000 0.000000 0.000000
# 3 0.000465 -0.004081 0.018303 0.000000 0.000000 0.000000
# 4 0.000000 0.000000 0.000000 0.029862 0.000000 0.000000
# 5 0.000000 0.000000 0.000000 0.000000 0.029233 0.000000
# 6 0.000000 0.000000 0.000000 0.000000 0.000000 0.043383
#
#
# Mechanical properties :
#
#
# Convention : Reuss Voigt Hill
#
# Bulk Modulus (GPa) = 30.17051 31.93808 31.05430
# Shear Modulus (GPa) = 28.87462 29.96423 29.41943
#
# Velocity S-wave (km/s) = 3.61763 3.68525 3.65160
# Velocity P-wave (km/s) = 5.57891 5.70823 5.64394
#
# Compressibility (1/GPa) = 0.03314495
#
# Stress axis : x y z
#
# Youngs Moduli (GPa) = 68.18341 74.51075 54.63481
#
# Poissons Ratio (x) = 0.22401 -0.02539
# Poissons Ratio (y) = 0.20499 0.22298
# Poissons Ratio (z) = -0.03169 0.30409
#
# Static dielectric constant tensor:
#      x y z
#    x 1.859400 0.000000 0.000000 
#    y 0.000000 1.927760 0.000000 
#    z 0.000000 0.000000 1.918210 
# 
# From -- ./inp_files/907.got.cif
#   From: 2010.05.17/outbox.cif.g08.bks.cpg/sg29_1_cif.got.tgz:907.got - 2010.06.04 01:19:37.
