data_PCOD9341606
_publ_section_title
;
Structure prediction by ZEFSAII (Michael W. Deem and Ramdas Pophale) SiO2 
 PCOD9341606
Probable space group: P C A 21
;
_chemical_formula_sum "Si O2"
_cell_formula_units_Z 28
_cell_length_a 14.312308
_cell_length_b 9.118965
_cell_length_c 9.211626
_cell_angle_alpha 90.000000
_cell_angle_beta 90.000000
_cell_angle_gamma 90.000000
_cell_volume 1202.240958
_symmetry_space_group_name_H-M "P C A 21"
_symmetry_group_IT_number 29
_symmetry_cell_setting 'orthorhombic'
loop_
_space_group_symop_operation_xyz
x,y,z
-x,-y,1/2+z
1/2-x,y,1/2+z
1/2+x,-y,z
loop_
_atom_site_type_symbol
_atom_site_label
_atom_site_fract_x
_atom_site_fract_y
_atom_site_fract_z
Si Si1 0.874162 0.976817 0.814530
Si Si2 0.063362 0.698143 0.353742
Si Si3 0.216246 0.100937 0.007708
Si Si4 0.639411 0.629462 0.852135
Si Si5 0.579330 0.139059 0.871298
Si Si6 0.663127 0.367721 0.641873
Si Si7 0.626292 0.375803 0.075191
O O1 0.815465 0.916503 0.675550
O O2 0.820977 0.944436 0.965783
O O3 0.978755 0.911662 0.813755
O O4 0.882944 0.152527 0.815275
O O5 0.088860 0.645307 0.513176
O O6 0.098818 0.581278 0.237065
O O7 0.954644 0.719228 0.324478
O O8 0.207529 0.261561 0.936046
O O9 0.146140 0.993424 0.919495
O O10 0.668806 0.529125 0.715709
O O11 0.610727 0.508227 0.968824
O O12 0.633048 0.245656 0.759014
O O13 0.567300 0.239995 0.014185
O O14 0.764516 0.334229 0.575513
#
# Coordination Sequence:
#
# PCOD9341606 Si02
#       7
#     4   4   4   4   4   4   4
#     4  12  28  46  80 109 155 205 263 327 389 463
#     4  12  23  45  74 108 146 199 251 311 381 462
#     4  12  27  49  73 111 151 199 261 326 388 455
#     4  11  26  47  69 108 148 192 251 319 385 449
#     4  11  25  49  76 109 148 201 253 314 386 462
#     4  11  25  47  75 107 150 198 251 308 383 467
#     4  11  24  47  73 106 146 198 250 307 378 460
#
# _framework density 23.289842
#
# number of rings (size 3 to 8) (size 9 to 14) (size 15 to 20)
#    0.000    0.571    2.857    5.143    4.000    2.286 
#    5.143    0.000    0.000    0.000    0.000    0.000 
#    0.000    0.000    0.000    0.000    0.000    0.000 
#
# Total GULP energy -156605.943214 kJ/mol
# GULP energy per Si atom -5593.069401 kJ/mol
# Density = 2.323683 g / cm^3
# Si number density = 23.289842 Si / 1000 Ang^3
#
#
#
# Elastic Constant Matrix: (Units=GPa)
#
#
# Indices 1 2 3 4 5 6 
#
# 1 59.7943 -18.9890 -1.7990 0.0000 0.0000 0.0000
# 2 -18.9890 77.3052 29.6185 0.0000 0.0000 0.0000
# 3 -1.7990 29.6185 92.5363 0.0000 0.0000 0.0000
# 4 0.0000 0.0000 0.0000 7.5573 0.0000 0.0000
# 5 0.0000 0.0000 0.0000 0.0000 36.2120 0.0000
# 6 0.0000 0.0000 0.0000 0.0000 0.0000 16.0492
#
#
#
# Elastic Compliance Matrix: (Units=1/GPa)
#
#
# Indices 1 2 3 4 5 6 
#
# 1 0.018261 0.004958 -0.001232 0.000000 0.000000 0.000000
# 2 0.004958 0.016090 -0.005054 0.000000 0.000000 0.000000
# 3 -0.001232 -0.005054 0.012400 0.000000 0.000000 0.000000
# 4 0.000000 0.000000 0.000000 0.132322 0.000000 0.000000
# 5 0.000000 0.000000 0.000000 0.000000 0.027615 0.000000
# 6 0.000000 0.000000 0.000000 0.000000 0.000000 0.062309
#
#
# Mechanical properties :
#
#
# Convention : Reuss Voigt Hill
#
# Bulk Modulus (GPa) = 22.67793 27.47742 25.07768
# Shear Modulus (GPa) = 17.46110 26.68405 22.07258
#
# Velocity S-wave (km/s) = 2.74109 3.38855 3.08187
# Velocity P-wave (km/s) = 4.44708 5.20896 4.84303
#
# Compressibility (1/GPa) = 0.04409574
#
# Stress axis : x y z
#
# Youngs Moduli (GPa) = 54.76053 62.15155 80.64429
#
# Poissons Ratio (x) = -0.30812 0.09934
# Poissons Ratio (y) = -0.27148 0.40754
# Poissons Ratio (z) = 0.06745 0.31408
#
# Static dielectric constant tensor:
#      x y z
#    x 1.878660 0.000000 0.000000 
#    y 0.000000 1.905720 0.000000 
#    z 0.000000 0.000000 1.894410 
# 
# From -- ./inp_files/1772.got.cif
#   From: 2010.05.17/outbox.cif.g08.bks.cpg/sg29_1_cif.got.tgz:1772.got - 2010.06.04 01:19:37.
