data_PCOD9341228
_publ_section_title
;
Structure prediction by ZEFSAII (Michael W. Deem and Ramdas Pophale) SiO2 
 PCOD9341228
Probable space group: P C A 21
;
_chemical_formula_sum "Si O2"
_cell_formula_units_Z 20
_cell_length_a 5.276555
_cell_length_b 16.450996
_cell_length_c 9.847693
_cell_angle_alpha 90.000000
_cell_angle_beta 90.000000
_cell_angle_gamma 90.000000
_cell_volume 854.824906
_symmetry_space_group_name_H-M "P C A 21"
_symmetry_group_IT_number 29
_symmetry_cell_setting 'orthorhombic'
loop_
_space_group_symop_operation_xyz
x,y,z
-x,-y,1/2+z
1/2-x,y,1/2+z
1/2+x,-y,z
loop_
_atom_site_type_symbol
_atom_site_label
_atom_site_fract_x
_atom_site_fract_y
_atom_site_fract_z
Si Si1 0.836569 0.550654 0.940470
Si Si2 0.918534 0.979027 0.300583
Si Si3 0.682464 0.659460 0.696315
Si Si4 0.167901 0.762586 0.700176
Si Si5 0.257568 0.868108 0.945674
O O1 0.618409 0.483445 0.916703
O O2 0.765054 0.624274 0.841413
O O3 0.823157 0.584292 0.092764
O O4 0.890535 0.048100 0.417956
O O5 0.661046 0.988180 0.220651
O O6 0.978781 0.893439 0.369797
O O7 0.409805 0.702826 0.697029
O O8 0.909372 0.719729 0.654654
O O9 0.141412 0.798050 0.851315
O O10 0.220677 0.836299 0.596326
#
# Coordination Sequence:
#
# PCOD9341228 Si02
#       5
#     4   4   4   4   4
#     4  12  24  45  73  92 128 160 206 248 304 356
#     4   8  20  38  60  86 120 154 230 252 308 354
#     4  12  26  43  63 102 124 164 202 252 300 390
#     4  12  26  39  67  86 140 156 210 244 332 358
#     4  10  24  41  61  92 118 178 200 274 302 364
#
# _framework density 23.396602999999999
#
# number of rings (size 3 to 8) (size 9 to 14) (size 15 to 20)
#    1.200    0.000    0.000    6.000    5.600    1.600 
#    0.000    0.000    0.000    0.000    0.000    0.000 
#    0.000    0.000    0.000    0.000    0.000    0.000 
#
# Total GULP energy -111735.810699 kJ/mol
# GULP energy per Si atom -5586.790535 kJ/mol
# Density = 2.334335 g / cm^3
# Si number density = 23.396603 Si / 1000 Ang^3
#
#
#
# Elastic Constant Matrix: (Units=GPa)
#
#
# Indices 1 2 3 4 5 6 
#
# 1 85.0316 3.2803 -3.0795 0.0000 0.0000 0.0000
# 2 3.2803 48.3933 1.1753 0.0000 0.0000 0.0000
# 3 -3.0795 1.1753 64.6145 0.0000 0.0000 0.0000
# 4 0.0000 0.0000 0.0000 40.4969 0.0000 0.0000
# 5 0.0000 0.0000 0.0000 0.0000 12.9629 0.0000
# 6 0.0000 0.0000 0.0000 0.0000 0.0000 39.4317
#
#
#
# Elastic Compliance Matrix: (Units=1/GPa)
#
#
# Indices 1 2 3 4 5 6 
#
# 1 0.011813 -0.000815 0.000578 0.000000 0.000000 0.000000
# 2 -0.000815 0.020729 -0.000416 0.000000 0.000000 0.000000
# 3 0.000578 -0.000416 0.015512 0.000000 0.000000 0.000000
# 4 0.000000 0.000000 0.000000 0.024693 0.000000 0.000000
# 5 0.000000 0.000000 0.000000 0.000000 0.077143 0.000000
# 6 0.000000 0.000000 0.000000 0.000000 0.000000 0.025360
#
#
# Mechanical properties :
#
#
# Convention : Reuss Voigt Hill
#
# Bulk Modulus (GPa) = 21.39134 22.31018 21.85076
# Shear Modulus (GPa) = 26.02290 31.68918 28.85604
#
# Velocity S-wave (km/s) = 3.33866 3.68426 3.51571
# Velocity P-wave (km/s) = 4.90153 5.25877 5.08329
#
# Compressibility (1/GPa) = 0.04674789
#
# Stress axis : x y z
#
# Youngs Moduli (GPa) = 84.65467 48.24078 64.46826
#
# Poissons Ratio (x) = 0.03930 -0.03725
# Poissons Ratio (y) = 0.06897 0.02681
# Poissons Ratio (z) = -0.04891 0.02006
#
# Static dielectric constant tensor:
#      x y z
#    x 2.008020 0.000000 0.000000 
#    y 0.000000 1.847470 0.000000 
#    z 0.000000 0.000000 1.804110 
# 
# From -- ./inp_files/985.got.cif
#   From: 2010.05.17/outbox.cif.g08.bks.cpg/sg29_1_cif.got.tgz:985.got - 2010.06.04 01:19:37.
