data_PCOD9341046
_publ_section_title
;
Structure prediction by ZEFSAII (Michael W. Deem and Ramdas Pophale) SiO2 
 PCOD9341046
Probable space group: P C A 21
;
_chemical_formula_sum "Si O2"
_cell_formula_units_Z 20
_cell_length_a 29.403567
_cell_length_b 4.968302
_cell_length_c 5.246021
_cell_angle_alpha 90.000000
_cell_angle_beta 90.000000
_cell_angle_gamma 90.000000
_cell_volume 766.369178
_symmetry_space_group_name_H-M "P C A 21"
_symmetry_group_IT_number 29
_symmetry_cell_setting 'orthorhombic'
loop_
_space_group_symop_operation_xyz
x,y,z
-x,-y,1/2+z
1/2-x,y,1/2+z
1/2+x,-y,z
loop_
_atom_site_type_symbol
_atom_site_label
_atom_site_fract_x
_atom_site_fract_y
_atom_site_fract_z
Si Si1 0.896689 0.383965 0.534760
Si Si2 0.219880 0.859566 0.489374
Si Si3 0.418899 0.105762 0.855468
Si Si4 0.160166 0.372936 0.639663
Si Si5 0.989985 0.324138 0.323739
O O1 0.913079 0.670608 0.636252
O O2 0.850028 0.460685 0.398084
O O3 0.936569 0.260954 0.355053
O O4 0.896200 0.169296 0.763358
O O5 0.241007 0.864124 0.206694
O O6 0.189835 0.109689 0.587582
O O7 0.188437 0.595862 0.488974
O O8 0.473440 0.086382 0.874511
O O9 0.390054 0.256794 0.071930
O O10 0.002937 0.523310 0.557985
#
# Coordination Sequence:
#
# PCOD9341046 Si02
#       5
#     4   4   4   4   4
#     4  11  25  44  74 108 154 205 254 310 373 453
#     4  12  30  52  82 110 150 194 248 328 404 468
#     4  11  25  44  74 108 154 205 254 310 373 453
#     4  12  26  50  80 110 152 194 262 312 388 468
#     4  10  22  46  68 108 156 202 254 308 368 440
#
# _framework density 26.097079999999998
#
# number of rings (size 3 to 8) (size 9 to 14) (size 15 to 20)
#    0.000    0.800    2.000    3.600    8.400    6.400 
#    3.600    0.000    0.000    0.000    0.000    0.000 
#    0.000    0.000    0.000    0.000    0.000    0.000 
#
# Total GULP energy -111788.453400 kJ/mol
# GULP energy per Si atom -5589.422670 kJ/mol
# Density = 2.603768 g / cm^3
# Si number density = 26.097080 Si / 1000 Ang^3
#
#
#
# Elastic Constant Matrix: (Units=GPa)
#
#
# Indices 1 2 3 4 5 6 
#
# 1 66.7981 45.2930 9.6223 0.0000 0.0000 0.0000
# 2 45.2930 112.3670 17.2003 0.0000 0.0000 0.0000
# 3 9.6223 17.2003 78.4464 0.0000 0.0000 0.0000
# 4 0.0000 0.0000 0.0000 34.5336 0.0000 0.0000
# 5 0.0000 0.0000 0.0000 0.0000 41.1006 0.0000
# 6 0.0000 0.0000 0.0000 0.0000 0.0000 43.5597
#
#
#
# Elastic Compliance Matrix: (Units=1/GPa)
#
#
# Indices 1 2 3 4 5 6 
#
# 1 0.020642 -0.008208 -0.000732 0.000000 0.000000 0.000000
# 2 -0.008208 0.012472 -0.001728 0.000000 0.000000 0.000000
# 3 -0.000732 -0.001728 0.013216 0.000000 0.000000 0.000000
# 4 0.000000 0.000000 0.000000 0.028957 0.000000 0.000000
# 5 0.000000 0.000000 0.000000 0.000000 0.024331 0.000000
# 6 0.000000 0.000000 0.000000 0.000000 0.000000 0.022957
#
#
# Mechanical properties :
#
#
# Convention : Reuss Voigt Hill
#
# Bulk Modulus (GPa) = 40.00997 44.64919 42.32958
# Shear Modulus (GPa) = 32.84226 36.20516 34.52371
#
# Velocity S-wave (km/s) = 3.55133 3.72872 3.64111
# Velocity P-wave (km/s) = 5.67278 5.97360 5.82513
#
# Compressibility (1/GPa) = 0.02499377
#
# Stress axis : x y z
#
# Youngs Moduli (GPa) = 48.44597 80.17670 75.66454
#
# Poissons Ratio (x) = 0.65810 0.05540
# Poissons Ratio (y) = 0.39765 0.13074
# Poissons Ratio (z) = 0.03547 0.13854
#
# Static dielectric constant tensor:
#      x y z
#    x 2.174040 0.000000 0.000000 
#    y 0.000000 1.946950 0.000000 
#    z 0.000000 0.000000 2.135160 
# 
# From -- ./inp_files/739.got.cif
#   From: 2010.05.17/outbox.cif.g08.bks.cpg/sg29_1_cif.got.tgz:739.got - 2010.06.04 01:19:37.
