data_PCOD9341607
_publ_section_title
;
Structure prediction by ZEFSAII (Michael W. Deem and Ramdas Pophale) SiO2 
 PCOD9341607
Probable space group: P C A 21
;
_chemical_formula_sum "Si O2"
_cell_formula_units_Z 32
_cell_length_a 10.896971
_cell_length_b 15.214493
_cell_length_c 9.026181
_cell_angle_alpha 90.000000
_cell_angle_beta 90.000000
_cell_angle_gamma 90.000000
_cell_volume 1496.467598
_symmetry_space_group_name_H-M "P C A 21"
_symmetry_group_IT_number 29
_symmetry_cell_setting 'orthorhombic'
loop_
_space_group_symop_operation_xyz
x,y,z
-x,-y,1/2+z
1/2-x,y,1/2+z
1/2+x,-y,z
loop_
_atom_site_type_symbol
_atom_site_label
_atom_site_fract_x
_atom_site_fract_y
_atom_site_fract_z
Si Si1 0.621310 0.034433 0.193890
Si Si2 0.240087 0.347270 0.770765
Si Si3 0.867794 0.469611 0.386272
Si Si4 0.349892 0.764023 0.604388
Si Si5 0.365847 0.033674 0.030012
Si Si6 0.664155 0.325303 0.414472
Si Si7 0.887226 0.756532 0.020491
Si Si8 0.024941 0.416871 0.106967
O O1 0.632915 0.139027 0.169578
O O2 0.489606 0.008404 0.121532
O O3 0.625765 0.007258 0.365734
O O4 0.739983 0.994447 0.110642
O O5 0.178296 0.434605 0.835152
O O6 0.149663 0.285380 0.677989
O O7 0.345060 0.381971 0.660351
O O8 0.308515 0.291726 0.896344
O O9 0.753736 0.409315 0.429869
O O10 0.939657 0.427756 0.249680
O O11 0.956000 0.489993 0.524715
O O12 0.229382 0.752265 0.505831
O O13 0.467211 0.742990 0.502449
O O14 0.345556 0.699011 0.743612
O O15 0.364127 0.139487 0.017700
O O16 0.538319 0.351019 0.492090
#
# Coordination Sequence:
#
# PCOD9341607 Si02
#       8
#     4   4   4   4   4   4   4   4
#     4  11  24  47  74 105 142 184 232 289 357 430
#     4  12  25  46  65 100 135 179 230 279 342 398
#     4  12  26  44  68  94 136 180 228 282 340 406
#     4  11  26  45  70 101 138 176 228 285 338 413
#     4  11  24  47  74 105 142 184 232 289 357 430
#     4  12  25  46  65 100 135 179 230 279 342 398
#     4  11  26  45  70 101 138 176 228 285 338 413
#     4  12  26  42  68  94 130 182 224 284 336 402
#
# _framework density 21.383689
#
# number of rings (size 3 to 8) (size 9 to 14) (size 15 to 20)
#    0.000    0.500    2.500    5.250    5.250    2.000 
#    4.500    0.000    0.000    0.000    0.000    0.000 
#    0.000    0.000    0.000    0.000    0.000    0.000 
#
# Total GULP energy -179198.956606 kJ/mol
# GULP energy per Si atom -5599.967394 kJ/mol
# Density = 2.133502 g / cm^3
# Si number density = 21.383689 Si / 1000 Ang^3
#
#
#
# Elastic Constant Matrix: (Units=GPa)
#
#
# Indices 1 2 3 4 5 6 
#
# 1 85.2325 10.9568 25.4519 0.0000 0.0000 0.0000
# 2 10.9568 61.7882 5.2133 0.0000 0.0000 0.0000
# 3 25.4519 5.2133 78.5349 0.0000 0.0000 0.0000
# 4 0.0000 0.0000 0.0000 31.5821 0.0000 0.0000
# 5 0.0000 0.0000 0.0000 0.0000 47.9705 0.0000
# 6 0.0000 0.0000 0.0000 0.0000 0.0000 31.0860
#
#
#
# Elastic Compliance Matrix: (Units=1/GPa)
#
#
# Indices 1 2 3 4 5 6 
#
# 1 0.013230 -0.001995 -0.004155 0.000000 0.000000 0.000000
# 2 -0.001995 0.016576 -0.000454 0.000000 0.000000 0.000000
# 3 -0.004155 -0.000454 0.014110 0.000000 0.000000 0.000000
# 4 0.000000 0.000000 0.000000 0.031663 0.000000 0.000000
# 5 0.000000 0.000000 0.000000 0.000000 0.020846 0.000000
# 6 0.000000 0.000000 0.000000 0.000000 0.000000 0.032169
#
#
# Mechanical properties :
#
#
# Convention : Reuss Voigt Hill
#
# Bulk Modulus (GPa) = 32.56505 34.31104 33.43804
# Shear Modulus (GPa) = 32.88623 34.38995 33.63809
#
# Velocity S-wave (km/s) = 3.92588 4.01463 3.97050
# Velocity P-wave (km/s) = 5.98431 6.12943 6.05731
#
# Compressibility (1/GPa) = 0.03070777
#
# Stress axis : x y z
#
# Youngs Moduli (GPa) = 75.58617 60.32651 70.87208
#
# Poissons Ratio (x) = 0.12038 0.29448
# Poissons Ratio (y) = 0.15083 0.03215
# Poissons Ratio (z) = 0.31407 0.02737
#
# Static dielectric constant tensor:
#      x y z
#    x 1.761200 0.000000 0.000000 
#    y 0.000000 1.753980 0.000000 
#    z 0.000000 0.000000 1.756870 
# 
# From -- ./inp_files/1550.got.cif
#   From: 2010.05.17/outbox.cif.g08.bks.cpg/sg29_1_cif.got.tgz:1550.got - 2010.06.04 01:19:37.
