data_PCOD9341428
_publ_section_title
;
Structure prediction by ZEFSAII (Michael W. Deem and Ramdas Pophale) SiO2 
 PCOD9341428
Probable space group: P C A 21
;
_chemical_formula_sum "Si O2"
_cell_formula_units_Z 32
_cell_length_a 14.725547
_cell_length_b 8.806191
_cell_length_c 11.699927
_cell_angle_alpha 90.000000
_cell_angle_beta 90.000000
_cell_angle_gamma 90.000000
_cell_volume 1517.199493
_symmetry_space_group_name_H-M "P C A 21"
_symmetry_group_IT_number 29
_symmetry_cell_setting 'orthorhombic'
loop_
_space_group_symop_operation_xyz
x,y,z
-x,-y,1/2+z
1/2-x,y,1/2+z
1/2+x,-y,z
loop_
_atom_site_type_symbol
_atom_site_label
_atom_site_fract_x
_atom_site_fract_y
_atom_site_fract_z
Si Si1 0.557099 0.753969 0.655860
Si Si2 0.073930 0.590394 0.588756
Si Si3 0.444368 0.186103 0.718891
Si Si4 0.249000 0.757990 0.688365
Si Si5 0.903933 0.261054 0.848641
Si Si6 0.377226 0.080845 0.946397
Si Si7 0.620321 0.994913 0.791584
Si Si8 0.678307 0.987646 0.039320
O O1 0.574100 0.588145 0.608040
O O2 0.474271 0.746362 0.744378
O O3 0.555683 0.867282 0.547707
O O4 0.633119 0.830065 0.736814
O O5 0.169258 0.657552 0.635699
O O6 0.066623 0.637535 0.455911
O O7 0.992433 0.668423 0.661562
O O8 0.394242 0.194577 0.840959
O O9 0.372945 0.111029 0.633195
O O10 0.529199 0.072661 0.743288
O O11 0.312244 0.685036 0.785031
O O12 0.201387 0.898610 0.752309
O O13 0.305115 0.842783 0.588521
O O14 0.892067 0.090815 0.900371
O O15 0.275952 0.078435 0.999302
O O16 0.617714 0.988985 0.926436
#
# Coordination Sequence:
#
# PCOD9341428 Si02
#       8
#     4   4   4   4   4   4   4   4
#     4  12  27  45  69 103 148 189 235 292 376 439
#     4  11  27  50  64 104 154 189 234 294 371 445
#     4  11  25  40  71  98 140 189 233 299 356 419
#     4  11  21  44  72 105 138 182 238 299 356 417
#     4  12  24  47  75 103 139 194 243 301 354 427
#     4  12  24  43  71 105 137 180 251 301 344 419
#     4  11  21  39  69 104 132 177 241 293 348 419
#     4  12  21  40  73 104 136 174 243 303 349 401
#
# _framework density 21.091491000000001
#
# number of rings (size 3 to 8) (size 9 to 14) (size 15 to 20)
#    0.000    0.500    6.250    1.500    5.250    0.000 
#    4.500    0.000    0.000    0.000    0.000    0.000 
#    0.000    0.000    0.000    0.000    0.000    0.000 
#
# Total GULP energy -178826.411695 kJ/mol
# GULP energy per Si atom -5588.325365 kJ/mol
# Density = 2.104349 g / cm^3
# Si number density = 21.091491 Si / 1000 Ang^3
#
#
#
# Elastic Constant Matrix: (Units=GPa)
#
#
# Indices 1 2 3 4 5 6 
#
# 1 63.6114 29.6297 59.3508 0.0000 0.0000 0.0000
# 2 29.6297 51.3454 36.0393 0.0000 0.0000 0.0000
# 3 59.3508 36.0393 176.6620 0.0000 0.0000 0.0000
# 4 0.0000 0.0000 0.0000 21.7127 0.0000 0.0000
# 5 0.0000 0.0000 0.0000 0.0000 56.1291 0.0000
# 6 0.0000 0.0000 0.0000 0.0000 0.0000 12.4338
#
#
#
# Elastic Compliance Matrix: (Units=1/GPa)
#
#
# Indices 1 2 3 4 5 6 
#
# 1 0.027253 -0.010855 -0.006941 0.000000 0.000000 0.000000
# 2 -0.010855 0.027054 -0.001872 0.000000 0.000000 0.000000
# 3 -0.006941 -0.001872 0.008375 0.000000 0.000000 0.000000
# 4 0.000000 0.000000 0.000000 0.046056 0.000000 0.000000
# 5 0.000000 0.000000 0.000000 0.000000 0.017816 0.000000
# 6 0.000000 0.000000 0.000000 0.000000 0.000000 0.080426
#
#
# Mechanical properties :
#
#
# Convention : Reuss Voigt Hill
#
# Bulk Modulus (GPa) = 42.83637 60.18425 51.51031
# Shear Modulus (GPa) = 19.67744 29.16171 24.41958
#
# Velocity S-wave (km/s) = 3.05775 3.72241 3.40633
# Velocity P-wave (km/s) = 5.72890 6.86089 6.32029
#
# Compressibility (1/GPa) = 0.02334465
#
# Stress axis : x y z
#
# Youngs Moduli (GPa) = 36.69327 36.96314 119.40961
#
# Poissons Ratio (x) = 0.40122 0.82888
# Poissons Ratio (y) = 0.39829 0.22358
# Poissons Ratio (z) = 0.25471 0.06921
#
# Static dielectric constant tensor:
#      x y z
#    x 1.823350 0.000000 0.000000 
#    y 0.000000 1.734610 0.000000 
#    z 0.000000 0.000000 1.781620 
# 
# From -- ./inp_files/3481.got.cif
#   From: 2010.05.17/outbox.cif.g08.bks.cpg/sg29_2_cif.got.tgz:3481.got - 2010.06.04 01:19:37.
