data_PCOD9341146
_publ_section_title
;
Structure prediction by ZEFSAII (Michael W. Deem and Ramdas Pophale) SiO2 
 PCOD9341146
Probable space group: P C A 21
;
_chemical_formula_sum "Si O2"
_cell_formula_units_Z 32
_cell_length_a 10.873373
_cell_length_b 6.859260
_cell_length_c 17.845579
_cell_angle_alpha 90.000000
_cell_angle_beta 90.000000
_cell_angle_gamma 90.000000
_cell_volume 1330.982038
_symmetry_space_group_name_H-M "P C A 21"
_symmetry_group_IT_number 29
_symmetry_cell_setting 'orthorhombic'
loop_
_space_group_symop_operation_xyz
x,y,z
-x,-y,1/2+z
1/2-x,y,1/2+z
1/2+x,-y,z
loop_
_atom_site_type_symbol
_atom_site_label
_atom_site_fract_x
_atom_site_fract_y
_atom_site_fract_z
Si Si1 0.370619 0.344441 0.378240
Si Si2 0.002098 0.968781 0.910372
Si Si3 0.658676 0.329186 0.761760
Si Si4 0.448912 0.188207 0.648606
Si Si5 0.185557 0.278065 0.507547
Si Si6 0.848854 0.074366 0.540445
Si Si7 0.306236 0.054394 0.787440
Si Si8 0.220930 0.529040 0.119999
O O1 0.397231 0.535296 0.327874
O O2 0.281645 0.378253 0.449225
O O3 0.290513 0.204100 0.323495
O O4 0.482014 0.207112 0.408670
O O5 0.936183 0.937127 0.831300
O O6 0.920626 0.819748 0.959955
O O7 0.130237 0.911955 0.950909
O O8 0.562415 0.239652 0.701941
O O9 0.746563 0.453045 0.707003
O O10 0.741516 0.154893 0.793394
O O11 0.342944 0.100678 0.702788
O O12 0.394941 0.385626 0.614094
O O13 0.464268 0.028696 0.583123
O O14 0.167321 0.433377 0.573037
O O15 0.247321 0.091621 0.546197
O O16 0.812295 0.267853 0.582172
#
# Coordination Sequence:
#
# PCOD9341146 Si02
#       8
#     4   4   4   4   4   4   4   4
#     4  10  23  45  66 101 139 181 241 288 364 437
#     4  10  23  43  74  95 137 191 233 301 364 436
#     4  12  26  41  73 103 140 196 238 305 365 439
#     4  11  25  42  66 103 140 183 241 292 368 435
#     4   9  23  44  66 100 139 178 234 298 354 432
#     4  10  23  45  66  99 139 185 235 291 367 429
#     4  11  23  45  64 100 144 183 235 299 365 430
#     4  11  24  43  69 103 142 185 239 302 357 444
#
# _framework density 24.042397999999999
#
# number of rings (size 3 to 8) (size 9 to 14) (size 15 to 20)
#    0.000    1.500    2.500    0.750    5.250    5.000 
#    0.000    5.000    0.000    0.000    0.000    0.000 
#    0.000    0.000    0.000    0.000    0.000    0.000 
#
# Total GULP energy -178472.531253 kJ/mol
# GULP energy per Si atom -5577.266602 kJ/mol
# Density = 2.398768 g / cm^3
# Si number density = 24.042398 Si / 1000 Ang^3
#
#
#
# Elastic Constant Matrix: (Units=GPa)
#
#
# Indices 1 2 3 4 5 6 
#
# 1 38.8326 20.5373 9.2100 0.0000 0.0000 0.0000
# 2 20.5373 121.3862 50.9069 0.0000 0.0000 0.0000
# 3 9.2100 50.9069 111.6375 0.0000 0.0000 0.0000
# 4 0.0000 0.0000 0.0000 58.2926 0.0000 0.0000
# 5 0.0000 0.0000 0.0000 0.0000 32.8715 0.0000
# 6 0.0000 0.0000 0.0000 0.0000 0.0000 23.6199
#
#
#
# Elastic Compliance Matrix: (Units=1/GPa)
#
#
# Indices 1 2 3 4 5 6 
#
# 1 0.028285 -0.004707 -0.000187 0.000000 0.000000 0.000000
# 2 -0.004707 0.010969 -0.004614 0.000000 0.000000 0.000000
# 3 -0.000187 -0.004614 0.011077 0.000000 0.000000 0.000000
# 4 0.000000 0.000000 0.000000 0.017155 0.000000 0.000000
# 5 0.000000 0.000000 0.000000 0.000000 0.030421 0.000000
# 6 0.000000 0.000000 0.000000 0.000000 0.000000 0.042337
#
#
# Mechanical properties :
#
#
# Convention : Reuss Voigt Hill
#
# Bulk Modulus (GPa) = 31.93277 48.12940 40.03109
# Shear Modulus (GPa) = 29.46378 35.70360 32.58369
#
# Velocity S-wave (km/s) = 3.50450 3.85778 3.68538
# Velocity P-wave (km/s) = 5.44849 6.31707 5.89879
#
# Compressibility (1/GPa) = 0.03131579
#
# Stress axis : x y z
#
# Youngs Moduli (GPa) = 35.35396 91.16192 90.27809
#
# Poissons Ratio (x) = 0.42911 0.01689
# Poissons Ratio (y) = 0.16642 0.41652
# Poissons Ratio (z) = 0.00661 0.42060
#
# Static dielectric constant tensor:
#      x y z
#    x 2.014120 0.000000 0.000000 
#    y 0.000000 1.941400 0.000000 
#    z 0.000000 0.000000 1.934260 
# 
# From -- ./inp_files/5520.got.cif
#   From: 2010.05.17/outbox.cif.g08.bks.cpg/sg29_3_cif.got.tgz:5520.got - 2010.06.04 01:19:37.
