data_PCOD9341047
_publ_section_title
;
Structure prediction by ZEFSAII (Michael W. Deem and Ramdas Pophale) SiO2 
 PCOD9341047
Probable space group: P C A 21
;
_chemical_formula_sum "Si O2"
_cell_formula_units_Z 24
_cell_length_a 10.358464
_cell_length_b 5.386017
_cell_length_c 17.358243
_cell_angle_alpha 90.000000
_cell_angle_beta 90.000000
_cell_angle_gamma 90.000000
_cell_volume 968.431361
_symmetry_space_group_name_H-M "P C A 21"
_symmetry_group_IT_number 29
_symmetry_cell_setting 'orthorhombic'
loop_
_space_group_symop_operation_xyz
x,y,z
-x,-y,1/2+z
1/2-x,y,1/2+z
1/2+x,-y,z
loop_
_atom_site_type_symbol
_atom_site_label
_atom_site_fract_x
_atom_site_fract_y
_atom_site_fract_z
Si Si1 0.942499 0.819311 0.759280
Si Si2 0.196787 0.894602 0.132489
Si Si3 0.445771 0.107881 0.485509
Si Si4 0.616120 0.467089 0.556407
Si Si5 0.687116 0.805832 0.421410
Si Si6 0.473962 0.325804 0.205229
O O1 0.865211 0.758253 0.836574
O O2 0.037917 0.587992 0.746379
O O3 0.835613 0.885457 0.693205
O O4 0.028235 0.073143 0.753863
O O5 0.326506 0.776135 0.099004
O O6 0.123683 0.671693 0.176606
O O7 0.115024 0.964239 0.057230
O O8 0.482192 0.378206 0.518760
O O9 0.333428 0.100143 0.422367
O O10 0.578940 0.993075 0.455050
O O11 0.689892 0.582193 0.483790
O O12 0.603172 0.666020 0.624945
#
# Coordination Sequence:
#
# PCOD9341047 Si02
#       6
#     4   4   4   4   4   4
#     4  10  25  47  70 109 158 197 259 322 401 452
#     4  10  23  44  76 105 146 202 262 320 378 475
#     4  12  25  48  75 108 152 201 265 313 398 474
#     4  12  23  43  81 111 153 206 274 317 395 474
#     4  12  28  46  76 112 158 206 252 340 394 473
#     4  10  22  46  70 107 145 202 254 316 374 478
#
# _framework density 24.782344999999999
#
# number of rings (size 3 to 8) (size 9 to 14) (size 15 to 20)
#    1.000    0.000    5.000    1.000    2.333    1.333 
#    3.000    0.000    0.000    0.000    0.000    0.000 
#    0.000    0.000    0.000    0.000    0.000    0.000 
#
# Total GULP energy -133856.110748 kJ/mol
# GULP energy per Si atom -5577.337948 kJ/mol
# Density = 2.472594 g / cm^3
# Si number density = 24.782345 Si / 1000 Ang^3
#
#
#
# Elastic Constant Matrix: (Units=GPa)
#
#
# Indices 1 2 3 4 5 6 
#
# 1 64.7927 9.7556 4.8965 0.0000 0.0000 0.0000
# 2 9.7556 118.4104 28.9528 0.0000 0.0000 0.0000
# 3 4.8965 28.9528 88.5283 0.0000 0.0000 0.0000
# 4 0.0000 0.0000 0.0000 17.2406 0.0000 0.0000
# 5 0.0000 0.0000 0.0000 0.0000 35.8442 0.0000
# 6 0.0000 0.0000 0.0000 0.0000 0.0000 21.4811
#
#
#
# Elastic Compliance Matrix: (Units=1/GPa)
#
#
# Indices 1 2 3 4 5 6 
#
# 1 0.015647 -0.001171 -0.000482 0.000000 0.000000 0.000000
# 2 -0.001171 0.009267 -0.002966 0.000000 0.000000 0.000000
# 3 -0.000482 -0.002966 0.012292 0.000000 0.000000 0.000000
# 4 0.000000 0.000000 0.000000 0.058003 0.000000 0.000000
# 5 0.000000 0.000000 0.000000 0.000000 0.027899 0.000000
# 6 0.000000 0.000000 0.000000 0.000000 0.000000 0.046553
#
#
# Mechanical properties :
#
#
# Convention : Reuss Voigt Hill
#
# Bulk Modulus (GPa) = 35.75629 39.88235 37.81932
# Shear Modulus (GPa) = 26.56453 30.12162 28.34307
#
# Velocity S-wave (km/s) = 3.27756 3.49011 3.38550
# Velocity P-wave (km/s) = 5.36495 5.68939 5.52955
#
# Compressibility (1/GPa) = 0.02796710
#
# Stress axis : x y z
#
# Youngs Moduli (GPa) = 63.91152 107.91101 81.35044
#
# Poissons Ratio (x) = 0.12638 0.03924
# Poissons Ratio (y) = 0.07485 0.24128
# Poissons Ratio (z) = 0.03083 0.32006
#
# Static dielectric constant tensor:
#      x y z
#    x 2.030440 0.000000 0.000000 
#    y 0.000000 2.055190 0.000000 
#    z 0.000000 0.000000 1.970340 
# 
# From -- ./inp_files/5075.got.cif
#   From: 2010.05.17/outbox.cif.g08.bks.cpg/sg29_3_cif.got.tgz:5075.got - 2010.06.04 01:19:37.
