data_PCOD9341885
_publ_section_title
;
Structure prediction by ZEFSAII (Michael W. Deem and Ramdas Pophale) SiO2 
 PCOD9341885
Probable space group: P N C 2
;
_chemical_formula_sum "Si O2"
_cell_formula_units_Z 32
_cell_length_a 16.306186
_cell_length_b 5.519955
_cell_length_c 14.026622
_cell_angle_alpha 90.000000
_cell_angle_beta 90.000000
_cell_angle_gamma 90.000000
_cell_volume 1262.528012
_symmetry_space_group_name_H-M "P N C 2"
_symmetry_group_IT_number 30
_symmetry_cell_setting 'orthorhombic'
loop_
_space_group_symop_operation_xyz
x,y,z
-x,-y,z
-x,1/2+y,1/2+z
x,1/2-y,1/2+z
loop_
_atom_site_type_symbol
_atom_site_label
_atom_site_fract_x
_atom_site_fract_y
_atom_site_fract_z
Si Si1 0.153698 0.422919 0.209620
Si Si2 0.407889 0.018398 0.838367
Si Si3 0.278645 0.418765 0.049366
Si Si4 0.336809 0.522307 0.755816
Si Si5 0.138415 0.571673 0.724810
Si Si6 0.118958 0.927696 0.446814
Si Si7 0.086086 0.071353 0.911915
Si Si8 0.635955 0.423722 0.545211
O O1 0.240128 0.431374 0.155335
O O2 0.115196 0.675443 0.179281
O O3 0.152232 0.413163 0.325319
O O4 0.109808 0.177335 0.179863
O O5 0.359872 0.774508 0.807273
O O6 0.500000 0.000000 0.796893
O O7 0.364302 0.274986 0.810434
O O8 0.415140 0.991204 0.952606
O O9 0.344485 0.635637 0.043177
O O10 0.294684 0.135272 0.031752
O O11 0.210794 0.504310 0.974999
O O12 0.238436 0.544478 0.734378
O O13 0.385690 0.521905 0.654920
O O14 0.107482 0.584915 0.832845
O O15 0.106665 0.653734 0.478517
O O16 0.073193 0.178335 0.467384
O O17 0.000000 0.000000 0.864334
#
# Coordination Sequence:
#
# PCOD9341885 Si02
#       8
#     4   4   4   4   4   4   4   4
#     4  10  19  34  59  86 120 149 195 260 310 373
#     4  12  28  45  64  95 133 177 228 262 313 399
#     4  12  21  40  62 101 127 153 211 273 342 380
#     4  12  23  44  71  95 128 174 214 274 328 392
#     4  10  18  35  57  89 117 146 198 255 323 374
#     4  10  21  33  60  86 119 163 199 269 318 374
#     4  10  21  38  55  81 120 172 218 246 303 391
#     4  12  25  43  70  99 134 170 213 277 337 391
#
# _framework density 25.345970999999999
#
# number of rings (size 3 to 8) (size 9 to 14) (size 15 to 20)
#    0.000    1.000    2.500    5.250    0.000    3.000 
#    0.000    1.250    0.000    0.000    0.000    0.000 
#    0.000    0.000    0.000    0.000    0.000    0.000 
#
# Total GULP energy -178416.165976 kJ/mol
# GULP energy per Si atom -5575.505187 kJ/mol
# Density = 2.528828 g / cm^3
# Si number density = 25.345971 Si / 1000 Ang^3
#
#
#
# Elastic Constant Matrix: (Units=GPa)
#
#
# Indices 1 2 3 4 5 6 
#
# 1 30.6486 14.5039 8.0967 0.0000 0.0000 0.0000
# 2 14.5039 253.1137 15.2461 0.0000 0.0000 0.0000
# 3 8.0967 15.2461 100.4290 0.0000 0.0000 0.0000
# 4 0.0000 0.0000 0.0000 27.6576 0.0000 0.0000
# 5 0.0000 0.0000 0.0000 0.0000 -39.8655 0.0000
# 6 0.0000 0.0000 0.0000 0.0000 0.0000 4.0061
#
#
#
# Elastic Compliance Matrix: (Units=1/GPa)
#
#
# Indices 1 2 3 4 5 6 
#
# 1 0.034138 -0.001807 -0.002478 0.000000 0.000000 0.000000
# 2 -0.001807 0.004083 -0.000474 0.000000 0.000000 0.000000
# 3 -0.002478 -0.000474 0.010229 0.000000 0.000000 0.000000
# 4 0.000000 0.000000 0.000000 0.036156 0.000000 0.000000
# 5 0.000000 0.000000 0.000000 0.000000 -0.025084 0.000000
# 6 0.000000 0.000000 0.000000 0.000000 0.000000 0.249618
#
#
# Mechanical properties :
#
#
# Convention : Reuss Voigt Hill
#
# Bulk Modulus (GPa) = 25.68602 51.09830 38.39216
# Shear Modulus (GPa) = 15.07682 21.44927 18.26305
#
# Velocity S-wave (km/s) = 2.44158 2.91221 2.68722
# Velocity P-wave (km/s) = 4.25495 5.61356 4.98080
#
# Compressibility (1/GPa) = 0.03893168
#
# Stress axis : x y z
#
# Youngs Moduli (GPa) = 29.29317 244.92442 97.76095
#
# Poissons Ratio (x) = 0.44255 0.24224
# Poissons Ratio (y) = 0.05293 0.04635
# Poissons Ratio (z) = 0.07259 0.11613
#
# Static dielectric constant tensor:
#      x y z
#    x 2.098440 0.000000 0.000000 
#    y 0.000000 2.147020 0.000000 
#    z 0.000000 0.000000 2.001070 
# 
# From -- ./inp_files/5671.got.cif
#   From: 2010.05.17/outbox.cif.g08.bks.cpg/sg30_3_cif.got.tgz:5671.got - 2010.06.03 17:03:02.
