data_PCOD9341828
_publ_section_title
;
Structure prediction by ZEFSAII (Michael W. Deem and Ramdas Pophale) SiO2 
 PCOD9341828
Probable space group: P N C 2
;
_chemical_formula_sum "Si O2"
_cell_formula_units_Z 28
_cell_length_a 4.908345
_cell_length_b 18.172486
_cell_length_c 18.481864
_cell_angle_alpha 90.000000
_cell_angle_beta 90.000000
_cell_angle_gamma 90.000000
_cell_volume 1648.523696
_symmetry_space_group_name_H-M "P N C 2"
_symmetry_group_IT_number 30
_symmetry_cell_setting 'orthorhombic'
loop_
_space_group_symop_operation_xyz
x,y,z
-x,-y,z
-x,1/2+y,1/2+z
x,1/2-y,1/2+z
loop_
_atom_site_type_symbol
_atom_site_label
_atom_site_fract_x
_atom_site_fract_y
_atom_site_fract_z
Si Si1 0.066058 0.230185 0.676640
Si Si2 0.748302 0.048634 0.386509
Si Si3 0.077915 0.869881 0.246244
Si Si4 0.536513 0.869882 0.519139
Si Si5 0.576839 0.583296 0.650779
Si Si6 0.438349 0.774723 0.086540
Si Si7 0.041291 0.915466 0.611699
O O1 0.374394 0.242844 0.651800
O O2 0.996411 0.283461 0.742935
O O3 0.872325 0.263371 0.612161
O O4 0.010731 0.143674 0.675184
O O5 0.897650 0.096696 0.325483
O O6 0.584852 0.094715 0.446831
O O7 0.500000 0.000000 0.353130
O O8 0.000000 0.000000 0.417257
O O9 0.366754 0.885380 0.209880
O O10 0.864430 0.909370 0.191811
O O11 0.501866 0.781455 0.521761
O O12 0.342759 0.902144 0.582013
O O13 0.837047 0.892245 0.545741
O O14 0.500000 0.500000 0.632999
O O15 0.532120 0.640580 0.584544
O O16 0.000000 0.000000 0.630502
#
# Coordination Sequence:
#
# PCOD9341828 Si02
#       7
#     4   4   4   4   4   4   4
#     4   8  16  28  42  58  80 109 138 170 211 250
#     4  12  22  30  42  62  88 120 150 172 202 254
#     4  10  19  30  41  59  88 116 140 170 208 255
#     4  10  19  30  41  59  88 116 140 170 208 255
#     4  10  17  28  45  63  83 108 140 180 217 250
#     4   8  16  28  42  58  80 109 138 170 211 250
#     4  10  17  28  45  63  83 108 140 180 217 250
#
# _framework density 16.984894000000001
#
# number of rings (size 3 to 8) (size 9 to 14) (size 15 to 20)
#    0.000    2.286    0.000    5.143    0.000    0.000 
#    0.000    0.000    0.000    0.000    0.000    0.000 
#    0.000   29.714    0.000    0.000    0.000   44.000 
#
# Total GULP energy -155889.794359 kJ/mol
# GULP energy per Si atom -5567.492656 kJ/mol
# Density = 1.694624 g / cm^3
# Si number density = 16.984894 Si / 1000 Ang^3
#
#
#
# Elastic Constant Matrix: (Units=GPa)
#
#
# Indices 1 2 3 4 5 6 
#
# 1 67.7284 -3.2500 6.9411 0.0000 0.0000 0.0000
# 2 -3.2500 144.7779 39.7320 0.0000 0.0000 0.0000
# 3 6.9411 39.7320 38.6638 0.0000 0.0000 0.0000
# 4 0.0000 0.0000 0.0000 26.2718 0.0000 0.0000
# 5 0.0000 0.0000 0.0000 0.0000 14.2566 0.0000
# 6 0.0000 0.0000 0.0000 0.0000 0.0000 18.3896
#
#
#
# Elastic Compliance Matrix: (Units=1/GPa)
#
#
# Indices 1 2 3 4 5 6 
#
# 1 0.015280 0.001526 -0.004312 0.000000 0.000000 0.000000
# 2 0.001526 0.009773 -0.010317 0.000000 0.000000 0.000000
# 3 -0.004312 -0.010317 0.037240 0.000000 0.000000 0.000000
# 4 0.000000 0.000000 0.000000 0.038064 0.000000 0.000000
# 5 0.000000 0.000000 0.000000 0.000000 0.070143 0.000000
# 6 0.000000 0.000000 0.000000 0.000000 0.000000 0.054378
#
#
# Mechanical properties :
#
#
# Convention : Reuss Voigt Hill
#
# Bulk Modulus (GPa) = 27.70974 37.55737 32.63355
# Shear Modulus (GPa) = 19.00343 25.63343 22.31843
#
# Velocity S-wave (km/s) = 3.34854 3.88904 3.62887
# Velocity P-wave (km/s) = 5.59464 6.50588 6.06739
#
# Compressibility (1/GPa) = 0.03608839
#
# Stress axis : x y z
#
# Youngs Moduli (GPa) = 65.44525 102.32673 26.85313
#
# Poissons Ratio (x) = -0.15618 0.11578
# Poissons Ratio (y) = -0.09989 0.27703
# Poissons Ratio (z) = 0.28217 1.05566
#
# Static dielectric constant tensor:
#      x y z
#    x 1.591130 0.000000 0.000000 
#    y 0.000000 1.676120 0.000000 
#    z 0.000000 0.000000 1.560710 
# 
# From -- ./inp_files/6055.got.cif
#   From: 2010.05.17/outbox.cif.g08.bks.cpg/sg30_4_cif.got.tgz:6055.got - 2010.06.03 17:03:02.
