data_PCOD9341231
_publ_section_title
;
Structure prediction by ZEFSAII (Michael W. Deem and Ramdas Pophale) SiO2 
 PCOD9341231
Probable space group: P C A 21
;
_chemical_formula_sum "Si O2"
_cell_formula_units_Z 24
_cell_length_a 9.733131
_cell_length_b 5.061045
_cell_length_c 20.084472
_cell_angle_alpha 90.000000
_cell_angle_beta 90.000000
_cell_angle_gamma 90.000000
_cell_volume 989.357355
_symmetry_space_group_name_H-M "P C A 21"
_symmetry_group_IT_number 29
_symmetry_cell_setting 'orthorhombic'
loop_
_space_group_symop_operation_xyz
x,y,z
-x,-y,1/2+z
1/2-x,y,1/2+z
1/2+x,-y,z
loop_
_atom_site_type_symbol
_atom_site_label
_atom_site_fract_x
_atom_site_fract_y
_atom_site_fract_z
Si Si1 0.829462 0.234115 0.593860
Si Si2 0.094910 0.409423 0.267588
Si Si3 0.032935 0.062679 0.983523
Si Si4 0.467065 0.062679 0.330358
Si Si5 0.829463 0.234115 0.220022
Si Si6 0.594909 0.590577 0.546294
O O1 0.750000 0.118292 0.656941
O O2 0.739029 0.488278 0.573341
O O3 0.844827 0.042279 0.530822
O O4 0.989065 0.309317 0.603658
O O5 0.078309 0.173584 0.320442
O O6 0.989065 0.309317 0.210224
O O7 0.239029 0.511722 0.240541
O O8 0.027564 0.667971 0.301335
O O9 0.071146 0.090982 0.906941
O O10 0.921691 0.826416 0.993439
O O11 0.972436 0.332029 0.012546
O O12 0.344827 0.957721 0.283059
#
# Coordination Sequence:
#
# PCOD9341231 Si02
#       6
#     4   4   4   4   4   4
#     4  10  24  44  69  98 133 172 219 271 326 388
#     4  10  24  42  65  96 128 171 218 267 328 383
#     4  10  24  41  64  94 132 173 218 267 324 387
#     4  10  24  41  64  94 132 173 218 267 324 387
#     4  10  24  44  69  98 133 172 219 271 326 388
#     4  10  24  42  65  96 128 171 218 267 328 383
#
# _framework density 24.258171000000001
#
# number of rings (size 3 to 8) (size 9 to 14) (size 15 to 20)
#    2.000    0.000    0.000    2.000    4.667    5.333 
#    0.000    0.000    0.000    0.000    0.000    0.000 
#    0.000    0.000    0.000    0.000    0.000    0.000 
#
# Total GULP energy -133881.176990 kJ/mol
# GULP energy per Si atom -5578.382375 kJ/mol
# Density = 2.420296 g / cm^3
# Si number density = 24.258171 Si / 1000 Ang^3
#
#
#
# Elastic Constant Matrix: (Units=GPa)
#
#
# Indices 1 2 3 4 5 6 
#
# 1 56.6864 22.1317 -7.1170 0.0000 0.0000 0.0000
# 2 22.1317 104.6653 -12.8196 0.0000 0.0000 0.0000
# 3 -7.1170 -12.8196 70.0315 0.0000 0.0000 0.0000
# 4 0.0000 0.0000 0.0000 -222.2790 0.0000 0.0000
# 5 0.0000 0.0000 0.0000 0.0000 11.8948 0.0000
# 6 0.0000 0.0000 0.0000 0.0000 0.0000 -92.4094
#
#
#
# Elastic Compliance Matrix: (Units=1/GPa)
#
#
# Indices 1 2 3 4 5 6 
#
# 1 0.019334 -0.003936 0.001244 0.000000 0.000000 0.000000
# 2 -0.003936 0.010575 0.001536 0.000000 0.000000 0.000000
# 3 0.001244 0.001536 0.014687 0.000000 0.000000 0.000000
# 4 0.000000 0.000000 0.000000 -0.004499 0.000000 0.000000
# 5 0.000000 0.000000 0.000000 0.000000 0.084070 0.000000
# 6 0.000000 0.000000 0.000000 0.000000 0.000000 -0.010821
#
#
# Mechanical properties :
#
#
# Convention : Reuss Voigt Hill
#
# Bulk Modulus (GPa) = 23.64965 26.19705 24.92335
# Shear Modulus (GPa) = 38.53533 -45.27951 -3.37209
#
# Velocity S-wave (km/s) = 3.98999 -4.32507 -1.18030
# Velocity P-wave (km/s) = 5.56749 3.75751 2.90500
#
# Compressibility (1/GPa) = 0.04228392
#
# Stress axis : x y z
#
# Youngs Moduli (GPa) = 51.72297 94.56632 68.08804
#
# Poissons Ratio (x) = 0.37219 -0.08473
# Poissons Ratio (y) = 0.20357 -0.10457
# Poissons Ratio (z) = -0.06436 -0.14523
#
# Static dielectric constant tensor:
#      x y z
#    x 2.013730 0.000000 0.000000 
#    y 0.000000 1.925120 0.000000 
#    z 0.000000 0.000000 1.928370 
# 
# From -- ./inp_files/5080.got.cif
#   From: 2010.05.17/outbox.cif.g08.bks.cpg/sg29_3_cif.got.tgz:5080.got - 2010.06.04 01:19:37.
