data_PCOD9341947
_publ_section_title
;
Structure prediction by ZEFSAII (Michael W. Deem and Ramdas Pophale) SiO2 
 PCOD9341947
Probable space group: P N C 2
;
_chemical_formula_sum "Si O2"
_cell_formula_units_Z 32
_cell_length_a 15.835700
_cell_length_b 7.589141
_cell_length_c 13.191631
_cell_angle_alpha 90.000000
_cell_angle_beta 90.000000
_cell_angle_gamma 90.000000
_cell_volume 1585.361773
_symmetry_space_group_name_H-M "P N C 2"
_symmetry_group_IT_number 30
_symmetry_cell_setting 'orthorhombic'
loop_
_space_group_symop_operation_xyz
x,y,z
-x,-y,z
-x,1/2+y,1/2+z
x,1/2-y,1/2+z
loop_
_atom_site_type_symbol
_atom_site_label
_atom_site_fract_x
_atom_site_fract_y
_atom_site_fract_z
Si Si1 0.737731 0.952926 0.113330
Si Si2 0.698525 0.740556 0.810851
Si Si3 0.033702 0.799850 0.405986
Si Si4 0.168121 0.920603 0.552805
Si Si5 0.855230 0.795443 0.948693
Si Si6 0.312665 0.854341 0.406521
Si Si7 0.401745 0.524430 0.443931
Si Si8 0.820076 0.240942 0.751586
O O1 0.708546 0.797277 0.190798
O O2 0.781231 0.100378 0.184043
O O3 0.810385 0.915362 0.031300
O O4 0.656583 0.998671 0.044076
O O5 0.791783 0.783620 0.854231
O O6 0.675073 0.548036 0.859477
O O7 0.635861 0.888420 0.858334
O O8 0.095989 0.795616 0.503627
O O9 0.092214 0.770002 0.308647
O O10 0.951587 0.677771 0.417152
O O11 0.000000 0.000000 0.396379
O O12 0.260982 0.875619 0.510665
O O13 0.169214 0.915281 0.672730
O O14 0.147175 0.107312 0.504718
O O15 0.392179 0.729735 0.414049
O O16 0.248759 0.734916 0.339530
O O17 0.500000 0.500000 0.463366
#
# Coordination Sequence:
#
# PCOD9341947 Si02
#       8
#     4   4   4   4   4   4   4   4
#     4  10  20  39  63  86 115 162 204 241 306 376
#     4   9  21  40  62  88 119 165 200 239 319 369
#     4   9  18  32  50  80 119 150 196 245 288 341
#     4   9  17  32  54  79 111 154 195 236 294 350
#     4   9  19  35  57  80 122 157 194 254 293 348
#     4   9  19  38  59  84 118 158 194 244 306 358
#     4  11  23  41  63  91 124 150 200 266 305 366
#     4  10  19  33  61  82 111 160 199 239 293 363
#
# _framework density 20.184666
#
# number of rings (size 3 to 8) (size 9 to 14) (size 15 to 20)
#    0.000    2.500    1.250    2.250    1.750    2.500 
#    4.500    0.000    0.000    1.500    0.000    0.000 
#    0.000    0.000    0.000    0.000    0.000    0.000 
#
# Total GULP energy -178335.017968 kJ/mol
# GULP energy per Si atom -5572.969312 kJ/mol
# Density = 2.013872 g / cm^3
# Si number density = 20.184666 Si / 1000 Ang^3
#
#
#
# Elastic Constant Matrix: (Units=GPa)
#
#
# Indices 1 2 3 4 5 6 
#
# 1 115.0786 45.1264 -0.7957 0.0000 0.0000 0.0000
# 2 45.1264 62.4412 26.3985 0.0000 0.0000 0.0000
# 3 -0.7957 26.3985 53.2944 0.0000 0.0000 0.0000
# 4 0.0000 0.0000 0.0000 17.5995 0.0000 0.0000
# 5 0.0000 0.0000 0.0000 0.0000 6.6676 0.0000
# 6 0.0000 0.0000 0.0000 0.0000 0.0000 25.3330
#
#
#
# Elastic Compliance Matrix: (Units=1/GPa)
#
#
# Indices 1 2 3 4 5 6 
#
# 1 0.013681 -0.012616 0.006453 0.000000 0.000000 0.000000
# 2 -0.012616 0.031891 -0.015985 0.000000 0.000000 0.000000
# 3 0.006453 -0.015985 0.026778 0.000000 0.000000 0.000000
# 4 0.000000 0.000000 0.000000 0.056820 0.000000 0.000000
# 5 0.000000 0.000000 0.000000 0.000000 0.149980 0.000000
# 6 0.000000 0.000000 0.000000 0.000000 0.000000 0.039474
#
#
# Mechanical properties :
#
#
# Convention : Reuss Voigt Hill
#
# Bulk Modulus (GPa) = 35.64412 41.36362 38.50387
# Shear Modulus (GPa) = 13.43112 20.59236 17.01174
#
# Velocity S-wave (km/s) = 2.58236 3.19752 2.90626
# Velocity P-wave (km/s) = 5.15643 5.84545 5.51172
#
# Compressibility (1/GPa) = 0.02805512
#
# Stress axis : x y z
#
# Youngs Moduli (GPa) = 73.09143 31.35723 37.34431
#
# Poissons Ratio (x) = 0.39560 -0.24100
# Poissons Ratio (y) = 0.92212 0.59694
# Poissons Ratio (z) = -0.47169 0.50124
#
# Static dielectric constant tensor:
#      x y z
#    x 1.709770 0.000000 0.000000 
#    y 0.000000 1.819390 0.000000 
#    z 0.000000 0.000000 1.721270 
# 
# From -- ./inp_files/4384.got.cif
#   From: 2010.05.17/outbox.cif.g08.bks.cpg/sg30_3_cif.got.tgz:4384.got - 2010.06.03 17:03:02.
