data_PCOD9341725
_publ_section_title
;
Structure prediction by ZEFSAII (Michael W. Deem and Ramdas Pophale) SiO2 
 PCOD9341725
Probable space group: P C A 21
;
_chemical_formula_sum "Si O2"
_cell_formula_units_Z 32
_cell_length_a 11.343655
_cell_length_b 6.962722
_cell_length_c 18.110878
_cell_angle_alpha 90.000000
_cell_angle_beta 90.000000
_cell_angle_gamma 90.000000
_cell_volume 1430.446338
_symmetry_space_group_name_H-M "P C A 21"
_symmetry_group_IT_number 29
_symmetry_cell_setting 'orthorhombic'
loop_
_space_group_symop_operation_xyz
x,y,z
-x,-y,1/2+z
1/2-x,y,1/2+z
1/2+x,-y,z
loop_
_atom_site_type_symbol
_atom_site_label
_atom_site_fract_x
_atom_site_fract_y
_atom_site_fract_z
Si Si1 0.099089 0.084225 0.228000
Si Si2 0.807582 0.432924 0.528505
Si Si3 0.221688 0.362535 0.659407
Si Si4 0.243793 0.974772 0.359005
Si Si5 0.387068 0.649703 0.271716
Si Si6 0.894906 0.173393 0.994031
Si Si7 0.995244 0.155771 0.595007
Si Si8 0.100361 0.342653 0.892569
O O1 0.218025 0.192796 0.204876
O O2 0.992045 0.233981 0.233206
O O3 0.127581 0.005293 0.309103
O O4 0.070769 0.924523 0.167290
O O5 0.812488 0.585138 0.594509
O O6 0.680090 0.334479 0.535732
O O7 0.908228 0.277060 0.543353
O O8 0.821103 0.533855 0.449932
O O9 0.194721 0.542401 0.712177
O O10 0.102073 0.286139 0.623329
O O11 0.314705 0.801204 0.321187
O O12 0.200732 0.928330 0.441146
O O13 0.325034 0.163194 0.362832
O O14 0.435054 0.482751 0.325828
O O15 0.991389 0.268744 0.940954
O O16 0.953654 0.022508 0.048833
#
# Coordination Sequence:
#
# PCOD9341725 Si02
#       8
#     4   4   4   4   4   4   4   4
#     4  12  26  44  76 103 151 192 243 309 373 436
#     4  12  25  47  74 106 149 193 246 305 372 439
#     4  12  25  47  74 106 149 193 246 305 372 439
#     4  12  26  48  70 108 148 196 242 308 376 438
#     4  12  27  46  71 111 144 195 249 303 364 452
#     4  12  26  44  76 103 151 192 243 309 373 436
#     4  12  26  48  74 114 146 194 256 308 370 454
#     4  12  27  46  71 111 144 195 249 303 364 452
#
# _framework density 22.370640999999999
#
# number of rings (size 3 to 8) (size 9 to 14) (size 15 to 20)
#    0.000    0.000    2.500    7.500    7.000    0.000 
#    0.000    0.000    0.000    0.000    0.000    0.000 
#    0.000    0.000    0.000    0.000    0.000    0.000 
#
# Total GULP energy -179346.225683 kJ/mol
# GULP energy per Si atom -5604.569553 kJ/mol
# Density = 2.231972 g / cm^3
# Si number density = 22.370641 Si / 1000 Ang^3
#
#
#
# Elastic Constant Matrix: (Units=GPa)
#
#
# Indices 1 2 3 4 5 6 
#
# 1 64.7967 17.3655 -5.8840 0.0000 0.0000 0.0000
# 2 17.3655 82.6192 10.2126 0.0000 0.0000 0.0000
# 3 -5.8840 10.2126 65.5003 0.0000 0.0000 0.0000
# 4 0.0000 0.0000 0.0000 45.8877 0.0000 0.0000
# 5 0.0000 0.0000 0.0000 0.0000 50.1571 0.0000
# 6 0.0000 0.0000 0.0000 0.0000 0.0000 40.8107
#
#
#
# Elastic Compliance Matrix: (Units=1/GPa)
#
#
# Indices 1 2 3 4 5 6 
#
# 1 0.016627 -0.003752 0.002079 0.000000 0.000000 0.000000
# 2 -0.003752 0.013188 -0.002393 0.000000 0.000000 0.000000
# 3 0.002079 -0.002393 0.015827 0.000000 0.000000 0.000000
# 4 0.000000 0.000000 0.000000 0.021792 0.000000 0.000000
# 5 0.000000 0.000000 0.000000 0.000000 0.019937 0.000000
# 6 0.000000 0.000000 0.000000 0.000000 0.000000 0.024503
#
#
# Mechanical properties :
#
#
# Convention : Reuss Voigt Hill
#
# Bulk Modulus (GPa) = 26.66001 28.47827 27.56914
# Shear Modulus (GPa) = 37.73268 40.11927 38.92597
#
# Velocity S-wave (km/s) = 4.11141 4.23944 4.17591
# Velocity P-wave (km/s) = 5.87210 6.05984 5.96670
#
# Compressibility (1/GPa) = 0.03750937
#
# Stress axis : x y z
#
# Youngs Moduli (GPa) = 60.14283 75.82582 63.18329
#
# Poissons Ratio (x) = 0.28448 -0.13133
# Poissons Ratio (y) = 0.22564 0.15121
# Poissons Ratio (z) = -0.12501 0.18147
#
# Static dielectric constant tensor:
#      x y z
#    x 1.784230 0.000000 0.000000 
#    y 0.000000 1.797520 0.000000 
#    z 0.000000 0.000000 1.780720 
# 
# From -- ./inp_files/5569.got.cif
#   From: 2010.05.17/outbox.cif.g08.bks.cpg/sg29_3_cif.got.tgz:5569.got - 2010.06.04 01:19:37.
