data_PCOD9341964
_publ_section_title
;
Structure prediction by ZEFSAII (Michael W. Deem and Ramdas Pophale) SiO2 
 PCOD9341964
Probable space group: P N C 2
;
_chemical_formula_sum "Si O2"
_cell_formula_units_Z 18
_cell_length_a 8.341453
_cell_length_b 14.973816
_cell_length_c 5.925485
_cell_angle_alpha 90.000000
_cell_angle_beta 90.000000
_cell_angle_gamma 90.000000
_cell_volume 740.113119
_symmetry_space_group_name_H-M "P N C 2"
_symmetry_group_IT_number 30
_symmetry_cell_setting 'orthorhombic'
loop_
_space_group_symop_operation_xyz
x,y,z
-x,-y,z
-x,1/2+y,1/2+z
x,1/2-y,1/2+z
loop_
_atom_site_type_symbol
_atom_site_label
_atom_site_fract_x
_atom_site_fract_y
_atom_site_fract_z
Si Si1 0.000000 0.500000 0.077631
Si Si2 0.261665 0.552645 0.434585
Si Si3 0.864158 0.265600 0.568752
Si Si4 0.282548 0.062515 0.327971
Si Si5 0.581522 0.378421 0.043282
O O1 0.128133 0.543388 0.242040
O O2 0.103497 0.432542 0.925451
O O3 0.193857 0.632417 0.585714
O O4 0.275791 0.459293 0.564013
O O5 0.417383 0.589528 0.304294
O O6 0.941584 0.242616 0.814600
O O7 0.703928 0.203938 0.542155
O O8 0.407829 0.133424 0.428043
O O9 0.350197 0.966214 0.415663
#
# Coordination Sequence:
#
# PCOD9341964 Si02
#       5
#     2   4   4   4   4
#     4  10  22  36  56  88 124 164 214 252 314 380
#     4  10  20  37  61  89 125 165 208 267 315 384
#     4  10  19  37  60  91 122 160 207 261 323 381
#     4  10  19  36  57  89 124 158 207 259 314 369
#     4   9  20  34  59  92 118 154 210 265 315 374
#
# _framework density 24.320606000000002
#
# number of rings (size 3 to 8) (size 9 to 14) (size 15 to 20)
#    0.000    2.222    2.222    0.667    0.000    7.111 
#    0.000    0.000    0.000   16.000    0.000    0.000 
#    0.000    0.000    0.000    0.000    0.000    0.000 
#
# Total GULP energy -100230.784877 kJ/mol
# GULP energy per Si atom -5568.376938 kJ/mol
# Density = 2.426525 g / cm^3
# Si number density = 24.320606 Si / 1000 Ang^3
#
#
#
# Elastic Constant Matrix: (Units=GPa)
#
#
# Indices 1 2 3 4 5 6 
#
# 1 93.3936 6.0981 34.5983 0.0000 0.0000 0.0000
# 2 6.0981 36.1887 1.0824 0.0000 0.0000 0.0000
# 3 34.5983 1.0824 141.7934 0.0000 0.0000 0.0000
# 4 0.0000 0.0000 0.0000 27.7488 0.0000 0.0000
# 5 0.0000 0.0000 0.0000 0.0000 32.9167 0.0000
# 6 0.0000 0.0000 0.0000 0.0000 0.0000 23.1712
#
#
#
# Elastic Compliance Matrix: (Units=1/GPa)
#
#
# Indices 1 2 3 4 5 6 
#
# 1 0.011903 -0.001919 -0.002890 0.000000 0.000000 0.000000
# 2 -0.001919 0.027949 0.000255 0.000000 0.000000 0.000000
# 3 -0.002890 0.000255 0.007756 0.000000 0.000000 0.000000
# 4 0.000000 0.000000 0.000000 0.036038 0.000000 0.000000
# 5 0.000000 0.000000 0.000000 0.000000 0.030380 0.000000
# 6 0.000000 0.000000 0.000000 0.000000 0.000000 0.043157
#
#
# Mechanical properties :
#
#
# Convention : Reuss Voigt Hill
#
# Bulk Modulus (GPa) = 25.97449 39.43704 32.70576
# Shear Modulus (GPa) = 27.91372 32.07381 29.99376
#
# Velocity S-wave (km/s) = 3.39151 3.63546 3.51560
# Velocity P-wave (km/s) = 5.10290 5.82003 5.47322
#
# Compressibility (1/GPa) = 0.03849931
#
# Stress axis : x y z
#
# Youngs Moduli (GPa) = 84.01067 35.77979 128.93749
#
# Poissons Ratio (x) = 0.06867 0.37260
# Poissons Ratio (y) = 0.16125 -0.03288
# Poissons Ratio (z) = 0.24277 -0.00912
#
# Static dielectric constant tensor:
#      x y z
#    x 2.084520 0.000000 0.000000 
#    y 0.000000 1.950830 0.000000 
#    z 0.000000 0.000000 2.137390 
# 
# From -- ./inp_files/332.got.cif
#   From: 2010.05.17/outbox.cif.g08.bks.cpg/sg30_1_cif.got.tgz:332.got - 2010.06.03 17:03:02.
