data_PCOD9341603
_publ_section_title
;
Structure prediction by ZEFSAII (Michael W. Deem and Ramdas Pophale) SiO2 
 PCOD9341603
Probable space group: P C A 21
;
_chemical_formula_sum "Si O2"
_cell_formula_units_Z 16
_cell_length_a 12.745849
_cell_length_b 4.972161
_cell_length_c 8.723178
_cell_angle_alpha 90.000000
_cell_angle_beta 90.000000
_cell_angle_gamma 90.000000
_cell_volume 552.826288
_symmetry_space_group_name_H-M "P C A 21"
_symmetry_group_IT_number 29
_symmetry_cell_setting 'orthorhombic'
loop_
_space_group_symop_operation_xyz
x,y,z
-x,-y,1/2+z
1/2-x,y,1/2+z
1/2+x,-y,z
loop_
_atom_site_type_symbol
_atom_site_label
_atom_site_fract_x
_atom_site_fract_y
_atom_site_fract_z
Si Si1 0.112673 0.892631 0.618020
Si Si2 0.579194 0.874250 0.931022
Si Si3 0.303490 0.378463 0.924360
Si Si4 0.307619 0.717352 0.643253
O O1 0.047575 0.021225 0.764143
O O2 0.230010 0.928231 0.724927
O O3 0.137651 0.129194 0.493312
O O4 0.014519 0.742834 0.526875
O O5 0.677147 0.666283 0.924721
O O6 0.618362 0.128700 0.031083
O O7 0.341641 0.500530 0.765345
O O8 0.302252 0.617665 0.055245
#
# Coordination Sequence:
#
# PCOD9341603 Si02
#       4
#     4   4   4   4
#     4  11  26  44  69 105 144 183 236 299 356 422
#     4  11  26  44  69 105 144 183 236 299 356 422
#     4  11  24  47  71  97 141 189 236 288 358 424
#     4  11  24  47  71  97 141 189 236 288 358 424
#
# _framework density 28.942184999999998
#
# number of rings (size 3 to 8) (size 9 to 14) (size 15 to 20)
#    0.000    1.000    5.000    0.000    7.000    2.000 
#    0.000    0.000    0.000    0.000    0.000    0.000 
#    0.000    0.000    0.000    0.000    0.000    0.000 
#
# Total GULP energy -89386.494635 kJ/mol
# GULP energy per Si atom -5586.655915 kJ/mol
# Density = 2.887631 g / cm^3
# Si number density = 28.942185 Si / 1000 Ang^3
#
#
#
# Elastic Constant Matrix: (Units=GPa)
#
#
# Indices 1 2 3 4 5 6 
#
# 1 123.9082 32.7270 69.4016 0.0000 0.0000 0.0000
# 2 32.7270 130.8998 46.3939 0.0000 0.0000 0.0000
# 3 69.4016 46.3939 195.8143 0.0000 0.0000 0.0000
# 4 0.0000 0.0000 0.0000 50.0798 0.0000 0.0000
# 5 0.0000 0.0000 0.0000 0.0000 55.5973 0.0000
# 6 0.0000 0.0000 0.0000 0.0000 0.0000 43.1647
#
#
#
# Elastic Compliance Matrix: (Units=1/GPa)
#
#
# Indices 1 2 3 4 5 6 
#
# 1 0.010299 -0.001399 -0.003319 0.000000 0.000000 0.000000
# 2 -0.001399 0.008530 -0.001525 0.000000 0.000000 0.000000
# 3 -0.003319 -0.001525 0.006645 0.000000 0.000000 0.000000
# 4 0.000000 0.000000 0.000000 0.019968 0.000000 0.000000
# 5 0.000000 0.000000 0.000000 0.000000 0.017986 0.000000
# 6 0.000000 0.000000 0.000000 0.000000 0.000000 0.023167
#
#
# Mechanical properties :
#
#
# Convention : Reuss Voigt Hill
#
# Bulk Modulus (GPa) = 76.99566 83.07414 80.03490
# Shear Modulus (GPa) = 48.35166 49.90834 49.13000
#
# Velocity S-wave (km/s) = 4.09177 4.15711 4.12457
# Velocity P-wave (km/s) = 6.99889 7.19777 7.09903
#
# Compressibility (1/GPa) = 0.01298775
#
# Stress axis : x y z
#
# Youngs Moduli (GPa) = 97.09913 117.23777 150.50030
#
# Poissons Ratio (x) = 0.16397 0.49948
# Poissons Ratio (y) = 0.13580 0.22955
# Poissons Ratio (z) = 0.32225 0.17881
#
# Static dielectric constant tensor:
#      x y z
#    x 2.314040 0.000000 0.000000 
#    y 0.000000 2.259710 0.000000 
#    z 0.000000 0.000000 2.340920 
# 
# From -- ./inp_files/1297.got.cif
#   From: 2010.05.17/outbox.cif.g08.bks.cpg/sg29_1_cif.got.tgz:1297.got - 2010.06.04 01:19:37.
