data_PCOD9341645
_publ_section_title
;
Structure prediction by ZEFSAII (Michael W. Deem and Ramdas Pophale) SiO2 
 PCOD9341645
Probable space group: P C A 21
;
_chemical_formula_sum "Si O2"
_cell_formula_units_Z 20
_cell_length_a 7.940248
_cell_length_b 11.101331
_cell_length_c 8.505420
_cell_angle_alpha 90.000000
_cell_angle_beta 90.000000
_cell_angle_gamma 90.000000
_cell_volume 749.729989
_symmetry_space_group_name_H-M "P C A 21"
_symmetry_group_IT_number 29
_symmetry_cell_setting 'orthorhombic'
loop_
_space_group_symop_operation_xyz
x,y,z
-x,-y,1/2+z
1/2-x,y,1/2+z
1/2+x,-y,z
loop_
_atom_site_type_symbol
_atom_site_label
_atom_site_fract_x
_atom_site_fract_y
_atom_site_fract_z
Si Si1 0.572250 0.375014 0.407300
Si Si2 0.707159 0.882666 0.805805
Si Si3 0.005987 0.023350 0.508248
Si Si4 0.626913 0.268232 0.083487
Si Si5 0.692233 0.631955 0.391180
O O1 0.595975 0.278415 0.268277
O O2 0.703374 0.337874 0.540549
O O3 0.631123 0.502434 0.332481
O O4 0.379782 0.388113 0.460911
O O5 0.619734 0.948532 0.660396
O O6 0.875608 0.948959 0.859628
O O7 0.767373 0.745932 0.779940
O O8 0.587097 0.900703 0.960543
O O9 0.869122 0.131451 0.522142
O O10 0.461540 0.325661 0.001404
#
# Coordination Sequence:
#
# PCOD9341645 Si02
#       5
#     4   4   4   4   4
#     4  12  26  47  78 108 160 200 258 317 396 462
#     4  11  25  47  75 110 154 197 259 320 390 460
#     4  11  25  48  73 110 151 203 258 321 389 464
#     4  11  28  47  73 115 150 209 259 318 391 462
#     4  11  26  47  75 115 157 203 258 326 384 468
#
# _framework density 26.676269000000001
#
# number of rings (size 3 to 8) (size 9 to 14) (size 15 to 20)
#    0.000    0.800    4.000    1.200    5.600    3.200 
#    3.600    0.000    0.000    0.000    0.000    0.000 
#    0.000    0.000    0.000    0.000    0.000    0.000 
#
# Total GULP energy -111921.537122 kJ/mol
# GULP energy per Si atom -5596.076856 kJ/mol
# Density = 2.661555 g / cm^3
# Si number density = 26.676269 Si / 1000 Ang^3
#
#
#
# Elastic Constant Matrix: (Units=GPa)
#
#
# Indices 1 2 3 4 5 6 
#
# 1 133.6982 39.3347 10.3639 0.0000 0.0000 0.0000
# 2 39.3347 138.5018 27.5978 0.0000 0.0000 0.0000
# 3 10.3639 27.5978 61.7488 0.0000 0.0000 0.0000
# 4 0.0000 0.0000 0.0000 18.7359 0.0000 0.0000
# 5 0.0000 0.0000 0.0000 0.0000 57.6397 0.0000
# 6 0.0000 0.0000 0.0000 0.0000 0.0000 53.4830
#
#
#
# Elastic Compliance Matrix: (Units=1/GPa)
#
#
# Indices 1 2 3 4 5 6 
#
# 1 0.008169 -0.002247 -0.000367 0.000000 0.000000 0.000000
# 2 -0.002247 0.008544 -0.003442 0.000000 0.000000 0.000000
# 3 -0.000367 -0.003442 0.017794 0.000000 0.000000 0.000000
# 4 0.000000 0.000000 0.000000 0.053373 0.000000 0.000000
# 5 0.000000 0.000000 0.000000 0.000000 0.017349 0.000000
# 6 0.000000 0.000000 0.000000 0.000000 0.000000 0.018698
#
#
# Mechanical properties :
#
#
# Convention : Reuss Voigt Hill
#
# Bulk Modulus (GPa) = 44.64916 54.28238 49.46577
# Shear Modulus (GPa) = 34.84234 43.08190 38.96212
#
# Velocity S-wave (km/s) = 3.61795 4.02305 3.82586
# Velocity P-wave (km/s) = 5.85034 6.47863 6.17248
#
# Compressibility (1/GPa) = 0.02239684
#
# Stress axis : x y z
#
# Youngs Moduli (GPa) = 122.41368 117.04122 56.19759
#
# Poissons Ratio (x) = 0.26298 0.02062
# Poissons Ratio (y) = 0.27505 0.19340
# Poissons Ratio (z) = 0.04491 0.40280
#
# Static dielectric constant tensor:
#      x y z
#    x 2.086540 0.000000 0.000000 
#    y 0.000000 2.073740 0.000000 
#    z 0.000000 0.000000 2.051200 
# 
# From -- ./inp_files/1094.got.cif
#   From: 2010.05.17/outbox.cif.g08.bks.cpg/sg29_1_cif.got.tgz:1094.got - 2010.06.04 01:19:37.
