data_PCOD9341755
_publ_section_title
;
Structure prediction by ZEFSAII (Michael W. Deem and Ramdas Pophale) SiO2 
 PCOD9341755
Probable space group: P C A 21
;
_chemical_formula_sum "Si O2"
_cell_formula_units_Z 20
_cell_length_a 14.217554
_cell_length_b 4.772048
_cell_length_c 10.378938
_cell_angle_alpha 90.000000
_cell_angle_beta 90.000000
_cell_angle_gamma 90.000000
_cell_volume 704.178251
_symmetry_space_group_name_H-M "P C A 21"
_symmetry_group_IT_number 29
_symmetry_cell_setting 'orthorhombic'
loop_
_space_group_symop_operation_xyz
x,y,z
-x,-y,1/2+z
1/2-x,y,1/2+z
1/2+x,-y,z
loop_
_atom_site_type_symbol
_atom_site_label
_atom_site_fract_x
_atom_site_fract_y
_atom_site_fract_z
Si Si1 0.977728 0.887264 0.126450
Si Si2 0.522244 0.612736 0.948910
Si Si3 0.265697 0.945224 0.161361
Si Si4 0.386073 0.249952 0.787674
Si Si5 0.734287 0.445344 0.913955
O O1 0.870421 0.935177 0.164539
O O2 0.042689 0.011052 0.238709
O O3 0.998359 0.081367 0.001081
O O4 0.001619 0.581364 0.074285
O O5 0.457269 0.488931 0.836668
O O6 0.629547 0.564834 0.910796
O O7 0.249902 0.749923 0.287654
O O8 0.250003 0.749933 0.037658
O O9 0.190470 0.198415 0.172597
O O10 0.309495 0.301414 0.902716
#
# Coordination Sequence:
#
# PCOD9341755 Si02
#       5
#     4   4   4   4   4
#     4  12  28  50  80 118 167 218 276 343 419 500
#     4  12  28  50  80 118 167 218 276 343 419 500
#     4  12  27  50  81 117 161 217 278 342 417 500
#     4  12  28  48  84 116 170 218 280 348 422 496
#     4  12  27  50  81 117 161 217 278 342 417 500
#
# _framework density 28.401896000000001
#
# number of rings (size 3 to 8) (size 9 to 14) (size 15 to 20)
#    0.000    0.000    6.000    2.400    5.600    3.200 
#    0.000    0.000    0.000    0.000    0.000    0.000 
#    0.000    0.000    0.000    0.000    0.000    0.000 
#
# Total GULP energy -112145.084835 kJ/mol
# GULP energy per Si atom -5607.254242 kJ/mol
# Density = 2.833725 g / cm^3
# Si number density = 28.401896 Si / 1000 Ang^3
#
#
#
# Elastic Constant Matrix: (Units=GPa)
#
#
# Indices 1 2 3 4 5 6 
#
# 1 256.2816 19.8397 38.7927 0.0000 0.0000 0.0000
# 2 19.8397 94.7380 66.5560 0.0000 0.0000 0.0000
# 3 38.7927 66.5560 227.8878 0.0000 0.0000 0.0000
# 4 0.0000 0.0000 0.0000 81.6316 0.0000 0.0000
# 5 0.0000 0.0000 0.0000 0.0000 42.1772 0.0000
# 6 0.0000 0.0000 0.0000 0.0000 0.0000 4.7072
#
#
#
# Elastic Compliance Matrix: (Units=1/GPa)
#
#
# Indices 1 2 3 4 5 6 
#
# 1 0.004021 -0.000454 -0.000552 0.000000 0.000000 0.000000
# 2 -0.000454 0.013332 -0.003816 0.000000 0.000000 0.000000
# 3 -0.000552 -0.003816 0.005597 0.000000 0.000000 0.000000
# 4 0.000000 0.000000 0.000000 0.012250 0.000000 0.000000
# 5 0.000000 0.000000 0.000000 0.000000 0.023710 0.000000
# 6 0.000000 0.000000 0.000000 0.000000 0.000000 0.212440
#
#
# Mechanical properties :
#
#
# Convention : Reuss Voigt Hill
#
# Bulk Modulus (GPa) = 75.16445 92.14267 83.65356
# Shear Modulus (GPa) = 17.51753 55.95113 36.73433
#
# Velocity S-wave (km/s) = 2.48619 4.44326 3.60026
# Velocity P-wave (km/s) = 5.89606 7.67048 6.84105
#
# Compressibility (1/GPa) = 0.01330416
#
# Stress axis : x y z
#
# Youngs Moduli (GPa) = 248.71632 75.00989 178.68020
#
# Poissons Ratio (x) = 0.03408 0.09858
# Poissons Ratio (y) = 0.11302 0.68188
# Poissons Ratio (z) = 0.13722 0.28625
#
# Static dielectric constant tensor:
#      x y z
#    x 2.107130 0.000000 0.000000 
#    y 0.000000 2.282830 0.000000 
#    z 0.000000 0.000000 2.195820 
# 
# From -- ./inp_files/3315.got.cif
#   From: 2010.05.17/outbox.cif.g08.bks.cpg/sg29_2_cif.got.tgz:3315.got - 2010.06.04 01:19:37.
