data_PCOD9341816
_publ_section_title
;
Structure prediction by ZEFSAII (Michael W. Deem and Ramdas Pophale) SiO2 
 PCOD9341816
Probable space group: P N C 2
;
_chemical_formula_sum "Si O2"
_cell_formula_units_Z 24
_cell_length_a 30.042889
_cell_length_b 6.723539
_cell_length_c 5.179744
_cell_angle_alpha 90.000000
_cell_angle_beta 90.000000
_cell_angle_gamma 90.000000
_cell_volume 1046.279985
_symmetry_space_group_name_H-M "P N C 2"
_symmetry_group_IT_number 30
_symmetry_cell_setting 'orthorhombic'
loop_
_space_group_symop_operation_xyz
x,y,z
-x,-y,z
-x,1/2+y,1/2+z
x,1/2-y,1/2+z
loop_
_atom_site_type_symbol
_atom_site_label
_atom_site_fract_x
_atom_site_fract_y
_atom_site_fract_z
Si Si1 0.639262 0.385688 0.231000
Si Si2 0.140326 0.388223 0.739357
Si Si3 0.544833 0.379797 0.343184
Si Si4 0.266918 0.993646 0.902409
Si Si5 0.955355 0.621220 0.839069
Si Si6 0.230851 0.955314 0.400642
O O1 0.640537 0.206650 0.444394
O O2 0.591704 0.488379 0.283173
O O3 0.683605 0.507001 0.292289
O O4 0.142794 0.282493 0.461362
O O5 0.181430 0.535581 0.787616
O O6 0.091686 0.485237 0.779650
O O7 0.500000 0.500000 0.297759
O O8 0.545110 0.299965 0.635590
O O9 0.232331 0.054143 0.681503
O O10 0.252230 0.761209 0.945799
O O11 0.262158 0.065694 0.193793
O O12 0.955261 0.801925 0.632986
O O13 0.000000 0.500000 0.791523
#
# Coordination Sequence:
#
# PCOD9341816 Si02
#       6
#     4   4   4   4   4   4
#     4  10  16  30  51  78  99 139 175 215 280 320
#     4  10  21  37  54  73 107 152 179 205 275 337
#     4  10  21  35  58  84 110 147 188 231 284 340
#     4  10  17  30  50  80 104 124 169 231 263 292
#     4  10  21  40  61  84 113 151 191 236 282 338
#     4  10  18  30  50  75 105 128 171 220 257 306
#
# _framework density 22.938412
#
# number of rings (size 3 to 8) (size 9 to 14) (size 15 to 20)
#    0.000    2.000    3.333    2.000    0.000    0.000 
#    6.000    0.000    0.000    6.000    0.000    0.000 
#    0.000    0.000    0.000    0.000    0.000    0.000 
#
# Total GULP energy -133896.358649 kJ/mol
# GULP energy per Si atom -5579.014944 kJ/mol
# Density = 2.288620 g / cm^3
# Si number density = 22.938412 Si / 1000 Ang^3
#
#
#
# Elastic Constant Matrix: (Units=GPa)
#
#
# Indices 1 2 3 4 5 6 
#
# 1 192.9450 2.9468 -12.9373 0.0000 0.0000 0.0000
# 2 2.9468 30.7672 -19.7998 0.0000 0.0000 0.0000
# 3 -12.9373 -19.7998 128.3410 0.0000 0.0000 0.0000
# 4 0.0000 0.0000 0.0000 -5.4189 0.0000 0.0000
# 5 0.0000 0.0000 0.0000 0.0000 35.3058 0.0000
# 6 0.0000 0.0000 0.0000 0.0000 0.0000 34.9018
#
#
#
# Elastic Compliance Matrix: (Units=1/GPa)
#
#
# Indices 1 2 3 4 5 6 
#
# 1 0.005219 -0.000179 0.000498 0.000000 0.000000 0.000000
# 2 -0.000179 0.036091 0.005550 0.000000 0.000000 0.000000
# 3 0.000498 0.005550 0.008698 0.000000 0.000000 0.000000
# 4 0.000000 0.000000 0.000000 -0.184539 0.000000 0.000000
# 5 0.000000 0.000000 0.000000 0.000000 0.028324 0.000000
# 6 0.000000 0.000000 0.000000 0.000000 0.000000 0.028652
#
#
# Mechanical properties :
#
#
# Convention : Reuss Voigt Hill
#
# Bulk Modulus (GPa) = 16.19525 32.49695 24.34610
# Shear Modulus (GPa) = -72.76817 38.41398 -17.17709
#
# Velocity S-wave (km/s) = -5.63845 4.09670 -2.73945
# Velocity P-wave (km/s) = 5.94255 6.04773 0.79409
#
# Compressibility (1/GPa) = 0.06174649
#
# Stress axis : x y z
#
# Youngs Moduli (GPa) = 191.60820 27.70789 114.96638
#
# Poissons Ratio (x) = 0.00496 -0.05731
# Poissons Ratio (y) = 0.03431 -0.63805
# Poissons Ratio (z) = -0.09551 -0.15377
#
# Static dielectric constant tensor:
#      x y z
#    x 1.888040 0.000000 0.000000 
#    y 0.000000 2.421890 0.000000 
#    z 0.000000 0.000000 1.902070 
# 
# From -- ./inp_files/1052.got.cif
#   From: 2010.05.17/outbox.cif.g08.bks.cpg/sg30_1_cif.got.tgz:1052.got - 2010.06.03 17:03:02.
