data_PCOD9341424
_publ_section_title
;
Structure prediction by ZEFSAII (Michael W. Deem and Ramdas Pophale) SiO2 
 PCOD9341424
Probable space group: P C A 21
;
_chemical_formula_sum "Si O2"
_cell_formula_units_Z 32
_cell_length_a 13.903548
_cell_length_b 11.004503
_cell_length_c 9.027190
_cell_angle_alpha 90.000000
_cell_angle_beta 90.000000
_cell_angle_gamma 90.000000
_cell_volume 1381.174836
_symmetry_space_group_name_H-M "P C A 21"
_symmetry_group_IT_number 29
_symmetry_cell_setting 'orthorhombic'
loop_
_space_group_symop_operation_xyz
x,y,z
-x,-y,1/2+z
1/2-x,y,1/2+z
1/2+x,-y,z
loop_
_atom_site_type_symbol
_atom_site_label
_atom_site_fract_x
_atom_site_fract_y
_atom_site_fract_z
Si Si1 0.974216 0.373634 0.783280
Si Si2 0.922765 0.755296 0.744280
Si Si3 0.275823 0.555559 0.934874
Si Si4 0.021014 0.100395 0.737942
Si Si5 0.600694 0.965464 0.036378
Si Si6 0.247751 0.388340 0.182731
Si Si7 0.187684 0.145851 0.523111
Si Si8 0.934011 0.395140 0.436002
O O1 0.869251 0.388194 0.860009
O O2 0.966090 0.395014 0.606905
O O3 0.015786 0.238319 0.796440
O O4 0.038461 0.476632 0.860458
O O5 0.948733 0.851584 0.620629
O O6 0.865196 0.644717 0.666190
O O7 0.006644 0.703303 0.843894
O O8 0.848145 0.819567 0.858933
O O9 0.249978 0.427706 0.852925
O O10 0.179030 0.632012 0.929067
O O11 0.287666 0.507434 0.101053
O O12 0.103172 0.081758 0.614116
O O13 0.050146 0.019126 0.878322
O O14 0.921893 0.072500 0.651843
O O15 0.712164 0.927280 0.018038
O O16 0.297832 0.269807 0.118301
#
# Coordination Sequence:
#
# PCOD9341424 Si02
#       8
#     4   4   4   4   4   4   4   4
#     4  12  28  45  69 107 147 192 238 296 370 435
#     4  11  22  43  71 103 138 186 248 299 353 414
#     4  12  24  40  63 102 148 190 230 284 364 439
#     4  12  27  49  73 105 149 185 245 308 369 436
#     4  11  27  46  74 106 135 191 246 305 368 423
#     4  11  21  38  64 103 139 182 238 288 343 427
#     4  11  22  44  77 103 135 186 248 308 350 423
#     4  12  25  43  69 103 147 190 233 300 355 437
#
# _framework density 23.168682
#
# number of rings (size 3 to 8) (size 9 to 14) (size 15 to 20)
#    0.000    0.500    5.000    3.000    8.750    0.000 
#    2.250    1.250    0.000    0.000    0.000    0.000 
#    0.000    0.000    0.000    0.000    0.000    0.000 
#
# Total GULP energy -178966.150844 kJ/mol
# GULP energy per Si atom -5592.692214 kJ/mol
# Density = 2.311595 g / cm^3
# Si number density = 23.168682 Si / 1000 Ang^3
#
#
#
# Elastic Constant Matrix: (Units=GPa)
#
#
# Indices 1 2 3 4 5 6 
#
# 1 123.4045 11.3704 22.5431 0.0000 0.0000 0.0000
# 2 11.3704 34.3553 19.2166 0.0000 0.0000 0.0000
# 3 22.5431 19.2166 99.9361 0.0000 0.0000 0.0000
# 4 0.0000 0.0000 0.0000 38.3326 0.0000 0.0000
# 5 0.0000 0.0000 0.0000 0.0000 30.5839 0.0000
# 6 0.0000 0.0000 0.0000 0.0000 0.0000 31.2898
#
#
#
# Elastic Compliance Matrix: (Units=1/GPa)
#
#
# Indices 1 2 3 4 5 6 
#
# 1 0.008569 -0.001966 -0.001555 0.000000 0.000000 0.000000
# 2 -0.001966 0.033067 -0.005915 0.000000 0.000000 0.000000
# 3 -0.001555 -0.005915 0.011494 0.000000 0.000000 0.000000
# 4 0.000000 0.000000 0.000000 0.026087 0.000000 0.000000
# 5 0.000000 0.000000 0.000000 0.000000 0.032697 0.000000
# 6 0.000000 0.000000 0.000000 0.000000 0.000000 0.031959
#
#
# Mechanical properties :
#
#
# Convention : Reuss Voigt Hill
#
# Bulk Modulus (GPa) = 29.19015 40.43956 34.81485
# Shear Modulus (GPa) = 28.70848 33.67899 31.19373
#
# Velocity S-wave (km/s) = 3.52391 3.81680 3.67328
# Velocity P-wave (km/s) = 5.40219 6.07588 5.74891
#
# Compressibility (1/GPa) = 0.03425814
#
# Stress axis : x y z
#
# Youngs Moduli (GPa) = 116.70487 30.24186 86.99838
#
# Poissons Ratio (x) = 0.05946 0.13526
# Poissons Ratio (y) = 0.22947 0.51458
# Poissons Ratio (z) = 0.18145 0.17888
#
# Static dielectric constant tensor:
#      x y z
#    x 1.886570 0.000000 0.000000 
#    y 0.000000 1.926110 0.000000 
#    z 0.000000 0.000000 1.831640 
# 
# From -- ./inp_files/1865.got.cif
#   From: 2010.05.17/outbox.cif.g08.bks.cpg/sg29_1_cif.got.tgz:1865.got - 2010.06.04 01:19:37.
