data_PCOD9341780
_publ_section_title
;
Structure prediction by ZEFSAII (Michael W. Deem and Ramdas Pophale) SiO2 
 PCOD9341780
Probable space group: P C A 21
;
_chemical_formula_sum "Si O2"
_cell_formula_units_Z 32
_cell_length_a 21.000000
_cell_length_b 6.000000
_cell_length_c 12.000000
_cell_angle_alpha 90.000000
_cell_angle_beta 90.000000
_cell_angle_gamma 90.000000
_cell_volume 1512.000000
_symmetry_space_group_name_H-M "P C A 21"
_symmetry_group_IT_number 29
_symmetry_cell_setting 'orthorhombic'
loop_
_space_group_symop_operation_xyz
x,y,z
-x,-y,1/2+z
1/2-x,y,1/2+z
1/2+x,-y,z
loop_
_atom_site_type_symbol
_atom_site_label
_atom_site_fract_x
_atom_site_fract_y
_atom_site_fract_z
Si Si1 0.872079 0.015852 0.582010
Si Si2 0.087821 0.998805 0.836532
Si Si3 0.464655 0.744736 0.743998
Si Si4 0.681852 0.756876 0.297569
Si Si5 0.688721 0.744894 0.701438
Si Si6 0.729914 0.059000 0.496424
Si Si7 0.619418 0.380145 0.447267
Si Si8 0.429593 0.585621 0.184228
O O1 0.909349 0.949985 0.468307
O O2 0.920443 0.186014 0.640964
O O3 0.803465 0.098533 0.532426
O O4 0.854214 0.849138 0.686172
O O5 0.085550 0.750921 0.786229
O O6 0.153917 0.096561 0.790099
O O7 0.025166 0.102992 0.777850
O O8 0.417001 0.746119 0.848194
O O9 0.502025 0.518854 0.713559
O O10 0.745868 0.639276 0.248303
O O11 0.638513 0.609356 0.381333
O O12 0.713072 0.946199 0.377130
O O13 0.631503 0.576853 0.679262
O O14 0.704787 0.890377 0.592336
O O15 0.686082 0.277840 0.490615
O O16 0.572170 0.349736 0.553431
#
# Coordination Sequence:
#
# PCOD9341780 Si02
#       8
#     4   4   4   4   4   4   4   4
#     4  11  26  46  72 100 145 189 232 297 366 433
#     4  11  25  46  69  97 143 188 239 293 351 435
#     4  11  29  44  65 104 137 188 237 288 357 423
#     4  11  24  43  71 105 143 176 234 301 360 436
#     4  10  22  44  68 104 135 179 231 286 365 415
#     4  11  22  45  71 102 140 180 232 297 366 432
#     4  12  26  44  73 102 140 186 237 299 363 424
#     4  11  26  44  71 100 135 190 240 295 350 436
#
# _framework density 21.164021000000002
#
# number of rings (size 3 to 8) (size 9 to 14) (size 15 to 20)
#    0.000    1.000    5.000    0.000    7.000    1.000 
#    2.250    0.000    0.000    0.000    0.000    0.000 
#    0.000    0.000    0.000    0.000    0.000    0.000 
#
# Total GULP energy -178211.288552 kJ/mol
# GULP energy per Si atom -5569.102767 kJ/mol
# Density = 2.111585 g / cm^3
# Si number density = 21.164021 Si / 1000 Ang^3
#
#
#
# Elastic Constant Matrix: (Units=GPa)
#
#
# Indices 1 2 3 4 5 6 
#
# 1 95.3855 16.9517 12.6036 0.0000 0.0000 0.0000
# 2 16.9517 25.7089 10.4364 0.0000 0.0000 0.0000
# 3 12.6036 10.4364 125.2726 0.0000 0.0000 0.0000
# 4 0.0000 0.0000 0.0000 28.4645 0.0000 0.0000
# 5 0.0000 0.0000 0.0000 0.0000 41.2351 0.0000
# 6 0.0000 0.0000 0.0000 0.0000 0.0000 21.5165
#
#
#
# Elastic Compliance Matrix: (Units=1/GPa)
#
#
# Indices 1 2 3 4 5 6 
#
# 1 0.011914 -0.007627 -0.000563 0.000000 0.000000 0.000000
# 2 -0.007627 0.045141 -0.002993 0.000000 0.000000 0.000000
# 3 -0.000563 -0.002993 0.008289 0.000000 0.000000 0.000000
# 4 0.000000 0.000000 0.000000 0.035131 0.000000 0.000000
# 5 0.000000 0.000000 0.000000 0.000000 0.024251 0.000000
# 6 0.000000 0.000000 0.000000 0.000000 0.000000 0.046476
#
#
# Mechanical properties :
#
#
# Convention : Reuss Voigt Hill
#
# Bulk Modulus (GPa) = 23.26855 36.26115 29.76485
# Shear Modulus (GPa) = 24.05070 32.00158 28.02614
#
# Velocity S-wave (km/s) = 3.37470 3.89276 3.64295
# Velocity P-wave (km/s) = 5.11890 6.11354 5.63819
#
# Compressibility (1/GPa) = 0.04297646
#
# Stress axis : x y z
#
# Youngs Moduli (GPa) = 83.93758 22.15279 120.64713
#
# Poissons Ratio (x) = 0.16896 0.06795
# Poissons Ratio (y) = 0.64018 0.36114
# Poissons Ratio (z) = 0.04728 0.06631
#
# Static dielectric constant tensor:
#      x y z
#    x 1.736730 0.000000 0.000000 
#    y 0.000000 1.866230 0.000000 
#    z 0.000000 0.000000 1.815820 
# 
# From -- ./inp_files/3815.got.cif
#   From: 2010.05.17/outbox.ucp.g08.bks.cvg/sg29_2_cif.got.tgz:3815.got - 2010.06.11 15:24:14.
