data_PCOD9341912
_publ_section_title
;
Structure prediction by ZEFSAII (Michael W. Deem and Ramdas Pophale) SiO2 
 PCOD9341912
Probable space group: P N C 2
;
_chemical_formula_sum "Si O2"
_cell_formula_units_Z 32
_cell_length_a 8.407809
_cell_length_b 11.515537
_cell_length_c 15.387598
_cell_angle_alpha 90.000000
_cell_angle_beta 90.000000
_cell_angle_gamma 90.000000
_cell_volume 1489.833942
_symmetry_space_group_name_H-M "P N C 2"
_symmetry_group_IT_number 30
_symmetry_cell_setting 'orthorhombic'
loop_
_space_group_symop_operation_xyz
x,y,z
-x,-y,z
-x,1/2+y,1/2+z
x,1/2-y,1/2+z
loop_
_atom_site_type_symbol
_atom_site_label
_atom_site_fract_x
_atom_site_fract_y
_atom_site_fract_z
Si Si1 0.549212 0.134078 0.889080
Si Si2 0.168918 0.943775 0.689744
Si Si3 0.351341 0.344228 0.222831
Si Si4 0.996092 0.723336 0.734355
Si Si5 0.847012 0.230308 0.412249
Si Si6 0.642173 0.731236 0.029663
Si Si7 0.038134 0.371093 0.552380
Si Si8 0.187614 0.502504 0.985990
O O1 0.463364 0.183888 0.802976
O O2 0.735090 0.163122 0.884294
O O3 0.500000 0.000000 0.900773
O O4 0.488752 0.206510 0.972268
O O5 0.137924 0.810867 0.707101
O O6 0.310493 0.018293 0.729798
O O7 0.188251 0.966548 0.587792
O O8 0.000000 0.000000 0.717796
O O9 0.410716 0.311392 0.126059
O O10 0.178715 0.282192 0.230506
O O11 0.034665 0.697228 0.833850
O O12 0.997302 0.633245 0.655346
O O13 0.937977 0.276385 0.497620
O O14 0.749002 0.113319 0.433762
O O15 0.782097 0.826534 0.040971
O O16 0.719529 0.618793 0.981537
O O17 0.000000 0.500000 0.519176
O O18 0.000000 0.500000 0.963122
#
# Coordination Sequence:
#
# PCOD9341912 Si02
#       8
#     4   4   4   4   4   4   4   4
#     4  12  26  43  60  95 137 176 214 258 320 395
#     4   8  14  32  61  88 114 149 207 270 306 349
#     4   9  20  39  65  91 120 169 218 264 312 374
#     4  10  20  37  63  94 124 162 214 272 321 373
#     4  12  24  37  65  97 130 171 211 267 319 385
#     4  10  22  44  70  89 128 172 214 272 321 374
#     4  11  22  41  65  98 128 168 216 266 329 389
#     4  10  18  38  67  94 118 153 216 277 317 359
#
# _framework density 21.478905000000001
#
# number of rings (size 3 to 8) (size 9 to 14) (size 15 to 20)
#    0.000    1.750    2.500    3.750    0.000    3.500 
#    6.750    0.000    0.000    0.000    0.000    0.000 
#    0.000    0.000    0.000    0.000    0.000    0.000 
#
# Total GULP energy -178576.055780 kJ/mol
# GULP energy per Si atom -5580.501743 kJ/mol
# Density = 2.143002 g / cm^3
# Si number density = 21.478905 Si / 1000 Ang^3
#
#
#
# Elastic Constant Matrix: (Units=GPa)
#
#
# Indices 1 2 3 4 5 6 
#
# 1 41.0160 -4.9552 31.2890 0.0000 0.0000 0.0000
# 2 -4.9552 80.3470 22.0279 0.0000 0.0000 0.0000
# 3 31.2890 22.0279 87.4850 0.0000 0.0000 0.0000
# 4 0.0000 0.0000 0.0000 25.4246 0.0000 0.0000
# 5 0.0000 0.0000 0.0000 0.0000 26.6980 0.0000
# 6 0.0000 0.0000 0.0000 0.0000 0.0000 18.8794
#
#
#
# Elastic Compliance Matrix: (Units=1/GPa)
#
#
# Indices 1 2 3 4 5 6 
#
# 1 0.036201 0.006211 -0.014511 0.000000 0.000000 0.000000
# 2 0.006211 0.014434 -0.005856 0.000000 0.000000 0.000000
# 3 -0.014511 -0.005856 0.018095 0.000000 0.000000 0.000000
# 4 0.000000 0.000000 0.000000 0.039332 0.000000 0.000000
# 5 0.000000 0.000000 0.000000 0.000000 0.037456 0.000000
# 6 0.000000 0.000000 0.000000 0.000000 0.000000 0.052968
#
#
# Mechanical properties :
#
#
# Convention : Reuss Voigt Hill
#
# Bulk Modulus (GPa) = 24.74126 33.95235 29.34681
# Shear Modulus (GPa) = 20.80987 24.89949 22.85468
#
# Velocity S-wave (km/s) = 3.11602 3.40847 3.26552
# Velocity P-wave (km/s) = 4.94873 5.59749 5.28308
#
# Compressibility (1/GPa) = 0.04041831
#
# Stress axis : x y z
#
# Youngs Moduli (GPa) = 27.62368 69.27853 55.26432
#
# Poissons Ratio (x) = -0.43029 0.80194
# Poissons Ratio (y) = -0.17157 0.32362
# Poissons Ratio (z) = 0.40085 0.40568
#
# Static dielectric constant tensor:
#      x y z
#    x 1.786720 0.000000 0.000000 
#    y 0.000000 1.793930 0.000000 
#    z 0.000000 0.000000 1.783090 
# 
# From -- ./inp_files/5227.got.cif
#   From: 2010.05.17/outbox.cif.g08.bks.cpg/sg30_3_cif.got.tgz:5227.got - 2010.06.03 17:03:02.
