data_PCOD9341519
_publ_section_title
;
Structure prediction by ZEFSAII (Michael W. Deem and Ramdas Pophale) SiO2 
 PCOD9341519
Probable space group: P C A 21
;
_chemical_formula_sum "Si O2"
_cell_formula_units_Z 32
_cell_length_a 13.263807
_cell_length_b 6.491291
_cell_length_c 17.924383
_cell_angle_alpha 90.000000
_cell_angle_beta 90.000000
_cell_angle_gamma 90.000000
_cell_volume 1543.275593
_symmetry_space_group_name_H-M "P C A 21"
_symmetry_group_IT_number 29
_symmetry_cell_setting 'orthorhombic'
loop_
_space_group_symop_operation_xyz
x,y,z
-x,-y,1/2+z
1/2-x,y,1/2+z
1/2+x,-y,z
loop_
_atom_site_type_symbol
_atom_site_label
_atom_site_fract_x
_atom_site_fract_y
_atom_site_fract_z
Si Si1 0.105630 0.142115 0.819930
Si Si2 0.158675 0.654769 0.477903
Si Si3 0.457431 0.758129 0.224686
Si Si4 0.788901 0.726917 0.080689
Si Si5 0.084466 0.560033 0.315443
Si Si6 0.471975 0.971921 0.073184
Si Si7 0.729088 0.538336 0.731282
Si Si8 0.340591 0.965730 0.480760
O O1 0.193249 0.296541 0.792998
O O2 0.001438 0.267294 0.811901
O O3 0.095339 0.945879 0.767168
O O4 0.124257 0.063129 0.903109
O O5 0.178736 0.474936 0.536199
O O6 0.119121 0.556760 0.401130
O O7 0.079167 0.815239 0.513793
O O8 0.262949 0.780064 0.466075
O O9 0.536114 0.647470 0.280484
O O10 0.501039 0.843668 0.147027
O O11 0.369177 0.593111 0.209277
O O12 0.738124 0.658693 0.157529
O O13 0.886931 0.865297 0.097259
O O14 0.718155 0.862452 0.028221
O O15 0.182635 0.600357 0.265068
O O16 0.563091 0.086774 0.031721
#
# Coordination Sequence:
#
# PCOD9341519 Si02
#       8
#     4   4   4   4   4   4   4   4
#     4  11  24  44  66  98 135 175 225 281 336 401
#     4  11  24  44  67 101 134 176 224 282 340 404
#     4  11  24  42  69  97 135 183 220 281 340 403
#     4  11  24  43  69  96 137 179 219 283 336 403
#     4  11  25  42  70 101 131 175 227 279 342 402
#     4  11  23  45  66  98 140 177 231 275 339 410
#     4  11  23  44  66 100 136 172 227 280 337 407
#     4  11  25  42  69  99 132 179 227 277 342 404
#
# _framework density 20.735116000000001
#
# number of rings (size 3 to 8) (size 9 to 14) (size 15 to 20)
#    0.000    1.000    3.750    2.250    1.750    5.000 
#    0.000    0.000    0.000    0.000    0.000    0.000 
#    0.000    0.000    0.000    0.000    0.000    0.000 
#
# Total GULP energy -178931.220131 kJ/mol
# GULP energy per Si atom -5591.600629 kJ/mol
# Density = 2.068792 g / cm^3
# Si number density = 20.735116 Si / 1000 Ang^3
#
#
#
# Elastic Constant Matrix: (Units=GPa)
#
#
# Indices 1 2 3 4 5 6 
#
# 1 72.5172 17.8593 44.9201 0.0000 0.0000 0.0000
# 2 17.8593 54.6586 44.2231 0.0000 0.0000 0.0000
# 3 44.9201 44.2231 140.5361 0.0000 0.0000 0.0000
# 4 0.0000 0.0000 0.0000 30.5650 0.0000 0.0000
# 5 0.0000 0.0000 0.0000 0.0000 23.1141 0.0000
# 6 0.0000 0.0000 0.0000 0.0000 0.0000 21.1706
#
#
#
# Elastic Compliance Matrix: (Units=1/GPa)
#
#
# Indices 1 2 3 4 5 6 
#
# 1 0.017295 -0.001581 -0.005031 0.000000 0.000000 0.000000
# 2 -0.001581 0.024689 -0.007264 0.000000 0.000000 0.000000
# 3 -0.005031 -0.007264 0.011009 0.000000 0.000000 0.000000
# 4 0.000000 0.000000 0.000000 0.032717 0.000000 0.000000
# 5 0.000000 0.000000 0.000000 0.000000 0.043264 0.000000
# 6 0.000000 0.000000 0.000000 0.000000 0.000000 0.047235
#
#
# Mechanical properties :
#
#
# Convention : Reuss Voigt Hill
#
# Bulk Modulus (GPa) = 39.61497 53.52410 46.56953
# Shear Modulus (GPa) = 23.54331 25.68387 24.61359
#
# Velocity S-wave (km/s) = 3.37327 3.52329 3.44909
# Velocity P-wave (km/s) = 5.85822 6.51312 6.19433
#
# Compressibility (1/GPa) = 0.02524298
#
# Stress axis : x y z
#
# Youngs Moduli (GPa) = 57.81875 40.50420 90.83243
#
# Poissons Ratio (x) = 0.06403 0.45695
# Poissons Ratio (y) = 0.09141 0.65977
# Poissons Ratio (z) = 0.29087 0.29421
#
# Static dielectric constant tensor:
#      x y z
#    x 1.755880 0.000000 0.000000 
#    y 0.000000 1.708940 0.000000 
#    z 0.000000 0.000000 1.713600 
# 
# From -- ./inp_files/5210.got.cif
#   From: 2010.05.17/outbox.cif.g08.bks.cpg/sg29_3_cif.got.tgz:5210.got - 2010.06.04 01:19:37.
