data_PCOD9341895
_publ_section_title
;
Structure prediction by ZEFSAII (Michael W. Deem and Ramdas Pophale) SiO2 
 PCOD9341895
Probable space group: P N C 2
;
_chemical_formula_sum "Si O2"
_cell_formula_units_Z 24
_cell_length_a 9.104316
_cell_length_b 13.919031
_cell_length_c 7.721517
_cell_angle_alpha 90.000000
_cell_angle_beta 90.000000
_cell_angle_gamma 90.000000
_cell_volume 978.495780
_symmetry_space_group_name_H-M "P N C 2"
_symmetry_group_IT_number 30
_symmetry_cell_setting 'orthorhombic'
loop_
_space_group_symop_operation_xyz
x,y,z
-x,-y,z
-x,1/2+y,1/2+z
x,1/2-y,1/2+z
loop_
_atom_site_type_symbol
_atom_site_label
_atom_site_fract_x
_atom_site_fract_y
_atom_site_fract_z
Si Si1 0.701514 0.172645 0.930870
Si Si2 0.862697 0.728677 0.565969
Si Si3 0.980880 0.386722 0.256468
Si Si4 0.410139 0.130876 0.057742
Si Si5 0.840737 0.956178 0.223922
Si Si6 0.673418 0.379137 0.805978
O O1 0.811216 0.135581 0.788079
O O2 0.689510 0.287475 0.924722
O O3 0.536849 0.130496 0.915965
O O4 0.756131 0.147019 0.124139
O O5 0.686783 0.727227 0.537450
O O6 0.865241 0.658520 0.738999
O O7 0.940379 0.662312 0.423015
O O8 0.945318 0.826546 0.602894
O O9 0.000000 0.500000 0.244172
O O10 0.284920 0.049465 0.070284
O O11 0.505907 0.118577 0.233968
O O12 0.754675 0.023111 0.361312
O O13 0.000000 0.000000 0.192383
#
# Coordination Sequence:
#
# PCOD9341895 Si02
#       6
#     4   4   4   4   4   4
#     4  10  21  37  61  88 130 165 215 264 336 398
#     4  10  24  40  65  97 132 173 227 283 336 407
#     4  12  24  43  69  98 136 179 232 283 349 409
#     4   8  23  33  63  91 128 163 219 271 334 395
#     4  10  18  36  63  91 123 163 224 263 330 399
#     4  10  20  37  59  94 120 171 207 273 319 411
#
# _framework density 24.527445
#
# number of rings (size 3 to 8) (size 9 to 14) (size 15 to 20)
#    2.000    0.000    0.000    5.000    2.333    0.000 
#    0.000    5.000    0.000    0.000    0.000    0.000 
#    0.000    0.000    0.000    0.000    0.000    0.000 
#
# Total GULP energy -133618.279647 kJ/mol
# GULP energy per Si atom -5567.428319 kJ/mol
# Density = 2.447162 g / cm^3
# Si number density = 24.527445 Si / 1000 Ang^3
#
#
#
# Elastic Constant Matrix: (Units=GPa)
#
#
# Indices 1 2 3 4 5 6 
#
# 1 203.0003 59.6116 25.7231 0.0000 0.0000 0.0000
# 2 59.6116 152.8316 15.5024 0.0000 0.0000 0.0000
# 3 25.7231 15.5024 55.4290 0.0000 0.0000 0.0000
# 4 0.0000 0.0000 0.0000 22.7794 0.0000 0.0000
# 5 0.0000 0.0000 0.0000 0.0000 15.3667 0.0000
# 6 0.0000 0.0000 0.0000 0.0000 0.0000 37.6753
#
#
#
# Elastic Compliance Matrix: (Units=1/GPa)
#
#
# Indices 1 2 3 4 5 6 
#
# 1 0.005795 -0.002046 -0.002117 0.000000 0.000000 0.000000
# 2 -0.002046 0.007456 -0.001136 0.000000 0.000000 0.000000
# 3 -0.002117 -0.001136 0.019341 0.000000 0.000000 0.000000
# 4 0.000000 0.000000 0.000000 0.043899 0.000000 0.000000
# 5 0.000000 0.000000 0.000000 0.000000 0.065076 0.000000
# 6 0.000000 0.000000 0.000000 0.000000 0.000000 0.026543
#
#
# Mechanical properties :
#
#
# Convention : Reuss Voigt Hill
#
# Bulk Modulus (GPa) = 45.46500 68.10391 56.78445
# Shear Modulus (GPa) = 26.87597 35.85921 31.36759
#
# Velocity S-wave (km/s) = 3.31380 3.82776 3.58002
# Velocity P-wave (km/s) = 5.76354 6.88203 6.34747
#
# Compressibility (1/GPa) = 0.02199494
#
# Stress axis : x y z
#
# Youngs Moduli (GPa) = 172.56012 134.11542 51.70263
#
# Poissons Ratio (x) = 0.27435 0.10947
# Poissons Ratio (y) = 0.35299 0.05874
# Poissons Ratio (z) = 0.36535 0.15236
#
# Static dielectric constant tensor:
#      x y z
#    x 1.980750 0.000000 0.000000 
#    y 0.000000 2.045130 0.000000 
#    z 0.000000 0.000000 2.051890 
# 
# From -- ./inp_files/3651.got.cif
#   From: 2010.05.17/outbox.cif.g08.bks.cpg/sg30_2_cif.got.tgz:3651.got - 2010.06.03 17:03:02.
