data_PCOD9341867
_publ_section_title
;
Structure prediction by ZEFSAII (Michael W. Deem and Ramdas Pophale) SiO2 
 PCOD9341867
Probable space group: P N C 2
;
_chemical_formula_sum "Si O2"
_cell_formula_units_Z 12
_cell_length_a 10.531948
_cell_length_b 7.908562
_cell_length_c 5.562587
_cell_angle_alpha 90.000000
_cell_angle_beta 90.000000
_cell_angle_gamma 90.000000
_cell_volume 463.322132
_symmetry_space_group_name_H-M "P N C 2"
_symmetry_group_IT_number 30
_symmetry_cell_setting 'orthorhombic'
loop_
_space_group_symop_operation_xyz
x,y,z
-x,-y,z
-x,1/2+y,1/2+z
x,1/2-y,1/2+z
loop_
_atom_site_type_symbol
_atom_site_label
_atom_site_fract_x
_atom_site_fract_y
_atom_site_fract_z
Si Si1 0.751832 0.085780 0.968320
Si Si2 0.484201 0.201371 0.468320
Si Si3 0.145910 0.548137 0.968320
O O1 0.612930 0.178079 0.968320
O O2 0.843773 0.248557 0.968320
O O3 0.784365 0.996192 0.716848
O O4 0.784365 0.996192 0.219792
O O5 0.422178 0.250000 0.718320
O O6 0.500000 0.000000 0.468321
O O7 0.000000 0.500000 0.968320
#
# Coordination Sequence:
#
# PCOD9341867 Si02
#       3
#     4   4   4
#     4  10  19  37  58  86 125 164 210 275 331 386
#     4  12  23  43  72  99 135 187 228 286 356 410
#     4  10  18  32  61  85 115 166 212 253 334 394
#
# _framework density 25.899909000000001
#
# number of rings (size 3 to 8) (size 9 to 14) (size 15 to 20)
#    0.000    1.333    6.667    2.000    0.000    0.000 
#    0.000    0.000   14.667    0.000    0.000    0.000 
#    0.000    0.000    0.000    0.000    0.000    0.000 
#
# Total GULP energy -67050.066038 kJ/mol
# GULP energy per Si atom -5587.505503 kJ/mol
# Density = 2.584096 g / cm^3
# Si number density = 25.899909 Si / 1000 Ang^3
#
#
#
# Elastic Constant Matrix: (Units=GPa)
#
#
# Indices 1 2 3 4 5 6 
#
# 1 185.0026 70.2667 63.8389 0.0000 0.0000 0.0000
# 2 70.2667 96.1065 61.7706 0.0000 0.0000 0.0000
# 3 63.8389 61.7706 374.2341 0.0000 0.0000 0.0000
# 4 0.0000 0.0000 0.0000 12.5264 0.0000 0.0000
# 5 0.0000 0.0000 0.0000 0.0000 242.1944 0.0000
# 6 0.0000 0.0000 0.0000 0.0000 0.0000 53.3428
#
#
#
# Elastic Compliance Matrix: (Units=1/GPa)
#
#
# Indices 1 2 3 4 5 6 
#
# 1 0.007542 -0.005244 -0.000421 0.000000 0.000000 0.000000
# 2 -0.005244 0.015286 -0.001629 0.000000 0.000000 0.000000
# 3 -0.000421 -0.001629 0.003013 0.000000 0.000000 0.000000
# 4 0.000000 0.000000 0.000000 0.079831 0.000000 0.000000
# 5 0.000000 0.000000 0.000000 0.000000 0.004129 0.000000
# 6 0.000000 0.000000 0.000000 0.000000 0.000000 0.018747
#
#
# Mechanical properties :
#
#
# Convention : Reuss Voigt Hill
#
# Bulk Modulus (GPa) = 88.85723 116.34396 102.60060
# Shear Modulus (GPa) = 34.04009 92.24387 63.14198
#
# Velocity S-wave (km/s) = 3.62925 5.97435 4.94289
# Velocity P-wave (km/s) = 7.20724 9.62333 8.50156
#
# Compressibility (1/GPa) = 0.01125401
#
# Stress axis : x y z
#
# Youngs Moduli (GPa) = 132.58551 65.42037 331.92193
#
# Poissons Ratio (x) = 0.34305 0.13976
# Poissons Ratio (y) = 0.69525 0.54055
# Poissons Ratio (z) = 0.05583 0.10654
#
# Static dielectric constant tensor:
#      x y z
#    x 2.009580 0.000000 0.000000 
#    y 0.000000 2.072140 0.000000 
#    z 0.000000 0.000000 2.309870 
# 
# From -- ./inp_files/602.got.cif
#   From: 2010.05.17/outbox.cif.g08.bks.cpg/sg30_1_cif.got.tgz:602.got - 2010.06.03 17:03:02.
