data_PCOD9341167
_publ_section_title
;
Structure prediction by ZEFSAII (Michael W. Deem and Ramdas Pophale) SiO2 
 PCOD9341167
Probable space group: P C A 21
;
_chemical_formula_sum "Si O2"
_cell_formula_units_Z 28
_cell_length_a 20.032982
_cell_length_b 11.385860
_cell_length_c 4.956515
_cell_angle_alpha 90.000000
_cell_angle_beta 90.000000
_cell_angle_gamma 90.000000
_cell_volume 1130.545030
_symmetry_space_group_name_H-M "P C A 21"
_symmetry_group_IT_number 29
_symmetry_cell_setting 'orthorhombic'
loop_
_space_group_symop_operation_xyz
x,y,z
-x,-y,1/2+z
1/2-x,y,1/2+z
1/2+x,-y,z
loop_
_atom_site_type_symbol
_atom_site_label
_atom_site_fract_x
_atom_site_fract_y
_atom_site_fract_z
Si Si1 0.099946 0.449998 0.431870
Si Si2 0.131849 0.839868 0.574273
Si Si3 0.909744 0.777466 0.187887
Si Si4 0.791767 0.378226 0.890883
Si Si5 0.797352 0.958404 0.374262
Si Si6 0.014190 0.675995 0.595517
Si Si7 0.042983 0.025976 0.306679
O O1 0.124672 0.348039 0.631175
O O2 0.161169 0.516164 0.296852
O O3 0.047212 0.378567 0.256581
O O4 0.058771 0.560138 0.546439
O O5 0.171727 0.747195 0.390513
O O6 0.068694 0.769685 0.701910
O O7 0.173979 0.912827 0.792683
O O8 0.101471 0.936677 0.375299
O O9 0.856944 0.863933 0.332385
O O10 0.977814 0.738398 0.341652
O O11 0.932265 0.849648 0.920595
O O12 0.772499 0.385365 0.204402
O O13 0.763168 0.942543 0.662011
O O14 0.017872 0.012468 0.003901
#
# Coordination Sequence:
#
# PCOD9341167 Si02
#       7
#     4   4   4   4   4   4   4
#     4  11  25  42  72 101 147 181 238 298 351 422
#     4  10  23  44  75 100 144 181 233 304 350 429
#     4  11  25  41  70  98 139 184 226 289 355 422
#     4  11  27  47  71 102 136 193 245 285 346 414
#     4  11  27  49  70 103 140 190 240 287 349 421
#     4  11  22  45  66 110 137 184 231 300 370 412
#     4  11  23  40  64 104 139 171 217 279 357 424
#
# _framework density 24.766814
#
# number of rings (size 3 to 8) (size 9 to 14) (size 15 to 20)
#    0.000    1.143    2.857    1.714    4.000    5.714 
#    2.571    0.000    0.000    0.000    0.000    0.000 
#    0.000    0.000    0.000    0.000    0.000    0.000 
#
# Total GULP energy -156678.591954 kJ/mol
# GULP energy per Si atom -5595.663998 kJ/mol
# Density = 2.471044 g / cm^3
# Si number density = 24.766814 Si / 1000 Ang^3
#
#
#
# Elastic Constant Matrix: (Units=GPa)
#
#
# Indices 1 2 3 4 5 6 
#
# 1 101.5785 53.1621 12.8630 0.0000 0.0000 0.0000
# 2 53.1621 193.2261 15.5381 0.0000 0.0000 0.0000
# 3 12.8630 15.5381 42.1462 0.0000 0.0000 0.0000
# 4 0.0000 0.0000 0.0000 17.8826 0.0000 0.0000
# 5 0.0000 0.0000 0.0000 0.0000 45.2515 0.0000
# 6 0.0000 0.0000 0.0000 0.0000 0.0000 50.4209
#
#
#
# Elastic Compliance Matrix: (Units=1/GPa)
#
#
# Indices 1 2 3 4 5 6 
#
# 1 0.011744 -0.003033 -0.002466 0.000000 0.000000 0.000000
# 2 -0.003033 0.006117 -0.001329 0.000000 0.000000 0.000000
# 3 -0.002466 -0.001329 0.024970 0.000000 0.000000 0.000000
# 4 0.000000 0.000000 0.000000 0.055920 0.000000 0.000000
# 5 0.000000 0.000000 0.000000 0.000000 0.022099 0.000000
# 6 0.000000 0.000000 0.000000 0.000000 0.000000 0.019833
#
#
# Mechanical properties :
#
#
# Convention : Reuss Voigt Hill
#
# Bulk Modulus (GPa) = 34.27750 55.56412 44.92081
# Shear Modulus (GPa) = 30.47590 39.73684 35.10637
#
# Velocity S-wave (km/s) = 3.51167 4.00989 3.76902
# Velocity P-wave (km/s) = 5.50569 6.62741 6.09242
#
# Compressibility (1/GPa) = 0.02917366
#
# Stress axis : x y z
#
# Youngs Moduli (GPa) = 85.14871 163.48932 40.04847
#
# Poissons Ratio (x) = 0.49584 0.09877
# Poissons Ratio (y) = 0.25824 0.05324
# Poissons Ratio (z) = 0.20999 0.21734
#
# Static dielectric constant tensor:
#      x y z
#    x 1.990820 0.000000 0.000000 
#    y 0.000000 1.951030 0.000000 
#    z 0.000000 0.000000 2.025340 
# 
# From -- ./inp_files/391.got.cif
#   From: 2010.05.17/outbox.cif.g08.bks.cpg/sg29_1_cif.got.tgz:391.got - 2010.06.04 01:19:37.
