data_PCOD9341999
_publ_section_title
;
Structure prediction by ZEFSAII (Michael W. Deem and Ramdas Pophale) SiO2 
 PCOD9341999
Probable space group: P N C 2
;
_chemical_formula_sum "Si O2"
_cell_formula_units_Z 26
_cell_length_a 10.731118
_cell_length_b 17.799782
_cell_length_c 5.183324
_cell_angle_alpha 90.000000
_cell_angle_beta 90.000000
_cell_angle_gamma 90.000000
_cell_volume 990.074808
_symmetry_space_group_name_H-M "P N C 2"
_symmetry_group_IT_number 30
_symmetry_cell_setting 'orthorhombic'
loop_
_space_group_symop_operation_xyz
x,y,z
-x,-y,z
-x,1/2+y,1/2+z
x,1/2-y,1/2+z
loop_
_atom_site_type_symbol
_atom_site_label
_atom_site_fract_x
_atom_site_fract_y
_atom_site_fract_z
Si Si1 0.678897 0.519505 0.435220
Si Si2 0.387717 0.662035 0.158616
Si Si3 0.130319 0.083210 0.615839
Si Si4 0.500000 0.000000 0.430544
Si Si5 0.795525 0.797018 0.228174
Si Si6 0.495684 0.327690 0.669105
Si Si7 0.143469 0.917057 0.730600
O O1 0.465555 0.634617 0.404544
O O2 0.758595 0.590867 0.328242
O O3 0.601493 0.527433 0.695378
O O4 0.783379 0.453614 0.473956
O O5 0.392193 0.501728 0.168697
O O6 0.423085 0.750338 0.152553
O O7 0.241701 0.646485 0.148646
O O8 0.151833 0.127202 0.353141
O O9 0.167904 0.261173 0.457492
O O10 0.999070 0.106408 0.744826
O O11 0.132551 0.993595 0.563839
O O12 0.546977 0.124645 0.409669
O O13 0.644350 0.803768 0.220210
#
# Coordination Sequence:
#
# PCOD9341999 Si02
#       7
#     4   4   4   2   4   4   4
#     4   9  21  40  65  95 141 175 226 291 358 420
#     4  10  19  39  67  98 132 183 225 287 356 422
#     4   9  23  47  70 100 144 197 246 290 362 430
#     4  10  20  38  60 104 132 174 224 280 348 432
#     4  12  23  46  71 100 139 191 240 302 362 432
#     4  10  20  39  66 100 138 176 227 295 362 420
#     4   9  21  47  69 100 146 195 238 297 355 435
#
# _framework density 26.260642000000001
#
# number of rings (size 3 to 8) (size 9 to 14) (size 15 to 20)
#    0.923    1.231    3.077    0.000    0.000    6.154 
#    5.538    6.154    0.000    0.000    0.000    0.000 
#    0.000    0.000    0.000    0.000    0.000    0.000 
#
# Total GULP energy -144908.521527 kJ/mol
# GULP energy per Si atom -5573.404674 kJ/mol
# Density = 2.620087 g / cm^3
# Si number density = 26.260642 Si / 1000 Ang^3
#
#
#
# Elastic Constant Matrix: (Units=GPa)
#
#
# Indices 1 2 3 4 5 6 
#
# 1 188.9818 42.0240 65.3894 0.0000 0.0000 0.0000
# 2 42.0240 89.2394 50.7823 0.0000 0.0000 0.0000
# 3 65.3894 50.7823 230.4588 0.0000 0.0000 0.0000
# 4 0.0000 0.0000 0.0000 50.5309 0.0000 0.0000
# 5 0.0000 0.0000 0.0000 0.0000 23.7324 0.0000
# 6 0.0000 0.0000 0.0000 0.0000 0.0000 44.4485
#
#
#
# Elastic Compliance Matrix: (Units=1/GPa)
#
#
# Indices 1 2 3 4 5 6 
#
# 1 0.006224 -0.002202 -0.001281 0.000000 0.000000 0.000000
# 2 -0.002202 0.013592 -0.002370 0.000000 0.000000 0.000000
# 3 -0.001281 -0.002370 0.005225 0.000000 0.000000 0.000000
# 4 0.000000 0.000000 0.000000 0.019790 0.000000 0.000000
# 5 0.000000 0.000000 0.000000 0.000000 0.042136 0.000000
# 6 0.000000 0.000000 0.000000 0.000000 0.000000 0.022498
#
#
# Mechanical properties :
#
#
# Convention : Reuss Voigt Hill
#
# Bulk Modulus (GPa) = 74.99356 91.67462 83.33409
# Shear Modulus (GPa) = 39.80374 47.10799 43.45587
#
# Velocity S-wave (km/s) = 3.89745 4.24000 4.07233
# Velocity P-wave (km/s) = 6.99091 7.67824 7.34262
#
# Compressibility (1/GPa) = 0.01333448
#
# Stress axis : x y z
#
# Youngs Moduli (GPa) = 160.65776 73.57474 191.39367
#
# Poissons Ratio (x) = 0.16203 0.24514
# Poissons Ratio (y) = 0.35382 0.45362
# Poissons Ratio (z) = 0.20577 0.17438
#
# Static dielectric constant tensor:
#      x y z
#    x 2.080520 0.000000 0.000000 
#    y 0.000000 2.269480 0.000000 
#    z 0.000000 0.000000 2.193950 
# 
# From -- ./inp_files/2416.got.cif
#   From: 2010.05.17/outbox.cif.g08.bks.cpg/sg30_2_cif.got.tgz:2416.got - 2010.06.03 17:03:02.
