data_PCOD9341288
_publ_section_title
;
Structure prediction by ZEFSAII (Michael W. Deem and Ramdas Pophale) SiO2 
 PCOD9341288
Probable space group: P C A 21
;
_chemical_formula_sum "Si O2"
_cell_formula_units_Z 32
_cell_length_a 22.878739
_cell_length_b 6.003727
_cell_length_c 9.047617
_cell_angle_alpha 90.000000
_cell_angle_beta 90.000000
_cell_angle_gamma 90.000000
_cell_volume 1242.759889
_symmetry_space_group_name_H-M "P C A 21"
_symmetry_group_IT_number 29
_symmetry_cell_setting 'orthorhombic'
loop_
_space_group_symop_operation_xyz
x,y,z
-x,-y,1/2+z
1/2-x,y,1/2+z
1/2+x,-y,z
loop_
_atom_site_type_symbol
_atom_site_label
_atom_site_fract_x
_atom_site_fract_y
_atom_site_fract_z
Si Si1 0.884275 0.510628 0.764460
Si Si2 0.445505 0.503478 0.359106
Si Si3 0.245463 0.903795 0.434331
Si Si4 0.996434 0.724621 0.606365
Si Si5 0.857702 0.837944 0.362965
Si Si6 0.433847 0.873807 0.591548
Si Si7 0.240481 0.566635 0.179298
Si Si8 0.657636 0.752469 0.546234
O O1 0.937082 0.640439 0.688142
O O2 0.821670 0.556204 0.687511
O O3 0.900135 0.254603 0.722209
O O4 0.877299 0.596914 0.931610
O O5 0.455052 0.590431 0.195145
O O6 0.489251 0.320523 0.431110
O O7 0.380152 0.413889 0.382959
O O8 0.456838 0.698428 0.473009
O O9 0.291636 0.084983 0.378182
O O10 0.186217 0.042615 0.455583
O O11 0.247897 0.676213 0.340195
O O12 0.262688 0.798602 0.590274
O O13 0.990066 0.984196 0.637618
O O14 0.890991 0.980188 0.487513
O O15 0.873505 0.864023 0.188774
O O16 0.291197 0.405793 0.118064
#
# Coordination Sequence:
#
# PCOD9341288 Si02
#       8
#     4   4   4   4   4   4   4   4
#     4  11  25  43  69 101 138 183 231 287 346 417
#     4  10  25  47  73 102 136 179 229 290 351 415
#     4  12  26  43  70 102 143 187 237 281 348 419
#     4  10  25  47  73 102 136 179 229 290 351 415
#     4  11  25  43  69 101 138 183 231 287 346 417
#     4  10  24  44  74  96 140 182 232 280 362 416
#     4  12  26  43  70 102 143 187 237 281 348 419
#     4  12  28  42  68 106 144 186 234 298 344 412
#
# _framework density 25.749144000000001
#
# number of rings (size 3 to 8) (size 9 to 14) (size 15 to 20)
#    0.000    1.000    3.750    0.750   10.500    4.000 
#    0.000    0.000    0.000    0.000    0.000    0.000 
#    0.000    0.000    0.000    0.000    0.000    0.000 
#
# Total GULP energy -178727.640345 kJ/mol
# GULP energy per Si atom -5585.238761 kJ/mol
# Density = 2.569054 g / cm^3
# Si number density = 25.749144 Si / 1000 Ang^3
#
#
#
# Elastic Constant Matrix: (Units=GPa)
#
#
# Indices 1 2 3 4 5 6 
#
# 1 59.9256 22.6415 23.9177 0.0000 0.0000 0.0000
# 2 22.6415 77.4707 16.9267 0.0000 0.0000 0.0000
# 3 23.9177 16.9267 101.1962 0.0000 0.0000 0.0000
# 4 0.0000 0.0000 0.0000 58.4043 0.0000 0.0000
# 5 0.0000 0.0000 0.0000 0.0000 41.0785 0.0000
# 6 0.0000 0.0000 0.0000 0.0000 0.0000 42.3079
#
#
#
# Elastic Compliance Matrix: (Units=1/GPa)
#
#
# Indices 1 2 3 4 5 6 
#
# 1 0.020154 -0.005033 -0.003922 0.000000 0.000000 0.000000
# 2 -0.005033 0.014655 -0.001262 0.000000 0.000000 0.000000
# 3 -0.003922 -0.001262 0.011020 0.000000 0.000000 0.000000
# 4 0.000000 0.000000 0.000000 0.017122 0.000000 0.000000
# 5 0.000000 0.000000 0.000000 0.000000 0.024344 0.000000
# 6 0.000000 0.000000 0.000000 0.000000 0.000000 0.023636
#
#
# Mechanical properties :
#
#
# Convention : Reuss Voigt Hill
#
# Bulk Modulus (GPa) = 39.37688 40.61827 39.99757
# Shear Modulus (GPa) = 35.75792 40.03192 37.89492
#
# Velocity S-wave (km/s) = 3.73057 3.94723 3.84043
# Velocity P-wave (km/s) = 5.82082 6.04839 5.93570
#
# Compressibility (1/GPa) = 0.02539561
#
# Stress axis : x y z
#
# Youngs Moduli (GPa) = 49.61714 68.23689 90.74678
#
# Poissons Ratio (x) = 0.34347 0.35587
# Poissons Ratio (y) = 0.24975 0.11449
# Poissons Ratio (z) = 0.19458 0.08609
#
# Static dielectric constant tensor:
#      x y z
#    x 2.031510 0.000000 0.000000 
#    y 0.000000 2.134280 0.000000 
#    z 0.000000 0.000000 2.057340 
# 
# From -- ./inp_files/2619.got.cif
#   From: 2010.05.17/outbox.cif.g08.bks.cpg/sg29_2_cif.got.tgz:2619.got - 2010.06.04 01:19:37.
