data_PCOD9341585
_publ_section_title
;
Structure prediction by ZEFSAII (Michael W. Deem and Ramdas Pophale) SiO2 
 PCOD9341585
Probable space group: P C A 21
;
_chemical_formula_sum "Si O2"
_cell_formula_units_Z 24
_cell_length_a 11.857858
_cell_length_b 9.378835
_cell_length_c 9.392439
_cell_angle_alpha 90.000000
_cell_angle_beta 90.000000
_cell_angle_gamma 90.000000
_cell_volume 1044.560319
_symmetry_space_group_name_H-M "P C A 21"
_symmetry_group_IT_number 29
_symmetry_cell_setting 'orthorhombic'
loop_
_space_group_symop_operation_xyz
x,y,z
-x,-y,1/2+z
1/2-x,y,1/2+z
1/2+x,-y,z
loop_
_atom_site_type_symbol
_atom_site_label
_atom_site_fract_x
_atom_site_fract_y
_atom_site_fract_z
Si Si1 0.450584 0.361985 0.285360
Si Si2 0.287598 0.925755 0.350841
Si Si3 0.207828 0.245789 0.324534
Si Si4 0.134118 0.865994 0.572065
Si Si5 0.490339 0.158686 0.028682
Si Si6 0.971777 0.641173 0.623069
O O1 0.313397 0.351507 0.298230
O O2 0.492785 0.231695 0.184568
O O3 0.507885 0.495736 0.206350
O O4 0.477866 0.369240 0.452629
O O5 0.188774 0.836407 0.422795
O O6 0.272634 0.916185 0.182191
O O7 0.400263 0.867612 0.428775
O O8 0.266777 0.095562 0.368451
O O9 0.106324 0.249450 0.442461
O O10 0.136039 0.270548 0.179561
O O11 0.079422 0.737232 0.652964
O O12 0.051195 0.997767 0.554456
#
# Coordination Sequence:
#
# PCOD9341585 Si02
#       6
#     4   4   4   4   4   4
#     4  12  27  47  75 106 148 205 245 307 375 445
#     4  11  25  43  75 112 147 191 245 308 370 437
#     4  11  24  50  75 109 149 196 247 308 376 435
#     4  11  26  43  73 109 146 190 245 309 370 440
#     4  11  24  45  76 109 149 191 251 308 370 447
#     4  12  28  48  74 109 151 197 251 308 373 450
#
# _framework density 22.976175999999999
#
# number of rings (size 3 to 8) (size 9 to 14) (size 15 to 20)
#    0.000    0.667    3.333    3.000    7.000    1.333 
#    3.000    0.000    0.000    0.000    0.000    0.000 
#    0.000    0.000    0.000    0.000    0.000    0.000 
#
# Total GULP energy -133662.728927 kJ/mol
# GULP energy per Si atom -5569.280372 kJ/mol
# Density = 2.292388 g / cm^3
# Si number density = 22.976176 Si / 1000 Ang^3
#
#
#
# Elastic Constant Matrix: (Units=GPa)
#
#
# Indices 1 2 3 4 5 6 
#
# 1 74.9236 36.1191 47.3060 0.0000 0.0000 0.0000
# 2 36.1191 -23.7710 -9.4369 0.0000 0.0000 0.0000
# 3 47.3060 -9.4369 138.7708 0.0000 0.0000 0.0000
# 4 0.0000 0.0000 0.0000 29.1855 0.0000 0.0000
# 5 0.0000 0.0000 0.0000 0.0000 24.7141 0.0000
# 6 0.0000 0.0000 0.0000 0.0000 0.0000 15.9419
#
#
#
# Elastic Compliance Matrix: (Units=1/GPa)
#
#
# Indices 1 2 3 4 5 6 
#
# 1 0.008185 0.013188 -0.001893 0.000000 0.000000 0.000000
# 2 0.013188 -0.019713 -0.005836 0.000000 0.000000 0.000000
# 3 -0.001893 -0.005836 0.007455 0.000000 0.000000 0.000000
# 4 0.000000 0.000000 0.000000 0.034264 0.000000 0.000000
# 5 0.000000 0.000000 0.000000 0.000000 0.040463 0.000000
# 6 0.000000 0.000000 0.000000 0.000000 0.000000 0.062728
#
#
# Mechanical properties :
#
#
# Convention : Reuss Voigt Hill
#
# Bulk Modulus (GPa) = 146.11995 37.54444 91.83220
# Shear Modulus (GPa) = 40.08176 21.69731 30.88954
#
# Velocity S-wave (km/s) = 4.18124 3.07634 3.67061
# Velocity P-wave (km/s) = 9.32978 5.38466 7.61706
#
# Compressibility (1/GPa) = 0.00684369
#
# Stress axis : x y z
#
# Youngs Moduli (GPa) = 122.17939 -50.72902 134.14444
#
# Poissons Ratio (x) = 0.66901 0.25397
# Poissons Ratio (y) = -1.61130 0.78290
# Poissons Ratio (z) = 0.23132 -0.29607
#
# Static dielectric constant tensor:
#      x y z
#    x 1.977930 0.000000 0.000000 
#    y 0.000000 1.893430 0.000000 
#    z 0.000000 0.000000 1.890190 
# 
# From -- ./inp_files/1394.got.cif
#   From: 2010.05.17/outbox.cif.g08.bks.cpg/sg29_1_cif.got.tgz:1394.got - 2010.06.04 01:19:37.
