data_PCOD9341417
_publ_section_title
;
Structure prediction by ZEFSAII (Michael W. Deem and Ramdas Pophale) SiO2 
 PCOD9341417
Probable space group: P C A 21
;
_chemical_formula_sum "Si O2"
_cell_formula_units_Z 32
_cell_length_a 10.782343
_cell_length_b 17.891663
_cell_length_c 7.053719
_cell_angle_alpha 90.000000
_cell_angle_beta 90.000000
_cell_angle_gamma 90.000000
_cell_volume 1360.761481
_symmetry_space_group_name_H-M "P C A 21"
_symmetry_group_IT_number 29
_symmetry_cell_setting 'orthorhombic'
loop_
_space_group_symop_operation_xyz
x,y,z
-x,-y,1/2+z
1/2-x,y,1/2+z
1/2+x,-y,z
loop_
_atom_site_type_symbol
_atom_site_label
_atom_site_fract_x
_atom_site_fract_y
_atom_site_fract_z
Si Si1 0.019270 0.898111 0.725060
Si Si2 0.048501 0.363038 0.311193
Si Si3 0.366525 0.473205 0.525585
Si Si4 0.455602 0.349332 0.257115
Si Si5 0.140637 0.026301 0.914839
Si Si6 0.400280 0.225791 0.542776
Si Si7 0.658105 0.880256 0.560231
Si Si8 0.875798 0.431360 0.023363
O O1 0.943910 0.959649 0.599389
O O2 0.018237 0.827779 0.585390
O O3 0.944093 0.864243 0.904619
O O4 0.126424 0.946083 0.820170
O O5 0.133876 0.428255 0.222174
O O6 0.368518 0.411195 0.359684
O O7 0.096207 0.289934 0.201485
O O8 0.915716 0.385917 0.213388
O O9 0.048682 0.348701 0.532800
O O10 0.513605 0.495127 0.519217
O O11 0.258398 0.532770 0.520282
O O12 0.416992 0.269990 0.346278
O O13 0.587328 0.377341 0.347875
O O14 0.278656 0.043860 0.979706
O O15 0.112016 0.093030 0.764151
O O16 0.272117 0.178670 0.563621
#
# Coordination Sequence:
#
# PCOD9341417 Si02
#       8
#     4   4   4   4   4   4   4   4
#     4  11  22  36  58  90 133 172 222 274 346 405
#     4   8  17  31  52  82 131 180 226 278 345 424
#     4   7  15  28  48  84 133 178 230 291 361 418
#     4   8  17  31  52  83 130 179 226 279 346 423
#     4  11  21  36  57  89 129 167 217 273 334 406
#     4   9  20  34  53  84 133 176 221 276 346 410
#     4  11  21  36  58  90 129 173 213 276 341 400
#     4   7  15  28  48  84 132 175 225 293 355 424
#
# _framework density 23.516245000000001
#
# number of rings (size 3 to 8) (size 9 to 14) (size 15 to 20)
#    1.500    1.500    3.750    0.000    0.000    4.000 
#    0.000    0.000    0.000    0.000    0.000   14.000 
#    0.000   32.000    0.000    2.000    0.000    0.000 
#
# Total GULP energy -178368.017860 kJ/mol
# GULP energy per Si atom -5574.000558 kJ/mol
# Density = 2.346272 g / cm^3
# Si number density = 23.516245 Si / 1000 Ang^3
#
#
#
# Elastic Constant Matrix: (Units=GPa)
#
#
# Indices 1 2 3 4 5 6 
#
# 1 64.6984 47.0320 24.5732 0.0000 0.0000 0.0000
# 2 47.0320 102.1327 38.1803 0.0000 0.0000 0.0000
# 3 24.5732 38.1803 197.3779 0.0000 0.0000 0.0000
# 4 0.0000 0.0000 0.0000 22.2991 0.0000 0.0000
# 5 0.0000 0.0000 0.0000 0.0000 27.3392 0.0000
# 6 0.0000 0.0000 0.0000 0.0000 0.0000 38.7741
#
#
#
# Elastic Compliance Matrix: (Units=1/GPa)
#
#
# Indices 1 2 3 4 5 6 
#
# 1 0.023379 -0.010432 -0.000893 0.000000 0.000000 0.000000
# 2 -0.010432 0.015210 -0.001643 0.000000 0.000000 0.000000
# 3 -0.000893 -0.001643 0.005495 0.000000 0.000000 0.000000
# 4 0.000000 0.000000 0.000000 0.044845 0.000000 0.000000
# 5 0.000000 0.000000 0.000000 0.000000 0.036577 0.000000
# 6 0.000000 0.000000 0.000000 0.000000 0.000000 0.025790
#
#
# Mechanical properties :
#
#
# Convention : Reuss Voigt Hill
#
# Bulk Modulus (GPa) = 55.10393 64.86443 59.98418
# Shear Modulus (GPa) = 27.28027 34.64406 30.96216
#
# Velocity S-wave (km/s) = 3.40966 3.84239 3.63247
# Velocity P-wave (km/s) = 6.24373 6.87953 6.56933
#
# Compressibility (1/GPa) = 0.01814753
#
# Stress axis : x y z
#
# Youngs Moduli (GPa) = 42.77328 65.74806 181.96941
#
# Poissons Ratio (x) = 0.68591 0.16243
# Poissons Ratio (y) = 0.44623 0.29903
# Poissons Ratio (z) = 0.03818 0.10804
#
# Static dielectric constant tensor:
#      x y z
#    x 1.949240 0.000000 0.000000 
#    y 0.000000 1.962550 0.000000 
#    z 0.000000 0.000000 1.996430 
# 
# From -- ./inp_files/1609.got.cif
#   From: 2010.05.17/outbox.cif.g08.bks.cpg/sg29_1_cif.got.tgz:1609.got - 2010.06.04 01:19:37.
