data_PCOD9341015
_publ_section_title
;
Structure prediction by ZEFSAII (Michael W. Deem and Ramdas Pophale) SiO2 
 PCOD9341015
Probable space group: P C A 21
;
_chemical_formula_sum "Si O2"
_cell_formula_units_Z 20
_cell_length_a 17.540266
_cell_length_b 5.060723
_cell_length_c 8.213730
_cell_angle_alpha 90.000000
_cell_angle_beta 90.000000
_cell_angle_gamma 90.000000
_cell_volume 729.103469
_symmetry_space_group_name_H-M "P C A 21"
_symmetry_group_IT_number 29
_symmetry_cell_setting 'orthorhombic'
loop_
_space_group_symop_operation_xyz
x,y,z
-x,-y,1/2+z
1/2-x,y,1/2+z
1/2+x,-y,z
loop_
_atom_site_type_symbol
_atom_site_label
_atom_site_fract_x
_atom_site_fract_y
_atom_site_fract_z
Si Si1 0.861610 0.387055 0.889310
Si Si2 0.275597 0.807884 0.216589
Si Si3 0.594454 0.409369 0.916211
Si Si4 0.993172 0.878294 0.509642
Si Si5 0.883289 0.787274 0.132413
O O1 0.810443 0.286922 0.740934
O O2 0.944551 0.256197 0.888746
O O3 0.813978 0.290278 0.049325
O O4 0.872887 0.690989 0.946153
O O5 0.302658 0.114609 0.207182
O O6 0.320975 0.690291 0.372020
O O7 0.570082 0.649926 0.037355
O O8 0.581107 0.560001 0.743274
O O9 0.547777 0.151228 0.964275
O O10 0.054453 0.981596 0.641493
#
# Coordination Sequence:
#
# PCOD9341015 Si02
#       5
#     4   4   4   4   4
#     4  10  23  44  68 100 140 183 232 291 347 420
#     4  10  23  44  68 100 140 183 232 291 347 420
#     4  11  22  42  68  97 134 177 231 287 348 408
#     4  11  22  42  68  97 134 177 231 287 348 408
#     4  10  22  44  68  96 144 184 232 294 354 408
#
# _framework density 27.430948999999998
#
# number of rings (size 3 to 8) (size 9 to 14) (size 15 to 20)
#    0.000    1.600    4.000    0.000    0.000    6.400 
#    3.600    4.000    0.000    0.000    0.000    0.000 
#    0.000    0.000    0.000    0.000    0.000    0.000 
#
# Total GULP energy -111511.373993 kJ/mol
# GULP energy per Si atom -5575.568700 kJ/mol
# Density = 2.736852 g / cm^3
# Si number density = 27.430949 Si / 1000 Ang^3
#
#
#
# Elastic Constant Matrix: (Units=GPa)
#
#
# Indices 1 2 3 4 5 6 
#
# 1 121.9403 37.0514 5.3124 0.0000 0.0000 0.0000
# 2 37.0514 184.9054 1.4310 0.0000 0.0000 0.0000
# 3 5.3124 1.4310 67.8459 0.0000 0.0000 0.0000
# 4 0.0000 0.0000 0.0000 38.5518 0.0000 0.0000
# 5 0.0000 0.0000 0.0000 0.0000 34.0038 0.0000
# 6 0.0000 0.0000 0.0000 0.0000 0.0000 12.5946
#
#
#
# Elastic Compliance Matrix: (Units=1/GPa)
#
#
# Indices 1 2 3 4 5 6 
#
# 1 0.008761 -0.001750 -0.000649 0.000000 0.000000 0.000000
# 2 -0.001750 0.005759 0.000016 0.000000 0.000000 0.000000
# 3 -0.000649 0.000016 0.014790 0.000000 0.000000 0.000000
# 4 0.000000 0.000000 0.000000 0.025939 0.000000 0.000000
# 5 0.000000 0.000000 0.000000 0.000000 0.029408 0.000000
# 6 0.000000 0.000000 0.000000 0.000000 0.000000 0.079399
#
#
# Mechanical properties :
#
#
# Convention : Reuss Voigt Hill
#
# Bulk Modulus (GPa) = 40.74717 51.36458 46.05588
# Shear Modulus (GPa) = 28.24789 39.08982 33.66886
#
# Velocity S-wave (km/s) = 3.21250 3.77905 3.50723
# Velocity P-wave (km/s) = 5.35228 6.14876 5.76430
#
# Compressibility (1/GPa) = 0.02454158
#
# Stress axis : x y z
#
# Youngs Moduli (GPa) = 114.14355 173.64685 67.61422
#
# Poissons Ratio (x) = 0.30397 0.04389
# Poissons Ratio (y) = 0.19981 -0.00105
# Poissons Ratio (z) = 0.07409 -0.00271
#
# Static dielectric constant tensor:
#      x y z
#    x 2.139440 0.000000 0.000000 
#    y 0.000000 2.433620 0.000000 
#    z 0.000000 0.000000 2.398750 
# 
# From -- ./inp_files/3545.got.cif
#   From: 2010.05.17/outbox.cif.g08.bks.cpg/sg29_2_cif.got.tgz:3545.got - 2010.06.04 01:19:37.
