data_PCOD9341977
_publ_section_title
;
Structure prediction by ZEFSAII (Michael W. Deem and Ramdas Pophale) SiO2 
 PCOD9341977
Probable space group: P N C 2
;
_chemical_formula_sum "Si O2"
_cell_formula_units_Z 32
_cell_length_a 5.572231
_cell_length_b 18.860107
_cell_length_c 11.939888
_cell_angle_alpha 90.000000
_cell_angle_beta 90.000000
_cell_angle_gamma 90.000000
_cell_volume 1254.797132
_symmetry_space_group_name_H-M "P N C 2"
_symmetry_group_IT_number 30
_symmetry_cell_setting 'orthorhombic'
loop_
_space_group_symop_operation_xyz
x,y,z
-x,-y,z
-x,1/2+y,1/2+z
x,1/2-y,1/2+z
loop_
_atom_site_type_symbol
_atom_site_label
_atom_site_fract_x
_atom_site_fract_y
_atom_site_fract_z
Si Si1 0.738091 0.323334 0.203140
Si Si2 0.722212 0.300406 0.456551
Si Si3 0.792319 0.155902 0.187767
Si Si4 0.746924 0.963320 0.876253
Si Si5 0.237485 0.334269 0.216624
Si Si6 0.229336 0.222773 0.404731
Si Si7 0.191662 0.439559 0.635587
Si Si8 0.481877 0.079455 0.350832
O O1 0.736350 0.339487 0.336398
O O2 0.741390 0.238501 0.200071
O O3 0.485998 0.346681 0.153057
O O4 0.989446 0.347930 0.153340
O O5 0.691626 0.354971 0.559979
O O6 0.473294 0.256478 0.457085
O O7 0.973469 0.252890 0.456106
O O8 0.722055 0.120996 0.307881
O O9 0.059624 0.134060 0.156805
O O10 0.757921 0.887797 0.819171
O O11 0.500000 0.000000 0.838908
O O12 0.743104 0.954448 0.009273
O O13 0.000000 0.000000 0.846725
O O14 0.231103 0.258103 0.279162
O O15 0.296623 0.138723 0.399122
O O16 0.395779 0.437317 0.725157
O O17 0.000000 0.500000 0.668403
O O18 0.500000 0.000000 0.405017
#
# Coordination Sequence:
#
# PCOD9341977 Si02
#       8
#     4   4   4   4   4   4   4   4
#     4  10  21  37  57  89 118 161 217 268 313 377
#     4  10  22  38  61  85 121 166 216 271 309 377
#     4  12  24  38  62  92 131 173 217 277 326 391
#     4  11  24  38  57  90 129 169 212 259 327 406
#     4  10  19  37  59  78 120 161 209 263 306 374
#     4  10  22  41  58  87 124 170 227 258 309 386
#     4  11  23  34  53  85 131 174 207 244 320 412
#     4  12  24  39  62  94 141 179 211 271 343 414
#
# _framework density 25.502130999999999
#
# number of rings (size 3 to 8) (size 9 to 14) (size 15 to 20)
#    0.000    1.250    3.750    4.125    7.000    0.000 
#    0.000    0.000    0.000    0.000    0.000    8.750 
#    0.000    0.000    0.000    0.000    0.000    0.000 
#
# Total GULP energy -178434.009407 kJ/mol
# GULP energy per Si atom -5576.062794 kJ/mol
# Density = 2.544409 g / cm^3
# Si number density = 25.502131 Si / 1000 Ang^3
#
#
#
# Elastic Constant Matrix: (Units=GPa)
#
#
# Indices 1 2 3 4 5 6 
#
# 1 192.3166 33.2785 7.1012 0.0000 0.0000 0.0000
# 2 33.2785 110.5304 0.4508 0.0000 0.0000 0.0000
# 3 7.1012 0.4508 43.7776 0.0000 0.0000 0.0000
# 4 0.0000 0.0000 0.0000 36.9752 0.0000 0.0000
# 5 0.0000 0.0000 0.0000 0.0000 54.3575 0.0000
# 6 0.0000 0.0000 0.0000 0.0000 0.0000 24.8839
#
#
#
# Elastic Compliance Matrix: (Units=1/GPa)
#
#
# Indices 1 2 3 4 5 6 
#
# 1 0.005519 -0.001658 -0.000878 0.000000 0.000000 0.000000
# 2 -0.001658 0.009546 0.000171 0.000000 0.000000 0.000000
# 3 -0.000878 0.000171 0.022983 0.000000 0.000000 0.000000
# 4 0.000000 0.000000 0.000000 0.027045 0.000000 0.000000
# 5 0.000000 0.000000 0.000000 0.000000 0.018397 0.000000
# 6 0.000000 0.000000 0.000000 0.000000 0.000000 0.040187
#
#
# Mechanical properties :
#
#
# Convention : Reuss Voigt Hill
#
# Bulk Modulus (GPa) = 30.01460 47.58727 38.80094
# Shear Modulus (GPa) = 35.83873 43.62959 39.73416
#
# Velocity S-wave (km/s) = 3.75283 4.14069 3.95152
# Velocity P-wave (km/s) = 5.52931 6.44679 6.00560
#
# Compressibility (1/GPa) = 0.03331712
#
# Stress axis : x y z
#
# Youngs Moduli (GPa) = 181.18883 104.75798 43.50957
#
# Poissons Ratio (x) = 0.17370 0.03821
# Poissons Ratio (y) = 0.30043 -0.00743
# Poissons Ratio (z) = 0.15912 -0.01788
#
# Static dielectric constant tensor:
#      x y z
#    x 0.596270 0.000000 0.000000 
#    y 0.000000 1.850280 0.000000 
#    z 0.000000 0.000000 2.027800 
# 
# From -- ./inp_files/4773.got.cif
#   From: 2010.05.17/outbox.cif.g08.bks.cpg/sg30_3_cif.got.tgz:4773.got - 2010.06.03 17:03:02.
