data_PCOD9341821
_publ_section_title
;
Structure prediction by ZEFSAII (Michael W. Deem and Ramdas Pophale) SiO2 
 PCOD9341821
Probable space group: P N C 2
;
_chemical_formula_sum "Si O2"
_cell_formula_units_Z 24
_cell_length_a 8.369066
_cell_length_b 14.202431
_cell_length_c 9.658075
_cell_angle_alpha 90.000000
_cell_angle_beta 90.000000
_cell_angle_gamma 90.000000
_cell_volume 1147.969248
_symmetry_space_group_name_H-M "P N C 2"
_symmetry_group_IT_number 30
_symmetry_cell_setting 'orthorhombic'
loop_
_space_group_symop_operation_xyz
x,y,z
-x,-y,z
-x,1/2+y,1/2+z
x,1/2-y,1/2+z
loop_
_atom_site_type_symbol
_atom_site_label
_atom_site_fract_x
_atom_site_fract_y
_atom_site_fract_z
Si Si1 0.000000 0.500000 0.322250
Si Si2 0.177532 0.176474 0.933045
Si Si3 0.000000 0.500000 0.804963
Si Si4 0.676444 0.989299 0.462832
Si Si5 0.779952 0.355548 0.149950
Si Si6 0.022783 0.301907 0.703175
Si Si7 0.551172 0.604174 0.248052
O O1 0.095012 0.425072 0.412052
O O2 0.115891 0.563692 0.227441
O O3 0.342740 0.161216 0.854722
O O4 0.077827 0.252686 0.844930
O O5 0.169099 0.199329 0.094248
O O6 0.159913 0.463019 0.885421
O O7 0.043523 0.593416 0.721273
O O8 0.640312 0.924167 0.600930
O O9 0.500000 0.000000 0.394371
O O10 0.724682 0.094356 0.510432
O O11 0.886793 0.264519 0.139211
O O12 0.612734 0.340373 0.225714
O O13 0.500000 0.500000 0.301104
#
# Coordination Sequence:
#
# PCOD9341821 Si02
#       7
#     2   4   2   4   4   4   4
#     4  10  16  32  66  84 129 153 220 254 319 389
#     4  11  22  40  63  99 124 169 216 270 321 396
#     4  12  24  44  62  90 137 185 214 282 331 379
#     4   9  19  37  71  97 125 167 225 269 331 396
#     4   9  18  37  63  98 120 175 208 271 317 402
#     4  11  26  40  64  93 132 171 225 263 329 390
#     4   9  18  37  67 100 125 165 216 271 327 397
#
# _framework density 20.906483000000001
#
# number of rings (size 3 to 8) (size 9 to 14) (size 15 to 20)
#    0.000    2.333    3.333    2.000    4.667    0.000 
#    3.000    4.167    0.000    0.000    0.000    0.000 
#    0.000    0.000    0.000    0.000    0.000    0.000 
#
# Total GULP energy -133715.463764 kJ/mol
# GULP energy per Si atom -5571.477657 kJ/mol
# Density = 2.085890 g / cm^3
# Si number density = 20.906483 Si / 1000 Ang^3
#
#
#
# Elastic Constant Matrix: (Units=GPa)
#
#
# Indices 1 2 3 4 5 6 
#
# 1 113.6421 23.7714 27.9851 0.0000 0.0000 0.0000
# 2 23.7714 112.6948 20.1251 0.0000 0.0000 0.0000
# 3 27.9851 20.1251 54.1847 0.0000 0.0000 0.0000
# 4 0.0000 0.0000 0.0000 4.8751 0.0000 0.0000
# 5 0.0000 0.0000 0.0000 0.0000 10.2146 0.0000
# 6 0.0000 0.0000 0.0000 0.0000 0.0000 27.9818
#
#
#
# Elastic Compliance Matrix: (Units=1/GPa)
#
#
# Indices 1 2 3 4 5 6 
#
# 1 0.010258 -0.001304 -0.004813 0.000000 0.000000 0.000000
# 2 -0.001304 0.009670 -0.002918 0.000000 0.000000 0.000000
# 3 -0.004813 -0.002918 0.022025 0.000000 0.000000 0.000000
# 4 0.000000 0.000000 0.000000 0.205122 0.000000 0.000000
# 5 0.000000 0.000000 0.000000 0.000000 0.097899 0.000000
# 6 0.000000 0.000000 0.000000 0.000000 0.000000 0.035737
#
#
# Mechanical properties :
#
#
# Convention : Reuss Voigt Hill
#
# Bulk Modulus (GPa) = 41.87339 47.14275 44.50807
# Shear Modulus (GPa) = 12.29278 22.52365 17.40821
#
# Velocity S-wave (km/s) = 2.42748 3.28587 2.88873
# Velocity P-wave (km/s) = 5.28481 6.08228 5.69752
#
# Compressibility (1/GPa) = 0.02388151
#
# Stress axis : x y z
#
# Youngs Moduli (GPa) = 97.48772 103.41585 45.40254
#
# Poissons Ratio (x) = 0.13487 0.21854
# Poissons Ratio (y) = 0.12714 0.13248
# Poissons Ratio (z) = 0.46926 0.30176
#
# Static dielectric constant tensor:
#      x y z
#    x 1.915990 0.000000 0.000000 
#    y 0.000000 1.748590 0.000000 
#    z 0.000000 0.000000 1.818450 
# 
# From -- ./inp_files/1852.got.cif
#   From: 2010.05.17/outbox.cif.g08.bks.cpg/sg30_1_cif.got.tgz:1852.got - 2010.06.03 17:03:02.
