data_PCOD9341576
_publ_section_title
;
Structure prediction by ZEFSAII (Michael W. Deem and Ramdas Pophale) SiO2 
 PCOD9341576
Probable space group: P C A 21
;
_chemical_formula_sum "Si O2"
_cell_formula_units_Z 24
_cell_length_a 14.191988
_cell_length_b 8.231227
_cell_length_c 9.274427
_cell_angle_alpha 90.000000
_cell_angle_beta 90.000000
_cell_angle_gamma 90.000000
_cell_volume 1083.415142
_symmetry_space_group_name_H-M "P C A 21"
_symmetry_group_IT_number 29
_symmetry_cell_setting 'orthorhombic'
loop_
_space_group_symop_operation_xyz
x,y,z
-x,-y,1/2+z
1/2-x,y,1/2+z
1/2+x,-y,z
loop_
_atom_site_type_symbol
_atom_site_label
_atom_site_fract_x
_atom_site_fract_y
_atom_site_fract_z
Si Si1 0.384220 0.471622 0.803800
Si Si2 0.022568 0.015470 0.146191
Si Si3 0.799463 0.335411 0.232893
Si Si4 0.889177 0.889412 0.931480
Si Si5 0.291551 0.894114 0.491668
Si Si6 0.521822 0.386605 0.574283
O O1 0.282914 0.553658 0.796023
O O2 0.377961 0.289924 0.867008
O O3 0.430269 0.467072 0.645074
O O4 0.452362 0.568004 0.912591
O O5 0.044583 0.016422 0.315845
O O6 0.989079 0.194322 0.098878
O O7 0.122100 0.978208 0.071443
O O8 0.944098 0.894181 0.083387
O O9 0.828307 0.206912 0.355066
O O10 0.887778 0.433119 0.171758
O O11 0.756431 0.231943 0.101599
O O12 0.789679 0.980277 0.944752
#
# Coordination Sequence:
#
# PCOD9341576 Si02
#       6
#     4   4   4   4   4   4
#     4  11  27  43  70 102 144 184 233 289 363 422
#     4  11  24  44  71  99 141 177 246 291 344 421
#     4  12  24  48  70 100 143 188 229 289 364 422
#     4  11  25  44  67 108 131 187 241 291 350 425
#     4  12  24  44  74  97 136 188 237 293 349 419
#     4  11  26  47  68 104 141 186 234 287 364 423
#
# _framework density 22.152173000000001
#
# number of rings (size 3 to 8) (size 9 to 14) (size 15 to 20)
#    0.000    0.667    5.000    2.000    4.667    4.000 
#    0.000    0.000    0.000    0.000    0.000    0.000 
#    0.000    0.000    0.000    0.000    0.000    0.000 
#
# Total GULP energy -134384.971226 kJ/mol
# GULP energy per Si atom -5599.373801 kJ/mol
# Density = 2.210175 g / cm^3
# Si number density = 22.152173 Si / 1000 Ang^3
#
#
#
# Elastic Constant Matrix: (Units=GPa)
#
#
# Indices 1 2 3 4 5 6 
#
# 1 73.5533 20.5032 -8.8029 0.0000 0.0000 0.0000
# 2 20.5032 44.6594 6.0632 0.0000 0.0000 0.0000
# 3 -8.8029 6.0632 39.8215 0.0000 0.0000 0.0000
# 4 0.0000 0.0000 0.0000 33.3274 0.0000 0.0000
# 5 0.0000 0.0000 0.0000 0.0000 34.3384 0.0000
# 6 0.0000 0.0000 0.0000 0.0000 0.0000 34.5978
#
#
#
# Elastic Compliance Matrix: (Units=1/GPa)
#
#
# Indices 1 2 3 4 5 6 
#
# 1 0.016475 -0.008228 0.004895 0.000000 0.000000 0.000000
# 2 -0.008228 0.026974 -0.005926 0.000000 0.000000 0.000000
# 3 0.004895 -0.005926 0.027096 0.000000 0.000000 0.000000
# 4 0.000000 0.000000 0.000000 0.030005 0.000000 0.000000
# 5 0.000000 0.000000 0.000000 0.000000 0.029122 0.000000
# 6 0.000000 0.000000 0.000000 0.000000 0.000000 0.028904
#
#
# Mechanical properties :
#
#
# Convention : Reuss Voigt Hill
#
# Bulk Modulus (GPa) = 19.22101 21.50681 20.36391
# Shear Modulus (GPa) = 25.71525 29.80410 27.75968
#
# Velocity S-wave (km/s) = 3.41081 3.67198 3.54381
# Velocity P-wave (km/s) = 4.92008 5.26381 5.09484
#
# Compressibility (1/GPa) = 0.05202641
#
# Stress axis : x y z
#
# Youngs Moduli (GPa) = 60.69784 37.07292 36.90528
#
# Poissons Ratio (x) = 0.30505 -0.18064
# Poissons Ratio (y) = 0.49944 0.21870
# Poissons Ratio (z) = -0.29710 0.21969
#
# Static dielectric constant tensor:
#      x y z
#    x 1.791810 0.000000 0.000000 
#    y 0.000000 1.790270 0.000000 
#    z 0.000000 0.000000 1.840580 
# 
# From -- ./inp_files/1717.got.cif
#   From: 2010.05.17/outbox.cif.g08.bks.cpg/sg29_1_cif.got.tgz:1717.got - 2010.06.04 01:19:37.
