data_PCOD9341790
_publ_section_title
;
Structure prediction by ZEFSAII (Michael W. Deem and Ramdas Pophale) SiO2 
 PCOD9341790
Probable space group: P C A 21
;
_chemical_formula_sum "Si O2"
_cell_formula_units_Z 28
_cell_length_a 12.000000
_cell_length_b 12.000000
_cell_length_c 9.000000
_cell_angle_alpha 90.000000
_cell_angle_beta 90.000000
_cell_angle_gamma 90.000000
_cell_volume 1296.000000
_symmetry_space_group_name_H-M "P C A 21"
_symmetry_group_IT_number 29
_symmetry_cell_setting 'orthorhombic'
loop_
_space_group_symop_operation_xyz
x,y,z
-x,-y,1/2+z
1/2-x,y,1/2+z
1/2+x,-y,z
loop_
_atom_site_type_symbol
_atom_site_label
_atom_site_fract_x
_atom_site_fract_y
_atom_site_fract_z
Si Si1 0.125029 0.327899 0.941750
Si Si2 0.790084 0.026702 0.638406
Si Si3 0.539354 0.696664 0.273640
Si Si4 0.804451 0.859383 0.900029
Si Si5 0.669511 0.188365 0.873510
Si Si6 0.277071 0.570791 0.527210
Si Si7 0.581840 0.443531 0.332662
O O1 0.194435 0.220569 0.883759
O O2 0.014234 0.350973 0.844941
O O3 0.099218 0.300742 0.114243
O O4 0.180680 0.453016 0.951724
O O5 0.745736 0.120398 0.755264
O O6 0.851992 0.098932 0.508233
O O7 0.836004 0.934155 0.755210
O O8 0.709772 0.946084 0.536371
O O9 0.604977 0.761039 0.405052
O O10 0.428322 0.767834 0.267861
O O11 0.529871 0.566655 0.313935
O O12 0.701125 0.306999 0.952726
O O13 0.332485 0.572372 0.692559
O O14 0.145467 0.559302 0.491981
#
# Coordination Sequence:
#
# PCOD9341790 Si02
#       7
#     4   4   4   4   4   4   4
#     4  11  24  44  73 109 144 190 233 298 364 431
#     4  10  25  45  72  95 143 186 242 285 361 407
#     4  11  24  43  72 104 145 186 242 292 361 432
#     4  11  22  48  72 101 140 186 238 301 347 430
#     4  11  24  47  68 104 140 191 236 304 346 430
#     4  11  24  43  71 104 149 188 227 300 364 423
#     4  11  25  42  70 111 147 189 234 284 373 439
#
# _framework density 21.604938000000001
#
# number of rings (size 3 to 8) (size 9 to 14) (size 15 to 20)
#    0.000    1.143    4.286    0.857    4.000    2.286 
#    0.000    0.000    0.000    0.000    0.000    0.000 
#    0.000    0.000    0.000    0.000    0.000    0.000 
#
# Total GULP energy -155890.489926 kJ/mol
# GULP energy per Si atom -5567.517497 kJ/mol
# Density = 2.155576 g / cm^3
# Si number density = 21.604938 Si / 1000 Ang^3
#
#
#
# Elastic Constant Matrix: (Units=GPa)
#
#
# Indices 1 2 3 4 5 6 
#
# 1 36.2063 24.2406 -5.2904 0.0000 0.0000 0.0000
# 2 24.2406 146.1153 24.8667 0.0000 0.0000 0.0000
# 3 -5.2904 24.8667 64.1907 0.0000 0.0000 0.0000
# 4 0.0000 0.0000 0.0000 52.5535 0.0000 0.0000
# 5 0.0000 0.0000 0.0000 0.0000 25.0544 0.0000
# 6 0.0000 0.0000 0.0000 0.0000 0.0000 35.2419
#
#
#
# Elastic Compliance Matrix: (Units=1/GPa)
#
#
# Indices 1 2 3 4 5 6 
#
# 1 0.032567 -0.006273 0.005114 0.000000 0.000000 0.000000
# 2 -0.006273 0.008535 -0.003824 0.000000 0.000000 0.000000
# 3 0.005114 -0.003824 0.017481 0.000000 0.000000 0.000000
# 4 0.000000 0.000000 0.000000 0.019028 0.000000 0.000000
# 5 0.000000 0.000000 0.000000 0.000000 0.039913 0.000000
# 6 0.000000 0.000000 0.000000 0.000000 0.000000 0.028375
#
#
# Mechanical properties :
#
#
# Convention : Reuss Voigt Hill
#
# Bulk Modulus (GPa) = 20.56833 37.12734 28.84784
# Shear Modulus (GPa) = 29.05773 36.08299 32.57036
#
# Velocity S-wave (km/s) = 3.67135 4.09115 3.88692
# Velocity P-wave (km/s) = 5.24524 6.28798 5.79013
#
# Compressibility (1/GPa) = 0.04861844
#
# Stress axis : x y z
#
# Youngs Moduli (GPa) = 30.70609 117.15989 57.20415
#
# Poissons Ratio (x) = 0.73497 -0.29256
# Poissons Ratio (y) = 0.19263 0.21872
# Poissons Ratio (z) = -0.15704 0.44796
#
# Static dielectric constant tensor:
#      x y z
#    x 1.940310 0.000000 0.000000 
#    y 0.000000 1.769500 0.000000 
#    z 0.000000 0.000000 1.776520 
# 
# From -- ./inp_files/1456.got.cif
#   From: 2010.05.17/outbox.ucp.g08.bks.cvg/sg29_1_cif.got.tgz:1456.got - 2010.06.11 15:24:14.
