data_PCOD9341019
_publ_section_title
;
Structure prediction by ZEFSAII (Michael W. Deem and Ramdas Pophale) SiO2 
 PCOD9341019
Probable space group: P C A 21
;
_chemical_formula_sum "Si O2"
_cell_formula_units_Z 20
_cell_length_a 17.180191
_cell_length_b 5.322539
_cell_length_c 8.528570
_cell_angle_alpha 90.000000
_cell_angle_beta 90.000000
_cell_angle_gamma 90.000000
_cell_volume 779.871516
_symmetry_space_group_name_H-M "P C A 21"
_symmetry_group_IT_number 29
_symmetry_cell_setting 'orthorhombic'
loop_
_space_group_symop_operation_xyz
x,y,z
-x,-y,1/2+z
1/2-x,y,1/2+z
1/2+x,-y,z
loop_
_atom_site_type_symbol
_atom_site_label
_atom_site_fract_x
_atom_site_fract_y
_atom_site_fract_z
Si Si1 0.768441 0.446519 0.090240
Si Si2 0.855776 0.676973 0.360478
Si Si3 0.545636 0.961016 0.089232
Si Si4 0.141833 0.759234 0.329849
Si Si5 0.510143 0.537960 0.472080
O O1 0.824834 0.632510 0.186338
O O2 0.707385 0.318904 0.206626
O O3 0.717407 0.605468 0.968617
O O4 0.814984 0.231532 0.995855
O O5 0.925950 0.481484 0.389239
O O6 0.894932 0.921664 0.441131
O O7 0.593169 0.020286 0.247272
O O8 0.490546 0.198200 0.058592
O O9 0.496810 0.705967 0.085763
O O10 0.080572 0.533410 0.358956
#
# Coordination Sequence:
#
# PCOD9341019 Si02
#       5
#     4   4   4   4   4
#     4  10  22  44  72 110 152 201 240 322 386 461
#     4   9  22  43  70 105 149 193 254 303 386 446
#     4  10  23  46  73 105 144 195 254 308 373 444
#     4  11  23  45  75 110 153 195 258 314 386 461
#     4  10  24  44  76 100 146 192 254 307 365 454
#
# _framework density 25.645250999999998
#
# number of rings (size 3 to 8) (size 9 to 14) (size 15 to 20)
#    1.200    0.800    2.000    0.000    2.800    4.800 
#    0.000    2.000    0.000    0.000    0.000    0.000 
#    0.000    0.000    0.000    0.000    0.000    0.000 
#
# Total GULP energy -111756.145377 kJ/mol
# GULP energy per Si atom -5587.807269 kJ/mol
# Density = 2.558688 g / cm^3
# Si number density = 25.645251 Si / 1000 Ang^3
#
#
#
# Elastic Constant Matrix: (Units=GPa)
#
#
# Indices 1 2 3 4 5 6 
#
# 1 90.4516 26.8793 55.2312 0.0000 0.0000 0.0000
# 2 26.8793 129.5376 62.5504 0.0000 0.0000 0.0000
# 3 55.2312 62.5504 139.2289 0.0000 0.0000 0.0000
# 4 0.0000 0.0000 0.0000 37.3697 0.0000 0.0000
# 5 0.0000 0.0000 0.0000 0.0000 28.5254 0.0000
# 6 0.0000 0.0000 0.0000 0.0000 0.0000 -69.1967
#
#
#
# Elastic Compliance Matrix: (Units=1/GPa)
#
#
# Indices 1 2 3 4 5 6 
#
# 1 0.014599 -0.000297 -0.005658 0.000000 0.000000 0.000000
# 2 -0.000297 0.009864 -0.004314 0.000000 0.000000 0.000000
# 3 -0.005658 -0.004314 0.011365 0.000000 0.000000 0.000000
# 4 0.000000 0.000000 0.000000 0.026760 0.000000 0.000000
# 5 0.000000 0.000000 0.000000 0.000000 0.035056 0.000000
# 6 0.000000 0.000000 0.000000 0.000000 0.000000 -0.014452
#
#
# Mechanical properties :
#
#
# Convention : Reuss Voigt Hill
#
# Bulk Modulus (GPa) = 65.40042 72.06000 68.73021
# Shear Modulus (GPa) = 45.94462 13.64350 29.79406
#
# Velocity S-wave (km/s) = 4.23726 2.30903 3.41218
# Velocity P-wave (km/s) = 7.03537 5.93874 6.51019
#
# Compressibility (1/GPa) = 0.01529042
#
# Stress axis : x y z
#
# Youngs Moduli (GPa) = 68.49966 101.37370 87.99111
#
# Poissons Ratio (x) = 0.03014 0.49782
# Poissons Ratio (y) = 0.02037 0.37958
# Poissons Ratio (z) = 0.38754 0.43731
#
# Static dielectric constant tensor:
#      x y z
#    x 1.997860 0.000000 0.000000 
#    y 0.000000 2.011480 0.000000 
#    z 0.000000 0.000000 2.095180 
# 
# From -- ./inp_files/2000.got.cif
#   From: 2010.05.17/outbox.cif.g08.bks.cpg/sg29_1_cif.got.tgz:2000.got - 2010.06.04 01:19:37.
