data_PCOD9341423
_publ_section_title
;
Structure prediction by ZEFSAII (Michael W. Deem and Ramdas Pophale) SiO2 
 PCOD9341423
Probable space group: P C A 21
;
_chemical_formula_sum "Si O2"
_cell_formula_units_Z 32
_cell_length_a 8.925334
_cell_length_b 18.414436
_cell_length_c 8.508976
_cell_angle_alpha 90.000000
_cell_angle_beta 90.000000
_cell_angle_gamma 90.000000
_cell_volume 1398.492680
_symmetry_space_group_name_H-M "P C A 21"
_symmetry_group_IT_number 29
_symmetry_cell_setting 'orthorhombic'
loop_
_space_group_symop_operation_xyz
x,y,z
-x,-y,1/2+z
1/2-x,y,1/2+z
1/2+x,-y,z
loop_
_atom_site_type_symbol
_atom_site_label
_atom_site_fract_x
_atom_site_fract_y
_atom_site_fract_z
Si Si1 0.618442 0.650972 0.541200
Si Si2 0.179658 0.045293 0.966309
Si Si3 0.795392 0.513866 0.427481
Si Si4 0.420493 0.562072 0.725593
Si Si5 0.577220 0.881645 0.269594
Si Si6 0.237836 0.255935 0.279274
Si Si7 0.806602 0.126377 0.478586
Si Si8 0.476399 0.844154 0.804151
O O1 0.674579 0.577509 0.457548
O O2 0.463004 0.634491 0.629080
O O3 0.736909 0.674305 0.673285
O O4 0.635393 0.717985 0.423229
O O5 0.330677 0.089519 0.922363
O O6 0.065942 0.080096 0.838016
O O7 0.215324 0.960753 0.969947
O O8 0.102676 0.060915 0.133137
O O9 0.709362 0.444387 0.354785
O O10 0.869939 0.494612 0.592838
O O11 0.925496 0.539401 0.310397
O O12 0.652823 0.809952 0.199182
O O13 0.414939 0.862468 0.329448
O O14 0.400569 0.220202 0.313720
O O15 0.648503 0.162894 0.439518
O O16 0.891528 0.150397 0.637026
#
# Coordination Sequence:
#
# PCOD9341423 Si02
#       8
#     4   4   4   4   4   4   4   4
#     4  12  23  42  74  96 132 184 226 266 325 411
#     4  11  21  38  62  98 124 168 223 280 357 419
#     4  12  23  43  74 109 146 174 221 282 346 388
#     4  12  23  43  71 111 145 178 218 280 345 391
#     4  11  23  40  65  91 129 171 219 284 331 403
#     4  11  24  45  64  90 128 184 235 256 325 417
#     4  12  22  39  64  93 130 168 221 294 355 397
#     4  11  25  40  62  92 132 175 223 282 344 404
#
# _framework density 22.881779000000002
#
# number of rings (size 3 to 8) (size 9 to 14) (size 15 to 20)
#    0.000    0.500    3.750    6.750    0.000    0.000 
#    0.000    2.500    0.000    0.000    0.000    0.000 
#    0.000    0.000    0.000    0.000    0.000    0.000 
#
# Total GULP energy -178780.891190 kJ/mol
# GULP energy per Si atom -5586.902850 kJ/mol
# Density = 2.282970 g / cm^3
# Si number density = 22.881779 Si / 1000 Ang^3
#
#
#
# Elastic Constant Matrix: (Units=GPa)
#
#
# Indices 1 2 3 4 5 6 
#
# 1 74.8938 5.5163 11.2204 0.0000 0.0000 0.0000
# 2 5.5163 57.7310 11.1971 0.0000 0.0000 0.0000
# 3 11.2204 11.1971 78.9781 0.0000 0.0000 0.0000
# 4 0.0000 0.0000 0.0000 37.0963 0.0000 0.0000
# 5 0.0000 0.0000 0.0000 0.0000 39.5087 0.0000
# 6 0.0000 0.0000 0.0000 0.0000 0.0000 13.2497
#
#
#
# Elastic Compliance Matrix: (Units=1/GPa)
#
#
# Indices 1 2 3 4 5 6 
#
# 1 0.013694 -0.000957 -0.001810 0.000000 0.000000 0.000000
# 2 -0.000957 0.017878 -0.002399 0.000000 0.000000 0.000000
# 3 -0.001810 -0.002399 0.013259 0.000000 0.000000 0.000000
# 4 0.000000 0.000000 0.000000 0.026957 0.000000 0.000000
# 5 0.000000 0.000000 0.000000 0.000000 0.025311 0.000000
# 6 0.000000 0.000000 0.000000 0.000000 0.000000 0.075474
#
#
# Mechanical properties :
#
#
# Convention : Reuss Voigt Hill
#
# Bulk Modulus (GPa) = 28.98594 29.71893 29.35243
# Shear Modulus (GPa) = 25.71962 30.21556 27.96759
#
# Velocity S-wave (km/s) = 3.35628 3.63782 3.49988
# Velocity P-wave (km/s) = 5.26447 5.53726 5.40259
#
# Compressibility (1/GPa) = 0.03449948
#
# Stress axis : x y z
#
# Youngs Moduli (GPa) = 73.02528 55.93330 75.42091
#
# Poissons Ratio (x) = 0.05355 0.13649
# Poissons Ratio (y) = 0.06992 0.18091
# Poissons Ratio (z) = 0.13216 0.13417
#
# Static dielectric constant tensor:
#      x y z
#    x 1.869600 0.000000 0.000000 
#    y 0.000000 1.824840 0.000000 
#    z 0.000000 0.000000 1.921530 
# 
# From -- ./inp_files/1266.got.cif
#   From: 2010.05.17/outbox.cif.g08.bks.cpg/sg29_1_cif.got.tgz:1266.got - 2010.06.04 01:19:37.
