data_PCOD9341187
_publ_section_title
;
Structure prediction by ZEFSAII (Michael W. Deem and Ramdas Pophale) SiO2 
 PCOD9341187
Probable space group: P C A 21
;
_chemical_formula_sum "Si O2"
_cell_formula_units_Z 32
_cell_length_a 20.728311
_cell_length_b 8.298686
_cell_length_c 8.851737
_cell_angle_alpha 90.000000
_cell_angle_beta 90.000000
_cell_angle_gamma 90.000000
_cell_volume 1522.655832
_symmetry_space_group_name_H-M "P C A 21"
_symmetry_group_IT_number 29
_symmetry_cell_setting 'orthorhombic'
loop_
_space_group_symop_operation_xyz
x,y,z
-x,-y,1/2+z
1/2-x,y,1/2+z
1/2+x,-y,z
loop_
_atom_site_type_symbol
_atom_site_label
_atom_site_fract_x
_atom_site_fract_y
_atom_site_fract_z
Si Si1 0.175340 0.173277 0.066050
Si Si2 0.010298 0.207521 0.659499
Si Si3 0.888275 0.518466 0.163216
Si Si4 0.459294 0.058969 0.460197
Si Si5 0.684009 0.341648 0.447714
Si Si6 0.405967 0.718833 0.432775
Si Si7 0.243565 0.360817 0.803896
Si Si8 0.290197 0.807975 0.628279
O O1 0.200621 0.289875 0.197408
O O2 0.199536 0.996147 0.107361
O O3 0.098233 0.158810 0.040434
O O4 0.210642 0.230635 0.913718
O O5 0.072357 0.318556 0.638704
O O6 0.005714 0.164402 0.835018
O O7 0.952622 0.303602 0.577583
O O8 0.993192 0.965091 0.073567
O O9 0.914476 0.411379 0.302469
O O10 0.815714 0.568970 0.208031
O O11 0.882671 0.408441 0.014424
O O12 0.422793 0.903142 0.383972
O O13 0.725191 0.498005 0.401065
O O14 0.686051 0.238896 0.294706
O O15 0.718440 0.244522 0.583804
O O16 0.334789 0.720861 0.502625
#
# Coordination Sequence:
#
# PCOD9341187 Si02
#       8
#     4   4   4   4   4   4   4   4
#     4  11  23  41  66  98 137 176 225 282 330 418
#     4  10  23  46  68  94 130 181 223 279 337 386
#     4  12  23  43  68 101 136 172 224 284 337 412
#     4   9  22  46  66  93 132 174 229 278 331 395
#     4  12  23  39  66  98 136 175 217 276 348 410
#     4   9  23  44  64  94 132 176 224 274 334 397
#     4  12  22  39  66 102 133 178 223 273 354 399
#     4  11  21  42  62  96 136 176 221 274 341 403
#
# _framework density 21.015910999999999
#
# number of rings (size 3 to 8) (size 9 to 14) (size 15 to 20)
#    0.750    0.500    5.000    0.750    0.000    3.000 
#    4.500    0.000    0.000    0.000    0.000    0.000 
#    0.000    0.000    0.000    0.000    0.000    0.000 
#
# Total GULP energy -178509.355880 kJ/mol
# GULP energy per Si atom -5578.417371 kJ/mol
# Density = 2.096808 g / cm^3
# Si number density = 21.015911 Si / 1000 Ang^3
#
#
#
# Elastic Constant Matrix: (Units=GPa)
#
#
# Indices 1 2 3 4 5 6 
#
# 1 35.7079 26.5209 14.8354 0.0000 0.0000 0.0000
# 2 26.5209 61.7989 56.5573 0.0000 0.0000 0.0000
# 3 14.8354 56.5573 82.2184 0.0000 0.0000 0.0000
# 4 0.0000 0.0000 0.0000 38.7171 0.0000 0.0000
# 5 0.0000 0.0000 0.0000 0.0000 36.1527 0.0000
# 6 0.0000 0.0000 0.0000 0.0000 0.0000 34.1705
#
#
#
# Elastic Compliance Matrix: (Units=1/GPa)
#
#
# Indices 1 2 3 4 5 6 
#
# 1 0.046722 -0.033297 0.014475 0.000000 0.000000 0.000000
# 2 -0.033297 0.067410 -0.040363 0.000000 0.000000 0.000000
# 3 0.014475 -0.040363 0.037316 0.000000 0.000000 0.000000
# 4 0.000000 0.000000 0.000000 0.025828 0.000000 0.000000
# 5 0.000000 0.000000 0.000000 0.000000 0.027660 0.000000
# 6 0.000000 0.000000 0.000000 0.000000 0.000000 0.029265
#
#
# Mechanical properties :
#
#
# Convention : Reuss Voigt Hill
#
# Bulk Modulus (GPa) = 30.23247 41.72803 35.98025
# Shear Modulus (GPa) = 13.75142 27.26217 20.50680
#
# Velocity S-wave (km/s) = 2.56077 3.60560 3.12713
# Velocity P-wave (km/s) = 4.81250 6.10183 5.49511
#
# Compressibility (1/GPa) = 0.03307702
#
# Stress axis : x y z
#
# Youngs Moduli (GPa) = 21.40325 14.83455 26.79812
#
# Poissons Ratio (x) = 0.49395 -0.38789
# Poissons Ratio (y) = 0.71267 1.08164
# Poissons Ratio (z) = -0.30980 0.59876
#
# Static dielectric constant tensor:
#      x y z
#    x 1.784460 0.000000 0.000000 
#    y 0.000000 1.757950 0.000000 
#    z 0.000000 0.000000 1.814980 
# 
# From -- ./inp_files/2497.got.cif
#   From: 2010.05.17/outbox.cif.g08.bks.cpg/sg29_2_cif.got.tgz:2497.got - 2010.06.04 01:19:37.
