data_PCOD9341493
_publ_section_title
;
Structure prediction by ZEFSAII (Michael W. Deem and Ramdas Pophale) SiO2 
 PCOD9341493
Probable space group: P C A 21
;
_chemical_formula_sum "Si O2"
_cell_formula_units_Z 32
_cell_length_a 14.535499
_cell_length_b 6.532155
_cell_length_c 15.105226
_cell_angle_alpha 90.000000
_cell_angle_beta 90.000000
_cell_angle_gamma 90.000000
_cell_volume 1434.212999
_symmetry_space_group_name_H-M "P C A 21"
_symmetry_group_IT_number 29
_symmetry_cell_setting 'orthorhombic'
loop_
_space_group_symop_operation_xyz
x,y,z
-x,-y,1/2+z
1/2-x,y,1/2+z
1/2+x,-y,z
loop_
_atom_site_type_symbol
_atom_site_label
_atom_site_fract_x
_atom_site_fract_y
_atom_site_fract_z
Si Si1 0.998968 0.032561 0.001840
Si Si2 0.160540 0.927146 0.242608
Si Si3 0.316463 0.650304 0.281903
Si Si4 0.803600 0.740322 0.176597
Si Si5 0.537250 0.028449 0.710816
Si Si6 0.645249 0.650930 0.940516
Si Si7 0.345782 0.728863 0.550473
Si Si8 0.203349 0.054622 0.486329
O O1 0.982756 0.080917 0.107036
O O2 0.065845 0.835398 0.003769
O O3 0.054876 0.213470 0.954803
O O4 0.900202 0.990662 0.959498
O O5 0.225242 0.784153 0.303030
O O6 0.148023 0.794207 0.152427
O O7 0.221764 0.124954 0.218431
O O8 0.057655 0.997713 0.262121
O O9 0.294994 0.494535 0.201744
O O10 0.396763 0.801236 0.251718
O O11 0.349529 0.510730 0.362068
O O12 0.805178 0.806407 0.074749
O O13 0.901415 0.823243 0.212697
O O14 0.729082 0.810017 0.926823
O O15 0.655780 0.509010 0.027819
O O16 0.256612 0.848280 0.513538
#
# Coordination Sequence:
#
# PCOD9341493 Si02
#       8
#     4   4   4   4   4   4   4   4
#     4   9  20  38  61  87 118 160 208 252 295 354
#     4   9  19  38  62  85 115 161 206 243 293 357
#     4  11  23  38  60  92 127 157 194 254 313 361
#     4   9  19  37  60  86 117 155 204 254 290 345
#     4   9  20  38  61  87 118 160 208 252 295 354
#     4  11  23  38  60  92 127 157 194 254 313 361
#     4   9  19  37  60  86 117 155 204 254 290 345
#     4   9  19  38  62  85 115 161 206 243 293 357
#
# _framework density 22.311889999999998
#
# number of rings (size 3 to 8) (size 9 to 14) (size 15 to 20)
#    0.000    2.500    0.000    2.250    0.000    9.000 
#    0.000    7.500    0.000    0.000    0.000    0.000 
#    0.000    0.000    0.000    0.000    0.000    0.000 
#
# Total GULP energy -178874.921328 kJ/mol
# GULP energy per Si atom -5589.841292 kJ/mol
# Density = 2.226111 g / cm^3
# Si number density = 22.311890 Si / 1000 Ang^3
#
#
#
# Elastic Constant Matrix: (Units=GPa)
#
#
# Indices 1 2 3 4 5 6 
#
# 1 176.7017 54.2265 -4.3392 0.0000 0.0000 0.0000
# 2 54.2265 95.3983 -0.3300 0.0000 0.0000 0.0000
# 3 -4.3392 -0.3300 14.0086 0.0000 0.0000 0.0000
# 4 0.0000 0.0000 0.0000 33.5038 0.0000 0.0000
# 5 0.0000 0.0000 0.0000 0.0000 8.0749 0.0000
# 6 0.0000 0.0000 0.0000 0.0000 0.0000 13.5419
#
#
#
# Elastic Compliance Matrix: (Units=1/GPa)
#
#
# Indices 1 2 3 4 5 6 
#
# 1 0.006913 -0.003923 0.002049 0.000000 0.000000 0.000000
# 2 -0.003923 0.012709 -0.000916 0.000000 0.000000 0.000000
# 3 0.002049 -0.000916 0.071998 0.000000 0.000000 0.000000
# 4 0.000000 0.000000 0.000000 0.029847 0.000000 0.000000
# 5 0.000000 0.000000 0.000000 0.000000 0.123840 0.000000
# 6 0.000000 0.000000 0.000000 0.000000 0.000000 0.073845
#
#
# Mechanical properties :
#
#
# Convention : Reuss Voigt Hill
#
# Bulk Modulus (GPa) = 11.62227 42.80258 27.21242
# Shear Modulus (GPa) = 14.14782 26.79422 20.47102
#
# Velocity S-wave (km/s) = 2.52085 3.46915 3.03230
# Velocity P-wave (km/s) = 3.70044 5.93903 4.94800
#
# Compressibility (1/GPa) = 0.08604171
#
# Stress axis : x y z
#
# Youngs Moduli (GPa) = 144.64767 78.68504 13.88928
#
# Poissons Ratio (x) = 0.30865 -0.02846
# Poissons Ratio (y) = 0.56740 0.01272
# Poissons Ratio (z) = -0.29638 0.07205
#
# Static dielectric constant tensor:
#      x y z
#    x 1.800690 0.000000 0.000000 
#    y 0.000000 1.749300 0.000000 
#    z 0.000000 0.000000 1.933150 
# 
# From -- ./inp_files/5260.got.cif
#   From: 2010.05.17/outbox.cif.g08.bks.cpg/sg29_3_cif.got.tgz:5260.got - 2010.06.04 01:19:37.
