data_PCOD9341796
_publ_section_title
;
Structure prediction by ZEFSAII (Michael W. Deem and Ramdas Pophale) SiO2 
 PCOD9341796
Probable space group: P C A 21
;
_chemical_formula_sum "Si O2"
_cell_formula_units_Z 24
_cell_length_a 12.000000
_cell_length_b 9.000000
_cell_length_c 9.000000
_cell_angle_alpha 90.000000
_cell_angle_beta 90.000000
_cell_angle_gamma 90.000000
_cell_volume 972.000000
_symmetry_space_group_name_H-M "P C A 21"
_symmetry_group_IT_number 29
_symmetry_cell_setting 'orthorhombic'
loop_
_space_group_symop_operation_xyz
x,y,z
-x,-y,1/2+z
1/2-x,y,1/2+z
1/2+x,-y,z
loop_
_atom_site_type_symbol
_atom_site_label
_atom_site_fract_x
_atom_site_fract_y
_atom_site_fract_z
Si Si1 0.093579 0.708201 0.180650
Si Si2 0.007634 0.105484 0.925845
Si Si3 0.357394 0.396978 0.786787
Si Si4 0.049018 0.764981 0.875675
Si Si5 0.194509 0.893277 0.642898
Si Si6 0.245341 0.214173 0.048395
O O1 0.009650 0.808914 0.272280
O O2 0.134305 0.573689 0.282989
O O3 0.187367 0.819266 0.118834
O O4 0.047173 0.659917 0.020743
O O5 0.902511 0.146028 0.028269
O O6 0.997168 0.928064 0.904990
O O7 0.126608 0.152460 0.989735
O O8 0.479966 0.331426 0.757904
O O9 0.276005 0.350381 0.656738
O O10 0.315901 0.292016 0.920082
O O11 0.161779 0.819407 0.799008
O O12 0.206203 0.070872 0.634048
#
# Coordination Sequence:
#
# PCOD9341796 Si02
#       6
#     4   4   4   4   4   4
#     4  12  30  46  78 113 156 203 251 320 393 459
#     4  12  25  49  78 113 143 199 262 320 376 461
#     4  12  30  47  76 112 160 204 249 327 394 464
#     4  12  25  50  77 113 151 198 262 314 382 460
#     4  12  25  49  80 108 150 202 262 315 374 468
#     4  12  27  51  77 115 152 202 262 320 391 462
#
# _framework density 24.691358000000001
#
# number of rings (size 3 to 8) (size 9 to 14) (size 15 to 20)
#    0.000    0.000    5.000    4.000    9.333    0.000 
#    0.000    0.000    0.000    0.000    0.000    0.000 
#    0.000    0.000    0.000    0.000    0.000    0.000 
#
# Total GULP energy -133990.820637 kJ/mol
# GULP energy per Si atom -5582.950860 kJ/mol
# Density = 2.463516 g / cm^3
# Si number density = 24.691358 Si / 1000 Ang^3
#
#
#
# Elastic Constant Matrix: (Units=GPa)
#
#
# Indices 1 2 3 4 5 6 
#
# 1 83.5275 31.3280 20.0345 0.0000 0.0000 0.0000
# 2 31.3280 121.3516 14.2653 0.0000 0.0000 0.0000
# 3 20.0345 14.2653 54.7956 0.0000 0.0000 0.0000
# 4 0.0000 0.0000 0.0000 30.8725 0.0000 0.0000
# 5 0.0000 0.0000 0.0000 0.0000 15.7150 0.0000
# 6 0.0000 0.0000 0.0000 0.0000 0.0000 21.7685
#
#
#
# Elastic Compliance Matrix: (Units=1/GPa)
#
#
# Indices 1 2 3 4 5 6 
#
# 1 0.014203 -0.003153 -0.004372 0.000000 0.000000 0.000000
# 2 -0.003153 0.009200 -0.001243 0.000000 0.000000 0.000000
# 3 -0.004372 -0.001243 0.020172 0.000000 0.000000 0.000000
# 4 0.000000 0.000000 0.000000 0.032391 0.000000 0.000000
# 5 0.000000 0.000000 0.000000 0.000000 0.063633 0.000000
# 6 0.000000 0.000000 0.000000 0.000000 0.000000 0.045938
#
#
# Mechanical properties :
#
#
# Convention : Reuss Voigt Hill
#
# Bulk Modulus (GPa) = 38.40177 43.43670 40.91923
# Shear Modulus (GPa) = 23.61238 26.60767 25.11002
#
# Velocity S-wave (km/s) = 3.09577 3.28626 3.19243
# Velocity P-wave (km/s) = 5.32587 5.65945 5.49519
#
# Compressibility (1/GPa) = 0.02604047
#
# Stress axis : x y z
#
# Youngs Moduli (GPa) = 70.40626 108.68995 49.57434
#
# Poissons Ratio (x) = 0.34267 0.21675
# Poissons Ratio (y) = 0.22197 0.06160
# Poissons Ratio (z) = 0.30783 0.13505
#
# Static dielectric constant tensor:
#      x y z
#    x 2.069240 0.000000 0.000000 
#    y 0.000000 1.860350 0.000000 
#    z 0.000000 0.000000 2.142000 
# 
# From -- ./inp_files/1398.got.cif
#   From: 2010.05.17/outbox.ucp.g08.bks.cvg/sg29_1_cif.got.tgz:1398.got - 2010.06.11 15:24:14.
