data_PCOD9341754
_publ_section_title
;
Structure prediction by ZEFSAII (Michael W. Deem and Ramdas Pophale) SiO2 
 PCOD9341754
Probable space group: P C A 21
;
_chemical_formula_sum "Si O2"
_cell_formula_units_Z 16
_cell_length_a 9.072886
_cell_length_b 7.996294
_cell_length_c 7.799518
_cell_angle_alpha 90.000000
_cell_angle_beta 90.000000
_cell_angle_gamma 90.000000
_cell_volume 565.850849
_symmetry_space_group_name_H-M "P C A 21"
_symmetry_group_IT_number 29
_symmetry_cell_setting 'orthorhombic'
loop_
_space_group_symop_operation_xyz
x,y,z
-x,-y,1/2+z
1/2-x,y,1/2+z
1/2+x,-y,z
loop_
_atom_site_type_symbol
_atom_site_label
_atom_site_fract_x
_atom_site_fract_y
_atom_site_fract_z
Si Si1 0.215033 0.655685 0.005390
Si Si2 0.095858 0.351012 0.629493
Si Si3 0.823632 0.842421 0.449701
Si Si4 0.917108 0.150131 0.210861
O O1 0.329201 0.507340 0.035121
O O2 0.302901 0.824821 0.054376
O O3 0.078619 0.632833 0.133163
O O4 0.128862 0.692446 0.829800
O O5 0.142475 0.314103 0.823915
O O6 0.157753 0.193400 0.516293
O O7 0.923941 0.843919 0.621865
O O8 0.880954 0.992884 0.330001
#
# Coordination Sequence:
#
# PCOD9341754 Si02
#       4
#     4   4   4   4
#     4  12  27  49  77 114 159 212 271 336 406 485
#     4  12  27  49  77 114 159 212 271 336 406 485
#     4  12  27  51  81 116 160 214 271 338 412 489
#     4  12  27  51  81 116 160 214 271 338 412 489
#
# _framework density 28.276004
#
# number of rings (size 3 to 8) (size 9 to 14) (size 15 to 20)
#    0.000    0.000    0.000    9.000    0.000    8.000 
#    0.000    5.000    0.000    0.000    0.000    0.000 
#    0.000    0.000    0.000    0.000    0.000    0.000 
#
# Total GULP energy -89698.776299 kJ/mol
# GULP energy per Si atom -5606.173519 kJ/mol
# Density = 2.821165 g / cm^3
# Si number density = 28.276004 Si / 1000 Ang^3
#
#
#
# Elastic Constant Matrix: (Units=GPa)
#
#
# Indices 1 2 3 4 5 6 
#
# 1 147.6157 32.1632 -24.5846 0.0000 0.0000 0.0000
# 2 32.1632 159.0345 34.8017 0.0000 0.0000 0.0000
# 3 -24.5846 34.8017 98.5668 0.0000 0.0000 0.0000
# 4 0.0000 0.0000 0.0000 65.4217 0.0000 0.0000
# 5 0.0000 0.0000 0.0000 0.0000 70.5452 0.0000
# 6 0.0000 0.0000 0.0000 0.0000 0.0000 23.1965
#
#
#
# Elastic Compliance Matrix: (Units=1/GPa)
#
#
# Indices 1 2 3 4 5 6 
#
# 1 0.007685 -0.002139 0.002672 0.000000 0.000000 0.000000
# 2 -0.002139 0.007410 -0.003150 0.000000 0.000000 0.000000
# 3 0.002672 -0.003150 0.011924 0.000000 0.000000 0.000000
# 4 0.000000 0.000000 0.000000 0.015285 0.000000 0.000000
# 5 0.000000 0.000000 0.000000 0.000000 0.014175 0.000000
# 6 0.000000 0.000000 0.000000 0.000000 0.000000 0.043110
#
#
# Mechanical properties :
#
#
# Convention : Reuss Voigt Hill
#
# Bulk Modulus (GPa) = 45.90116 54.44196 50.17156
# Shear Modulus (GPa) = 44.60888 56.02179 50.31533
#
# Velocity S-wave (km/s) = 3.97624 4.45595 4.22291
# Velocity P-wave (km/s) = 6.11139 6.76532 6.44665
#
# Compressibility (1/GPa) = 0.02178594
#
# Stress axis : x y z
#
# Youngs Moduli (GPa) = 130.11604 134.95613 83.86446
#
# Poissons Ratio (x) = 0.28868 -0.22410
# Poissons Ratio (y) = 0.27833 0.26415
# Poissons Ratio (z) = -0.34769 0.42508
#
# Static dielectric constant tensor:
#      x y z
#    x 2.118890 0.000000 0.000000 
#    y 0.000000 2.324520 0.000000 
#    z 0.000000 0.000000 2.283350 
# 
# From -- ./inp_files/1038.got.cif
#   From: 2010.05.17/outbox.cif.g08.bks.cpg/sg29_1_cif.got.tgz:1038.got - 2010.06.04 01:19:37.
