data_PCOD9341905
_publ_section_title
;
Structure prediction by ZEFSAII (Michael W. Deem and Ramdas Pophale) SiO2 
 PCOD9341905
Probable space group: P N C 2
;
_chemical_formula_sum "Si O2"
_cell_formula_units_Z 26
_cell_length_a 5.074182
_cell_length_b 17.874901
_cell_length_c 13.753245
_cell_angle_alpha 90.000000
_cell_angle_beta 90.000000
_cell_angle_gamma 90.000000
_cell_volume 1247.426211
_symmetry_space_group_name_H-M "P N C 2"
_symmetry_group_IT_number 30
_symmetry_cell_setting 'orthorhombic'
loop_
_space_group_symop_operation_xyz
x,y,z
-x,-y,z
-x,1/2+y,1/2+z
x,1/2-y,1/2+z
loop_
_atom_site_type_symbol
_atom_site_label
_atom_site_fract_x
_atom_site_fract_y
_atom_site_fract_z
Si Si1 0.079819 0.686471 0.228790
Si Si2 0.865979 0.355393 0.799765
Si Si3 0.139580 0.918158 0.901568
Si Si4 0.614371 0.617885 0.132595
Si Si5 0.603962 0.915348 0.405714
Si Si6 0.500000 0.500000 0.271430
Si Si7 0.248868 0.553484 0.609358
O O1 0.107223 0.771422 0.261940
O O2 0.015208 0.641733 0.329406
O O3 0.331557 0.649374 0.171810
O O4 0.832526 0.678614 0.157953
O O5 0.636022 0.360937 0.878595
O O6 0.750547 0.400673 0.707818
O O7 0.133866 0.392122 0.844669
O O8 0.405886 0.936688 0.844582
O O9 0.199621 0.897614 0.012240
O O10 0.000000 0.000000 0.901771
O O11 0.686344 0.543818 0.196509
O O12 0.637161 0.594143 0.021115
O O13 0.500000 0.000000 0.384832
O O14 0.500000 0.500000 0.595689
O O15 0.000000 0.500000 0.617412
#
# Coordination Sequence:
#
# PCOD9341905 Si02
#       7
#     4   4   4   4   4   2   4
#     4  11  25  42  66 100 138 179 209 283 346 410
#     4  12  26  45  64  96 145 180 225 271 341 410
#     4  10  20  37  65  94 125 163 222 271 336 385
#     4  11  23  41  69  99 134 168 229 273 345 393
#     4  12  25  45  72 100 131 184 234 284 329 404
#     4  10  18  38  62  98 126 160 210 292 326 392
#     4  11  23  40  66  92 120 171 222 274 319 386
#
# _framework density 20.842918000000001
#
# number of rings (size 3 to 8) (size 9 to 14) (size 15 to 20)
#    0.000    0.923    3.077    4.615    0.000    2.462 
#    0.000    1.538    0.000    0.000    0.000    0.000 
#    0.000    0.000    0.000    0.000    0.000    0.000 
#
# Total GULP energy -144994.217954 kJ/mol
# GULP energy per Si atom -5576.700691 kJ/mol
# Density = 2.079548 g / cm^3
# Si number density = 20.842918 Si / 1000 Ang^3
#
#
#
# Elastic Constant Matrix: (Units=GPa)
#
#
# Indices 1 2 3 4 5 6 
#
# 1 80.0637 -6.0561 3.1542 0.0000 0.0000 0.0000
# 2 -6.0561 53.6417 18.4963 0.0000 0.0000 0.0000
# 3 3.1542 18.4963 116.5511 0.0000 0.0000 0.0000
# 4 0.0000 0.0000 0.0000 13.0099 0.0000 0.0000
# 5 0.0000 0.0000 0.0000 0.0000 30.2487 0.0000
# 6 0.0000 0.0000 0.0000 0.0000 0.0000 21.9541
#
#
#
# Elastic Compliance Matrix: (Units=1/GPa)
#
#
# Indices 1 2 3 4 5 6 
#
# 1 0.012637 0.001634 -0.000601 0.000000 0.000000 0.000000
# 2 0.001634 0.019933 -0.003207 0.000000 0.000000 0.000000
# 3 -0.000601 -0.003207 0.009105 0.000000 0.000000 0.000000
# 4 0.000000 0.000000 0.000000 0.076865 0.000000 0.000000
# 5 0.000000 0.000000 0.000000 0.000000 0.033059 0.000000
# 6 0.000000 0.000000 0.000000 0.000000 0.000000 0.045550
#
#
# Mechanical properties :
#
#
# Convention : Reuss Voigt Hill
#
# Bulk Modulus (GPa) = 26.79111 31.27170 29.03141
# Shear Modulus (GPa) = 23.37101 28.68668 26.02885
#
# Velocity S-wave (km/s) = 3.35220 3.71391 3.53768
# Velocity P-wave (km/s) = 5.27871 5.78160 5.53587
#
# Compressibility (1/GPa) = 0.03732582
#
# Stress axis : x y z
#
# Youngs Moduli (GPa) = 79.13056 50.16887 109.82713
#
# Poissons Ratio (x) = -0.08198 0.06604
# Poissons Ratio (y) = -0.12931 0.35227
# Poissons Ratio (z) = 0.04758 0.16092
#
# Static dielectric constant tensor:
#      x y z
#    x 1.816590 0.000000 0.000000 
#    y 0.000000 1.784480 0.000000 
#    z 0.000000 0.000000 1.759880 
# 
# From -- ./inp_files/3162.got.cif
#   From: 2010.05.17/outbox.cif.g08.bks.cpg/sg30_2_cif.got.tgz:3162.got - 2010.06.03 17:03:02.
