data_PCOD9341884
_publ_section_title
;
Structure prediction by ZEFSAII (Michael W. Deem and Ramdas Pophale) SiO2 
 PCOD9341884
Probable space group: P N C 2
;
_chemical_formula_sum "Si O2"
_cell_formula_units_Z 30
_cell_length_a 13.808012
_cell_length_b 6.095685
_cell_length_c 17.615747
_cell_angle_alpha 90.000000
_cell_angle_beta 90.000000
_cell_angle_gamma 90.000000
_cell_volume 1482.704946
_symmetry_space_group_name_H-M "P N C 2"
_symmetry_group_IT_number 30
_symmetry_cell_setting 'orthorhombic'
loop_
_space_group_symop_operation_xyz
x,y,z
-x,-y,z
-x,1/2+y,1/2+z
x,1/2-y,1/2+z
loop_
_atom_site_type_symbol
_atom_site_label
_atom_site_fract_x
_atom_site_fract_y
_atom_site_fract_z
Si Si1 0.660249 0.193810 0.425050
Si Si2 0.401456 0.129682 0.558224
Si Si3 0.170021 0.836079 0.025513
Si Si4 0.223003 0.679010 0.781128
Si Si5 0.772626 0.506951 0.155595
Si Si6 0.107205 0.398475 0.660327
Si Si7 0.956393 0.250011 0.888928
Si Si8 0.500000 0.500000 0.470182
O O1 0.741921 0.346484 0.465738
O O2 0.699738 0.109746 0.344758
O O3 0.562915 0.334193 0.420597
O O4 0.639777 0.002612 0.485443
O O5 0.318502 0.138591 0.621549
O O6 0.431703 0.363588 0.526469
O O7 0.500000 0.000000 0.582230
O O8 0.200402 0.667211 0.090729
O O9 0.139364 0.047188 0.073802
O O10 0.081723 0.749473 0.975353
O O11 0.181349 0.505686 0.720816
O O12 0.130782 0.752226 0.829522
O O13 0.259580 0.880661 0.730769
O O14 0.870517 0.643339 0.170755
O O15 0.000000 0.500000 0.671560
O O16 0.000000 0.500000 0.877080
O O17 0.000000 0.000000 0.880397
#
# Coordination Sequence:
#
# PCOD9341884 Si02
#       8
#     4   4   4   4   4   4   4   2
#     4   9  19  39  58  88 118 157 205 260 324 387
#     4   9  19  38  67  93 119 149 206 266 324 399
#     4   9  21  38  59  90 119 155 214 272 320 374
#     4  10  24  40  57  86 129 169 211 257 322 395
#     4  10  22  39  62  87 127 167 204 262 329 391
#     4  11  23  36  59  86 124 172 216 260 315 387
#     4  11  25  41  65  91 126 169 225 276 322 379
#     4  10  18  34  68  90 114 154 200 266 332 386
#
# _framework density 20.233288999999999
#
# number of rings (size 3 to 8) (size 9 to 14) (size 15 to 20)
#    0.000    2.133    0.000    1.600    7.467    3.200 
#    6.000    0.000    0.000    0.000    0.000    0.000 
#    0.000    0.000    0.000    0.000    0.000    0.000 
#
# Total GULP energy -167056.544784 kJ/mol
# GULP energy per Si atom -5568.551493 kJ/mol
# Density = 2.018724 g / cm^3
# Si number density = 20.233289 Si / 1000 Ang^3
#
#
#
# Elastic Constant Matrix: (Units=GPa)
#
#
# Indices 1 2 3 4 5 6 
#
# 1 65.8307 23.3327 27.6141 0.0000 0.0000 0.0000
# 2 23.3327 47.9783 12.7396 0.0000 0.0000 0.0000
# 3 27.6141 12.7396 95.6694 0.0000 0.0000 0.0000
# 4 0.0000 0.0000 0.0000 10.3921 0.0000 0.0000
# 5 0.0000 0.0000 0.0000 0.0000 21.8607 0.0000
# 6 0.0000 0.0000 0.0000 0.0000 0.0000 25.2327
#
#
#
# Elastic Compliance Matrix: (Units=1/GPa)
#
#
# Indices 1 2 3 4 5 6 
#
# 1 0.020197 -0.008577 -0.004687 0.000000 0.000000 0.000000
# 2 -0.008577 0.025250 -0.000886 0.000000 0.000000 0.000000
# 3 -0.004687 -0.000886 0.011924 0.000000 0.000000 0.000000
# 4 0.000000 0.000000 0.000000 0.096227 0.000000 0.000000
# 5 0.000000 0.000000 0.000000 0.000000 0.045744 0.000000
# 6 0.000000 0.000000 0.000000 0.000000 0.000000 0.039631
#
#
# Mechanical properties :
#
#
# Convention : Reuss Voigt Hill
#
# Bulk Modulus (GPa) = 34.40288 37.42789 35.91538
# Shear Modulus (GPa) = 18.05285 21.21656 19.63470
#
# Velocity S-wave (km/s) = 2.99027 3.24172 3.11853
# Velocity P-wave (km/s) = 5.38166 5.70526 5.54582
#
# Compressibility (1/GPa) = 0.02906733
#
# Stress axis : x y z
#
# Youngs Moduli (GPa) = 49.51267 39.60471 83.86663
#
# Poissons Ratio (x) = 0.33971 0.39312
# Poissons Ratio (y) = 0.42469 0.07435
# Poissons Ratio (z) = 0.23209 0.03511
#
# Static dielectric constant tensor:
#      x y z
#    x 1.782650 0.000000 0.000000 
#    y 0.000000 1.835300 0.000000 
#    z 0.000000 0.000000 1.698800 
# 
# From -- ./inp_files/6598.got.cif
#   From: 2010.05.17/outbox.cif.g08.bks.cpg/sg30_4_cif.got.tgz:6598.got - 2010.06.03 17:03:02.
