data_PCOD9341373
_publ_section_title
;
Structure prediction by ZEFSAII (Michael W. Deem and Ramdas Pophale) SiO2 
 PCOD9341373
Probable space group: P C A 21
;
_chemical_formula_sum "Si O2"
_cell_formula_units_Z 24
_cell_length_a 8.265169
_cell_length_b 6.736736
_cell_length_c 17.530733
_cell_angle_alpha 90.000000
_cell_angle_beta 90.000000
_cell_angle_gamma 90.000000
_cell_volume 976.115799
_symmetry_space_group_name_H-M "P C A 21"
_symmetry_group_IT_number 29
_symmetry_cell_setting 'orthorhombic'
loop_
_space_group_symop_operation_xyz
x,y,z
-x,-y,1/2+z
1/2-x,y,1/2+z
1/2+x,-y,z
loop_
_atom_site_type_symbol
_atom_site_label
_atom_site_fract_x
_atom_site_fract_y
_atom_site_fract_z
Si Si1 0.568047 0.906548 0.797740
Si Si2 0.538707 0.653447 0.078010
Si Si3 0.176027 0.388120 0.681258
Si Si4 0.098843 0.297028 0.303972
Si Si5 0.372174 0.918115 0.953173
Si Si6 0.535766 0.308114 0.957032
O O1 0.555775 0.767154 0.722749
O O2 0.751130 0.852412 0.821536
O O3 0.465243 0.868874 0.874128
O O4 0.532948 0.135503 0.775668
O O5 0.704235 0.712168 0.119809
O O6 0.414319 0.567184 0.140870
O O7 0.066536 0.533690 0.021807
O O8 0.460460 0.816858 0.024848
O O9 0.305838 0.442823 0.747656
O O10 0.016902 0.401251 0.375941
O O11 0.194405 0.826354 0.948236
O O12 0.390938 0.152267 0.970118
#
# Coordination Sequence:
#
# PCOD9341373 Si02
#       6
#     4   4   4   4   4   4
#     4   9  20  43  71 104 133 176 237 287 335 409
#     4  12  26  50  64 104 146 186 228 288 350 418
#     4  10  26  44  64 100 146 178 230 280 356 408
#     4   9  20  43  71 104 133 176 237 287 335 409
#     4  11  24  44  77 101 136 184 238 286 342 410
#     4  11  24  44  77 101 136 184 238 286 342 410
#
# _framework density 24.587247000000001
#
# number of rings (size 3 to 8) (size 9 to 14) (size 15 to 20)
#    1.000    0.667    1.667    4.000    4.667    2.667 
#   12.000    0.000    0.000    0.000    0.000    0.000 
#    0.000    0.000    0.000    0.000    0.000    0.000 
#
# Total GULP energy -133962.352040 kJ/mol
# GULP energy per Si atom -5581.764668 kJ/mol
# Density = 2.453129 g / cm^3
# Si number density = 24.587247 Si / 1000 Ang^3
#
#
#
# Elastic Constant Matrix: (Units=GPa)
#
#
# Indices 1 2 3 4 5 6 
#
# 1 61.9825 -5.8988 26.4301 0.0000 0.0000 0.0000
# 2 -5.8988 58.9846 40.4069 0.0000 0.0000 0.0000
# 3 26.4301 40.4069 138.2774 0.0000 0.0000 0.0000
# 4 0.0000 0.0000 0.0000 47.0007 0.0000 0.0000
# 5 0.0000 0.0000 0.0000 0.0000 50.3176 0.0000
# 6 0.0000 0.0000 0.0000 0.0000 0.0000 7.7651
#
#
#
# Elastic Compliance Matrix: (Units=1/GPa)
#
#
# Indices 1 2 3 4 5 6 
#
# 1 0.018869 0.005448 -0.005199 0.000000 0.000000 0.000000
# 2 0.005448 0.022770 -0.007695 0.000000 0.000000 0.000000
# 3 -0.005199 -0.007695 0.010474 0.000000 0.000000 0.000000
# 4 0.000000 0.000000 0.000000 0.021276 0.000000 0.000000
# 5 0.000000 0.000000 0.000000 0.000000 0.019874 0.000000
# 6 0.000000 0.000000 0.000000 0.000000 0.000000 0.128781
#
#
# Mechanical properties :
#
#
# Convention : Reuss Voigt Hill
#
# Bulk Modulus (GPa) = 26.86587 42.34676 34.60632
# Shear Modulus (GPa) = 20.05278 34.23711 27.14494
#
# Velocity S-wave (km/s) = 2.85893 3.73564 3.32629
# Velocity P-wave (km/s) = 4.67423 5.98891 5.37194
#
# Compressibility (1/GPa) = 0.03722194
#
# Stress axis : x y z
#
# Youngs Moduli (GPa) = 52.99739 43.91765 95.47339
#
# Poissons Ratio (x) = -0.23927 0.49633
# Poissons Ratio (y) = -0.28874 0.73468
# Poissons Ratio (z) = 0.27551 0.33795
#
# Static dielectric constant tensor:
#      x y z
#    x 1.970410 0.000000 0.000000 
#    y 0.000000 1.955960 0.000000 
#    z 0.000000 0.000000 2.047950 
# 
# From -- ./inp_files/4959.got.cif
#   From: 2010.05.17/outbox.cif.g08.bks.cpg/sg29_3_cif.got.tgz:4959.got - 2010.06.04 01:19:37.
