data_PCOD9341006
_publ_section_title
;
Structure prediction by ZEFSAII (Michael W. Deem and Ramdas Pophale) SiO2 
 PCOD9341006
Probable space group: P C A 21
;
_chemical_formula_sum "Si O2"
_cell_formula_units_Z 28
_cell_length_a 12.550424
_cell_length_b 6.092557
_cell_length_c 16.611010
_cell_angle_alpha 90.000000
_cell_angle_beta 90.000000
_cell_angle_gamma 90.000000
_cell_volume 1270.147152
_symmetry_space_group_name_H-M "P C A 21"
_symmetry_group_IT_number 29
_symmetry_cell_setting 'orthorhombic'
loop_
_space_group_symop_operation_xyz
x,y,z
-x,-y,1/2+z
1/2-x,y,1/2+z
1/2+x,-y,z
loop_
_atom_site_type_symbol
_atom_site_label
_atom_site_fract_x
_atom_site_fract_y
_atom_site_fract_z
Si Si1 0.856193 0.365161 0.084770
Si Si2 0.828323 0.062906 0.514010
Si Si3 0.671677 0.937091 0.302273
Si Si4 0.184337 0.681916 0.859967
Si Si5 0.815660 0.681911 0.956315
Si Si6 0.643810 0.634829 0.731510
Si Si7 0.988737 0.000004 0.658141
O O1 0.806520 0.499992 0.158140
O O2 0.768116 0.214528 0.044000
O O3 0.889951 0.547031 0.018061
O O4 0.942356 0.204001 0.124527
O O5 0.772666 0.826553 0.502963
O O6 0.864988 0.155107 0.426842
O O7 0.916810 0.065938 0.582148
O O8 0.635015 0.844890 0.389441
O O9 0.768110 0.785459 0.272278
O O10 0.727340 0.173438 0.313319
O O11 0.583185 0.934072 0.234137
O O12 0.249999 0.500003 0.908141
O O13 0.110048 0.547033 0.798221
O O14 0.557648 0.795994 0.691753
#
# Coordination Sequence:
#
# PCOD9341006 Si02
#       7
#     4   4   4   4   4   4   4
#     4  11  23  41  63  92 127 166 214 263 316 390
#     4  10  22  44  66  90 128 172 214 265 330 396
#     4  10  22  44  66  90 128 172 214 265 330 396
#     4   9  20  42  67  88 121 168 213 263 323 391
#     4   9  20  42  67  88 121 168 213 263 323 391
#     4  11  23  41  63  92 127 166 214 263 316 390
#     4  12  24  38  64  98 130 166 216 278 336 390
#
# _framework density 22.044692000000001
#
# number of rings (size 3 to 8) (size 9 to 14) (size 15 to 20)
#    0.000    1.714    0.000    4.286    0.000    5.714 
#    0.000   34.286    0.000    0.000    0.000    0.000 
#    0.000    0.000    0.000    0.000    0.000    0.000 
#
# Total GULP energy -156351.856665 kJ/mol
# GULP energy per Si atom -5583.994881 kJ/mol
# Density = 2.199452 g / cm^3
# Si number density = 22.044692 Si / 1000 Ang^3
#
#
#
# Elastic Constant Matrix: (Units=GPa)
#
#
# Indices 1 2 3 4 5 6 
#
# 1 67.5388 52.8353 57.6370 0.0000 0.0000 0.0000
# 2 52.8353 137.0822 74.5412 0.0000 0.0000 0.0000
# 3 57.6370 74.5412 155.4680 0.0000 0.0000 0.0000
# 4 0.0000 0.0000 0.0000 67.4370 0.0000 0.0000
# 5 0.0000 0.0000 0.0000 0.0000 -6.1769 0.0000
# 6 0.0000 0.0000 0.0000 0.0000 0.0000 -34.7124
#
#
#
# Elastic Compliance Matrix: (Units=1/GPa)
#
#
# Indices 1 2 3 4 5 6 
#
# 1 0.025060 -0.006232 -0.006303 0.000000 0.000000 0.000000
# 2 -0.006232 0.011417 -0.003164 0.000000 0.000000 0.000000
# 3 -0.006303 -0.003164 0.010286 0.000000 0.000000 0.000000
# 4 0.000000 0.000000 0.000000 0.014829 0.000000 0.000000
# 5 0.000000 0.000000 0.000000 0.000000 -0.161892 0.000000
# 6 0.000000 0.000000 0.000000 0.000000 0.000000 -0.028808
#
#
# Mechanical properties :
#
#
# Convention : Reuss Voigt Hill
#
# Bulk Modulus (GPa) = 65.07648 81.12399 73.10023
# Shear Modulus (GPa) = -54.00106 16.98125 -18.50991
#
# Velocity S-wave (km/s) = -4.95473 2.77846 -2.90082
# Velocity P-wave (km/s) = 1.77430 6.86824 4.69173
#
# Compressibility (1/GPa) = 0.01536654
#
# Stress axis : x y z
#
# Youngs Moduli (GPa) = 39.90444 87.58784 97.22187
#
# Poissons Ratio (x) = 0.54581 0.61276
# Poissons Ratio (y) = 0.24867 0.30759
# Poissons Ratio (z) = 0.25151 0.27711
#
# Static dielectric constant tensor:
#      x y z
#    x 1.767510 0.000000 0.000000 
#    y 0.000000 1.823390 0.000000 
#    z 0.000000 0.000000 1.890780 
# 
# From -- ./inp_files/5085.got.cif
#   From: 2010.05.17/outbox.cif.g08.bks.cpg/sg29_3_cif.got.tgz:5085.got - 2010.06.04 01:19:37.
