data_PCOD9341841
_publ_section_title
;
Structure prediction by ZEFSAII (Michael W. Deem and Ramdas Pophale) SiO2 
 PCOD9341841
Probable space group: P N C 2
;
_chemical_formula_sum "Si O2"
_cell_formula_units_Z 26
_cell_length_a 12.071598
_cell_length_b 8.978463
_cell_length_c 9.737142
_cell_angle_alpha 90.000000
_cell_angle_beta 90.000000
_cell_angle_gamma 90.000000
_cell_volume 1055.354254
_symmetry_space_group_name_H-M "P N C 2"
_symmetry_group_IT_number 30
_symmetry_cell_setting 'orthorhombic'
loop_
_space_group_symop_operation_xyz
x,y,z
-x,-y,z
-x,1/2+y,1/2+z
x,1/2-y,1/2+z
loop_
_atom_site_type_symbol
_atom_site_label
_atom_site_fract_x
_atom_site_fract_y
_atom_site_fract_z
Si Si1 0.796363 0.182543 0.353950
Si Si2 0.000000 0.000000 0.416009
Si Si3 0.500000 0.000000 0.930961
Si Si4 0.734423 0.423980 0.158215
Si Si5 0.314709 0.014922 0.131399
Si Si6 0.180717 0.215540 0.534865
Si Si7 0.613873 0.708181 0.850220
Si Si8 0.500000 0.000000 0.573995
O O1 0.789602 0.346702 0.290040
O O2 0.773209 0.158387 0.515887
O O3 0.711459 0.096031 0.254961
O O4 0.910982 0.094561 0.331521
O O5 0.935266 0.867446 0.499495
O O6 0.392967 0.942636 0.017675
O O7 0.441781 0.133741 0.853713
O O8 0.770258 0.596053 0.143219
O O9 0.602246 0.423674 0.152201
O O10 0.208505 0.114492 0.081912
O O11 0.393941 0.137667 0.201519
O O12 0.258141 0.204681 0.399418
O O13 0.554573 0.616088 0.968883
#
# Coordination Sequence:
#
# PCOD9341841 Si02
#       8
#     4   2   2   4   4   4   4   2
#     4  11  23  41  69  97 140 177 241 286 351 407
#     4  10  20  44  70  96 134 188 222 300 352 404
#     4  10  23  36  63  96 134 173 231 268 344 415
#     4  10  22  43  62 102 136 185 227 294 334 429
#     4  11  20  40  66  96 134 183 222 285 339 428
#     4   9  21  40  63  90 136 174 234 276 347 397
#     4  10  19  39  58  95 128 175 220 273 330 414
#     4  10  17  38  65  84 144 181 217 274 352 395
#
# _framework density 24.636275999999999
#
# number of rings (size 3 to 8) (size 9 to 14) (size 15 to 20)
#    0.000    1.846    4.615    1.385    0.000    2.462 
#    8.308    3.077    0.000    8.308    0.000    0.000 
#    0.000    0.000    0.000    0.000    0.000    0.000 
#
# Total GULP energy -145243.473603 kJ/mol
# GULP energy per Si atom -5586.287446 kJ/mol
# Density = 2.458020 g / cm^3
# Si number density = 24.636276 Si / 1000 Ang^3
#
#
#
# Elastic Constant Matrix: (Units=GPa)
#
#
# Indices 1 2 3 4 5 6 
#
# 1 110.6854 19.1902 18.7779 0.0000 0.0000 0.0000
# 2 19.1902 71.2549 20.5742 0.0000 0.0000 0.0000
# 3 18.7779 20.5742 65.5827 0.0000 0.0000 0.0000
# 4 0.0000 0.0000 0.0000 51.2431 0.0000 0.0000
# 5 0.0000 0.0000 0.0000 0.0000 -3.6253 0.0000
# 6 0.0000 0.0000 0.0000 0.0000 0.0000 43.7908
#
#
#
# Elastic Compliance Matrix: (Units=1/GPa)
#
#
# Indices 1 2 3 4 5 6 
#
# 1 0.009749 -0.002001 -0.002164 0.000000 0.000000 0.000000
# 2 -0.002001 0.015843 -0.004397 0.000000 0.000000 0.000000
# 3 -0.002164 -0.004397 0.017247 0.000000 0.000000 0.000000
# 4 0.000000 0.000000 0.000000 0.019515 0.000000 0.000000
# 5 0.000000 0.000000 0.000000 0.000000 -0.275842 0.000000
# 6 0.000000 0.000000 0.000000 0.000000 0.000000 0.022836
#
#
# Mechanical properties :
#
#
# Convention : Reuss Voigt Hill
#
# Bulk Modulus (GPa) = 38.88782 40.51197 39.69989
# Shear Modulus (GPa) = -30.31060 30.88043 0.28492
#
# Velocity S-wave (km/s) = -3.51140 3.54426 0.34044
# Velocity P-wave (km/s) = 0.78796 5.76444 4.03781
#
# Compressibility (1/GPa) = 0.02571499
#
# Stress axis : x y z
#
# Youngs Moduli (GPa) = 102.57938 63.12090 57.98158
#
# Poissons Ratio (x) = 0.12629 0.12545
# Poissons Ratio (y) = 0.20523 0.25496
# Poissons Ratio (z) = 0.22194 0.27755
#
# Static dielectric constant tensor:
#      x y z
#    x 1.970940 0.000000 0.000000 
#    y 0.000000 2.070300 0.000000 
#    z 0.000000 0.000000 2.055970 
# 
# From -- ./inp_files/4095.got.cif
#   From: 2010.05.17/outbox.cif.g08.bks.cpg/sg30_3_cif.got.tgz:4095.got - 2010.06.03 17:03:02.
