data_PCOD9341836
_publ_section_title
;
Structure prediction by ZEFSAII (Michael W. Deem and Ramdas Pophale) SiO2 
 PCOD9341836
Probable space group: P N C 2
;
_chemical_formula_sum "Si O2"
_cell_formula_units_Z 30
_cell_length_a 9.211492
_cell_length_b 12.771820
_cell_length_c 11.054670
_cell_angle_alpha 90.000000
_cell_angle_beta 90.000000
_cell_angle_gamma 90.000000
_cell_volume 1300.554485
_symmetry_space_group_name_H-M "P N C 2"
_symmetry_group_IT_number 30
_symmetry_cell_setting 'orthorhombic'
loop_
_space_group_symop_operation_xyz
x,y,z
-x,-y,z
-x,1/2+y,1/2+z
x,1/2-y,1/2+z
loop_
_atom_site_type_symbol
_atom_site_label
_atom_site_fract_x
_atom_site_fract_y
_atom_site_fract_z
Si Si1 0.793287 0.128228 0.365000
Si Si2 0.500000 0.000000 0.095471
Si Si3 0.874280 0.932586 0.755444
Si Si4 0.355077 0.565786 0.107083
Si Si5 0.553032 0.277376 0.723462
Si Si6 0.833124 0.527686 0.635686
Si Si7 0.940452 0.615490 0.987739
Si Si8 0.236193 0.218257 0.310680
O O1 0.723816 0.068153 0.478527
O O2 0.677642 0.212191 0.322197
O O3 0.938200 0.181300 0.416956
O O4 0.816767 0.053909 0.248841
O O5 0.476202 0.890437 0.163596
O O6 0.678902 0.983946 0.057592
O O7 0.938916 0.882962 0.630472
O O8 0.831019 0.832130 0.829195
O O9 0.747627 0.008980 0.706064
O O10 0.000000 0.000000 0.813341
O O11 0.500000 0.500000 0.099585
O O12 0.396652 0.684661 0.137289
O O13 0.401099 0.254132 0.784661
O O14 0.824226 0.643128 0.701464
O O15 0.000000 0.500000 0.591484
O O16 0.790325 0.651619 0.931417
O O17 0.000000 0.500000 0.953547
#
# Coordination Sequence:
#
# PCOD9341836 Si02
#       8
#     4   2   4   4   4   4   4   4
#     4  11  21  36  64  91 119 157 211 262 308 369
#     4   8  20  34  56  88 120 150 212 250 304 372
#     4  11  24  39  59  92 127 159 210 260 311 386
#     4  12  24  40  60  92 130 164 208 256 316 376
#     4  10  24  37  60  95 122 164 205 259 318 374
#     4  10  17  33  58  91 117 151 203 261 311 360
#     4  11  20  38  60  94 118 154 209 264 305 373
#     4  11  20  36  59  86 125 160 201 257 325 372
#
# _framework density 23.067084000000001
#
# number of rings (size 3 to 8) (size 9 to 14) (size 15 to 20)
#    0.000    1.333    6.667    0.000    9.333    0.000 
#    0.000    0.000    1.467    4.800    0.000    0.000 
#    0.000    0.000    0.000    0.000    0.000    0.000 
#
# Total GULP energy -167095.568500 kJ/mol
# GULP energy per Si atom -5569.852283 kJ/mol
# Density = 2.301458 g / cm^3
# Si number density = 23.067084 Si / 1000 Ang^3
#
#
#
# Elastic Constant Matrix: (Units=GPa)
#
#
# Indices 1 2 3 4 5 6 
#
# 1 145.5425 36.6296 16.7394 0.0000 0.0000 0.0000
# 2 36.6296 101.2231 25.1451 0.0000 0.0000 0.0000
# 3 16.7394 25.1451 41.4597 0.0000 0.0000 0.0000
# 4 0.0000 0.0000 0.0000 30.2093 0.0000 0.0000
# 5 0.0000 0.0000 0.0000 0.0000 10.7451 0.0000
# 6 0.0000 0.0000 0.0000 0.0000 0.0000 29.3656
#
#
#
# Elastic Compliance Matrix: (Units=1/GPa)
#
#
# Indices 1 2 3 4 5 6 
#
# 1 0.007655 -0.002358 -0.001661 0.000000 0.000000 0.000000
# 2 -0.002358 0.012358 -0.006543 0.000000 0.000000 0.000000
# 3 -0.001661 -0.006543 0.028759 0.000000 0.000000 0.000000
# 4 0.000000 0.000000 0.000000 0.033102 0.000000 0.000000
# 5 0.000000 0.000000 0.000000 0.000000 0.093066 0.000000
# 6 0.000000 0.000000 0.000000 0.000000 0.000000 0.034053
#
#
# Mechanical properties :
#
#
# Convention : Reuss Voigt Hill
#
# Bulk Modulus (GPa) = 36.16829 49.47265 42.82047
# Shear Modulus (GPa) = 20.89141 28.04472 24.46807
#
# Velocity S-wave (km/s) = 3.01272 3.49060 3.26043
# Velocity P-wave (km/s) = 5.27405 6.14325 5.72517
#
# Compressibility (1/GPa) = 0.02764853
#
# Stress axis : x y z
#
# Youngs Moduli (GPa) = 130.62968 80.92133 34.77211
#
# Poissons Ratio (x) = 0.19078 0.05775
# Poissons Ratio (y) = 0.30797 0.22751
# Poissons Ratio (z) = 0.21697 0.52947
#
# Static dielectric constant tensor:
#      x y z
#    x 1.991820 0.000000 0.000000 
#    y 0.000000 1.702830 0.000000 
#    z 0.000000 0.000000 1.856770 
# 
# From -- ./inp_files/5168.got.cif
#   From: 2010.05.17/outbox.cif.g08.bks.cpg/sg30_3_cif.got.tgz:5168.got - 2010.06.03 17:03:02.
