data_PCOD9341056
_publ_section_title
;
Structure prediction by ZEFSAII (Michael W. Deem and Ramdas Pophale) SiO2 
 PCOD9341056
Probable space group: P C A 21
;
_chemical_formula_sum "Si O2"
_cell_formula_units_Z 28
_cell_length_a 19.184861
_cell_length_b 5.253739
_cell_length_c 11.746835
_cell_angle_alpha 90.000000
_cell_angle_beta 90.000000
_cell_angle_gamma 90.000000
_cell_volume 1183.989959
_symmetry_space_group_name_H-M "P C A 21"
_symmetry_group_IT_number 29
_symmetry_cell_setting 'orthorhombic'
loop_
_space_group_symop_operation_xyz
x,y,z
-x,-y,1/2+z
1/2-x,y,1/2+z
1/2+x,-y,z
loop_
_atom_site_type_symbol
_atom_site_label
_atom_site_fract_x
_atom_site_fract_y
_atom_site_fract_z
Si Si1 0.206778 0.022828 0.715320
Si Si2 0.403178 0.642115 0.287381
Si Si3 0.937078 0.177041 0.666616
Si Si4 0.561201 0.684936 0.316144
Si Si5 0.910626 0.703985 0.078021
Si Si6 0.707213 0.657658 0.907057
Si Si7 0.699382 0.174300 0.041367
O O1 0.153468 0.863625 0.793277
O O2 0.261130 0.832003 0.661262
O O3 0.156406 0.141093 0.620368
O O4 0.242933 0.238206 0.792255
O O5 0.477885 0.719786 0.330743
O O6 0.408811 0.551328 0.155667
O O7 0.370241 0.411047 0.359373
O O8 0.930925 0.418516 0.750428
O O9 0.881738 0.219519 0.566119
O O10 0.016101 0.167595 0.617837
O O11 0.918003 0.921143 0.735770
O O12 0.592000 0.675128 0.442768
O O13 0.731893 0.400482 0.966734
O O14 0.707994 0.890388 0.993551
#
# Coordination Sequence:
#
# PCOD9341056 Si02
#       7
#     4   4   4   4   4   4   4
#     4  11  25  48  70 106 142 181 245 283 347 436
#     4  10  22  47  70 103 138 185 237 284 344 444
#     4  11  25  45  66 106 139 177 237 292 339 426
#     4  11  24  43  71 103 140 178 231 295 356 401
#     4  10  24  41  74  99 138 183 231 287 354 410
#     4  11  25  46  73  99 136 194 229 282 356 423
#     4  12  27  46  72 102 143 188 234 293 354 418
#
# _framework density 23.648847
#
# number of rings (size 3 to 8) (size 9 to 14) (size 15 to 20)
#    0.000    1.143    2.857    1.714    6.000    2.286 
#    2.571    0.000    0.000    0.000    0.000    0.000 
#    0.000    0.000    0.000    0.000    0.000    0.000 
#
# Total GULP energy -156614.560651 kJ/mol
# GULP energy per Si atom -5593.377166 kJ/mol
# Density = 2.359502 g / cm^3
# Si number density = 23.648847 Si / 1000 Ang^3
#
#
#
# Elastic Constant Matrix: (Units=GPa)
#
#
# Indices 1 2 3 4 5 6 
#
# 1 50.6750 17.7944 14.6852 0.0000 0.0000 0.0000
# 2 17.7944 111.2294 39.8046 0.0000 0.0000 0.0000
# 3 14.6852 39.8046 86.4077 0.0000 0.0000 0.0000
# 4 0.0000 0.0000 0.0000 45.0171 0.0000 0.0000
# 5 0.0000 0.0000 0.0000 0.0000 23.9694 0.0000
# 6 0.0000 0.0000 0.0000 0.0000 0.0000 12.4581
#
#
#
# Elastic Compliance Matrix: (Units=1/GPa)
#
#
# Indices 1 2 3 4 5 6 
#
# 1 0.021336 -0.002533 -0.002459 0.000000 0.000000 0.000000
# 2 -0.002533 0.011066 -0.004667 0.000000 0.000000 0.000000
# 3 -0.002459 -0.004667 0.014141 0.000000 0.000000 0.000000
# 4 0.000000 0.000000 0.000000 0.022214 0.000000 0.000000
# 5 0.000000 0.000000 0.000000 0.000000 0.041720 0.000000
# 6 0.000000 0.000000 0.000000 0.000000 0.000000 0.080269
#
#
# Mechanical properties :
#
#
# Convention : Reuss Voigt Hill
#
# Bulk Modulus (GPa) = 36.73273 43.65341 40.19307
# Shear Modulus (GPa) = 22.81659 28.02410 25.42035
#
# Velocity S-wave (km/s) = 3.10950 3.44613 3.28214
# Velocity P-wave (km/s) = 5.33463 5.85948 5.60321
#
# Compressibility (1/GPa) = 0.02722367
#
# Stress axis : x y z
#
# Youngs Moduli (GPa) = 46.86964 90.36806 70.71679
#
# Poissons Ratio (x) = 0.22893 0.17390
# Poissons Ratio (y) = 0.11873 0.33004
# Poissons Ratio (z) = 0.11526 0.42175
#
# Static dielectric constant tensor:
#      x y z
#    x 1.905030 0.000000 0.000000 
#    y 0.000000 1.905070 0.000000 
#    z 0.000000 0.000000 1.958160 
# 
# From -- ./inp_files/3741.got.cif
#   From: 2010.05.17/outbox.cif.g08.bks.cpg/sg29_2_cif.got.tgz:3741.got - 2010.06.04 01:19:37.
