data_PCOD9341517
_publ_section_title
;
Structure prediction by ZEFSAII (Michael W. Deem and Ramdas Pophale) SiO2 
 PCOD9341517
Probable space group: P C A 21
;
_chemical_formula_sum "Si O2"
_cell_formula_units_Z 32
_cell_length_a 19.624969
_cell_length_b 6.831193
_cell_length_c 11.080714
_cell_angle_alpha 90.000000
_cell_angle_beta 90.000000
_cell_angle_gamma 90.000000
_cell_volume 1485.502136
_symmetry_space_group_name_H-M "P C A 21"
_symmetry_group_IT_number 29
_symmetry_cell_setting 'orthorhombic'
loop_
_space_group_symop_operation_xyz
x,y,z
-x,-y,1/2+z
1/2-x,y,1/2+z
1/2+x,-y,z
loop_
_atom_site_type_symbol
_atom_site_label
_atom_site_fract_x
_atom_site_fract_y
_atom_site_fract_z
Si Si1 0.752671 0.713867 0.388710
Si Si2 0.090216 0.380765 0.395578
Si Si3 0.026035 0.366294 0.894391
Si Si4 0.814566 0.027003 0.216594
Si Si5 0.643718 0.348427 0.909208
Si Si6 0.307051 0.960343 0.578086
Si Si7 0.446725 0.157824 0.139553
Si Si8 0.062701 0.163458 0.149350
O O1 0.672741 0.649658 0.393020
O O2 0.801224 0.524295 0.404687
O O3 0.779133 0.829949 0.269633
O O4 0.771881 0.881945 0.487286
O O5 0.060523 0.292391 0.521243
O O6 0.058914 0.284385 0.273508
O O7 0.055181 0.596081 0.393551
O O8 0.069505 0.565126 0.891243
O O9 0.049737 0.258804 0.771874
O O10 0.049873 0.272004 0.021278
O O11 0.841037 0.178568 0.314033
O O12 0.755088 0.134277 0.147302
O O13 0.877733 0.967046 0.136496
O O14 0.650743 0.222968 0.029208
O O15 0.360716 0.084755 0.651769
O O16 0.510444 0.014521 0.141550
#
# Coordination Sequence:
#
# PCOD9341517 Si02
#       8
#     4   4   4   4   4   4   4   4
#     4  11  23  46  67 101 147 192 232 298 363 429
#     4  12  26  42  74 104 141 185 246 300 357 427
#     4  12  25  47  68 106 149 187 243 299 367 441
#     4  11  23  43  70 101 142 188 240 294 359 428
#     4  11  24  41  73 101 135 194 237 281 367 437
#     4  11  23  43  70 101 142 188 240 294 359 428
#     4  12  25  46  73 101 149 191 237 298 366 426
#     4  12  25  46  73 101 149 191 237 298 366 426
#
# _framework density 21.541539
#
# number of rings (size 3 to 8) (size 9 to 14) (size 15 to 20)
#    0.000    0.500    5.000    3.750    0.000    5.000 
#    0.000    0.000    0.000    0.000    0.000    0.000 
#    0.000    0.000    0.000    0.000    0.000    0.000 
#
# Total GULP energy -178495.991017 kJ/mol
# GULP energy per Si atom -5577.999719 kJ/mol
# Density = 2.149251 g / cm^3
# Si number density = 21.541539 Si / 1000 Ang^3
#
#
#
# Elastic Constant Matrix: (Units=GPa)
#
#
# Indices 1 2 3 4 5 6 
#
# 1 126.8400 13.3738 9.3721 0.0000 0.0000 0.0000
# 2 13.3738 56.5366 7.1508 0.0000 0.0000 0.0000
# 3 9.3721 7.1508 85.8345 0.0000 0.0000 0.0000
# 4 0.0000 0.0000 0.0000 4.9087 0.0000 0.0000
# 5 0.0000 0.0000 0.0000 0.0000 38.3115 0.0000
# 6 0.0000 0.0000 0.0000 0.0000 0.0000 50.2936
#
#
#
# Elastic Compliance Matrix: (Units=1/GPa)
#
#
# Indices 1 2 3 4 5 6 
#
# 1 0.008131 -0.001830 -0.000735 0.000000 0.000000 0.000000
# 2 -0.001830 0.018288 -0.001324 0.000000 0.000000 0.000000
# 3 -0.000735 -0.001324 0.011841 0.000000 0.000000 0.000000
# 4 0.000000 0.000000 0.000000 0.203719 0.000000 0.000000
# 5 0.000000 0.000000 0.000000 0.000000 0.026102 0.000000
# 6 0.000000 0.000000 0.000000 0.000000 0.000000 0.019883
#
#
# Mechanical properties :
#
#
# Convention : Reuss Voigt Hill
#
# Bulk Modulus (GPa) = 32.80707 36.55606 34.68156
# Shear Modulus (GPa) = 16.34499 34.65705 25.50102
#
# Velocity S-wave (km/s) = 2.75756 4.01540 3.44438
# Velocity P-wave (km/s) = 5.04000 6.20522 5.65271
#
# Compressibility (1/GPa) = 0.03048124
#
# Stress axis : x y z
#
# Youngs Moduli (GPa) = 122.98179 54.68047 84.45306
#
# Poissons Ratio (x) = 0.10009 0.06210
# Poissons Ratio (y) = 0.22511 0.11179
# Poissons Ratio (z) = 0.09043 0.07238
#
# Static dielectric constant tensor:
#      x y z
#    x 1.654170 0.000000 0.000000 
#    y 0.000000 1.763540 0.000000 
#    z 0.000000 0.000000 1.925140 
# 
# From -- ./inp_files/3885.got.cif
#   From: 2010.05.17/outbox.cif.g08.bks.cpg/sg29_2_cif.got.tgz:3885.got - 2010.06.04 01:19:37.
