data_PCOD9341199
_publ_section_title
;
Structure prediction by ZEFSAII (Michael W. Deem and Ramdas Pophale) SiO2 
 PCOD9341199
Probable space group: P C A 21
;
_chemical_formula_sum "Si O2"
_cell_formula_units_Z 20
_cell_length_a 10.823728
_cell_length_b 7.460260
_cell_length_c 9.668437
_cell_angle_alpha 90.000000
_cell_angle_beta 90.000000
_cell_angle_gamma 90.000000
_cell_volume 780.705259
_symmetry_space_group_name_H-M "P C A 21"
_symmetry_group_IT_number 29
_symmetry_cell_setting 'orthorhombic'
loop_
_space_group_symop_operation_xyz
x,y,z
-x,-y,1/2+z
1/2-x,y,1/2+z
1/2+x,-y,z
loop_
_atom_site_type_symbol
_atom_site_label
_atom_site_fract_x
_atom_site_fract_y
_atom_site_fract_z
Si Si1 0.775136 0.565580 0.380770
Si Si2 0.554561 0.914855 0.932974
Si Si3 0.872139 0.068940 0.158130
Si Si4 0.145691 0.735775 0.093585
Si Si5 0.876704 0.662653 0.109235
O O1 0.857956 0.743526 0.412412
O O2 0.822058 0.397402 0.468173
O O3 0.788587 0.557605 0.215829
O O4 0.642676 0.602368 0.451516
O O5 0.539514 0.021713 0.787809
O O6 0.607935 0.074257 0.026007
O O7 0.437197 0.851828 0.021847
O O8 0.833658 0.868193 0.116049
O O9 0.756500 0.194797 0.191253
O O10 0.019062 0.655814 0.156752
#
# Coordination Sequence:
#
# PCOD9341199 Si02
#       5
#     4   4   4   4   4
#     4  11  25  44  70 101 148 184 245 306 363 442
#     4  10  24  44  70 104 141 187 239 309 364 441
#     4  10  23  47  73 102 144 189 244 304 372 441
#     4  11  25  43  75 106 142 198 243 304 377 443
#     4  10  25  48  66 109 143 188 245 309 366 439
#
# _framework density 25.617861000000001
#
# number of rings (size 3 to 8) (size 9 to 14) (size 15 to 20)
#    0.000    1.600    2.000    0.000    5.600    9.600 
#    3.600    0.000    0.000    2.400    0.000    0.000 
#    0.000    0.000    0.000    0.000    0.000    0.000 
#
# Total GULP energy -111637.519000 kJ/mol
# GULP energy per Si atom -5581.875950 kJ/mol
# Density = 2.555955 g / cm^3
# Si number density = 25.617861 Si / 1000 Ang^3
#
#
#
# Elastic Constant Matrix: (Units=GPa)
#
#
# Indices 1 2 3 4 5 6 
#
# 1 95.1782 7.2017 52.3810 0.0000 0.0000 0.0000
# 2 7.2017 76.3478 -21.0454 0.0000 0.0000 0.0000
# 3 52.3810 -21.0454 119.3958 0.0000 0.0000 0.0000
# 4 0.0000 0.0000 0.0000 37.3950 0.0000 0.0000
# 5 0.0000 0.0000 0.0000 0.0000 24.8625 0.0000
# 6 0.0000 0.0000 0.0000 0.0000 0.0000 19.8011
#
#
#
# Elastic Compliance Matrix: (Units=1/GPa)
#
#
# Indices 1 2 3 4 5 6 
#
# 1 0.014603 -0.003304 -0.006989 0.000000 0.000000 0.000000
# 2 -0.003304 0.014514 0.004008 0.000000 0.000000 0.000000
# 3 -0.006989 0.004008 0.012148 0.000000 0.000000 0.000000
# 4 0.000000 0.000000 0.000000 0.026742 0.000000 0.000000
# 5 0.000000 0.000000 0.000000 0.000000 0.040221 0.000000
# 6 0.000000 0.000000 0.000000 0.000000 0.000000 0.050502
#
#
# Mechanical properties :
#
#
# Convention : Reuss Voigt Hill
#
# Bulk Modulus (GPa) = 34.84873 40.88848 37.86861
# Shear Modulus (GPa) = 27.64480 33.23734 30.44107
#
# Velocity S-wave (km/s) = 3.28856 3.60589 3.45088
# Velocity P-wave (km/s) = 5.29645 5.77340 5.54006
#
# Compressibility (1/GPa) = 0.02869545
#
# Stress axis : x y z
#
# Youngs Moduli (GPa) = 68.47927 68.89710 82.31715
#
# Poissons Ratio (x) = 0.22763 0.57531
# Poissons Ratio (y) = 0.22625 -0.32992
# Poissons Ratio (z) = 0.47860 -0.27613
#
# Static dielectric constant tensor:
#      x y z
#    x 2.135900 0.000000 0.000000 
#    y 0.000000 1.955920 0.000000 
#    z 0.000000 0.000000 2.077760 
# 
# From -- ./inp_files/1390.got.cif
#   From: 2010.05.17/outbox.cif.g08.bks.cpg/sg29_1_cif.got.tgz:1390.got - 2010.06.04 01:19:37.
