data_PCOD9341943
_publ_section_title
;
Structure prediction by ZEFSAII (Michael W. Deem and Ramdas Pophale) SiO2 
 PCOD9341943
Probable space group: P N C 2
;
_chemical_formula_sum "Si O2"
_cell_formula_units_Z 30
_cell_length_a 12.585745
_cell_length_b 5.512427
_cell_length_c 18.271493
_cell_angle_alpha 90.000000
_cell_angle_beta 90.000000
_cell_angle_gamma 90.000000
_cell_volume 1267.639651
_symmetry_space_group_name_H-M "P N C 2"
_symmetry_group_IT_number 30
_symmetry_cell_setting 'orthorhombic'
loop_
_space_group_symop_operation_xyz
x,y,z
-x,-y,z
-x,1/2+y,1/2+z
x,1/2-y,1/2+z
loop_
_atom_site_type_symbol
_atom_site_label
_atom_site_fract_x
_atom_site_fract_y
_atom_site_fract_z
Si Si1 0.500000 0.000000 0.365880
Si Si2 0.422745 0.813882 0.742005
Si Si3 0.352885 0.581402 0.598269
Si Si4 0.141347 0.081736 0.682396
Si Si5 0.216414 0.540438 0.332939
Si Si6 0.741498 0.963838 0.414874
Si Si7 0.896221 0.079217 0.110704
Si Si8 0.325208 0.083057 0.567276
O O1 0.504845 0.218387 0.308063
O O2 0.612621 0.989105 0.406336
O O3 0.380938 0.613369 0.684106
O O4 0.500000 0.000000 0.701080
O O5 0.322558 0.916494 0.785117
O O6 0.225099 0.571577 0.583105
O O7 0.390587 0.330089 0.565858
O O8 0.386230 0.831901 0.562762
O O9 0.134857 0.006417 0.766876
O O10 0.105506 0.359207 0.670240
O O11 0.259970 0.083919 0.644201
O O12 0.091780 0.851683 0.640059
O O13 0.208374 0.788990 0.380727
O O14 0.225535 0.288373 0.376748
O O15 0.758887 0.928695 0.501067
O O16 0.000000 0.000000 0.064063
#
# Coordination Sequence:
#
# PCOD9341943 Si02
#       8
#     2   4   4   4   4   4   4   4
#     4  10  24  34  56  80 120 152 212 236 290 352
#     4  11  21  36  59  83 115 156 205 251 282 350
#     4  10  22  37  61  85 123 150 203 242 313 365
#     4  10  20  36  60  89 120 148 203 242 299 369
#     4  11  21  37  59  85 114 161 205 240 288 363
#     4  11  23  38  57  83 119 160 205 245 300 349
#     4  10  19  33  58  94 124 148 188 255 313 357
#     4  10  21  39  57  84 119 151 190 259 303 349
#
# _framework density 23.666029999999999
#
# number of rings (size 3 to 8) (size 9 to 14) (size 15 to 20)
#    0.000    1.600    4.000    2.000    7.467    0.000 
#    1.200    0.000    0.000    0.000    0.000   74.667 
#    0.000    0.000    0.000    0.000    0.000    0.000 
#
# Total GULP energy -167185.674836 kJ/mol
# GULP energy per Si atom -5572.855828 kJ/mol
# Density = 2.361217 g / cm^3
# Si number density = 23.666030 Si / 1000 Ang^3
#
#
#
# Elastic Constant Matrix: (Units=GPa)
#
#
# Indices 1 2 3 4 5 6 
#
# 1 65.0756 16.4335 -9.9736 0.0000 0.0000 0.0000
# 2 16.4335 228.2332 40.6831 0.0000 0.0000 0.0000
# 3 -9.9736 40.6831 97.2659 0.0000 0.0000 0.0000
# 4 0.0000 0.0000 0.0000 34.5825 0.0000 0.0000
# 5 0.0000 0.0000 0.0000 0.0000 -11.6611 0.0000
# 6 0.0000 0.0000 0.0000 0.0000 0.0000 30.6652
#
#
#
# Elastic Compliance Matrix: (Units=1/GPa)
#
#
# Indices 1 2 3 4 5 6 
#
# 1 0.016118 -0.001572 0.002310 0.000000 0.000000 0.000000
# 2 -0.001572 0.004888 -0.002206 0.000000 0.000000 0.000000
# 3 0.002310 -0.002206 0.011441 0.000000 0.000000 0.000000
# 4 0.000000 0.000000 0.000000 0.028916 0.000000 0.000000
# 5 0.000000 0.000000 0.000000 0.000000 -0.085755 0.000000
# 6 0.000000 0.000000 0.000000 0.000000 0.000000 0.032610
#
#
# Mechanical properties :
#
#
# Convention : Reuss Voigt Hill
#
# Bulk Modulus (GPa) = 33.88560 53.87339 43.87950
# Shear Modulus (GPa) = 238.20680 33.61276 135.90978
#
# Velocity S-wave (km/s) = 10.04350 3.77277 7.58636
# Velocity P-wave (km/s) = 12.20022 6.46466 9.76312
#
# Compressibility (1/GPa) = 0.02951106
#
# Stress axis : x y z
#
# Youngs Moduli (GPa) = 62.04278 204.58838 87.40831
#
# Poissons Ratio (x) = 0.32169 -0.20195
# Poissons Ratio (y) = 0.09755 0.19279
# Poissons Ratio (z) = -0.14334 0.45125
#
# Static dielectric constant tensor:
#      x y z
#    x 2.045350 0.000000 0.000000 
#    y 0.000000 2.017100 0.000000 
#    z 0.000000 0.000000 1.881460 
# 
# From -- ./inp_files/6602.got.cif
#   From: 2010.05.17/outbox.cif.g08.bks.cpg/sg30_4_cif.got.tgz:6602.got - 2010.06.03 17:03:02.
