data_PCOD9341480
_publ_section_title
;
Structure prediction by ZEFSAII (Michael W. Deem and Ramdas Pophale) SiO2 
 PCOD9341480
Probable space group: P C A 21
;
_chemical_formula_sum "Si O2"
_cell_formula_units_Z 24
_cell_length_a 16.810020
_cell_length_b 6.193013
_cell_length_c 8.478222
_cell_angle_alpha 90.000000
_cell_angle_beta 90.000000
_cell_angle_gamma 90.000000
_cell_volume 882.622524
_symmetry_space_group_name_H-M "P C A 21"
_symmetry_group_IT_number 29
_symmetry_cell_setting 'orthorhombic'
loop_
_space_group_symop_operation_xyz
x,y,z
-x,-y,1/2+z
1/2-x,y,1/2+z
1/2+x,-y,z
loop_
_atom_site_type_symbol
_atom_site_label
_atom_site_fract_x
_atom_site_fract_y
_atom_site_fract_z
Si Si1 0.623399 0.843020 0.316780
Si Si2 0.766003 0.535745 0.281209
Si Si3 0.196859 0.798034 0.513595
Si Si4 0.527292 0.523153 0.142809
Si Si5 0.427387 0.243427 0.353921
Si Si6 0.880649 0.132238 0.528583
O O1 0.704399 0.731209 0.249155
O O2 0.643262 0.993028 0.468818
O O3 0.558941 0.652433 0.296795
O O4 0.594206 0.009535 0.185859
O O5 0.837846 0.661118 0.366530
O O6 0.706752 0.372124 0.371450
O O7 0.809428 0.369409 0.159864
O O8 0.286444 0.885863 0.521987
O O9 0.461239 0.355639 0.198835
O O10 0.593815 0.373123 0.061768
O O11 0.514603 0.689192 0.999505
O O12 0.417170 0.987091 0.376808
#
# Coordination Sequence:
#
# PCOD9341480 Si02
#       6
#     4   4   4   4   4   4
#     4  11  23  42  72 103 142 179 233 300 355 418
#     4  12  24  43  72 104 140 180 240 296 358 425
#     4  12  22  41  72 106 136 178 235 299 357 420
#     4  11  25  49  68 102 147 191 234 299 360 438
#     4  11  26  46  71 100 144 193 239 294 365 434
#     4  11  22  45  71  99 139 179 237 292 349 429
#
# _framework density 27.191693000000001
#
# number of rings (size 3 to 8) (size 9 to 14) (size 15 to 20)
#    0.000    0.667    6.667    1.000    0.000    5.333 
#    3.000    0.000    0.000    0.000    0.000    0.000 
#    0.000    0.000    0.000    0.000    0.000    0.000 
#
# Total GULP energy -133911.933705 kJ/mol
# GULP energy per Si atom -5579.663904 kJ/mol
# Density = 2.712980 g / cm^3
# Si number density = 27.191693 Si / 1000 Ang^3
#
#
#
# Elastic Constant Matrix: (Units=GPa)
#
#
# Indices 1 2 3 4 5 6 
#
# 1 57.7628 38.8584 -2.3412 0.0000 0.0000 0.0000
# 2 38.8584 152.5713 27.0901 0.0000 0.0000 0.0000
# 3 -2.3412 27.0901 47.0116 0.0000 0.0000 0.0000
# 4 0.0000 0.0000 0.0000 29.9925 0.0000 0.0000
# 5 0.0000 0.0000 0.0000 0.0000 36.1018 0.0000
# 6 0.0000 0.0000 0.0000 0.0000 0.0000 58.2351
#
#
#
# Elastic Compliance Matrix: (Units=1/GPa)
#
#
# Indices 1 2 3 4 5 6 
#
# 1 0.021814 -0.006404 0.004777 0.000000 0.000000 0.000000
# 2 -0.006404 0.009181 -0.005610 0.000000 0.000000 0.000000
# 3 0.004777 -0.005610 0.024742 0.000000 0.000000 0.000000
# 4 0.000000 0.000000 0.000000 0.033342 0.000000 0.000000
# 5 0.000000 0.000000 0.000000 0.000000 0.027699 0.000000
# 6 0.000000 0.000000 0.000000 0.000000 0.000000 0.017172
#
#
# Mechanical properties :
#
#
# Convention : Reuss Voigt Hill
#
# Bulk Modulus (GPa) = 24.23479 42.72892 33.48186
# Shear Modulus (GPa) = 30.83032 37.78176 34.30604
#
# Velocity S-wave (km/s) = 3.37087 3.73159 3.55581
# Velocity P-wave (km/s) = 4.90737 5.85785 5.40355
#
# Compressibility (1/GPa) = 0.04126299
#
# Stress axis : x y z
#
# Youngs Moduli (GPa) = 45.84247 108.91653 40.41755
#
# Poissons Ratio (x) = 0.69749 -0.19306
# Poissons Ratio (y) = 0.29357 0.22673
# Poissons Ratio (z) = -0.21897 0.61098
#
# Static dielectric constant tensor:
#      x y z
#    x 2.120450 0.000000 0.000000 
#    y 0.000000 2.249120 0.000000 
#    z 0.000000 0.000000 2.275370 
# 
# From -- ./inp_files/2005.got.cif
#   From: 2010.05.17/outbox.cif.g08.bks.cpg/sg29_2_cif.got.tgz:2005.got - 2010.06.04 01:19:37.
