data_PCOD9341388
_publ_section_title
;
Structure prediction by ZEFSAII (Michael W. Deem and Ramdas Pophale) SiO2 
 PCOD9341388
Probable space group: P C A 21
;
_chemical_formula_sum "Si O2"
_cell_formula_units_Z 28
_cell_length_a 9.324879
_cell_length_b 5.948851
_cell_length_c 21.230409
_cell_angle_alpha 90.000000
_cell_angle_beta 90.000000
_cell_angle_gamma 90.000000
_cell_volume 1177.699952
_symmetry_space_group_name_H-M "P C A 21"
_symmetry_group_IT_number 29
_symmetry_cell_setting 'orthorhombic'
loop_
_space_group_symop_operation_xyz
x,y,z
-x,-y,1/2+z
1/2-x,y,1/2+z
1/2+x,-y,z
loop_
_atom_site_type_symbol
_atom_site_label
_atom_site_fract_x
_atom_site_fract_y
_atom_site_fract_z
Si Si1 0.614836 0.497496 0.522930
Si Si2 0.855813 0.223309 0.282259
Si Si3 0.608421 0.508754 0.348480
Si Si4 0.234597 0.127068 0.096006
Si Si5 0.545689 0.197088 0.644259
Si Si6 0.146246 0.805844 0.986461
Si Si7 0.857490 0.831365 0.376342
O O1 0.732080 0.670270 0.549596
O O2 0.563798 0.366064 0.585617
O O3 0.485645 0.634286 0.491755
O O4 0.702902 0.323256 0.480433
O O5 0.719786 0.361671 0.307516
O O6 0.871107 0.251387 0.207628
O O7 0.000932 0.330398 0.310178
O O8 0.847056 0.970711 0.310608
O O9 0.715306 0.679459 0.385249
O O10 0.495135 0.330110 0.376864
O O11 0.124522 0.179061 0.151646
O O12 0.383125 0.035047 0.121885
O O13 0.161573 0.938145 0.052199
O O14 0.129123 0.981279 0.930359
#
# Coordination Sequence:
#
# PCOD9341388 Si02
#       7
#     4   4   4   4   4   4   4
#     4  11  24  48  72 110 149 200 245 303 378 435
#     4  11  26  45  75 111 151 197 247 303 373 443
#     4  10  26  50  70 111 145 194 249 301 386 432
#     4  11  24  45  69 109 149 199 245 301 366 429
#     4  11  26  43  75 108 154 193 253 304 363 446
#     4  11  26  48  75 107 152 195 252 305 373 450
#     4  11  26  51  76 108 146 198 249 311 375 449
#
# _framework density 23.775155999999999
#
# number of rings (size 3 to 8) (size 9 to 14) (size 15 to 20)
#    0.000    1.143    2.857    0.857    6.000    6.857 
#    2.571    2.857    0.000    0.000    0.000    0.000 
#    0.000    0.000    0.000    0.000    0.000    0.000 
#
# Total GULP energy -156772.766544 kJ/mol
# GULP energy per Si atom -5599.027377 kJ/mol
# Density = 2.372104 g / cm^3
# Si number density = 23.775156 Si / 1000 Ang^3
#
#
#
# Elastic Constant Matrix: (Units=GPa)
#
#
# Indices 1 2 3 4 5 6 
#
# 1 140.7782 40.0414 18.0465 0.0000 0.0000 0.0000
# 2 40.0414 101.8376 21.2184 0.0000 0.0000 0.0000
# 3 18.0465 21.2184 50.6615 0.0000 0.0000 0.0000
# 4 0.0000 0.0000 0.0000 14.5775 0.0000 0.0000
# 5 0.0000 0.0000 0.0000 0.0000 6.1141 0.0000
# 6 0.0000 0.0000 0.0000 0.0000 0.0000 43.8925
#
#
#
# Elastic Compliance Matrix: (Units=1/GPa)
#
#
# Indices 1 2 3 4 5 6 
#
# 1 0.008130 -0.002841 -0.001706 0.000000 0.000000 0.000000
# 2 -0.002841 0.011751 -0.003910 0.000000 0.000000 0.000000
# 3 -0.001706 -0.003910 0.021984 0.000000 0.000000 0.000000
# 4 0.000000 0.000000 0.000000 0.068599 0.000000 0.000000
# 5 0.000000 0.000000 0.000000 0.000000 0.163556 0.000000
# 6 0.000000 0.000000 0.000000 0.000000 0.000000 0.022783
#
#
# Mechanical properties :
#
#
# Convention : Reuss Voigt Hill
#
# Bulk Modulus (GPa) = 40.07771 50.20999 45.14385
# Shear Modulus (GPa) = 15.52629 27.18155 21.35392
#
# Velocity S-wave (km/s) = 2.55825 3.38490 3.00019
# Velocity P-wave (km/s) = 5.06160 6.03666 5.57051
#
# Compressibility (1/GPa) = 0.02495152
#
# Stress axis : x y z
#
# Youngs Moduli (GPa) = 122.99807 85.09705 45.48744
#
# Poissons Ratio (x) = 0.24178 0.07761
# Poissons Ratio (y) = 0.34946 0.17784
# Poissons Ratio (z) = 0.20985 0.33270
#
# Static dielectric constant tensor:
#      x y z
#    x 1.873240 0.000000 0.000000 
#    y 0.000000 1.904120 0.000000 
#    z 0.000000 0.000000 1.954270 
# 
# From -- ./inp_files/5671.got.cif
#   From: 2010.05.17/outbox.cif.g08.bks.cpg/sg29_3_cif.got.tgz:5671.got - 2010.06.04 01:19:37.
