data_PCOD9341152
_publ_section_title
;
Structure prediction by ZEFSAII (Michael W. Deem and Ramdas Pophale) SiO2 
 PCOD9341152
Probable space group: P C A 21
;
_chemical_formula_sum "Si O2"
_cell_formula_units_Z 32
_cell_length_a 9.873733
_cell_length_b 14.063279
_cell_length_c 9.170296
_cell_angle_alpha 90.000000
_cell_angle_beta 90.000000
_cell_angle_gamma 90.000000
_cell_volume 1273.360360
_symmetry_space_group_name_H-M "P C A 21"
_symmetry_group_IT_number 29
_symmetry_cell_setting 'orthorhombic'
loop_
_space_group_symop_operation_xyz
x,y,z
-x,-y,1/2+z
1/2-x,y,1/2+z
1/2+x,-y,z
loop_
_atom_site_type_symbol
_atom_site_label
_atom_site_fract_x
_atom_site_fract_y
_atom_site_fract_z
Si Si1 0.892858 0.898542 0.047280
Si Si2 0.669636 0.041370 0.115196
Si Si3 0.313369 0.832091 0.884711
Si Si4 0.147595 0.668446 0.718078
Si Si5 0.402802 0.260475 0.849779
Si Si6 0.953431 0.589347 0.086480
Si Si7 0.587334 0.743112 0.807221
Si Si8 0.721841 0.452706 0.985567
O O1 0.901270 0.817429 0.171871
O O2 0.013607 0.970906 0.075571
O O3 0.751941 0.949488 0.069533
O O4 0.921065 0.849114 0.892454
O O5 0.677907 0.074264 0.281856
O O6 0.734094 0.130099 0.025144
O O7 0.226563 0.754425 0.795533
O O8 0.464581 0.787948 0.899898
O O9 0.211072 0.639202 0.564404
O O10 0.989544 0.699828 0.714928
O O11 0.180949 0.576172 0.821359
O O12 0.241063 0.270072 0.860645
O O13 0.473392 0.322823 0.975895
O O14 0.948798 0.639084 0.242899
O O15 0.826428 0.535547 0.018793
O O16 0.083794 0.524157 0.070714
#
# Coordination Sequence:
#
# PCOD9341152 Si02
#       8
#     4   4   4   4   4   4   4   4
#     4  10  24  43  63  99 135 171 219 286 328 399
#     4  11  25  41  70  98 134 172 228 275 335 396
#     4  11  23  45  69  95 134 181 221 272 338 407
#     4  11  23  45  69  95 134 181 221 272 338 407
#     4  10  23  44  66  92 139 174 224 272 342 397
#     4  10  24  43  63  99 135 171 219 286 328 399
#     4  10  23  44  66  92 139 174 224 272 342 397
#     4  11  25  41  70  98 134 172 228 275 335 396
#
# _framework density 25.130355999999999
#
# number of rings (size 3 to 8) (size 9 to 14) (size 15 to 20)
#    0.000    1.500    2.500    0.750    7.000    4.000 
#    4.500    0.000    0.000    0.000    0.000    0.000 
#    0.000    0.000    0.000    0.000    0.000    0.000 
#
# Total GULP energy -178938.968367 kJ/mol
# GULP energy per Si atom -5591.842761 kJ/mol
# Density = 2.507316 g / cm^3
# Si number density = 25.130356 Si / 1000 Ang^3
#
#
#
# Elastic Constant Matrix: (Units=GPa)
#
#
# Indices 1 2 3 4 5 6 
#
# 1 101.7681 0.7642 -26.3720 0.0000 0.0000 0.0000
# 2 0.7642 68.7394 -8.6345 0.0000 0.0000 0.0000
# 3 -26.3720 -8.6345 42.9884 0.0000 0.0000 0.0000
# 4 0.0000 0.0000 0.0000 17.8007 0.0000 0.0000
# 5 0.0000 0.0000 0.0000 0.0000 24.1738 0.0000
# 6 0.0000 0.0000 0.0000 0.0000 0.0000 52.5665
#
#
#
# Elastic Compliance Matrix: (Units=1/GPa)
#
#
# Indices 1 2 3 4 5 6 
#
# 1 0.011726 0.000793 0.007353 0.000000 0.000000 0.000000
# 2 0.000793 0.014978 0.003495 0.000000 0.000000 0.000000
# 3 0.007353 0.003495 0.028475 0.000000 0.000000 0.000000
# 4 0.000000 0.000000 0.000000 0.056178 0.000000 0.000000
# 5 0.000000 0.000000 0.000000 0.000000 0.041367 0.000000
# 6 0.000000 0.000000 0.000000 0.000000 0.000000 0.019024
#
#
# Mechanical properties :
#
#
# Convention : Reuss Voigt Hill
#
# Bulk Modulus (GPa) = 12.74535 16.11237 14.42886
# Shear Modulus (GPa) = 28.63392 35.42408 32.02900
#
# Velocity S-wave (km/s) = 3.37918 3.75855 3.57391
# Velocity P-wave (km/s) = 4.50643 5.02604 4.77331
#
# Compressibility (1/GPa) = 0.07845999
#
# Stress axis : x y z
#
# Youngs Moduli (GPa) = 85.28312 66.76502 35.11891
#
# Poissons Ratio (x) = -0.05296 -0.25822
# Poissons Ratio (y) = -0.06765 -0.12274
# Poissons Ratio (z) = -0.62706 -0.23335
#
# Static dielectric constant tensor:
#      x y z
#    x 1.979290 0.000000 0.000000 
#    y 0.000000 1.999620 0.000000 
#    z 0.000000 0.000000 2.037310 
# 
# From -- ./inp_files/2913.got.cif
#   From: 2010.05.17/outbox.cif.g08.bks.cpg/sg29_2_cif.got.tgz:2913.got - 2010.06.04 01:19:37.
