data_PCOD9341045
_publ_section_title
;
Structure prediction by ZEFSAII (Michael W. Deem and Ramdas Pophale) SiO2 
 PCOD9341045
Probable space group: P C A 21
;
_chemical_formula_sum "Si O2"
_cell_formula_units_Z 28
_cell_length_a 17.703772
_cell_length_b 5.021322
_cell_length_c 11.763463
_cell_angle_alpha 90.000000
_cell_angle_beta 90.000000
_cell_angle_gamma 90.000000
_cell_volume 1045.728804
_symmetry_space_group_name_H-M "P C A 21"
_symmetry_group_IT_number 29
_symmetry_cell_setting 'orthorhombic'
loop_
_space_group_symop_operation_xyz
x,y,z
-x,-y,1/2+z
1/2-x,y,1/2+z
1/2+x,-y,z
loop_
_atom_site_type_symbol
_atom_site_label
_atom_site_fract_x
_atom_site_fract_y
_atom_site_fract_z
Si Si1 0.969332 0.910198 0.698490
Si Si2 0.682562 0.949261 0.686495
Si Si3 0.573441 0.761387 0.867107
Si Si4 0.008619 0.407806 0.547037
Si Si5 0.222004 0.301005 0.994920
Si Si6 0.157657 0.641846 0.506652
Si Si7 0.816553 0.013513 0.812015
O O1 0.980303 0.129531 0.597580
O O2 0.882075 0.899637 0.734103
O O3 0.017404 0.019398 0.809157
O O4 0.991246 0.624796 0.646128
O O5 0.638725 0.146906 0.604798
O O6 0.739002 0.131095 0.761046
O O7 0.631596 0.748814 0.759692
O O8 0.744488 0.799196 0.612486
O O9 0.639234 0.794942 0.963600
O O10 0.527758 0.524280 0.929687
O O11 0.098557 0.406063 0.526538
O O12 0.279527 0.201116 0.897034
O O13 0.250722 0.605902 0.005057
O O14 0.140958 0.767760 0.386054
#
# Coordination Sequence:
#
# PCOD9341045 Si02
#       7
#     4   4   4   4   4   4   4
#     4  12  27  48  74 109 151 195 250 311 376 447
#     4  10  22  46  68 104 142 193 241 306 376 444
#     4  11  24  48  74 109 149 205 246 320 382 447
#     4  12  28  46  74 111 149 193 255 306 374 457
#     4  10  24  44  71 105 146 190 256 302 371 455
#     4  11  23  42  71 101 143 184 245 306 362 452
#     4  10  24  42  70  99 142 190 239 301 375 434
#
# _framework density 26.775585
#
# number of rings (size 3 to 8) (size 9 to 14) (size 15 to 20)
#    0.000    1.143    2.857    1.714    6.000    4.571 
#    5.143    0.000    0.000    0.000    0.000    0.000 
#    0.000    0.000    0.000    0.000    0.000    0.000 
#
# Total GULP energy -156201.742822 kJ/mol
# GULP energy per Si atom -5578.633672 kJ/mol
# Density = 2.671464 g / cm^3
# Si number density = 26.775585 Si / 1000 Ang^3
#
#
#
# Elastic Constant Matrix: (Units=GPa)
#
#
# Indices 1 2 3 4 5 6 
#
# 1 163.3115 29.0007 39.0879 0.0000 0.0000 0.0000
# 2 29.0007 78.2728 19.2371 0.0000 0.0000 0.0000
# 3 39.0879 19.2371 81.3226 0.0000 0.0000 0.0000
# 4 0.0000 0.0000 0.0000 21.3873 0.0000 0.0000
# 5 0.0000 0.0000 0.0000 0.0000 52.3396 0.0000
# 6 0.0000 0.0000 0.0000 0.0000 0.0000 32.3551
#
#
#
# Elastic Compliance Matrix: (Units=1/GPa)
#
#
# Indices 1 2 3 4 5 6 
#
# 1 0.007182 -0.001925 -0.002997 0.000000 0.000000 0.000000
# 2 -0.001925 0.014080 -0.002406 0.000000 0.000000 0.000000
# 3 -0.002997 -0.002406 0.014306 0.000000 0.000000 0.000000
# 4 0.000000 0.000000 0.000000 0.046757 0.000000 0.000000
# 5 0.000000 0.000000 0.000000 0.000000 0.019106 0.000000
# 6 0.000000 0.000000 0.000000 0.000000 0.000000 0.030907
#
#
# Mechanical properties :
#
#
# Convention : Reuss Voigt Hill
#
# Bulk Modulus (GPa) = 47.81392 55.28425 51.54909
# Shear Modulus (GPa) = 32.47505 36.92179 34.69842
#
# Velocity S-wave (km/s) = 3.48639 3.71743 3.60376
# Velocity P-wave (km/s) = 5.83975 6.25442 6.05064
#
# Compressibility (1/GPa) = 0.02091441
#
# Stress axis : x y z
#
# Youngs Moduli (GPa) = 139.23048 71.02204 69.89945
#
# Poissons Ratio (x) = 0.13669 0.20948
# Poissons Ratio (y) = 0.26796 0.16815
# Poissons Ratio (z) = 0.41727 0.17086
#
# Static dielectric constant tensor:
#      x y z
#    x 2.099710 0.000000 0.000000 
#    y 0.000000 2.184700 0.000000 
#    z 0.000000 0.000000 2.280360 
# 
# From -- ./inp_files/3596.got.cif
#   From: 2010.05.17/outbox.cif.g08.bks.cpg/sg29_2_cif.got.tgz:3596.got - 2010.06.04 01:19:37.
