data_PCOD9341013
_publ_section_title
;
Structure prediction by ZEFSAII (Michael W. Deem and Ramdas Pophale) SiO2 
 PCOD9341013
Probable space group: P C A 21
;
_chemical_formula_sum "Si O2"
_cell_formula_units_Z 32
_cell_length_a 27.919063
_cell_length_b 5.013444
_cell_length_c 9.021174
_cell_angle_alpha 90.000000
_cell_angle_beta 90.000000
_cell_angle_gamma 90.000000
_cell_volume 1262.699669
_symmetry_space_group_name_H-M "P C A 21"
_symmetry_group_IT_number 29
_symmetry_cell_setting 'orthorhombic'
loop_
_space_group_symop_operation_xyz
x,y,z
-x,-y,1/2+z
1/2-x,y,1/2+z
1/2+x,-y,z
loop_
_atom_site_type_symbol
_atom_site_label
_atom_site_fract_x
_atom_site_fract_y
_atom_site_fract_z
Si Si1 0.906819 0.720014 0.905280
Si Si2 0.682977 0.970820 0.307101
Si Si3 0.162478 0.642611 0.549755
Si Si4 0.650405 0.268292 0.866126
Si Si5 0.907417 0.787960 0.421073
Si Si6 0.972894 0.505859 0.665623
Si Si7 0.743857 0.118262 0.026510
Si Si8 0.033586 0.007790 0.639308
O O1 0.864654 0.799908 0.791261
O O2 0.944774 0.537188 0.820371
O O3 0.874201 0.596448 0.035472
O O4 0.936681 0.950738 0.987958
O O5 0.661298 0.236425 0.383642
O O6 0.714367 0.003516 0.162830
O O7 0.721245 0.910680 0.439906
O O8 0.145107 0.807479 0.692613
O O9 0.219593 0.647814 0.576716
O O10 0.633123 0.569858 0.882834
O O11 0.618890 0.064032 0.961861
O O12 0.704863 0.232252 0.914587
O O13 0.940226 0.642901 0.541051
O O14 0.939875 0.869550 0.281433
O O15 0.987685 0.205784 0.627088
O O16 0.018903 0.703650 0.669118
#
# Coordination Sequence:
#
# PCOD9341013 Si02
#       8
#     4   4   4   4   4   4   4   4
#     4  12  26  44  74 102 140 196 240 305 371 436
#     4  10  23  43  68 100 145 186 242 288 355 423
#     4  10  23  44  65 100 141 188 233 288 348 425
#     4  12  24  46  70 102 145 186 238 287 349 427
#     4  12  26  44  72 103 137 188 233 294 361 421
#     4  12  28  46  72 107 139 182 242 305 364 435
#     4  10  22  44  68 104 144 190 240 290 349 419
#     4  12  26  47  73 100 143 184 238 301 369 440
#
# _framework density 25.34253
#
# number of rings (size 3 to 8) (size 9 to 14) (size 15 to 20)
#    0.750    0.000    2.500    4.500    5.250    1.000 
#    4.500    0.000    0.000    0.000    0.000    0.000 
#    0.000    0.000    0.000    0.000    0.000    0.000 
#
# Total GULP energy -178797.676043 kJ/mol
# GULP energy per Si atom -5587.427376 kJ/mol
# Density = 2.528485 g / cm^3
# Si number density = 25.342530 Si / 1000 Ang^3
#
#
#
# Elastic Constant Matrix: (Units=GPa)
#
#
# Indices 1 2 3 4 5 6 
#
# 1 119.7514 20.1700 27.6333 0.0000 0.0000 0.0000
# 2 20.1700 70.5526 3.3706 0.0000 0.0000 0.0000
# 3 27.6333 3.3706 92.6376 0.0000 0.0000 0.0000
# 4 0.0000 0.0000 0.0000 19.1269 0.0000 0.0000
# 5 0.0000 0.0000 0.0000 0.0000 38.6387 0.0000
# 6 0.0000 0.0000 0.0000 0.0000 0.0000 28.5271
#
#
#
# Elastic Compliance Matrix: (Units=1/GPa)
#
#
# Indices 1 2 3 4 5 6 
#
# 1 0.009408 -0.002560 -0.002713 0.000000 0.000000 0.000000
# 2 -0.002560 0.014895 0.000222 0.000000 0.000000 0.000000
# 3 -0.002713 0.000222 0.011596 0.000000 0.000000 0.000000
# 4 0.000000 0.000000 0.000000 0.052282 0.000000 0.000000
# 5 0.000000 0.000000 0.000000 0.000000 0.025881 0.000000
# 6 0.000000 0.000000 0.000000 0.000000 0.000000 0.035054
#
#
# Mechanical properties :
#
#
# Convention : Reuss Voigt Hill
#
# Bulk Modulus (GPa) = 38.76564 42.80994 40.78779
# Shear Modulus (GPa) = 29.79413 32.70971 31.25192
#
# Velocity S-wave (km/s) = 3.43251 3.59653 3.51548
# Velocity P-wave (km/s) = 5.57130 5.84602 5.71031
#
# Compressibility (1/GPa) = 0.02579604
#
# Stress axis : x y z
#
# Youngs Moduli (GPa) = 106.29369 67.13618 86.23653
#
# Poissons Ratio (x) = 0.17187 0.23398
# Poissons Ratio (y) = 0.27211 -0.01912
# Poissons Ratio (z) = 0.28839 -0.01488
#
# Static dielectric constant tensor:
#      x y z
#    x 2.032790 0.000000 0.000000 
#    y 0.000000 2.027730 0.000000 
#    z 0.000000 0.000000 2.031860 
# 
# From -- ./inp_files/2626.got.cif
#   From: 2010.05.17/outbox.cif.g08.bks.cpg/sg29_2_cif.got.tgz:2626.got - 2010.06.04 01:19:37.
