data_PCOD9341239
_publ_section_title
;
Structure prediction by ZEFSAII (Michael W. Deem and Ramdas Pophale) SiO2 
 PCOD9341239
Probable space group: P C A 21
;
_chemical_formula_sum "Si O2"
_cell_formula_units_Z 28
_cell_length_a 10.193385
_cell_length_b 12.177230
_cell_length_c 11.142289
_cell_angle_alpha 90.000000
_cell_angle_beta 90.000000
_cell_angle_gamma 90.000000
_cell_volume 1383.061064
_symmetry_space_group_name_H-M "P C A 21"
_symmetry_group_IT_number 29
_symmetry_cell_setting 'orthorhombic'
loop_
_space_group_symop_operation_xyz
x,y,z
-x,-y,1/2+z
1/2-x,y,1/2+z
1/2+x,-y,z
loop_
_atom_site_type_symbol
_atom_site_label
_atom_site_fract_x
_atom_site_fract_y
_atom_site_fract_z
Si Si1 0.771632 0.946943 0.297300
Si Si2 0.340569 0.129242 0.041431
Si Si3 0.376682 0.520235 0.846445
Si Si4 0.704241 0.640528 0.542915
Si Si5 0.373447 0.562696 0.208860
Si Si6 0.494300 0.701405 0.022353
Si Si7 0.454240 0.938682 0.908561
O O1 0.730646 0.866161 0.409377
O O2 0.759467 0.906593 0.160278
O O3 0.923583 0.966831 0.324043
O O4 0.677354 0.048279 0.329317
O O5 0.385475 0.253006 0.067981
O O6 0.442677 0.032074 0.012122
O O7 0.486149 0.480905 0.753389
O O8 0.243212 0.577967 0.803036
O O9 0.453408 0.605225 0.930759
O O10 0.329087 0.410989 0.914720
O O11 0.681841 0.537945 0.629448
O O12 0.852798 0.683302 0.551734
O O13 0.404323 0.673200 0.136538
O O14 0.469116 0.819949 0.966627
#
# Coordination Sequence:
#
# PCOD9341239 Si02
#       7
#     4   4   4   4   4   4   4
#     4  10  24  42  68 101 135 179 228 283 344 407
#     4  10  25  43  72  99 135 180 236 273 351 414
#     4  11  24  42  65 100 130 176 224 286 337 413
#     4  11  23  42  70  96 130 184 226 275 350 420
#     4  11  24  41  67  96 134 175 228 279 344 406
#     4  11  22  42  66  96 136 175 227 275 346 408
#     4  10  24  44  66  98 138 179 225 289 340 416
#
# _framework density 20.244949999999999
#
# number of rings (size 3 to 8) (size 9 to 14) (size 15 to 20)
#    0.857    0.571    4.286    0.000    6.000    1.143 
#    7.714    0.000    0.000    0.000    0.000    0.000 
#    0.000    0.000    0.000    0.000    0.000    0.000 
#
# Total GULP energy -155897.331660 kJ/mol
# GULP energy per Si atom -5567.761845 kJ/mol
# Density = 2.019887 g / cm^3
# Si number density = 20.244950 Si / 1000 Ang^3
#
#
#
# Elastic Constant Matrix: (Units=GPa)
#
#
# Indices 1 2 3 4 5 6 
#
# 1 61.3965 33.9953 23.1828 0.0000 0.0000 0.0000
# 2 33.9953 69.8630 15.7933 0.0000 0.0000 0.0000
# 3 23.1828 15.7933 51.1913 0.0000 0.0000 0.0000
# 4 0.0000 0.0000 0.0000 19.2679 0.0000 0.0000
# 5 0.0000 0.0000 0.0000 0.0000 23.3931 0.0000
# 6 0.0000 0.0000 0.0000 0.0000 0.0000 10.9848
#
#
#
# Elastic Compliance Matrix: (Units=1/GPa)
#
#
# Indices 1 2 3 4 5 6 
#
# 1 0.025119 -0.010375 -0.008175 0.000000 0.000000 0.000000
# 2 -0.010375 0.019672 -0.001371 0.000000 0.000000 0.000000
# 3 -0.008175 -0.001371 0.023659 0.000000 0.000000 0.000000
# 4 0.000000 0.000000 0.000000 0.051900 0.000000 0.000000
# 5 0.000000 0.000000 0.000000 0.000000 0.042748 0.000000
# 6 0.000000 0.000000 0.000000 0.000000 0.000000 0.091035
#
#
# Mechanical properties :
#
#
# Convention : Reuss Voigt Hill
#
# Bulk Modulus (GPa) = 34.95294 36.48816 35.72055
# Shear Modulus (GPa) = 16.47396 18.02780 17.25088
#
# Velocity S-wave (km/s) = 2.85569 2.98733 2.92226
# Velocity P-wave (km/s) = 5.30809 5.47370 5.39153
#
# Compressibility (1/GPa) = 0.02860990
#
# Stress axis : x y z
#
# Youngs Moduli (GPa) = 39.81083 50.83373 42.26634
#
# Poissons Ratio (x) = 0.52739 0.34551
# Poissons Ratio (y) = 0.41303 0.05794
# Poissons Ratio (z) = 0.32544 0.06968
#
# Static dielectric constant tensor:
#      x y z
#    x 1.769620 0.000000 0.000000 
#    y 0.000000 1.693070 0.000000 
#    z 0.000000 0.000000 1.797980 
# 
# From -- ./inp_files/3194.got.cif
#   From: 2010.05.17/outbox.cif.g08.bks.cpg/sg29_2_cif.got.tgz:3194.got - 2010.06.04 01:19:37.
