data_PCOD9341082
_publ_section_title
;
Structure prediction by ZEFSAII (Michael W. Deem and Ramdas Pophale) SiO2 
 PCOD9341082
Probable space group: P C A 21
;
_chemical_formula_sum "Si O2"
_cell_formula_units_Z 32
_cell_length_a 18.438007
_cell_length_b 8.857985
_cell_length_c 7.634545
_cell_angle_alpha 90.000000
_cell_angle_beta 90.000000
_cell_angle_gamma 90.000000
_cell_volume 1246.901293
_symmetry_space_group_name_H-M "P C A 21"
_symmetry_group_IT_number 29
_symmetry_cell_setting 'orthorhombic'
loop_
_space_group_symop_operation_xyz
x,y,z
-x,-y,1/2+z
1/2-x,y,1/2+z
1/2+x,-y,z
loop_
_atom_site_type_symbol
_atom_site_label
_atom_site_fract_x
_atom_site_fract_y
_atom_site_fract_z
Si Si1 0.376456 0.126257 0.705610
Si Si2 0.973336 0.790030 0.994749
Si Si3 0.352786 0.813218 0.840593
Si Si4 0.424041 0.498327 0.886851
Si Si5 0.185301 0.842620 0.745110
Si Si6 0.569951 0.934737 0.860207
Si Si7 0.833592 0.486597 0.235924
Si Si8 0.812521 0.616095 0.598203
O O1 0.382112 0.948700 0.725906
O O2 0.428875 0.159944 0.540566
O O3 0.302085 0.208701 0.650782
O O4 0.396591 0.183761 0.897195
O O5 0.958232 0.839232 0.194619
O O6 0.990749 0.617556 0.928340
O O7 0.021851 0.916263 0.898321
O O8 0.410198 0.675744 0.844059
O O9 0.270632 0.808494 0.765973
O O10 0.338728 0.851540 0.043175
O O11 0.378215 0.433876 0.723209
O O12 0.387517 0.484911 0.078249
O O13 0.149931 0.990284 0.831449
O O14 0.154775 0.681323 0.810548
O O15 0.832779 0.598534 0.397539
O O16 0.755368 0.511607 0.143434
#
# Coordination Sequence:
#
# PCOD9341082 Si02
#       8
#     4   4   4   4   4   4   4   4
#     4  11  25  40  68 100 131 178 221 286 347 406
#     4  11  24  47  68  98 130 186 237 289 343 407
#     4  11  22  42  63 106 143 171 226 283 354 432
#     4  10  23  40  66  91 139 177 222 282 342 408
#     4  11  23  38  67  98 137 183 220 284 359 415
#     4  12  24  46  73  96 141 181 239 298 344 408
#     4  11  20  39  61  94 136 174 216 275 337 419
#     4  11  21  36  62  93 129 176 215 259 344 409
#
# _framework density 25.663619000000001
#
# number of rings (size 3 to 8) (size 9 to 14) (size 15 to 20)
#    0.000    1.000    5.000    2.250    1.750    3.000 
#    0.000    2.500    0.000    0.000    0.000    0.000 
#    0.000    0.000    0.000    0.000    0.000    0.000 
#
# Total GULP energy -178414.604486 kJ/mol
# GULP energy per Si atom -5575.456390 kJ/mol
# Density = 2.560521 g / cm^3
# Si number density = 25.663619 Si / 1000 Ang^3
#
#
#
# Elastic Constant Matrix: (Units=GPa)
#
#
# Indices 1 2 3 4 5 6 
#
# 1 49.9647 16.9346 0.9552 0.0000 0.0000 0.0000
# 2 16.9346 94.7893 34.6807 0.0000 0.0000 0.0000
# 3 0.9552 34.6807 87.8375 0.0000 0.0000 0.0000
# 4 0.0000 0.0000 0.0000 25.6309 0.0000 0.0000
# 5 0.0000 0.0000 0.0000 0.0000 34.7346 0.0000
# 6 0.0000 0.0000 0.0000 0.0000 0.0000 25.4425
#
#
#
# Elastic Compliance Matrix: (Units=1/GPa)
#
#
# Indices 1 2 3 4 5 6 
#
# 1 0.021471 -0.004384 0.001497 0.000000 0.000000 0.000000
# 2 -0.004384 0.013226 -0.005174 0.000000 0.000000 0.000000
# 3 0.001497 -0.005174 0.013411 0.000000 0.000000 0.000000
# 4 0.000000 0.000000 0.000000 0.039015 0.000000 0.000000
# 5 0.000000 0.000000 0.000000 0.000000 0.028790 0.000000
# 6 0.000000 0.000000 0.000000 0.000000 0.000000 0.039304
#
#
# Mechanical properties :
#
#
# Convention : Reuss Voigt Hill
#
# Bulk Modulus (GPa) = 31.26259 37.52584 34.39422
# Shear Modulus (GPa) = 27.47222 29.16301 28.31761
#
# Velocity S-wave (km/s) = 3.27536 3.37464 3.32537
# Velocity P-wave (km/s) = 5.14899 5.46244 5.30803
#
# Compressibility (1/GPa) = 0.03198711
#
# Stress axis : x y z
#
# Youngs Moduli (GPa) = 46.57380 75.60836 74.56371
#
# Poissons Ratio (x) = 0.33145 -0.11165
# Poissons Ratio (y) = 0.20417 0.38582
# Poissons Ratio (z) = -0.06974 0.39122
#
# Static dielectric constant tensor:
#      x y z
#    x 1.445960 0.000000 0.000000 
#    y 0.000000 2.251100 0.000000 
#    z 0.000000 0.000000 1.936640 
# 
# From -- ./inp_files/2305.got.cif
#   From: 2010.05.17/outbox.cif.g08.bks.cpg/sg29_2_cif.got.tgz:2305.got - 2010.06.04 01:19:37.
