data_PCOD9341707
_publ_section_title
;
Structure prediction by ZEFSAII (Michael W. Deem and Ramdas Pophale) SiO2 
 PCOD9341707
Probable space group: P C A 21
;
_chemical_formula_sum "Si O2"
_cell_formula_units_Z 24
_cell_length_a 9.151621
_cell_length_b 8.985305
_cell_length_c 11.930196
_cell_angle_alpha 90.000000
_cell_angle_beta 90.000000
_cell_angle_gamma 90.000000
_cell_volume 981.021281
_symmetry_space_group_name_H-M "P C A 21"
_symmetry_group_IT_number 29
_symmetry_cell_setting 'orthorhombic'
loop_
_space_group_symop_operation_xyz
x,y,z
-x,-y,1/2+z
1/2-x,y,1/2+z
1/2+x,-y,z
loop_
_atom_site_type_symbol
_atom_site_label
_atom_site_fract_x
_atom_site_fract_y
_atom_site_fract_z
Si Si1 0.837035 0.259407 0.415190
Si Si2 0.803372 0.840508 0.506936
Si Si3 0.507631 0.952948 0.582269
Si Si4 0.235974 0.480727 0.580462
Si Si5 0.981604 0.219945 0.814313
Si Si6 0.509150 0.553402 0.237987
O O1 0.919190 0.134251 0.485855
O O2 0.805318 0.395336 0.500841
O O3 0.681323 0.206630 0.365314
O O4 0.941973 0.320333 0.316448
O O5 0.673446 0.950328 0.541529
O O6 0.734055 0.677541 0.520017
O O7 0.887166 0.843011 0.389518
O O8 0.935511 0.884356 0.591295
O O9 0.489433 0.861621 0.695714
O O10 0.325077 0.446249 0.695054
O O11 0.081706 0.540829 0.622547
O O12 0.006679 0.395855 0.800632
#
# Coordination Sequence:
#
# PCOD9341707 Si02
#       6
#     4   4   4   4   4   4
#     4  12  25  46  76 109 152 190 246 311 368 443
#     4  12  28  48  76 104 152 197 251 304 371 445
#     4  12  29  51  73 110 152 200 247 309 371 451
#     4  12  24  44  72 109 144 191 242 309 366 435
#     4  12  26  48  74 111 147 194 252 299 378 442
#     4  12  24  41  73 109 145 186 242 304 370 434
#
# _framework density 24.464299
#
# number of rings (size 3 to 8) (size 9 to 14) (size 15 to 20)
#    0.000    0.000    6.667    2.000    4.667    5.333 
#    0.000    0.000    0.000    0.000    0.000    0.000 
#    0.000    0.000    0.000    0.000    0.000    0.000 
#
# Total GULP energy -134472.624135 kJ/mol
# GULP energy per Si atom -5603.026006 kJ/mol
# Density = 2.440862 g / cm^3
# Si number density = 24.464299 Si / 1000 Ang^3
#
#
#
# Elastic Constant Matrix: (Units=GPa)
#
#
# Indices 1 2 3 4 5 6 
#
# 1 114.9511 2.5213 44.6603 0.0000 0.0000 0.0000
# 2 2.5213 53.4600 21.2700 0.0000 0.0000 0.0000
# 3 44.6603 21.2700 119.5302 0.0000 0.0000 0.0000
# 4 0.0000 0.0000 0.0000 24.3156 0.0000 0.0000
# 5 0.0000 0.0000 0.0000 0.0000 38.3383 0.0000
# 6 0.0000 0.0000 0.0000 0.0000 0.0000 36.4554
#
#
#
# Elastic Compliance Matrix: (Units=1/GPa)
#
#
# Indices 1 2 3 4 5 6 
#
# 1 0.010238 0.001118 -0.004024 0.000000 0.000000 0.000000
# 2 0.001118 0.020253 -0.004022 0.000000 0.000000 0.000000
# 3 -0.004024 -0.004022 0.010585 0.000000 0.000000 0.000000
# 4 0.000000 0.000000 0.000000 0.041126 0.000000 0.000000
# 5 0.000000 0.000000 0.000000 0.000000 0.026084 0.000000
# 6 0.000000 0.000000 0.000000 0.000000 0.000000 0.027431
#
#
# Mechanical properties :
#
#
# Convention : Reuss Voigt Hill
#
# Bulk Modulus (GPa) = 36.73634 47.20495 41.97064
# Shear Modulus (GPa) = 31.51664 34.45450 32.98557
#
# Velocity S-wave (km/s) = 3.59314 3.75688 3.67592
# Velocity P-wave (km/s) = 5.68006 6.17707 5.93377
#
# Compressibility (1/GPa) = 0.02722100
#
# Stress axis : x y z
#
# Youngs Moduli (GPa) = 97.67190 49.37547 94.46982
#
# Poissons Ratio (x) = -0.05522 0.38018
# Poissons Ratio (y) = -0.10923 0.37994
# Poissons Ratio (z) = 0.39307 0.19858
#
# Static dielectric constant tensor:
#      x y z
#    x 1.933500 0.000000 0.000000 
#    y 0.000000 1.956460 0.000000 
#    z 0.000000 0.000000 1.926760 
# 
# From -- ./inp_files/2806.got.cif
#   From: 2010.05.17/outbox.cif.g08.bks.cpg/sg29_2_cif.got.tgz:2806.got - 2010.06.04 01:19:37.
