data_PCOD9341098
_publ_section_title
;
Structure prediction by ZEFSAII (Michael W. Deem and Ramdas Pophale) SiO2 
 PCOD9341098
Probable space group: P C A 21
;
_chemical_formula_sum "Si O2"
_cell_formula_units_Z 24
_cell_length_a 16.317782
_cell_length_b 5.540899
_cell_length_c 11.532827
_cell_angle_alpha 90.000000
_cell_angle_beta 90.000000
_cell_angle_gamma 90.000000
_cell_volume 1042.742652
_symmetry_space_group_name_H-M "P C A 21"
_symmetry_group_IT_number 29
_symmetry_cell_setting 'orthorhombic'
loop_
_space_group_symop_operation_xyz
x,y,z
-x,-y,1/2+z
1/2-x,y,1/2+z
1/2+x,-y,z
loop_
_atom_site_type_symbol
_atom_site_label
_atom_site_fract_x
_atom_site_fract_y
_atom_site_fract_z
Si Si1 0.072767 0.169660 0.964580
Si Si2 0.664369 0.836190 0.732757
Si Si3 0.529959 0.785877 0.568545
Si Si4 0.113813 0.496768 0.157215
Si Si5 0.721002 0.312546 0.623494
Si Si6 0.604050 0.421611 0.422308
O O1 0.140786 0.188660 0.866701
O O2 0.989451 0.318743 0.929690
O O3 0.108544 0.245186 0.089950
O O4 0.034855 0.910482 0.985933
O O5 0.579638 0.919012 0.668262
O O6 0.692364 0.568609 0.686382
O O7 0.718753 0.069722 0.701583
O O8 0.477775 0.592050 0.638921
O O9 0.597405 0.680129 0.483372
O O10 0.184993 0.640184 0.091397
O O11 0.132089 0.533336 0.292088
O O12 0.664943 0.280133 0.508429
#
# Coordination Sequence:
#
# PCOD9341098 Si02
#       6
#     4   4   4   4   4   4
#     4  11  24  41  72 103 134 192 246 295 348 433
#     4  11  25  47  71 100 144 184 240 292 354 427
#     4  10  23  41  70 101 132 189 238 290 347 425
#     4  11  26  43  70 103 145 188 239 296 370 429
#     4  11  27  48  68 106 145 190 228 300 370 424
#     4  10  23  44  69  99 146 183 243 295 355 428
#
# _framework density 23.016226
#
# number of rings (size 3 to 8) (size 9 to 14) (size 15 to 20)
#    0.000    1.333    3.333    0.000   11.667    0.000 
#    0.000    0.000    0.000    0.000    0.000    0.000 
#    0.000    0.000    0.000    0.000    0.000    0.000 
#
# Total GULP energy -133675.475057 kJ/mol
# GULP energy per Si atom -5569.811461 kJ/mol
# Density = 2.296384 g / cm^3
# Si number density = 23.016226 Si / 1000 Ang^3
#
#
#
# Elastic Constant Matrix: (Units=GPa)
#
#
# Indices 1 2 3 4 5 6 
#
# 1 56.1550 3.5592 4.6681 0.0000 0.0000 0.0000
# 2 3.5592 54.9583 23.4873 0.0000 0.0000 0.0000
# 3 4.6681 23.4873 109.6437 0.0000 0.0000 0.0000
# 4 0.0000 0.0000 0.0000 18.1415 0.0000 0.0000
# 5 0.0000 0.0000 0.0000 0.0000 24.6503 0.0000
# 6 0.0000 0.0000 0.0000 0.0000 0.0000 18.3659
#
#
#
# Elastic Compliance Matrix: (Units=1/GPa)
#
#
# Indices 1 2 3 4 5 6 
#
# 1 0.017913 -0.000918 -0.000566 0.000000 0.000000 0.000000
# 2 -0.000918 0.020076 -0.004262 0.000000 0.000000 0.000000
# 3 -0.000566 -0.004262 0.010057 0.000000 0.000000 0.000000
# 4 0.000000 0.000000 0.000000 0.055122 0.000000 0.000000
# 5 0.000000 0.000000 0.000000 0.000000 0.040567 0.000000
# 6 0.000000 0.000000 0.000000 0.000000 0.000000 0.054449
#
#
# Mechanical properties :
#
#
# Convention : Reuss Voigt Hill
#
# Bulk Modulus (GPa) = 27.35572 31.57624 29.46598
# Shear Modulus (GPa) = 22.53656 24.83438 23.68547
#
# Velocity S-wave (km/s) = 3.13255 3.28837 3.21140
# Velocity P-wave (km/s) = 4.99950 5.30723 5.15566
#
# Compressibility (1/GPa) = 0.03655542
#
# Stress axis : x y z
#
# Youngs Moduli (GPa) = 55.82505 49.80989 99.42894
#
# Poissons Ratio (x) = 0.04574 0.05627
# Poissons Ratio (y) = 0.05126 0.42372
# Poissons Ratio (z) = 0.03159 0.21227
#
# Static dielectric constant tensor:
#      x y z
#    x 1.905700 0.000000 0.000000 
#    y 0.000000 1.972740 0.000000 
#    z 0.000000 0.000000 1.861370 
# 
# From -- ./inp_files/3343.got.cif
#   From: 2010.05.17/outbox.cif.g08.bks.cpg/sg29_2_cif.got.tgz:3343.got - 2010.06.04 01:19:37.
