data_PCOD9341795
_publ_section_title
;
Structure prediction by ZEFSAII (Michael W. Deem and Ramdas Pophale) SiO2 
 PCOD9341795
Probable space group: P C A 21
;
_chemical_formula_sum "Si O2"
_cell_formula_units_Z 32
_cell_length_a 9.000000
_cell_length_b 15.000000
_cell_length_c 12.000000
_cell_angle_alpha 90.000000
_cell_angle_beta 90.000000
_cell_angle_gamma 90.000000
_cell_volume 1620.000000
_symmetry_space_group_name_H-M "P C A 21"
_symmetry_group_IT_number 29
_symmetry_cell_setting 'orthorhombic'
loop_
_space_group_symop_operation_xyz
x,y,z
-x,-y,1/2+z
1/2-x,y,1/2+z
1/2+x,-y,z
loop_
_atom_site_type_symbol
_atom_site_label
_atom_site_fract_x
_atom_site_fract_y
_atom_site_fract_z
Si Si1 0.651701 0.041030 0.199910
Si Si2 0.636676 0.603453 0.275874
Si Si3 0.062697 0.218289 0.428099
Si Si4 0.583973 0.032194 0.847405
Si Si5 0.496544 0.398182 0.315912
Si Si6 0.648036 0.884921 0.024406
Si Si7 0.855833 0.254707 0.638455
Si Si8 0.519864 0.303415 0.563656
O O1 0.744486 0.037640 0.314342
O O2 0.654958 0.146416 0.165710
O O3 0.490886 0.006479 0.236164
O O4 0.698868 0.959424 0.116588
O O5 0.593767 0.691772 0.353559
O O6 0.567140 0.501781 0.304622
O O7 0.818474 0.596336 0.284974
O O8 0.572403 0.637091 0.155024
O O9 0.213087 0.168152 0.469062
O O10 0.974777 0.132467 0.374072
O O11 0.967380 0.253446 0.533067
O O12 0.568223 0.954228 0.939351
O O13 0.576860 0.323875 0.232942
O O14 0.511273 0.354452 0.442065
O O15 0.546431 0.799090 0.059863
O O16 0.691639 0.290405 0.603565
#
# Coordination Sequence:
#
# PCOD9341795 Si02
#       8
#     4   4   4   4   4   4   4   4
#     4  12  25  42  71 104 153 199 255 312 373 461
#     4  12  29  53  82 114 151 207 259 330 393 465
#     4  12  26  48  75 110 159 202 265 321 389 464
#     4  12  26  41  70 106 152 200 256 310 375 456
#     4  12  30  53  83 113 153 202 262 323 397 464
#     4  12  25  47  70 109 149 212 250 310 383 464
#     4  12  28  46  78 114 157 200 261 325 389 460
#     4  12  29  50  81 114 156 198 260 321 391 466
#
# _framework density 19.753086
#
# number of rings (size 3 to 8) (size 9 to 14) (size 15 to 20)
#    0.000    0.000    3.750    5.250   10.500    0.000 
#    0.000    0.000    0.000    0.000    0.000    0.000 
#    0.000    0.000    0.000    0.000    0.000    0.000 
#
# Total GULP energy -178376.936538 kJ/mol
# GULP energy per Si atom -5574.279267 kJ/mol
# Density = 1.970813 g / cm^3
# Si number density = 19.753086 Si / 1000 Ang^3
#
#
#
# Elastic Constant Matrix: (Units=GPa)
#
#
# Indices 1 2 3 4 5 6 
#
# 1 131.8816 58.7375 57.9899 0.0000 0.0000 0.0000
# 2 58.7375 225.1642 80.5329 0.0000 0.0000 0.0000
# 3 57.9899 80.5329 131.0227 0.0000 0.0000 0.0000
# 4 0.0000 0.0000 0.0000 56.9136 0.0000 0.0000
# 5 0.0000 0.0000 0.0000 0.0000 39.4618 0.0000
# 6 0.0000 0.0000 0.0000 0.0000 0.0000 42.8644
#
#
#
# Elastic Compliance Matrix: (Units=1/GPa)
#
#
# Indices 1 2 3 4 5 6 
#
# 1 0.009692 -0.001274 -0.003506 0.000000 0.000000 0.000000
# 2 -0.001274 0.005860 -0.003038 0.000000 0.000000 0.000000
# 3 -0.003506 -0.003038 0.011051 0.000000 0.000000 0.000000
# 4 0.000000 0.000000 0.000000 0.017570 0.000000 0.000000
# 5 0.000000 0.000000 0.000000 0.000000 0.025341 0.000000
# 6 0.000000 0.000000 0.000000 0.000000 0.000000 0.023329
#
#
# Mechanical properties :
#
#
# Convention : Reuss Voigt Hill
#
# Bulk Modulus (GPa) = 91.18786 98.06547 94.62667
# Shear Modulus (GPa) = 44.58833 47.23517 45.91175
#
# Velocity S-wave (km/s) = 4.75624 4.89538 4.82631
# Velocity P-wave (km/s) = 8.74223 9.03916 8.89193
#
# Compressibility (1/GPa) = 0.01096637
#
# Stress axis : x y z
#
# Youngs Moduli (GPa) = 103.17946 170.64350 90.48553
#
# Poissons Ratio (x) = 0.21743 0.31728
# Poissons Ratio (y) = 0.13147 0.27490
# Poissons Ratio (z) = 0.36179 0.51842
#
# Static dielectric constant tensor:
#      x y z
#    x 1.724870 0.000000 0.000000 
#    y 0.000000 1.677770 0.000000 
#    z 0.000000 0.000000 1.765630 
# 
# From -- ./inp_files/2950.got.cif
#   From: 2010.05.17/outbox.ucp.g08.bks.cvg/sg29_2_cif.got.tgz:2950.got - 2010.06.11 15:24:14.
