data_PCOD9341429
_publ_section_title
;
Structure prediction by ZEFSAII (Michael W. Deem and Ramdas Pophale) SiO2 
 PCOD9341429
Probable space group: P C A 21
;
_chemical_formula_sum "Si O2"
_cell_formula_units_Z 28
_cell_length_a 6.947865
_cell_length_b 12.479171
_cell_length_c 11.746118
_cell_angle_alpha 90.000000
_cell_angle_beta 90.000000
_cell_angle_gamma 90.000000
_cell_volume 1018.430663
_symmetry_space_group_name_H-M "P C A 21"
_symmetry_group_IT_number 29
_symmetry_cell_setting 'orthorhombic'
loop_
_space_group_symop_operation_xyz
x,y,z
-x,-y,1/2+z
1/2-x,y,1/2+z
1/2+x,-y,z
loop_
_atom_site_type_symbol
_atom_site_label
_atom_site_fract_x
_atom_site_fract_y
_atom_site_fract_z
Si Si1 0.920565 0.303837 0.950650
Si Si2 0.629221 0.016985 0.795772
Si Si3 0.530884 0.627270 0.171641
Si Si4 0.718709 0.810124 0.305534
Si Si5 0.911855 0.392926 0.718706
Si Si6 0.490646 0.284656 0.007330
Si Si7 0.754112 0.099725 0.045181
O O1 0.990273 0.326273 0.824203
O O2 0.023708 0.384995 0.035960
O O3 0.686835 0.322818 0.942812
O O4 0.918114 0.187624 0.011814
O O5 0.600031 0.888830 0.796245
O O6 0.447745 0.096794 0.800350
O O7 0.708548 0.043097 0.666228
O O8 0.720454 0.039083 0.924172
O O9 0.654101 0.728022 0.209556
O O10 0.304254 0.646816 0.195598
O O11 0.592136 0.519809 0.236144
O O12 0.677085 0.747024 0.422736
O O13 0.035145 0.370208 0.606016
O O14 0.564249 0.173109 0.061378
#
# Coordination Sequence:
#
# PCOD9341429 Si02
#       7
#     4   4   4   4   4   4   4
#     4   9  18  37  67  91 122 172 217 261 324 400
#     4  11  22  39  70  91 130 173 220 273 336 382
#     4  11  23  40  64  97 130 170 216 269 322 404
#     4  11  22  44  64  96 131 169 223 273 323 396
#     4  11  21  39  69  93 128 178 211 264 343 389
#     4   8  18  36  63  87 124 165 207 262 318 396
#     4   9  18  39  65  93 121 171 218 266 326 393
#
# _framework density 27.493281
#
# number of rings (size 3 to 8) (size 9 to 14) (size 15 to 20)
#    0.857    1.143    2.857    0.857    2.000    2.286 
#    0.000    5.714    0.000    0.000    0.000    0.000 
#    0.000    0.000    0.000    0.000    0.000    0.000 
#
# Total GULP energy -156443.297507 kJ/mol
# GULP energy per Si atom -5587.260625 kJ/mol
# Density = 2.743070 g / cm^3
# Si number density = 27.493281 Si / 1000 Ang^3
#
#
#
# Elastic Constant Matrix: (Units=GPa)
#
#
# Indices 1 2 3 4 5 6 
#
# 1 76.6791 9.4206 15.2578 0.0000 0.0000 0.0000
# 2 9.4206 149.2415 55.1120 0.0000 0.0000 0.0000
# 3 15.2578 55.1120 188.5648 0.0000 0.0000 0.0000
# 4 0.0000 0.0000 0.0000 45.3931 0.0000 0.0000
# 5 0.0000 0.0000 0.0000 0.0000 53.5871 0.0000
# 6 0.0000 0.0000 0.0000 0.0000 0.0000 34.8984
#
#
#
# Elastic Compliance Matrix: (Units=1/GPa)
#
#
# Indices 1 2 3 4 5 6 
#
# 1 0.013287 -0.000495 -0.000930 0.000000 0.000000 0.000000
# 2 -0.000495 0.007530 -0.002161 0.000000 0.000000 0.000000
# 3 -0.000930 -0.002161 0.006010 0.000000 0.000000 0.000000
# 4 0.000000 0.000000 0.000000 0.022030 0.000000 0.000000
# 5 0.000000 0.000000 0.000000 0.000000 0.018661 0.000000
# 6 0.000000 0.000000 0.000000 0.000000 0.000000 0.028655
#
#
# Mechanical properties :
#
#
# Convention : Reuss Voigt Hill
#
# Bulk Modulus (GPa) = 50.87875 63.78513 57.33194
# Shear Modulus (GPa) = 45.49733 49.08874 47.29303
#
# Velocity S-wave (km/s) = 4.07240 4.23008 4.15199
# Velocity P-wave (km/s) = 6.37641 6.86358 6.62448
#
# Compressibility (1/GPa) = 0.01965457
#
# Stress axis : x y z
#
# Youngs Moduli (GPa) = 75.25967 132.80764 166.38949
#
# Poissons Ratio (x) = 0.06576 0.15481
# Poissons Ratio (y) = 0.03726 0.35951
# Poissons Ratio (z) = 0.07002 0.28695
#
# Static dielectric constant tensor:
#      x y z
#    x 2.376990 0.000000 0.000000 
#    y 0.000000 2.117550 0.000000 
#    z 0.000000 0.000000 2.152680 
# 
# From -- ./inp_files/2860.got.cif
#   From: 2010.05.17/outbox.cif.g08.bks.cpg/sg29_2_cif.got.tgz:2860.got - 2010.06.04 01:19:37.
