data_PCOD9341308
_publ_section_title
;
Structure prediction by ZEFSAII (Michael W. Deem and Ramdas Pophale) SiO2 
 PCOD9341308
Probable space group: P C A 21
;
_chemical_formula_sum "Si O2"
_cell_formula_units_Z 28
_cell_length_a 9.120895
_cell_length_b 15.066338
_cell_length_c 7.613770
_cell_angle_alpha 90.000000
_cell_angle_beta 90.000000
_cell_angle_gamma 90.000000
_cell_volume 1046.272753
_symmetry_space_group_name_H-M "P C A 21"
_symmetry_group_IT_number 29
_symmetry_cell_setting 'orthorhombic'
loop_
_space_group_symop_operation_xyz
x,y,z
-x,-y,1/2+z
1/2-x,y,1/2+z
1/2+x,-y,z
loop_
_atom_site_type_symbol
_atom_site_label
_atom_site_fract_x
_atom_site_fract_y
_atom_site_fract_z
Si Si1 0.774496 0.115506 0.701600
Si Si2 0.357010 0.560997 0.404771
Si Si3 0.425728 0.033950 0.240104
Si Si4 0.536704 0.401525 0.512891
Si Si5 0.034727 0.741530 0.015542
Si Si6 0.029957 0.791528 0.623957
Si Si7 0.252285 0.145225 0.009380
O O1 0.879652 0.201958 0.662205
O O2 0.655644 0.145441 0.544406
O O3 0.902623 0.041666 0.709152
O O4 0.643608 0.058679 0.800596
O O5 0.401727 0.462687 0.461207
O O6 0.421509 0.575673 0.212591
O O7 0.183470 0.575239 0.406719
O O8 0.432119 0.637060 0.526732
O O9 0.352484 0.061242 0.055176
O O10 0.361698 0.112546 0.361358
O O11 0.508276 0.296847 0.511976
O O12 0.865082 0.771950 0.010328
O O13 0.093289 0.766002 0.817524
O O14 0.872042 0.832894 0.654458
#
# Coordination Sequence:
#
# PCOD9341308 Si02
#       7
#     4   4   4   4   4   4   4
#     4  11  25  45  69 102 140 186 240 295 358 422
#     4  11  24  48  70 111 143 191 241 300 373 441
#     4  11  26  41  72  98 140 186 237 299 348 424
#     4  11  25  45  75 106 146 190 239 303 365 452
#     4  10  24  46  71 101 146 182 244 292 361 441
#     4  11  24  45  72 102 142 191 235 295 365 429
#     4  11  24  46  65 106 135 188 238 288 356 419
#
# _framework density 26.761664
#
# number of rings (size 3 to 8) (size 9 to 14) (size 15 to 20)
#    0.000    1.143    2.857    1.714    6.000    1.143 
#    5.143    0.000    0.000    0.000    0.000    0.000 
#    0.000    0.000    0.000    0.000    0.000    0.000 
#
# Total GULP energy -156270.568747 kJ/mol
# GULP energy per Si atom -5581.091741 kJ/mol
# Density = 2.670075 g / cm^3
# Si number density = 26.761664 Si / 1000 Ang^3
#
#
#
# Elastic Constant Matrix: (Units=GPa)
#
#
# Indices 1 2 3 4 5 6 
#
# 1 142.3028 28.4972 -3.0999 0.0000 0.0000 0.0000
# 2 28.4972 129.1766 3.2233 0.0000 0.0000 0.0000
# 3 -3.0999 3.2233 55.3964 0.0000 0.0000 0.0000
# 4 0.0000 0.0000 0.0000 32.9948 0.0000 0.0000
# 5 0.0000 0.0000 0.0000 0.0000 34.5767 0.0000
# 6 0.0000 0.0000 0.0000 0.0000 0.0000 38.6251
#
#
#
# Elastic Compliance Matrix: (Units=1/GPa)
#
#
# Indices 1 2 3 4 5 6 
#
# 1 0.007366 -0.001638 0.000507 0.000000 0.000000 0.000000
# 2 -0.001638 0.008117 -0.000564 0.000000 0.000000 0.000000
# 3 0.000507 -0.000564 0.018113 0.000000 0.000000 0.000000
# 4 0.000000 0.000000 0.000000 0.030308 0.000000 0.000000
# 5 0.000000 0.000000 0.000000 0.000000 0.028921 0.000000
# 6 0.000000 0.000000 0.000000 0.000000 0.000000 0.025890
#
#
# Mechanical properties :
#
#
# Convention : Reuss Voigt Hill
#
# Bulk Modulus (GPa) = 33.10420 42.67967 37.89193
# Shear Modulus (GPa) = 37.82939 41.12299 39.47619
#
# Velocity S-wave (km/s) = 3.76382 3.92425 3.84487
# Velocity P-wave (km/s) = 5.59333 6.04282 5.82241
#
# Compressibility (1/GPa) = 0.03020765
#
# Stress axis : x y z
#
# Youngs Moduli (GPa) = 135.75353 123.20277 55.20915
#
# Poissons Ratio (x) = 0.20177 -0.02802
# Poissons Ratio (y) = 0.22233 0.03113
# Poissons Ratio (z) = -0.06889 0.06948
#
# Static dielectric constant tensor:
#      x y z
#    x 2.041730 0.000000 0.000000 
#    y 0.000000 2.119390 0.000000 
#    z 0.000000 0.000000 2.651760 
# 
# From -- ./inp_files/1193.got.cif
#   From: 2010.05.17/outbox.cif.g08.bks.cpg/sg29_1_cif.got.tgz:1193.got - 2010.06.04 01:19:37.
