data_PCOD9341954
_publ_section_title
;
Structure prediction by ZEFSAII (Michael W. Deem and Ramdas Pophale) SiO2 
 PCOD9341954
Probable space group: P N C 2
;
_chemical_formula_sum "Si O2"
_cell_formula_units_Z 32
_cell_length_a 14.096246
_cell_length_b 7.537525
_cell_length_c 13.199754
_cell_angle_alpha 90.000000
_cell_angle_beta 90.000000
_cell_angle_gamma 90.000000
_cell_volume 1402.484510
_symmetry_space_group_name_H-M "P N C 2"
_symmetry_group_IT_number 30
_symmetry_cell_setting 'orthorhombic'
loop_
_space_group_symop_operation_xyz
x,y,z
-x,-y,z
-x,1/2+y,1/2+z
x,1/2-y,1/2+z
loop_
_atom_site_type_symbol
_atom_site_label
_atom_site_fract_x
_atom_site_fract_y
_atom_site_fract_z
Si Si1 0.112798 0.026053 0.153950
Si Si2 0.602688 0.456591 0.185288
Si Si3 0.201635 0.489400 0.282005
Si Si4 0.363897 0.178918 0.478951
Si Si5 0.800324 0.913324 0.359770
Si Si6 0.106843 0.434351 0.079228
Si Si7 0.555079 0.316530 0.526001
Si Si8 0.750757 0.058082 0.982517
O O1 0.156055 0.985582 0.264676
O O2 0.120054 0.228833 0.111948
O O3 0.180213 0.919924 0.076962
O O4 0.000000 0.000000 0.154204
O O5 0.500000 0.500000 0.230611
O O6 0.686783 0.483977 0.262345
O O7 0.581816 0.268677 0.133708
O O8 0.633037 0.579161 0.087817
O O9 0.181260 0.288474 0.319415
O O10 0.151775 0.532289 0.176907
O O11 0.183685 0.593178 0.385089
O O12 0.311043 0.078663 0.387834
O O13 0.475334 0.211669 0.463192
O O14 0.300763 0.360869 0.489259
O O15 0.847218 0.953621 0.468455
O O16 0.000000 0.500000 0.072138
O O17 0.500000 0.500000 0.542911
O O18 0.657354 0.324126 0.475873
#
# Coordination Sequence:
#
# PCOD9341954 Si02
#       8
#     4   4   4   4   4   4   4   4
#     4  11  23  40  60  91 127 174 214 266 336 393
#     4  10  19  34  61  95 126 166 213 266 313 390
#     4  10  20  36  63  90 121 165 215 257 327 386
#     4   9  16  36  63  90 121 163 214 266 318 389
#     4  10  19  39  66  91 122 167 216 267 334 383
#     4  11  22  40  64  91 121 163 216 272 322 389
#     4   9  20  35  60  91 132 172 212 262 325 395
#     4  10  20  40  60  86 129 173 210 264 330 394
#
# _framework density 22.816651
#
# number of rings (size 3 to 8) (size 9 to 14) (size 15 to 20)
#    0.000    2.000    3.750    1.125    0.000    4.000 
#    0.000    2.500    0.000   13.500    0.000    0.000 
#    0.000    0.000    0.000    0.000    0.000    0.000 
#
# Total GULP energy -178338.543547 kJ/mol
# GULP energy per Si atom -5573.079486 kJ/mol
# Density = 2.276472 g / cm^3
# Si number density = 22.816651 Si / 1000 Ang^3
#
#
#
# Elastic Constant Matrix: (Units=GPa)
#
#
# Indices 1 2 3 4 5 6 
#
# 1 143.4074 6.1108 89.7910 0.0000 0.0000 0.0000
# 2 6.1108 41.7100 20.3870 0.0000 0.0000 0.0000
# 3 89.7910 20.3870 194.6549 0.0000 0.0000 0.0000
# 4 0.0000 0.0000 0.0000 7.5445 0.0000 0.0000
# 5 0.0000 0.0000 0.0000 0.0000 20.0360 0.0000
# 6 0.0000 0.0000 0.0000 0.0000 0.0000 26.0031
#
#
#
# Elastic Compliance Matrix: (Units=1/GPa)
#
#
# Indices 1 2 3 4 5 6 
#
# 1 0.009831 0.000818 -0.004621 0.000000 0.000000 0.000000
# 2 0.000818 0.025337 -0.003031 0.000000 0.000000 0.000000
# 3 -0.004621 -0.003031 0.007586 0.000000 0.000000 0.000000
# 4 0.000000 0.000000 0.000000 0.132548 0.000000 0.000000
# 5 0.000000 0.000000 0.000000 0.000000 0.049910 0.000000
# 6 0.000000 0.000000 0.000000 0.000000 0.000000 0.038457
#
#
# Mechanical properties :
#
#
# Convention : Reuss Voigt Hill
#
# Bulk Modulus (GPa) = 34.37950 68.03890 51.20920
# Shear Modulus (GPa) = 17.41965 28.28227 22.85096
#
# Velocity S-wave (km/s) = 2.76608 3.52454 3.16809
# Velocity P-wave (km/s) = 5.03011 6.81526 5.98956
#
# Compressibility (1/GPa) = 0.02908711
#
# Stress axis : x y z
#
# Youngs Moduli (GPa) = 101.71418 39.46846 131.81762
#
# Poissons Ratio (x) = -0.03229 0.60910
# Poissons Ratio (y) = -0.08322 0.39954
# Poissons Ratio (z) = 0.47000 0.11963
#
# Static dielectric constant tensor:
#      x y z
#    x 1.826340 0.000000 0.000000 
#    y 0.000000 2.027410 0.000000 
#    z 0.000000 0.000000 1.870910 
# 
# From -- ./inp_files/4374.got.cif
#   From: 2010.05.17/outbox.cif.g08.bks.cpg/sg30_3_cif.got.tgz:4374.got - 2010.06.03 17:03:02.
