data_PCOD9341643
_publ_section_title
;
Structure prediction by ZEFSAII (Michael W. Deem and Ramdas Pophale) SiO2 
 PCOD9341643
Probable space group: P C A 21
;
_chemical_formula_sum "Si O2"
_cell_formula_units_Z 20
_cell_length_a 7.989344
_cell_length_b 10.915335
_cell_length_c 8.418474
_cell_angle_alpha 90.000000
_cell_angle_beta 90.000000
_cell_angle_gamma 90.000000
_cell_volume 734.144526
_symmetry_space_group_name_H-M "P C A 21"
_symmetry_group_IT_number 29
_symmetry_cell_setting 'orthorhombic'
loop_
_space_group_symop_operation_xyz
x,y,z
-x,-y,1/2+z
1/2-x,y,1/2+z
1/2+x,-y,z
loop_
_atom_site_type_symbol
_atom_site_label
_atom_site_fract_x
_atom_site_fract_y
_atom_site_fract_z
Si Si1 0.137596 0.260297 0.552000
Si Si2 0.314445 0.877472 0.919058
Si Si3 0.414687 0.006525 0.219211
Si Si4 0.562863 0.635801 0.227899
Si Si5 0.324888 0.630348 0.747757
O O1 0.160529 0.127481 0.633013
O O2 0.309297 0.333388 0.586479
O O3 0.101590 0.264911 0.365214
O O4 0.973916 0.323791 0.631325
O O5 0.407011 0.942061 0.770731
O O6 0.314238 0.735642 0.880045
O O7 0.142883 0.949145 0.889099
O O8 0.397546 0.902267 0.087167
O O9 0.620374 0.504675 0.298777
O O10 0.367363 0.623857 0.189765
#
# Coordination Sequence:
#
# PCOD9341643 Si02
#       5
#     4   4   4   4   4
#     4  11  28  49  76 113 146 203 250 309 385 438
#     4  11  26  46  75 107 146 193 247 303 374 447
#     4  11  25  47  71 107 145 190 243 304 370 445
#     4  12  27  49  77 108 156 193 255 316 369 456
#     4  11  28  47  75 113 149 201 251 308 380 446
#
# _framework density 27.242595000000001
#
# number of rings (size 3 to 8) (size 9 to 14) (size 15 to 20)
#    0.000    0.800    2.000    2.400   14.000    3.200 
#    0.000    0.000    0.000    0.000    0.000    0.000 
#    0.000    0.000    0.000    0.000    0.000    0.000 
#
# Total GULP energy -112056.993569 kJ/mol
# GULP energy per Si atom -5602.849678 kJ/mol
# Density = 2.718059 g / cm^3
# Si number density = 27.242595 Si / 1000 Ang^3
#
#
#
# Elastic Constant Matrix: (Units=GPa)
#
#
# Indices 1 2 3 4 5 6 
#
# 1 173.8286 47.7599 44.8675 0.0000 0.0000 0.0000
# 2 47.7599 125.1990 16.4859 0.0000 0.0000 0.0000
# 3 44.8675 16.4859 98.5713 0.0000 0.0000 0.0000
# 4 0.0000 0.0000 0.0000 35.1673 0.0000 0.0000
# 5 0.0000 0.0000 0.0000 0.0000 44.1504 0.0000
# 6 0.0000 0.0000 0.0000 0.0000 0.0000 35.7195
#
#
#
# Elastic Compliance Matrix: (Units=1/GPa)
#
#
# Indices 1 2 3 4 5 6 
#
# 1 0.007134 -0.002346 -0.002855 0.000000 0.000000 0.000000
# 2 -0.002346 0.008938 -0.000427 0.000000 0.000000 0.000000
# 3 -0.002855 -0.000427 0.011516 0.000000 0.000000 0.000000
# 4 0.000000 0.000000 0.000000 0.028436 0.000000 0.000000
# 5 0.000000 0.000000 0.000000 0.000000 0.022650 0.000000
# 6 0.000000 0.000000 0.000000 0.000000 0.000000 0.027996
#
#
# Mechanical properties :
#
#
# Convention : Reuss Voigt Hill
#
# Bulk Modulus (GPa) = 61.22675 68.42505 64.82590
# Shear Modulus (GPa) = 40.52862 42.23982 41.38422
#
# Velocity S-wave (km/s) = 3.86125 3.94192 3.90179
# Velocity P-wave (km/s) = 6.51171 6.77420 6.64425
#
# Compressibility (1/GPa) = 0.01633273
#
# Stress axis : x y z
#
# Youngs Moduli (GPa) = 140.17077 111.87805 86.83607
#
# Poissons Ratio (x) = 0.26241 0.24792
# Poissons Ratio (y) = 0.32878 0.03710
# Poissons Ratio (z) = 0.40019 0.04780
#
# Static dielectric constant tensor:
#      x y z
#    x 2.189380 0.000000 0.000000 
#    y 0.000000 2.126520 0.000000 
#    z 0.000000 0.000000 2.057500 
# 
# From -- ./inp_files/1069.got.cif
#   From: 2010.05.17/outbox.cif.g08.bks.cpg/sg29_1_cif.got.tgz:1069.got - 2010.06.04 01:19:37.
