data_PCOD9341340
_publ_section_title
;
Structure prediction by ZEFSAII (Michael W. Deem and Ramdas Pophale) SiO2 
 PCOD9341340
Probable space group: P C A 21
;
_chemical_formula_sum "Si O2"
_cell_formula_units_Z 20
_cell_length_a 4.603144
_cell_length_b 17.712552
_cell_length_c 8.776596
_cell_angle_alpha 90.000000
_cell_angle_beta 90.000000
_cell_angle_gamma 90.000000
_cell_volume 715.585953
_symmetry_space_group_name_H-M "P C A 21"
_symmetry_group_IT_number 29
_symmetry_cell_setting 'orthorhombic'
loop_
_space_group_symop_operation_xyz
x,y,z
-x,-y,1/2+z
1/2-x,y,1/2+z
1/2+x,-y,z
loop_
_atom_site_type_symbol
_atom_site_label
_atom_site_fract_x
_atom_site_fract_y
_atom_site_fract_z
Si Si1 0.198713 0.847518 0.726720
Si Si2 0.497393 0.550291 0.745690
Si Si3 0.869704 0.352112 0.017050
Si Si4 0.076413 0.245257 0.488539
Si Si5 0.549976 0.946445 0.956980
O O1 0.971166 0.815664 0.853506
O O2 0.404828 0.787611 0.636003
O O3 0.418815 0.903933 0.811911
O O4 0.021626 0.892707 0.598654
O O5 0.827642 0.528074 0.719472
O O6 0.341876 0.613266 0.645514
O O7 0.485417 0.579051 0.917572
O O8 0.624944 0.310166 0.918248
O O9 0.122900 0.287593 0.032504
O O10 0.878344 0.973972 0.962973
#
# Coordination Sequence:
#
# PCOD9341340 Si02
#       5
#     4   4   4   4   4
#     4  10  25  44  70 102 145 194 248 306 372 442
#     4  12  25  46  74 106 143 188 238 296 358 428
#     4  12  26  46  72 105 145 190 241 298 365 438
#     4  11  26  45  68 103 145 194 243 300 365 439
#     4  11  24  43  70 102 140 188 246 310 372 439
#
# _framework density 27.949124999999999
#
# number of rings (size 3 to 8) (size 9 to 14) (size 15 to 20)
#    0.000    0.800    0.000    6.000    0.000   14.400 
#    0.000    2.000    0.000    0.000    0.000    0.000 
#    0.000    0.000    0.000    0.000    0.000    0.000 
#
# Total GULP energy -112019.368267 kJ/mol
# GULP energy per Si atom -5600.968413 kJ/mol
# Density = 2.788551 g / cm^3
# Si number density = 27.949125 Si / 1000 Ang^3
#
#
#
# Elastic Constant Matrix: (Units=GPa)
#
#
# Indices 1 2 3 4 5 6 
#
# 1 121.0182 31.9316 0.4240 0.0000 0.0000 0.0000
# 2 31.9316 117.2006 40.2470 0.0000 0.0000 0.0000
# 3 0.4240 40.2470 117.2625 0.0000 0.0000 0.0000
# 4 0.0000 0.0000 0.0000 52.0540 0.0000 0.0000
# 5 0.0000 0.0000 0.0000 0.0000 32.6905 0.0000
# 6 0.0000 0.0000 0.0000 0.0000 0.0000 66.5033
#
#
#
# Elastic Compliance Matrix: (Units=1/GPa)
#
#
# Indices 1 2 3 4 5 6 
#
# 1 0.008989 -0.002764 0.000916 0.000000 0.000000 0.000000
# 2 -0.002764 0.010522 -0.003601 0.000000 0.000000 0.000000
# 3 0.000916 -0.003601 0.009761 0.000000 0.000000 0.000000
# 4 0.000000 0.000000 0.000000 0.019211 0.000000 0.000000
# 5 0.000000 0.000000 0.000000 0.000000 0.030590 0.000000
# 6 0.000000 0.000000 0.000000 0.000000 0.000000 0.015037
#
#
# Mechanical properties :
#
#
# Convention : Reuss Voigt Hill
#
# Bulk Modulus (GPa) = 54.42521 55.63183 55.02852
# Shear Modulus (GPa) = 44.99142 49.10814 47.04978
#
# Velocity S-wave (km/s) = 4.01654 4.19627 4.10739
# Velocity P-wave (km/s) = 6.40510 6.58985 6.49813
#
# Compressibility (1/GPa) = 0.01837384
#
# Stress axis : x y z
#
# Youngs Moduli (GPa) = 111.24419 95.03806 102.45223
#
# Poissons Ratio (x) = 0.26266 -0.09385
# Poissons Ratio (y) = 0.30745 0.36897
# Poissons Ratio (z) = -0.10191 0.34227
#
# Static dielectric constant tensor:
#      x y z
#    x 2.092690 0.000000 0.000000 
#    y 0.000000 2.293000 0.000000 
#    z 0.000000 0.000000 2.152960 
# 
# From -- ./inp_files/980.got.cif
#   From: 2010.05.17/outbox.cif.g08.bks.cpg/sg29_1_cif.got.tgz:980.got - 2010.06.04 01:19:37.
