data_PCOD9341107
_publ_section_title
;
Structure prediction by ZEFSAII (Michael W. Deem and Ramdas Pophale) SiO2 
 PCOD9341107
Probable space group: P C A 21
;
_chemical_formula_sum "Si O2"
_cell_formula_units_Z 28
_cell_length_a 13.180043
_cell_length_b 9.778205
_cell_length_c 9.407774
_cell_angle_alpha 90.000000
_cell_angle_beta 90.000000
_cell_angle_gamma 90.000000
_cell_volume 1212.447217
_symmetry_space_group_name_H-M "P C A 21"
_symmetry_group_IT_number 29
_symmetry_cell_setting 'orthorhombic'
loop_
_space_group_symop_operation_xyz
x,y,z
-x,-y,1/2+z
1/2-x,y,1/2+z
1/2+x,-y,z
loop_
_atom_site_type_symbol
_atom_site_label
_atom_site_fract_x
_atom_site_fract_y
_atom_site_fract_z
Si Si1 0.173975 0.121908 0.740900
Si Si2 0.466390 0.904974 0.122638
Si Si3 0.948403 0.499711 0.475924
Si Si4 0.682172 0.284910 0.108129
Si Si5 0.890119 0.399411 0.170869
Si Si6 0.688656 0.111916 0.380052
Si Si7 0.334863 0.235470 0.538966
O O1 0.227822 0.196804 0.608629
O O2 0.161885 0.224200 0.869755
O O3 0.072797 0.036295 0.707286
O O4 0.251947 0.010778 0.806117
O O5 0.422878 0.761235 0.185476
O O6 0.408758 0.924823 0.972878
O O7 0.584143 0.875084 0.099569
O O8 0.914241 0.355863 0.540354
O O9 0.928349 0.482687 0.308093
O O10 0.880121 0.613716 0.557816
O O11 0.059805 0.542378 0.526910
O O12 0.770054 0.392797 0.151013
O O13 0.657037 0.209842 0.253054
O O14 0.734948 0.186124 0.991401
#
# Coordination Sequence:
#
# PCOD9341107 Si02
#       7
#     4   4   4   4   4   4   4
#     4  12  22  45  66  93 135 172 214 273 328 388
#     4  10  23  44  67  97 127 166 235 266 314 399
#     4  11  25  43  63  97 135 165 214 267 336 386
#     4  11  21  39  69  91 123 164 215 274 312 381
#     4  10  23  42  65  95 126 169 218 270 312 388
#     4  11  20  40  70  94 118 166 227 261 319 375
#     4  11  28  41  64  99 136 176 213 271 337 397
#
# _framework density 23.093789999999998
#
# number of rings (size 3 to 8) (size 9 to 14) (size 15 to 20)
#    0.000    1.143    5.714    0.000   10.000    0.000 
#    2.571    1.429    0.000    0.000    0.000    0.000 
#    0.000    0.000    0.000    0.000    0.000    0.000 
#
# Total GULP energy -156525.769293 kJ/mol
# GULP energy per Si atom -5590.206046 kJ/mol
# Density = 2.304123 g / cm^3
# Si number density = 23.093790 Si / 1000 Ang^3
#
#
#
# Elastic Constant Matrix: (Units=GPa)
#
#
# Indices 1 2 3 4 5 6 
#
# 1 23.7022 5.3001 -7.2905 0.0000 0.0000 0.0000
# 2 5.3001 29.5483 17.0268 0.0000 0.0000 0.0000
# 3 -7.2905 17.0268 94.8212 0.0000 0.0000 0.0000
# 4 0.0000 0.0000 0.0000 35.4626 0.0000 0.0000
# 5 0.0000 0.0000 0.0000 0.0000 27.3312 0.0000
# 6 0.0000 0.0000 0.0000 0.0000 0.0000 25.0344
#
#
#
# Elastic Compliance Matrix: (Units=1/GPa)
#
#
# Indices 1 2 3 4 5 6 
#
# 1 0.046527 -0.011608 0.005662 0.000000 0.000000 0.000000
# 2 -0.011608 0.040645 -0.008191 0.000000 0.000000 0.000000
# 3 0.005662 -0.008191 0.012452 0.000000 0.000000 0.000000
# 4 0.000000 0.000000 0.000000 0.028199 0.000000 0.000000
# 5 0.000000 0.000000 0.000000 0.000000 0.036588 0.000000
# 6 0.000000 0.000000 0.000000 0.000000 0.000000 0.039945
#
#
# Mechanical properties :
#
#
# Convention : Reuss Voigt Hill
#
# Bulk Modulus (GPa) = 14.01544 19.79385 16.90465
# Shear Modulus (GPa) = 19.49963 26.43465 22.96714
#
# Velocity S-wave (km/s) = 2.90895 3.38696 3.15702
# Velocity P-wave (km/s) = 4.16710 4.88723 4.54146
#
# Compressibility (1/GPa) = 0.07134987
#
# Stress axis : x y z
#
# Youngs Moduli (GPa) = 21.49270 24.60319 80.30627
#
# Poissons Ratio (x) = 0.28560 -0.45468
# Poissons Ratio (y) = 0.24949 0.65779
# Poissons Ratio (z) = -0.12169 0.20153
#
# Static dielectric constant tensor:
#      x y z
#    x 1.858680 0.000000 0.000000 
#    y 0.000000 1.882100 0.000000 
#    z 0.000000 0.000000 1.861580 
# 
# From -- ./inp_files/1805.got.cif
#   From: 2010.05.17/outbox.cif.g08.bks.cpg/sg29_1_cif.got.tgz:1805.got - 2010.06.04 01:19:37.
