data_PCOD9341131
_publ_section_title
;
Structure prediction by ZEFSAII (Michael W. Deem and Ramdas Pophale) SiO2 
 PCOD9341131
Probable space group: P C A 21
;
_chemical_formula_sum "Si O2"
_cell_formula_units_Z 32
_cell_length_a 14.233056
_cell_length_b 12.014506
_cell_length_c 8.833101
_cell_angle_alpha 90.000000
_cell_angle_beta 90.000000
_cell_angle_gamma 90.000000
_cell_volume 1510.487978
_symmetry_space_group_name_H-M "P C A 21"
_symmetry_group_IT_number 29
_symmetry_cell_setting 'orthorhombic'
loop_
_space_group_symop_operation_xyz
x,y,z
-x,-y,1/2+z
1/2-x,y,1/2+z
1/2+x,-y,z
loop_
_atom_site_type_symbol
_atom_site_label
_atom_site_fract_x
_atom_site_fract_y
_atom_site_fract_z
Si Si1 0.884117 0.948661 0.318780
Si Si2 0.801195 0.351951 0.289334
Si Si3 0.462075 0.799107 0.938329
Si Si4 0.802576 0.969708 0.652471
Si Si5 0.478546 0.155184 0.774303
Si Si6 0.771485 0.187856 0.036275
Si Si7 0.908307 0.426027 0.772584
Si Si8 0.513891 0.385209 0.935177
O O1 0.833340 0.942902 0.481406
O O2 0.801669 0.930943 0.198631
O O3 0.967705 0.860458 0.324244
O O4 0.937003 0.067008 0.300850
O O5 0.817013 0.282995 0.138745
O O6 0.788118 0.256199 0.416260
O O7 0.704732 0.417012 0.263312
O O8 0.892041 0.417137 0.340513
O O9 0.439799 0.679759 0.870802
O O10 0.508514 0.796660 0.104343
O O11 0.363049 0.865118 0.958207
O O12 0.881004 0.914552 0.761083
O O13 0.788766 0.103847 0.637020
O O14 0.487319 0.256972 0.892981
O O15 0.958121 0.410912 0.608802
O O16 0.935233 0.535885 0.864274
#
# Coordination Sequence:
#
# PCOD9341131 Si02
#       8
#     4   4   4   4   4   4   4   4
#     4  11  25  40  65 100 138 189 225 286 349 415
#     4  11  23  40  72 101 128 176 232 289 339 408
#     4  10  23  43  65  99 136 175 238 285 343 411
#     4  11  24  39  64  99 138 185 223 277 351 417
#     4  11  24  43  67  98 142 187 228 288 350 417
#     4  11  20  40  68 100 132 172 237 284 330 407
#     4  11  27  42  75 102 130 181 235 294 351 410
#     4  12  24  47  68 101 140 175 232 291 355 411
#
# _framework density 21.185206000000001
#
# number of rings (size 3 to 8) (size 9 to 14) (size 15 to 20)
#    0.000    1.000    3.750    2.250    7.000    2.000 
#    2.250    0.000    0.000    0.000    0.000    0.000 
#    0.000    0.000    0.000    0.000    0.000    0.000 
#
# Total GULP energy -178665.580350 kJ/mol
# GULP energy per Si atom -5583.299386 kJ/mol
# Density = 2.113699 g / cm^3
# Si number density = 21.185206 Si / 1000 Ang^3
#
#
#
# Elastic Constant Matrix: (Units=GPa)
#
#
# Indices 1 2 3 4 5 6 
#
# 1 130.2959 45.5368 24.9849 0.0000 0.0000 0.0000
# 2 45.5368 66.3713 22.3134 0.0000 0.0000 0.0000
# 3 24.9849 22.3134 83.1897 0.0000 0.0000 0.0000
# 4 0.0000 0.0000 0.0000 28.8314 0.0000 0.0000
# 5 0.0000 0.0000 0.0000 0.0000 30.1403 0.0000
# 6 0.0000 0.0000 0.0000 0.0000 0.0000 33.6921
#
#
#
# Elastic Compliance Matrix: (Units=1/GPa)
#
#
# Indices 1 2 3 4 5 6 
#
# 1 0.010223 -0.006575 -0.001307 0.000000 0.000000 0.000000
# 2 -0.006575 0.020788 -0.003601 0.000000 0.000000 0.000000
# 3 -0.001307 -0.003601 0.013379 0.000000 0.000000 0.000000
# 4 0.000000 0.000000 0.000000 0.034684 0.000000 0.000000
# 5 0.000000 0.000000 0.000000 0.000000 0.033178 0.000000
# 6 0.000000 0.000000 0.000000 0.000000 0.000000 0.029681
#
#
# Mechanical properties :
#
#
# Convention : Reuss Voigt Hill
#
# Bulk Modulus (GPa) = 46.67462 51.72524 49.19993
# Shear Modulus (GPa) = 29.06278 31.00087 30.03183
#
# Velocity S-wave (km/s) = 3.70786 3.82950 3.76917
# Velocity P-wave (km/s) = 6.35692 6.63492 6.49741
#
# Compressibility (1/GPa) = 0.02142492
#
# Stress axis : x y z
#
# Youngs Moduli (GPa) = 97.81654 48.10393 74.74297
#
# Poissons Ratio (x) = 0.31627 0.09768
# Poissons Ratio (y) = 0.64311 0.26917
# Poissons Ratio (z) = 0.12784 0.17324
#
# Static dielectric constant tensor:
#      x y z
#    x 1.803440 0.000000 0.000000 
#    y 0.000000 1.773630 0.000000 
#    z 0.000000 0.000000 1.812290 
# 
# From -- ./inp_files/1839.got.cif
#   From: 2010.05.17/outbox.cif.g08.bks.cpg/sg29_1_cif.got.tgz:1839.got - 2010.06.04 01:19:37.
