data_PCOD9341280
_publ_section_title
;
Structure prediction by ZEFSAII (Michael W. Deem and Ramdas Pophale) SiO2 
 PCOD9341280
Probable space group: P C A 21
;
_chemical_formula_sum "Si O2"
_cell_formula_units_Z 24
_cell_length_a 8.977921
_cell_length_b 10.447865
_cell_length_c 10.678661
_cell_angle_alpha 90.000000
_cell_angle_beta 90.000000
_cell_angle_gamma 90.000000
_cell_volume 1001.659540
_symmetry_space_group_name_H-M "P C A 21"
_symmetry_group_IT_number 29
_symmetry_cell_setting 'orthorhombic'
loop_
_space_group_symop_operation_xyz
x,y,z
-x,-y,1/2+z
1/2-x,y,1/2+z
1/2+x,-y,z
loop_
_atom_site_type_symbol
_atom_site_label
_atom_site_fract_x
_atom_site_fract_y
_atom_site_fract_z
Si Si1 0.955642 0.589243 0.880900
Si Si2 0.352976 0.057000 0.269769
Si Si3 0.455321 0.662480 0.020642
Si Si4 0.255542 0.583102 0.232624
Si Si5 0.740332 0.794468 0.519827
Si Si6 0.161938 0.829695 0.311788
O O1 0.828263 0.541778 0.781829
O O2 0.110879 0.634832 0.822091
O O3 0.008063 0.450630 0.930581
O O4 0.880963 0.688796 0.975804
O O5 0.310340 0.117362 0.135422
O O6 0.280661 0.129797 0.390582
O O7 0.528179 0.074350 0.285071
O O8 0.306786 0.909968 0.280870
O O9 0.342879 0.580255 0.104575
O O10 0.605718 0.728393 0.066204
O O11 0.362231 0.772425 0.950153
O O12 0.143932 0.702815 0.227507
#
# Coordination Sequence:
#
# PCOD9341280 Si02
#       6
#     4   4   4   4   4   4
#     4  11  24  43  70 107 139 186 239 297 369 424
#     4  11  27  47  72 100 149 183 249 291 358 423
#     4  10  24  44  70 103 145 181 248 290 367 430
#     4  11  25  44  72 101 147 186 237 299 360 434
#     4  11  25  45  72 107 141 196 234 300 358 431
#     4  10  27  47  68 108 135 194 239 299 352 432
#
# _framework density 23.960236999999999
#
# number of rings (size 3 to 8) (size 9 to 14) (size 15 to 20)
#    0.000    1.333    1.667    1.000   11.667    4.000 
#    0.000    0.000    0.000    0.000    0.000    0.000 
#    0.000    0.000    0.000    0.000    0.000    0.000 
#
# Total GULP energy -133993.577823 kJ/mol
# GULP energy per Si atom -5583.065743 kJ/mol
# Density = 2.390570 g / cm^3
# Si number density = 23.960237 Si / 1000 Ang^3
#
#
#
# Elastic Constant Matrix: (Units=GPa)
#
#
# Indices 1 2 3 4 5 6 
#
# 1 55.3359 6.0151 12.4621 0.0000 0.0000 0.0000
# 2 6.0151 104.6957 26.2908 0.0000 0.0000 0.0000
# 3 12.4621 26.2908 63.9107 0.0000 0.0000 0.0000
# 4 0.0000 0.0000 0.0000 22.8623 0.0000 0.0000
# 5 0.0000 0.0000 0.0000 0.0000 19.9142 0.0000
# 6 0.0000 0.0000 0.0000 0.0000 0.0000 37.5119
#
#
#
# Elastic Compliance Matrix: (Units=1/GPa)
#
#
# Indices 1 2 3 4 5 6 
#
# 1 0.018904 -0.000179 -0.003613 0.000000 0.000000 0.000000
# 2 -0.000179 0.010654 -0.004348 0.000000 0.000000 0.000000
# 3 -0.003613 -0.004348 0.018140 0.000000 0.000000 0.000000
# 4 0.000000 0.000000 0.000000 0.043740 0.000000 0.000000
# 5 0.000000 0.000000 0.000000 0.000000 0.050215 0.000000
# 6 0.000000 0.000000 0.000000 0.000000 0.000000 0.026658
#
#
# Mechanical properties :
#
#
# Convention : Reuss Voigt Hill
#
# Bulk Modulus (GPa) = 31.82748 34.83092 33.32920
# Shear Modulus (GPa) = 25.63274 28.00263 26.81768
#
# Velocity S-wave (km/s) = 3.27433 3.42235 3.34916
# Velocity P-wave (km/s) = 5.25427 5.49411 5.37552
#
# Compressibility (1/GPa) = 0.03141939
#
# Stress axis : x y z
#
# Youngs Moduli (GPa) = 52.89752 93.86555 55.12756
#
# Poissons Ratio (x) = 0.01680 0.19915
# Poissons Ratio (y) = 0.00947 0.23967
# Poissons Ratio (z) = 0.19110 0.40809
#
# Static dielectric constant tensor:
#      x y z
#    x 1.916840 0.000000 0.000000 
#    y 0.000000 1.839410 0.000000 
#    z 0.000000 0.000000 2.049460 
# 
# From -- ./inp_files/2833.got.cif
#   From: 2010.05.17/outbox.cif.g08.bks.cpg/sg29_2_cif.got.tgz:2833.got - 2010.06.04 01:19:37.
