data_PCOD9341721
_publ_section_title
;
Structure prediction by ZEFSAII (Michael W. Deem and Ramdas Pophale) SiO2 
 PCOD9341721
Probable space group: P C A 21
;
_chemical_formula_sum "Si O2"
_cell_formula_units_Z 28
_cell_length_a 10.845785
_cell_length_b 5.226038
_cell_length_c 18.557496
_cell_angle_alpha 90.000000
_cell_angle_beta 90.000000
_cell_angle_gamma 90.000000
_cell_volume 1051.847865
_symmetry_space_group_name_H-M "P C A 21"
_symmetry_group_IT_number 29
_symmetry_cell_setting 'orthorhombic'
loop_
_space_group_symop_operation_xyz
x,y,z
-x,-y,1/2+z
1/2-x,y,1/2+z
1/2+x,-y,z
loop_
_atom_site_type_symbol
_atom_site_label
_atom_site_fract_x
_atom_site_fract_y
_atom_site_fract_z
Si Si1 0.235698 0.305245 0.698920
Si Si2 0.551190 0.091066 0.942344
Si Si3 0.969922 0.407312 0.662485
Si Si4 0.100453 0.680792 0.536674
Si Si5 0.867912 0.529826 0.899708
Si Si6 0.748936 0.026270 0.830872
Si Si7 0.310972 0.966311 0.586466
O O1 0.241786 0.049189 0.747526
O O2 0.254492 0.224212 0.616222
O O3 0.097298 0.408525 0.706698
O O4 0.358437 0.473894 0.708585
O O5 0.507509 0.380809 0.922708
O O6 0.614577 0.007235 0.868050
O O7 0.654315 0.063228 0.003674
O O8 0.450635 0.905597 0.982404
O O9 0.925837 0.127968 0.634802
O O10 0.996148 0.550357 0.585792
O O11 0.176580 0.505880 0.481335
O O12 0.195501 0.780952 0.595137
O O13 0.818301 0.287534 0.854346
O O14 0.822158 0.786789 0.863438
#
# Coordination Sequence:
#
# PCOD9341721 Si02
#       7
#     4   4   4   4   4   4   4
#     4  12  31  54  80 125 178 242 294 369 451 550
#     4  12  25  48  85 121 169 223 296 373 442 522
#     4  12  27  49  88 119 176 229 301 366 449 533
#     4  12  25  46  80 130 165 220 293 371 438 520
#     4  12  27  51  77 124 164 218 283 361 437 530
#     4  12  32  51  82 119 175 231 292 357 453 539
#     4  12  25  47  82 124 167 217 295 367 436 522
#
# _framework density 26.619821000000002
#
# number of rings (size 3 to 8) (size 9 to 14) (size 15 to 20)
#    0.000    0.000    7.143    0.857    8.000    2.286 
#    0.000    0.000    0.000    0.000    0.000    0.000 
#    0.000    0.000    0.000    0.000    0.000    0.000 
#
# Total GULP energy -156317.735641 kJ/mol
# GULP energy per Si atom -5582.776273 kJ/mol
# Density = 2.655923 g / cm^3
# Si number density = 26.619821 Si / 1000 Ang^3
#
#
#
# Elastic Constant Matrix: (Units=GPa)
#
#
# Indices 1 2 3 4 5 6 
#
# 1 133.5630 40.4488 44.8438 0.0000 0.0000 0.0000
# 2 40.4488 133.0955 53.0164 0.0000 0.0000 0.0000
# 3 44.8438 53.0164 121.6412 0.0000 0.0000 0.0000
# 4 0.0000 0.0000 0.0000 52.3380 0.0000 0.0000
# 5 0.0000 0.0000 0.0000 0.0000 14.7746 0.0000
# 6 0.0000 0.0000 0.0000 0.0000 0.0000 45.1878
#
#
#
# Elastic Compliance Matrix: (Units=1/GPa)
#
#
# Indices 1 2 3 4 5 6 
#
# 1 0.008845 -0.001681 -0.002528 0.000000 0.000000 0.000000
# 2 -0.001681 0.009411 -0.003482 0.000000 0.000000 0.000000
# 3 -0.002528 -0.003482 0.010671 0.000000 0.000000 0.000000
# 4 0.000000 0.000000 0.000000 0.019107 0.000000 0.000000
# 5 0.000000 0.000000 0.000000 0.000000 0.067684 0.000000
# 6 0.000000 0.000000 0.000000 0.000000 0.000000 0.022130
#
#
# Mechanical properties :
#
#
# Convention : Reuss Voigt Hill
#
# Bulk Modulus (GPa) = 73.83149 73.87973 73.85561
# Shear Modulus (GPa) = 31.69685 39.12614 35.41150
#
# Velocity S-wave (km/s) = 3.45443 3.83797 3.65124
# Velocity P-wave (km/s) = 6.61109 6.88868 6.75131
#
# Compressibility (1/GPa) = 0.01354436
#
# Stress axis : x y z
#
# Youngs Moduli (GPa) = 113.05812 106.25483 93.71579
#
# Poissons Ratio (x) = 0.17862 0.23692
# Poissons Ratio (y) = 0.19006 0.32633
# Poissons Ratio (z) = 0.28582 0.36999
#
# Static dielectric constant tensor:
#      x y z
#    x 2.193620 0.000000 0.000000 
#    y 0.000000 2.222220 0.000000 
#    z 0.000000 0.000000 2.057280 
# 
# From -- ./inp_files/5479.got.cif
#   From: 2010.05.17/outbox.cif.g08.bks.cpg/sg29_3_cif.got.tgz:5479.got - 2010.06.04 01:19:37.
