data_PCOD9341111
_publ_section_title
;
Structure prediction by ZEFSAII (Michael W. Deem and Ramdas Pophale) SiO2 
 PCOD9341111
Probable space group: P C A 21
;
_chemical_formula_sum "Si O2"
_cell_formula_units_Z 28
_cell_length_a 8.727899
_cell_length_b 11.292783
_cell_length_c 12.458238
_cell_angle_alpha 90.000000
_cell_angle_beta 90.000000
_cell_angle_gamma 90.000000
_cell_volume 1227.912211
_symmetry_space_group_name_H-M "P C A 21"
_symmetry_group_IT_number 29
_symmetry_cell_setting 'orthorhombic'
loop_
_space_group_symop_operation_xyz
x,y,z
-x,-y,1/2+z
1/2-x,y,1/2+z
1/2+x,-y,z
loop_
_atom_site_type_symbol
_atom_site_label
_atom_site_fract_x
_atom_site_fract_y
_atom_site_fract_z
Si Si1 0.001956 0.359759 0.533210
Si Si2 0.912085 0.127702 0.426343
Si Si3 0.637440 0.699256 0.761704
Si Si4 0.182035 0.732157 0.275819
Si Si5 0.702154 0.099530 0.617768
Si Si6 0.250006 0.507782 0.906884
Si Si7 0.386722 0.099831 0.730820
O O1 0.068366 0.359056 0.653240
O O2 0.112189 0.441239 0.462899
O O3 0.008425 0.223076 0.495093
O O4 0.840693 0.418359 0.497858
O O5 0.806498 0.204096 0.347968
O O6 0.787881 0.069446 0.506355
O O7 0.029785 0.068424 0.343409
O O8 0.490115 0.775894 0.797684
O O9 0.660258 0.597913 0.848887
O O10 0.788913 0.778302 0.742700
O O11 0.230846 0.773524 0.157135
O O12 0.198069 0.596908 0.312212
O O13 0.520108 0.104960 0.638774
O O14 0.767806 0.000714 0.697962
#
# Coordination Sequence:
#
# PCOD9341111 Si02
#       7
#     4   4   4   4   4   4   4
#     4  11  24  42  68 105 142 192 237 292 366 436
#     4  10  23  46  70 102 146 185 241 302 364 434
#     4  12  24  44  72 103 148 187 242 302 360 436
#     4  10  23  42  66  98 139 183 235 294 353 431
#     4  11  24  46  72 104 139 194 241 301 370 435
#     4  11  24  43  66 105 146 185 236 296 363 431
#     4  11  26  47  74 105 144 186 250 303 372 433
#
# _framework density 22.802932999999999
#
# number of rings (size 3 to 8) (size 9 to 14) (size 15 to 20)
#    0.000    1.143    4.286    0.857    2.000    3.429 
#    0.000    0.000    0.000    0.000    0.000    0.000 
#    0.000    0.000    0.000    0.000    0.000    0.000 
#
# Total GULP energy -156189.588950 kJ/mol
# GULP energy per Si atom -5578.199605 kJ/mol
# Density = 2.275103 g / cm^3
# Si number density = 22.802933 Si / 1000 Ang^3
#
#
#
# Elastic Constant Matrix: (Units=GPa)
#
#
# Indices 1 2 3 4 5 6 
#
# 1 102.5957 18.3662 1.3087 0.0000 0.0000 0.0000
# 2 18.3662 61.3630 6.4961 0.0000 0.0000 0.0000
# 3 1.3087 6.4961 59.4995 0.0000 0.0000 0.0000
# 4 0.0000 0.0000 0.0000 8.5856 0.0000 0.0000
# 5 0.0000 0.0000 0.0000 0.0000 10.6932 0.0000
# 6 0.0000 0.0000 0.0000 0.0000 0.0000 34.4198
#
#
#
# Elastic Compliance Matrix: (Units=1/GPa)
#
#
# Indices 1 2 3 4 5 6 
#
# 1 0.010300 -0.003094 0.000111 0.000000 0.000000 0.000000
# 2 -0.003094 0.017417 -0.001833 0.000000 0.000000 0.000000
# 3 0.000111 -0.001833 0.017005 0.000000 0.000000 0.000000
# 4 0.000000 0.000000 0.000000 0.116475 0.000000 0.000000
# 5 0.000000 0.000000 0.000000 0.000000 0.093517 0.000000
# 6 0.000000 0.000000 0.000000 0.000000 0.000000 0.029053
#
#
# Mechanical properties :
#
#
# Convention : Reuss Voigt Hill
#
# Bulk Modulus (GPa) = 28.50010 30.64445 29.57227
# Shear Modulus (GPa) = 16.38835 23.89219 20.14027
#
# Velocity S-wave (km/s) = 2.68376 3.24044 2.97515
# Velocity P-wave (km/s) = 4.70414 5.24105 4.97984
#
# Compressibility (1/GPa) = 0.03508760
#
# Stress axis : x y z
#
# Youngs Moduli (GPa) = 97.09172 57.41595 58.80765
#
# Poissons Ratio (x) = 0.17767 -0.00655
# Poissons Ratio (y) = 0.30045 0.10782
# Poissons Ratio (z) = -0.01081 0.10527
#
# Static dielectric constant tensor:
#      x y z
#    x 1.887710 0.000000 0.000000 
#    y 0.000000 1.855710 0.000000 
#    z 0.000000 0.000000 1.934900 
# 
# From -- ./inp_files/2887.got.cif
#   From: 2010.05.17/outbox.cif.g08.bks.cpg/sg29_2_cif.got.tgz:2887.got - 2010.06.04 01:19:37.
