data_PCOD9341049
_publ_section_title
;
Structure prediction by ZEFSAII (Michael W. Deem and Ramdas Pophale) SiO2 
 PCOD9341049
Probable space group: P C A 21
;
_chemical_formula_sum "Si O2"
_cell_formula_units_Z 32
_cell_length_a 12.137995
_cell_length_b 6.371910
_cell_length_c 18.204022
_cell_angle_alpha 90.000000
_cell_angle_beta 90.000000
_cell_angle_gamma 90.000000
_cell_volume 1407.939324
_symmetry_space_group_name_H-M "P C A 21"
_symmetry_group_IT_number 29
_symmetry_cell_setting 'orthorhombic'
loop_
_space_group_symop_operation_xyz
x,y,z
-x,-y,1/2+z
1/2-x,y,1/2+z
1/2+x,-y,z
loop_
_atom_site_type_symbol
_atom_site_label
_atom_site_fract_x
_atom_site_fract_y
_atom_site_fract_z
Si Si1 0.138657 0.790928 0.411150
Si Si2 0.040405 0.035859 0.532071
Si Si3 0.541557 0.969490 0.276312
Si Si4 0.951752 0.713879 0.171324
Si Si5 0.165678 0.705571 0.817769
Si Si6 0.225304 0.362757 0.228107
Si Si7 0.477764 0.566881 0.442695
Si Si8 0.081473 0.357171 0.092312
O O1 0.258553 0.819881 0.377515
O O2 0.091314 0.556586 0.425101
O O3 0.128882 0.896930 0.490184
O O4 0.060302 0.906927 0.352095
O O5 0.086107 0.174625 0.597227
O O6 0.995168 0.196454 0.470822
O O7 0.955191 0.877199 0.571335
O O8 0.424295 0.847825 0.277047
O O9 0.637774 0.795333 0.264928
O O10 0.542149 0.141945 0.211516
O O11 0.850654 0.713027 0.226668
O O12 0.994415 0.486880 0.144032
O O13 0.255786 0.584642 0.768385
O O14 0.092614 0.553649 0.868871
O O15 0.187706 0.377668 0.143337
O O16 0.417096 0.464181 0.512610
#
# Coordination Sequence:
#
# PCOD9341049 Si02
#       8
#     4   4   4   4   4   4   4   4
#     4  11  24  43  71 101 137 187 235 288 356 429
#     4  10  22  46  70  98 146 184 232 292 356 418
#     4  12  24  48  68 102 152 184 238 310 364 434
#     4  11  24  43  71 101 137 187 235 288 356 429
#     4  12  25  43  72 104 139 192 239 295 366 435
#     4  12  25  43  72 104 139 192 239 295 366 435
#     4  10  23  45  69 102 147 185 238 302 355 427
#     4  10  23  45  69 102 147 185 238 302 355 427
#
# _framework density 22.728249999999999
#
# number of rings (size 3 to 8) (size 9 to 14) (size 15 to 20)
#    0.000    1.000    2.500    3.750    0.000    4.000 
#    0.000    0.000    0.000    0.000    0.000    0.000 
#    0.000    0.000    0.000    0.000    0.000    0.000 
#
# Total GULP energy -178585.157654 kJ/mol
# GULP energy per Si atom -5580.786177 kJ/mol
# Density = 2.267652 g / cm^3
# Si number density = 22.728250 Si / 1000 Ang^3
#
#
#
# Elastic Constant Matrix: (Units=GPa)
#
#
# Indices 1 2 3 4 5 6 
#
# 1 69.9582 46.7309 19.8674 0.0000 0.0000 0.0000
# 2 46.7309 92.9138 34.8702 0.0000 0.0000 0.0000
# 3 19.8674 34.8702 80.2495 0.0000 0.0000 0.0000
# 4 0.0000 0.0000 0.0000 38.1632 0.0000 0.0000
# 5 0.0000 0.0000 0.0000 0.0000 40.3939 0.0000
# 6 0.0000 0.0000 0.0000 0.0000 0.0000 20.5933
#
#
#
# Elastic Compliance Matrix: (Units=1/GPa)
#
#
# Indices 1 2 3 4 5 6 
#
# 1 0.021564 -0.010565 -0.000748 0.000000 0.000000 0.000000
# 2 -0.010565 0.018036 -0.005221 0.000000 0.000000 0.000000
# 3 -0.000748 -0.005221 0.014915 0.000000 0.000000 0.000000
# 4 0.000000 0.000000 0.000000 0.026203 0.000000 0.000000
# 5 0.000000 0.000000 0.000000 0.000000 0.024756 0.000000
# 6 0.000000 0.000000 0.000000 0.000000 0.000000 0.048560
#
#
# Mechanical properties :
#
#
# Convention : Reuss Voigt Hill
#
# Bulk Modulus (GPa) = 46.62781 49.56205 48.09493
# Shear Modulus (GPa) = 25.73993 29.27362 27.50677
#
# Velocity S-wave (km/s) = 3.36893 3.59274 3.48263
# Velocity P-wave (km/s) = 5.97434 6.25013 6.11379
#
# Compressibility (1/GPa) = 0.02144643
#
# Stress axis : x y z
#
# Youngs Moduli (GPa) = 46.37414 55.44530 67.04607
#
# Poissons Ratio (x) = 0.58577 0.05014
# Poissons Ratio (y) = 0.48993 0.35008
# Poissons Ratio (z) = 0.03468 0.28950
#
# Static dielectric constant tensor:
#      x y z
#    x 1.876110 0.000000 0.000000 
#    y 0.000000 1.928590 0.000000 
#    z 0.000000 0.000000 1.830130 
# 
# From -- ./inp_files/5555.got.cif
#   From: 2010.05.17/outbox.cif.g08.bks.cpg/sg29_3_cif.got.tgz:5555.got - 2010.06.04 01:19:37.
