data_PCOD9341044
_publ_section_title
;
Structure prediction by ZEFSAII (Michael W. Deem and Ramdas Pophale) SiO2 
 PCOD9341044
Probable space group: P C A 21
;
_chemical_formula_sum "Si O2"
_cell_formula_units_Z 20
_cell_length_a 13.471915
_cell_length_b 5.266576
_cell_length_c 10.033717
_cell_angle_alpha 90.000000
_cell_angle_beta 90.000000
_cell_angle_gamma 90.000000
_cell_volume 711.900892
_symmetry_space_group_name_H-M "P C A 21"
_symmetry_group_IT_number 29
_symmetry_cell_setting 'orthorhombic'
loop_
_space_group_symop_operation_xyz
x,y,z
-x,-y,1/2+z
1/2-x,y,1/2+z
1/2+x,-y,z
loop_
_atom_site_type_symbol
_atom_site_label
_atom_site_fract_x
_atom_site_fract_y
_atom_site_fract_z
Si Si1 0.915429 0.752763 0.311780
Si Si2 0.076397 0.375836 0.285848
Si Si3 0.482759 0.984328 0.566834
Si Si4 0.778252 0.801021 0.988480
Si Si5 0.302124 0.695616 0.615575
O O1 0.964287 0.478566 0.287438
O O2 0.985004 0.862245 0.430103
O O3 0.805636 0.786015 0.370311
O O4 0.935004 0.897058 0.173291
O O5 0.080319 0.180010 0.163389
O O6 0.116295 0.238098 0.416940
O O7 0.153078 0.612025 0.259228
O O8 0.408210 0.746718 0.544059
O O9 0.759154 0.548636 0.072797
O O10 0.758755 0.059577 0.068737
#
# Coordination Sequence:
#
# PCOD9341044 Si02
#       5
#     4   4   4   4   4
#     4  10  24  46  75 105 152 192 245 305 369 435
#     4  11  24  46  74 109 147 194 248 308 364 446
#     4  10  23  47  72 106 151 188 249 304 363 436
#     4  11  25  45  73 102 147 195 240 299 376 429
#     4  10  22  46  68 100 147 185 236 310 352 434
#
# _framework density 28.093799000000001
#
# number of rings (size 3 to 8) (size 9 to 14) (size 15 to 20)
#    0.000    1.600    4.000    0.000   11.200    0.000 
#   10.800    0.000    0.000    0.000    0.000    0.000 
#    0.000    0.000    0.000    0.000    0.000    0.000 
#
# Total GULP energy -111878.845886 kJ/mol
# GULP energy per Si atom -5593.942294 kJ/mol
# Density = 2.802986 g / cm^3
# Si number density = 28.093799 Si / 1000 Ang^3
#
#
#
# Elastic Constant Matrix: (Units=GPa)
#
#
# Indices 1 2 3 4 5 6 
#
# 1 74.0320 5.8848 -16.6678 0.0000 0.0000 0.0000
# 2 5.8848 135.6628 15.5582 0.0000 0.0000 0.0000
# 3 -16.6678 15.5582 146.8304 0.0000 0.0000 0.0000
# 4 0.0000 0.0000 0.0000 55.8023 0.0000 0.0000
# 5 0.0000 0.0000 0.0000 0.0000 48.5486 0.0000
# 6 0.0000 0.0000 0.0000 0.0000 0.0000 43.9310
#
#
#
# Elastic Compliance Matrix: (Units=1/GPa)
#
#
# Indices 1 2 3 4 5 6 
#
# 1 0.013946 -0.000796 0.001668 0.000000 0.000000 0.000000
# 2 -0.000796 0.007507 -0.000886 0.000000 0.000000 0.000000
# 3 0.001668 -0.000886 0.007094 0.000000 0.000000 0.000000
# 4 0.000000 0.000000 0.000000 0.017920 0.000000 0.000000
# 5 0.000000 0.000000 0.000000 0.000000 0.020598 0.000000
# 6 0.000000 0.000000 0.000000 0.000000 0.000000 0.022763
#
#
# Mechanical properties :
#
#
# Convention : Reuss Voigt Hill
#
# Bulk Modulus (GPa) = 35.06513 40.67509 37.87011
# Shear Modulus (GPa) = 50.32002 53.10636 51.71319
#
# Velocity S-wave (km/s) = 4.23678 4.35250 4.29503
# Velocity P-wave (km/s) = 6.03675 6.30625 6.17297
#
# Compressibility (1/GPa) = 0.02851836
#
# Stress axis : x y z
#
# Youngs Moduli (GPa) = 71.70318 133.20281 140.96940
#
# Poissons Ratio (x) = 0.10606 -0.23507
# Poissons Ratio (y) = 0.05709 0.12488
# Poissons Ratio (z) = -0.11957 0.11800
#
# Static dielectric constant tensor:
#      x y z
#    x 2.430900 0.000000 0.000000 
#    y 0.000000 2.305630 0.000000 
#    z 0.000000 0.000000 2.185220 
# 
# From -- ./inp_files/3291.got.cif
#   From: 2010.05.17/outbox.cif.g08.bks.cpg/sg29_2_cif.got.tgz:3291.got - 2010.06.04 01:19:37.
