data_PCOD9341088
_publ_section_title
;
Structure prediction by ZEFSAII (Michael W. Deem and Ramdas Pophale) SiO2 
 PCOD9341088
Probable space group: P C A 21
;
_chemical_formula_sum "Si O2"
_cell_formula_units_Z 32
_cell_length_a 18.716173
_cell_length_b 8.780966
_cell_length_c 8.038295
_cell_angle_alpha 90.000000
_cell_angle_beta 90.000000
_cell_angle_gamma 90.000000
_cell_volume 1321.062263
_symmetry_space_group_name_H-M "P C A 21"
_symmetry_group_IT_number 29
_symmetry_cell_setting 'orthorhombic'
loop_
_space_group_symop_operation_xyz
x,y,z
-x,-y,1/2+z
1/2-x,y,1/2+z
1/2+x,-y,z
loop_
_atom_site_type_symbol
_atom_site_label
_atom_site_fract_x
_atom_site_fract_y
_atom_site_fract_z
Si Si1 0.771811 0.166793 0.131100
Si Si2 0.908728 0.171371 0.346049
Si Si3 0.264539 0.169628 0.528466
Si Si4 0.843960 0.322143 0.822866
Si Si5 0.094365 0.173124 0.852145
Si Si6 0.977804 0.327068 0.035590
Si Si7 0.524421 0.677936 0.538397
Si Si8 0.843256 0.671248 0.822246
O O1 0.825941 0.177821 0.289318
O O2 0.692880 0.211570 0.190953
O O3 0.769204 0.997001 0.055598
O O4 0.802993 0.283243 0.995711
O O5 0.948528 0.215118 0.174948
O O6 0.944363 0.279463 0.483653
O O7 0.926294 0.999238 0.395734
O O8 0.320719 0.177579 0.374953
O O9 0.203586 0.290830 0.486205
O O10 0.313091 0.214615 0.685143
O O11 0.831730 0.496536 0.772793
O O12 0.926500 0.304245 0.874166
O O13 0.061572 0.215578 0.674440
O O14 0.056995 0.289372 0.978215
O O15 0.970640 0.501692 0.091970
O O16 0.574954 0.691703 0.375498
#
# Coordination Sequence:
#
# PCOD9341088 Si02
#       8
#     4   4   4   4   4   4   4   4
#     4  11  23  42  66  97 133 175 226 279 339 402
#     4  11  23  42  66  94 131 175 223 278 340 406
#     4  12  25  42  68  99 134 173 223 281 338 405
#     4  10  23  41  64  92 129 172 220 274 332 402
#     4  12  25  41  66  98 131 174 223 276 343 406
#     4  10  24  43  63  94 132 175 225 278 338 404
#     4  11  24  43  66  94 133 175 224 281 338 408
#     4  11  23  42  65  94 129 171 220 273 334 399
#
# _framework density 24.222930999999999
#
# number of rings (size 3 to 8) (size 9 to 14) (size 15 to 20)
#    0.000    1.000    0.000    6.750    0.000   10.000 
#    0.000    1.250    0.000    0.000    0.000    0.000 
#    0.000    0.000    0.000    0.000    0.000    0.000 
#
# Total GULP energy -179176.045939 kJ/mol
# GULP energy per Si atom -5599.251436 kJ/mol
# Density = 2.416780 g / cm^3
# Si number density = 24.222931 Si / 1000 Ang^3
#
#
#
# Elastic Constant Matrix: (Units=GPa)
#
#
# Indices 1 2 3 4 5 6 
#
# 1 126.7939 19.1075 7.5391 0.0000 0.0000 0.0000
# 2 19.1075 79.0774 -9.3565 0.0000 0.0000 0.0000
# 3 7.5391 -9.3565 48.5576 0.0000 0.0000 0.0000
# 4 0.0000 0.0000 0.0000 37.6571 0.0000 0.0000
# 5 0.0000 0.0000 0.0000 0.0000 46.7528 0.0000
# 6 0.0000 0.0000 0.0000 0.0000 0.0000 31.5980
#
#
#
# Elastic Compliance Matrix: (Units=1/GPa)
#
#
# Indices 1 2 3 4 5 6 
#
# 1 0.008323 -0.002214 -0.001719 0.000000 0.000000 0.000000
# 2 -0.002214 0.013530 0.002951 0.000000 0.000000 0.000000
# 3 -0.001719 0.002951 0.021430 0.000000 0.000000 0.000000
# 4 0.000000 0.000000 0.000000 0.026555 0.000000 0.000000
# 5 0.000000 0.000000 0.000000 0.000000 0.021389 0.000000
# 6 0.000000 0.000000 0.000000 0.000000 0.000000 0.031648
#
#
# Mechanical properties :
#
#
# Convention : Reuss Voigt Hill
#
# Bulk Modulus (GPa) = 24.20275 32.11212 28.15743
# Shear Modulus (GPa) = 36.07195 39.01081 37.54138
#
# Velocity S-wave (km/s) = 3.86316 4.01745 3.94106
# Velocity P-wave (km/s) = 5.46919 5.89962 5.68848
#
# Compressibility (1/GPa) = 0.04131762
#
# Stress axis : x y z
#
# Youngs Moduli (GPa) = 120.15294 73.90947 46.66443
#
# Poissons Ratio (x) = 0.16367 0.08021
# Poissons Ratio (y) = 0.26607 -0.13770
# Poissons Ratio (z) = 0.20653 -0.21810
#
# Static dielectric constant tensor:
#      x y z
#    x 1.941440 0.000000 0.000000 
#    y 0.000000 1.789210 0.000000 
#    z 0.000000 0.000000 2.003480 
# 
# From -- ./inp_files/2276.got.cif
#   From: 2010.05.17/outbox.cif.g08.bks.cpg/sg29_2_cif.got.tgz:2276.got - 2010.06.04 01:19:37.
