data_PCOD9341043
_publ_section_title
;
Structure prediction by ZEFSAII (Michael W. Deem and Ramdas Pophale) SiO2 
 PCOD9341043
Probable space group: P C A 21
;
_chemical_formula_sum "Si O2"
_cell_formula_units_Z 24
_cell_length_a 13.865464
_cell_length_b 5.409237
_cell_length_c 12.910094
_cell_angle_alpha 90.000000
_cell_angle_beta 90.000000
_cell_angle_gamma 90.000000
_cell_volume 968.277459
_symmetry_space_group_name_H-M "P C A 21"
_symmetry_group_IT_number 29
_symmetry_cell_setting 'orthorhombic'
loop_
_space_group_symop_operation_xyz
x,y,z
-x,-y,1/2+z
1/2-x,y,1/2+z
1/2+x,-y,z
loop_
_atom_site_type_symbol
_atom_site_label
_atom_site_fract_x
_atom_site_fract_y
_atom_site_fract_z
Si Si1 0.977409 0.841565 0.818870
Si Si2 0.753527 0.821123 0.830747
Si Si3 0.440276 0.615732 0.102552
Si Si4 0.590608 0.916370 0.985444
Si Si5 0.559045 0.228860 0.167249
Si Si6 0.742684 0.343721 0.704328
O O1 0.867946 0.775331 0.848676
O O2 0.021151 0.703965 0.717844
O O3 0.970676 0.124511 0.777059
O O4 0.050838 0.861598 0.913112
O O5 0.687732 0.826478 0.932736
O O6 0.712203 0.587794 0.767110
O O7 0.743449 0.087582 0.770899
O O8 0.466397 0.328252 0.108315
O O9 0.328854 0.681739 0.107259
O O10 0.501897 0.731249 0.009816
O O11 0.608485 0.014758 0.100316
O O12 0.648203 0.411725 0.173051
#
# Coordination Sequence:
#
# PCOD9341043 Si02
#       6
#     4   4   4   4   4   4
#     4  10  22  46  67  95 138 184 223 283 348 408
#     4  11  24  45  72  98 137 183 231 278 344 411
#     4  11  23  43  68  98 138 181 227 290 340 411
#     4  11  25  41  68 105 137 179 238 283 341 416
#     4  10  24  44  65 102 138 178 233 285 342 413
#     4  11  24  45  74  94 138 187 222 285 347 403
#
# _framework density 24.786283999999998
#
# number of rings (size 3 to 8) (size 9 to 14) (size 15 to 20)
#    0.000    1.333    3.333    1.000    7.000    1.333 
#    3.000    0.000    0.000    0.000    0.000    0.000 
#    0.000    0.000    0.000    0.000    0.000    0.000 
#
# Total GULP energy -133930.134532 kJ/mol
# GULP energy per Si atom -5580.422272 kJ/mol
# Density = 2.472987 g / cm^3
# Si number density = 24.786284 Si / 1000 Ang^3
#
#
#
# Elastic Constant Matrix: (Units=GPa)
#
#
# Indices 1 2 3 4 5 6 
#
# 1 74.7037 -2.0447 -11.3918 0.0000 0.0000 0.0000
# 2 -2.0447 61.4882 -1.3905 0.0000 0.0000 0.0000
# 3 -11.3918 -1.3905 53.5944 0.0000 0.0000 0.0000
# 4 0.0000 0.0000 0.0000 26.2309 0.0000 0.0000
# 5 0.0000 0.0000 0.0000 0.0000 25.3211 0.0000
# 6 0.0000 0.0000 0.0000 0.0000 0.0000 28.6276
#
#
#
# Elastic Compliance Matrix: (Units=1/GPa)
#
#
# Indices 1 2 3 4 5 6 
#
# 1 0.013852 0.000528 0.002958 0.000000 0.000000 0.000000
# 2 0.000528 0.016293 0.000535 0.000000 0.000000 0.000000
# 3 0.002958 0.000535 0.019301 0.000000 0.000000 0.000000
# 4 0.000000 0.000000 0.000000 0.038123 0.000000 0.000000
# 5 0.000000 0.000000 0.000000 0.000000 0.039493 0.000000
# 6 0.000000 0.000000 0.000000 0.000000 0.000000 0.034931
#
#
# Mechanical properties :
#
#
# Convention : Reuss Voigt Hill
#
# Bulk Modulus (GPa) = 17.39539 17.79249 17.59394
# Shear Modulus (GPa) = 28.88261 29.67681 29.27971
#
# Velocity S-wave (km/s) = 3.41730 3.46397 3.44071
# Velocity P-wave (km/s) = 4.75437 4.81588 4.78522
#
# Compressibility (1/GPa) = 0.05748651
#
# Stress axis : x y z
#
# Youngs Moduli (GPa) = 72.19323 61.37637 51.81004
#
# Poissons Ratio (x) = -0.03238 -0.15325
# Poissons Ratio (y) = -0.03808 -0.02771
# Poissons Ratio (z) = -0.21354 -0.03283
#
# Static dielectric constant tensor:
#      x y z
#    x 1.993400 0.000000 0.000000 
#    y 0.000000 2.120300 0.000000 
#    z 0.000000 0.000000 1.931830 
# 
# From -- ./inp_files/3338.got.cif
#   From: 2010.05.17/outbox.cif.g08.bks.cpg/sg29_2_cif.got.tgz:3338.got - 2010.06.04 01:19:37.
