data_PCOD9341766
_publ_section_title
;
Structure prediction by ZEFSAII (Michael W. Deem and Ramdas Pophale) SiO2 
 PCOD9341766
Probable space group: P C A 21
;
_chemical_formula_sum "Si O2"
_cell_formula_units_Z 12
_cell_length_a 13.491728
_cell_length_b 4.662233
_cell_length_c 6.725312
_cell_angle_alpha 90.000000
_cell_angle_beta 90.000000
_cell_angle_gamma 90.000000
_cell_volume 423.032747
_symmetry_space_group_name_H-M "P C A 21"
_symmetry_group_IT_number 29
_symmetry_cell_setting 'orthorhombic'
loop_
_space_group_symop_operation_xyz
x,y,z
-x,-y,1/2+z
1/2-x,y,1/2+z
1/2+x,-y,z
loop_
_atom_site_type_symbol
_atom_site_label
_atom_site_fract_x
_atom_site_fract_y
_atom_site_fract_z
Si Si1 0.819722 0.107044 0.804000
Si Si2 0.104850 0.932355 0.746454
Si Si3 0.408868 0.361964 0.602261
O O1 0.889269 0.312844 0.669941
O O2 0.814855 0.802947 0.695134
O O3 0.707326 0.215105 0.823278
O O4 0.867644 0.039184 0.015035
O O5 0.086905 0.212253 0.884324
O O6 0.495299 0.746532 0.228075
#
# Coordination Sequence:
#
# PCOD9341766 Si02
#       3
#     4   4   4
#     4  12  30  47  84 120 167 220 287 350 430 506
#     4  12  28  54  82 122 172 226 281 359 427 513
#     4  12  30  51  80 124 167 222 284 351 429 511
#
# _framework density 28.366596000000001
#
# number of rings (size 3 to 8) (size 9 to 14) (size 15 to 20)
#    0.000    0.000    6.667    0.000    9.333    5.333 
#    0.000    0.000    0.000    0.000    0.000    0.000 
#    0.000    0.000    0.000    0.000    0.000    0.000 
#
# Total GULP energy -67075.709321 kJ/mol
# GULP energy per Si atom -5589.642443 kJ/mol
# Density = 2.830203 g / cm^3
# Si number density = 28.366596 Si / 1000 Ang^3
#
#
#
# Elastic Constant Matrix: (Units=GPa)
#
#
# Indices 1 2 3 4 5 6 
#
# 1 167.2264 30.2707 46.9666 0.0000 0.0000 0.0000
# 2 30.2707 147.9210 57.4958 0.0000 0.0000 0.0000
# 3 46.9666 57.4958 195.4963 0.0000 0.0000 0.0000
# 4 0.0000 0.0000 0.0000 23.8170 0.0000 0.0000
# 5 0.0000 0.0000 0.0000 0.0000 50.8606 0.0000
# 6 0.0000 0.0000 0.0000 0.0000 0.0000 48.8503
#
#
#
# Elastic Compliance Matrix: (Units=1/GPa)
#
#
# Indices 1 2 3 4 5 6 
#
# 1 0.006499 -0.000816 -0.001321 0.000000 0.000000 0.000000
# 2 -0.000816 0.007735 -0.002079 0.000000 0.000000 0.000000
# 3 -0.001321 -0.002079 0.006044 0.000000 0.000000 0.000000
# 4 0.000000 0.000000 0.000000 0.041987 0.000000 0.000000
# 5 0.000000 0.000000 0.000000 0.000000 0.019662 0.000000
# 6 0.000000 0.000000 0.000000 0.000000 0.000000 0.020471
#
#
# Mechanical properties :
#
#
# Convention : Reuss Voigt Hill
#
# Bulk Modulus (GPa) = 84.42142 86.67886 85.55014
# Shear Modulus (GPa) = 43.56209 49.76627 46.66418
#
# Velocity S-wave (km/s) = 3.92303 4.19310 4.06031
# Velocity P-wave (km/s) = 7.09547 7.35294 7.22535
#
# Compressibility (1/GPa) = 0.01184534
#
# Stress axis : x y z
#
# Youngs Moduli (GPa) = 153.87556 129.27448 165.45344
#
# Poissons Ratio (x) = 0.10554 0.21859
# Poissons Ratio (y) = 0.12562 0.34396
# Poissons Ratio (z) = 0.20330 0.26875
#
# Static dielectric constant tensor:
#      x y z
#    x 2.282520 0.000000 0.000000 
#    y 0.000000 2.169700 0.000000 
#    z 0.000000 0.000000 2.245080 
# 
# From -- ./inp_files/301.got.cif
#   From: 2010.05.17/outbox.cif.g08.bks.cpg/sg29_1_cif.got.tgz:301.got - 2010.06.04 01:19:37.
