data_PCOD9341078
_publ_section_title
;
Structure prediction by ZEFSAII (Michael W. Deem and Ramdas Pophale) SiO2 
 PCOD9341078
Probable space group: P C A 21
;
_chemical_formula_sum "Si O2"
_cell_formula_units_Z 32
_cell_length_a 5.682279
_cell_length_b 17.398613
_cell_length_c 14.174404
_cell_angle_alpha 90.000000
_cell_angle_beta 90.000000
_cell_angle_gamma 90.000000
_cell_volume 1401.335063
_symmetry_space_group_name_H-M "P C A 21"
_symmetry_group_IT_number 29
_symmetry_cell_setting 'orthorhombic'
loop_
_space_group_symop_operation_xyz
x,y,z
-x,-y,1/2+z
1/2-x,y,1/2+z
1/2+x,-y,z
loop_
_atom_site_type_symbol
_atom_site_label
_atom_site_fract_x
_atom_site_fract_y
_atom_site_fract_z
Si Si1 0.435654 0.980121 0.745540
Si Si2 0.264480 0.706532 0.622867
Si Si3 0.843690 0.642365 0.033260
Si Si4 0.127609 0.326739 0.235965
Si Si5 0.064971 0.195196 0.763493
Si Si6 0.280081 0.458824 0.370923
Si Si7 0.631435 0.965347 0.028700
Si Si8 0.079009 0.211286 0.977774
O O1 0.533830 0.893784 0.744822
O O2 0.668576 0.022332 0.787783
O O3 0.389892 0.015360 0.640897
O O4 0.379272 0.644918 0.552541
O O5 0.437551 0.763532 0.676785
O O6 0.100260 0.758488 0.557037
O O7 0.144153 0.665017 0.711987
O O8 0.736711 0.647241 0.136796
O O9 0.743114 0.570979 0.977836
O O10 0.781773 0.723900 0.983942
O O11 0.181236 0.237253 0.257721
O O12 0.239319 0.381132 0.312188
O O13 0.982049 0.210515 0.870837
O O14 0.539807 0.492503 0.352086
O O15 0.374157 0.994766 0.993309
O O16 0.652738 0.874993 0.005372
#
# Coordination Sequence:
#
# PCOD9341078 Si02
#       8
#     4   4   4   4   4   4   4   4
#     4  10  23  40  63  96 147 190 247 303 381 425
#     4  10  24  42  74 100 148 190 256 304 366 446
#     4  10  25  46  74 110 146 198 253 297 380 456
#     4  10  25  46  74 110 146 198 253 297 380 456
#     4  11  24  42  72 105 145 199 256 314 368 451
#     4  12  30  50  80 114 158 192 240 316 376 448
#     4  10  23  40  63  96 147 190 247 303 381 425
#     4  11  24  42  72 105 145 199 256 314 368 451
#
# _framework density 22.835366
#
# number of rings (size 3 to 8) (size 9 to 14) (size 15 to 20)
#    0.000    1.500    1.250    1.500   22.750    2.000 
#    0.000    0.000    0.000    0.000    0.000    0.000 
#    0.000    0.000    0.000    0.000    0.000    0.000 
#
# Total GULP energy -178315.499206 kJ/mol
# GULP energy per Si atom -5572.359350 kJ/mol
# Density = 2.278339 g / cm^3
# Si number density = 22.835366 Si / 1000 Ang^3
#
#
#
# Elastic Constant Matrix: (Units=GPa)
#
#
# Indices 1 2 3 4 5 6 
#
# 1 103.2668 31.0959 3.8934 0.0000 0.0000 0.0000
# 2 31.0959 35.6380 -2.2686 0.0000 0.0000 0.0000
# 3 3.8934 -2.2686 84.9703 0.0000 0.0000 0.0000
# 4 0.0000 0.0000 0.0000 25.0645 0.0000 0.0000
# 5 0.0000 0.0000 0.0000 0.0000 19.3068 0.0000
# 6 0.0000 0.0000 0.0000 0.0000 0.0000 19.8553
#
#
#
# Elastic Compliance Matrix: (Units=1/GPa)
#
#
# Indices 1 2 3 4 5 6 
#
# 1 0.013205 -0.011580 -0.000914 0.000000 0.000000 0.000000
# 2 -0.011580 0.038263 0.001552 0.000000 0.000000 0.000000
# 3 -0.000914 0.001552 0.011852 0.000000 0.000000 0.000000
# 4 0.000000 0.000000 0.000000 0.039897 0.000000 0.000000
# 5 0.000000 0.000000 0.000000 0.000000 0.051795 0.000000
# 6 0.000000 0.000000 0.000000 0.000000 0.000000 0.050364
#
#
# Mechanical properties :
#
#
# Convention : Reuss Voigt Hill
#
# Bulk Modulus (GPa) = 24.13380 32.14630 28.14005
# Shear Modulus (GPa) = 20.74050 25.58895 23.16472
#
# Velocity S-wave (km/s) = 3.01701 3.35114 3.18846
# Velocity P-wave (km/s) = 4.76739 5.39273 5.08967
#
# Compressibility (1/GPa) = 0.04143566
#
# Stress axis : x y z
#
# Youngs Moduli (GPa) = 75.72746 26.13472 84.37291
#
# Poissons Ratio (x) = 0.30265 0.07714
# Poissons Ratio (y) = 0.87696 -0.13096
# Poissons Ratio (z) = 0.06923 -0.04057
#
# Static dielectric constant tensor:
#      x y z
#    x 2.149090 0.000000 0.000000 
#    y 0.000000 1.821800 0.000000 
#    z 0.000000 0.000000 1.911120 
# 
# From -- ./inp_files/4101.got.cif
#   From: 2010.05.17/outbox.cif.g08.bks.cpg/sg29_3_cif.got.tgz:4101.got - 2010.06.04 01:19:37.
