data_PCOD9341665
_publ_section_title
;
Structure prediction by ZEFSAII (Michael W. Deem and Ramdas Pophale) SiO2 
 PCOD9341665
Probable space group: P C A 21
;
_chemical_formula_sum "Si O2"
_cell_formula_units_Z 28
_cell_length_a 11.504291
_cell_length_b 11.785987
_cell_length_c 9.247307
_cell_angle_alpha 90.000000
_cell_angle_beta 90.000000
_cell_angle_gamma 90.000000
_cell_volume 1253.837031
_symmetry_space_group_name_H-M "P C A 21"
_symmetry_group_IT_number 29
_symmetry_cell_setting 'orthorhombic'
loop_
_space_group_symop_operation_xyz
x,y,z
-x,-y,1/2+z
1/2-x,y,1/2+z
1/2+x,-y,z
loop_
_atom_site_type_symbol
_atom_site_label
_atom_site_fract_x
_atom_site_fract_y
_atom_site_fract_z
Si Si1 0.296768 0.553490 0.812950
Si Si2 0.630230 0.880292 0.838242
Si Si3 0.145632 0.188721 0.157887
Si Si4 0.512837 0.311661 0.199006
Si Si5 0.895562 0.119971 0.227407
Si Si6 0.278414 0.773862 0.496455
Si Si7 0.718256 0.594365 0.571619
O O1 0.430387 0.579971 0.777024
O O2 0.255654 0.663035 0.901952
O O3 0.231801 0.520410 0.665787
O O4 0.275534 0.443054 0.907727
O O5 0.755524 0.850964 0.769500
O O6 0.539626 0.778440 0.810159
O O7 0.584618 0.985524 0.742414
O O8 0.642699 0.888181 0.011689
O O9 0.183072 0.314750 0.109153
O O10 0.019090 0.182143 0.227264
O O11 0.405245 0.349302 0.102049
O O12 0.617164 0.258934 0.105029
O O13 0.823761 0.143081 0.372845
O O14 0.822569 0.167761 0.091498
#
# Coordination Sequence:
#
# PCOD9341665 Si02
#       7
#     4   4   4   4   4   4   4
#     4  12  24  46  70 103 142 190 238 301 370 436
#     4  11  27  47  75 106 145 195 249 302 381 434
#     4  11  27  49  72 113 147 188 257 311 362 465
#     4  11  26  44  69 102 149 177 253 298 351 455
#     4  12  28  46  79 100 155 195 246 309 382 432
#     4  12  26  48  67 113 139 192 252 301 362 456
#     4  11  26  44  74 105 141 195 239 302 382 432
#
# _framework density 22.331451000000001
#
# number of rings (size 3 to 8) (size 9 to 14) (size 15 to 20)
#    0.000    0.571    2.857    3.429   12.000    2.286 
#    0.000    0.000    0.000    0.000    0.000    0.000 
#    0.000    0.000    0.000    0.000    0.000    0.000 
#
# Total GULP energy -156602.484307 kJ/mol
# GULP energy per Si atom -5592.945868 kJ/mol
# Density = 2.228062 g / cm^3
# Si number density = 22.331451 Si / 1000 Ang^3
#
#
#
# Elastic Constant Matrix: (Units=GPa)
#
#
# Indices 1 2 3 4 5 6 
#
# 1 62.7582 -14.2605 -0.2670 0.0000 0.0000 0.0000
# 2 -14.2605 35.5156 -11.3474 0.0000 0.0000 0.0000
# 3 -0.2670 -11.3474 69.1229 0.0000 0.0000 0.0000
# 4 0.0000 0.0000 0.0000 33.2400 0.0000 0.0000
# 5 0.0000 0.0000 0.0000 0.0000 15.1576 0.0000
# 6 0.0000 0.0000 0.0000 0.0000 0.0000 25.4608
#
#
#
# Elastic Compliance Matrix: (Units=1/GPa)
#
#
# Indices 1 2 3 4 5 6 
#
# 1 0.017644 0.007500 0.001299 0.000000 0.000000 0.000000
# 2 0.007500 0.032903 0.005430 0.000000 0.000000 0.000000
# 3 0.001299 0.005430 0.015363 0.000000 0.000000 0.000000
# 4 0.000000 0.000000 0.000000 0.030084 0.000000 0.000000
# 5 0.000000 0.000000 0.000000 0.000000 0.065973 0.000000
# 6 0.000000 0.000000 0.000000 0.000000 0.000000 0.039276
#
#
# Mechanical properties :
#
#
# Convention : Reuss Voigt Hill
#
# Bulk Modulus (GPa) = 10.59669 12.84965 11.72317
# Shear Modulus (GPa) = 24.48081 27.65647 26.06864
#
# Velocity S-wave (km/s) = 3.31456 3.52299 3.42036
# Velocity P-wave (km/s) = 4.40498 4.72389 4.56722
#
# Compressibility (1/GPa) = 0.09436906
#
# Stress axis : x y z
#
# Youngs Moduli (GPa) = 56.67704 30.39235 65.08944
#
# Poissons Ratio (x) = -0.22793 -0.08457
# Poissons Ratio (y) = -0.42506 -0.35346
# Poissons Ratio (z) = -0.07364 -0.16504
#
# Static dielectric constant tensor:
#      x y z
#    x 1.761960 0.000000 0.000000 
#    y 0.000000 1.903530 0.000000 
#    z 0.000000 0.000000 1.808750 
# 
# From -- ./inp_files/1452.got.cif
#   From: 2010.05.17/outbox.cif.g08.bks.cpg/sg29_1_cif.got.tgz:1452.got - 2010.06.04 01:19:37.
