data_PCOD9341948
_publ_section_title
;
Structure prediction by ZEFSAII (Michael W. Deem and Ramdas Pophale) SiO2 
 PCOD9341948
Probable space group: P N C 2
;
_chemical_formula_sum "Si O2"
_cell_formula_units_Z 32
_cell_length_a 8.708299
_cell_length_b 14.535951
_cell_length_c 14.592812
_cell_angle_alpha 90.000000
_cell_angle_beta 90.000000
_cell_angle_gamma 90.000000
_cell_volume 1847.207869
_symmetry_space_group_name_H-M "P N C 2"
_symmetry_group_IT_number 30
_symmetry_cell_setting 'orthorhombic'
loop_
_space_group_symop_operation_xyz
x,y,z
-x,-y,z
-x,1/2+y,1/2+z
x,1/2-y,1/2+z
loop_
_atom_site_type_symbol
_atom_site_label
_atom_site_fract_x
_atom_site_fract_y
_atom_site_fract_z
Si Si1 0.685779 0.349521 0.637130
Si Si2 0.686580 1.000000 0.283988
Si Si3 0.184149 0.854538 0.633796
Si Si4 0.684663 0.000001 0.989088
Si Si5 0.684771 0.499999 0.994289
Si Si6 0.685781 0.650479 0.637130
Si Si7 0.815852 0.854537 0.633795
Si Si8 0.815678 0.500001 0.286224
O O1 0.732437 0.410281 0.725529
O O2 0.757356 0.249153 0.636432
O O3 0.730484 0.410573 0.548605
O O4 0.499999 0.342138 0.637555
O O5 0.737537 0.000001 0.388799
O O6 0.500000 0.000000 0.284228
O O7 0.732438 0.910279 0.225530
O O8 0.253847 0.911447 0.549051
O O9 0.229618 0.911389 0.725275
O O10 0.000001 0.857388 0.627284
O O11 0.747603 1.000000 0.887079
O O12 0.500000 0.000000 0.985983
O O13 0.730487 0.910575 0.048606
O O14 0.500000 0.500000 0.996347
O O15 0.746155 0.588551 0.049052
O O16 0.757358 0.750847 0.636429
O O17 0.770383 0.911386 0.725276
O O18 0.000000 0.500000 0.293171
#
# Coordination Sequence:
#
# PCOD9341948 Si02
#       8
#     4   4   4   4   4   4   4   4
#     4   9  18  35  55  76 102 133 167 208 253 300
#     4   8  17  34  55  77 102 129 167 214 253 293
#     4  10  21  36  51  74 106 137 168 207 251 300
#     4   9  19  34  54  78 102 129 169 213 252 295
#     4  10  19  34  56  79 100 131 171 210 252 299
#     4   9  18  35  55  76 102 133 167 208 253 300
#     4  10  21  36  51  74 106 137 168 207 251 300
#     4   9  20  36  51  70 102 137 169 205 251 301
#
# _framework density 17.323443000000001
#
# number of rings (size 3 to 8) (size 9 to 14) (size 15 to 20)
#    0.000    2.750    0.000    3.375    0.000    6.000 
#    0.000   11.875    0.000    0.000    0.000    0.000 
#    0.000    0.000    0.000    0.000    0.000    0.000 
#
# Total GULP energy -178457.926109 kJ/mol
# GULP energy per Si atom -5576.810191 kJ/mol
# Density = 1.728401 g / cm^3
# Si number density = 17.323443 Si / 1000 Ang^3
#
#
#
# Elastic Constant Matrix: (Units=GPa)
#
#
# Indices 1 2 3 4 5 6 
#
# 1 34.1044 45.6706 43.4071 0.0000 0.0000 0.0000
# 2 45.6706 194.6414 108.9383 0.0000 0.0000 0.0000
# 3 43.4071 108.9383 200.7799 0.0000 0.0000 0.0000
# 4 0.0000 0.0000 0.0000 5.9889 0.0000 0.0000
# 5 0.0000 0.0000 0.0000 0.0000 -5.2937 0.0000
# 6 0.0000 0.0000 0.0000 0.0000 0.0000 10.2745
#
#
#
# Elastic Compliance Matrix: (Units=1/GPa)
#
#
# Indices 1 2 3 4 5 6 
#
# 1 0.047370 -0.007731 -0.006047 0.000000 0.000000 0.000000
# 2 -0.007731 0.008640 -0.003016 0.000000 0.000000 0.000000
# 3 -0.006047 -0.003016 0.007924 0.000000 0.000000 0.000000
# 4 0.000000 0.000000 0.000000 0.166975 0.000000 0.000000
# 5 0.000000 0.000000 0.000000 0.000000 -0.188903 0.000000
# 6 0.000000 0.000000 0.000000 0.000000 0.000000 0.097328
#
#
# Mechanical properties :
#
#
# Convention : Reuss Voigt Hill
#
# Bulk Modulus (GPa) = 32.95218 91.72863 62.34040
# Shear Modulus (GPa) = 27.31667 17.62792 22.47229
#
# Velocity S-wave (km/s) = 3.97528 3.19341 3.60560
# Velocity P-wave (km/s) = 6.33510 8.16472 7.30740
#
# Compressibility (1/GPa) = 0.03034700
#
# Stress axis : x y z
#
# Youngs Moduli (GPa) = 21.11031 115.74263 126.19170
#
# Poissons Ratio (x) = 0.89478 0.76303
# Poissons Ratio (y) = 0.16320 0.38065
# Poissons Ratio (z) = 0.12764 0.34913
#
# Static dielectric constant tensor:
#      x y z
#    x 1.584170 0.000000 0.000000 
#    y 0.000000 1.562880 0.000000 
#    z 0.000000 0.000000 1.577940 
# 
# From -- ./inp_files/5275.got.cif
#   From: 2010.05.17/outbox.cif.g08.bks.cpg/sg30_3_cif.got.tgz:5275.got - 2010.06.03 17:03:02.
