data_PCOD9341699
_publ_section_title
;
Structure prediction by ZEFSAII (Michael W. Deem and Ramdas Pophale) SiO2 
 PCOD9341699
Probable space group: P C A 21
;
_chemical_formula_sum "Si O2"
_cell_formula_units_Z 32
_cell_length_a 30.442256
_cell_length_b 7.085504
_cell_length_c 7.079669
_cell_angle_alpha 90.000000
_cell_angle_beta 90.000000
_cell_angle_gamma 90.000000
_cell_volume 1527.075588
_symmetry_space_group_name_H-M "P C A 21"
_symmetry_group_IT_number 29
_symmetry_cell_setting 'orthorhombic'
loop_
_space_group_symop_operation_xyz
x,y,z
-x,-y,1/2+z
1/2-x,y,1/2+z
1/2+x,-y,z
loop_
_atom_site_type_symbol
_atom_site_label
_atom_site_fract_x
_atom_site_fract_y
_atom_site_fract_z
Si Si1 0.301549 0.749999 0.537110
Si Si2 0.555129 0.918126 0.388942
Si Si3 0.755521 0.894415 0.917536
Si Si4 0.506603 0.749999 0.037114
Si Si5 0.847339 0.423368 0.182515
Si Si6 0.652661 0.076633 0.391705
Si Si7 0.055128 0.418121 0.685284
Si Si8 0.744478 0.605585 0.656683
O O1 0.272617 0.910018 0.428145
O O2 0.332994 0.653696 0.385432
O O3 0.332995 0.846300 0.688788
O O4 0.272616 0.589983 0.646075
O O5 0.537656 0.845958 0.190134
O O6 0.548903 0.750003 0.537114
O O7 0.525142 0.094324 0.446705
O O8 0.605940 0.976122 0.386253
O O9 0.806903 0.941415 0.941927
O O10 0.754325 0.842954 0.666297
O O11 0.745675 0.657045 0.907922
O O12 0.474860 0.594315 0.127524
O O13 0.537657 0.654048 0.884094
O O14 0.894060 0.523877 0.187968
O O15 0.806904 0.558588 0.132290
O O16 0.849195 0.250000 0.037111
#
# Coordination Sequence:
#
# PCOD9341699 Si02
#       8
#     4   4   4   4   4   4   4   4
#     4  12  26  45  68 104 148 192 238 299 352 414
#     4  12  27  48  78 110 144 188 239 300 370 440
#     4  12  23  43  70  97 141 194 239 284 357 421
#     4  12  26  49  80 108 146 188 238 299 376 444
#     4  12  26  45  72 106 144 184 242 298 350 429
#     4  12  26  45  72 106 144 184 242 298 350 429
#     4  12  27  48  78 110 144 188 239 300 370 440
#     4  12  23  43  70  97 141 194 239 284 357 421
#
# _framework density 20.955085
#
# number of rings (size 3 to 8) (size 9 to 14) (size 15 to 20)
#    0.000    0.000    7.500    3.000    0.000    6.000 
#    0.000    0.000    0.000    0.000    0.000    0.000 
#    0.000    0.000    0.000    0.000    0.000    0.000 
#
# Total GULP energy -178789.846098 kJ/mol
# GULP energy per Si atom -5587.182691 kJ/mol
# Density = 2.090739 g / cm^3
# Si number density = 20.955085 Si / 1000 Ang^3
#
#
#
# Elastic Constant Matrix: (Units=GPa)
#
#
# Indices 1 2 3 4 5 6 
#
# 1 142.9781 43.5932 48.4560 0.0000 0.0000 0.0000
# 2 43.5932 120.6662 65.2025 0.0000 0.0000 0.0000
# 3 48.4560 65.2025 134.8720 0.0000 0.0000 0.0000
# 4 0.0000 0.0000 0.0000 71.3689 0.0000 0.0000
# 5 0.0000 0.0000 0.0000 0.0000 39.3314 0.0000
# 6 0.0000 0.0000 0.0000 0.0000 0.0000 56.4241
#
#
#
# Elastic Compliance Matrix: (Units=1/GPa)
#
#
# Indices 1 2 3 4 5 6 
#
# 1 0.008264 -0.001870 -0.002065 0.000000 0.000000 0.000000
# 2 -0.001870 0.011641 -0.004956 0.000000 0.000000 0.000000
# 3 -0.002065 -0.004956 0.010552 0.000000 0.000000 0.000000
# 4 0.000000 0.000000 0.000000 0.014012 0.000000 0.000000
# 5 0.000000 0.000000 0.000000 0.000000 0.025425 0.000000
# 6 0.000000 0.000000 0.000000 0.000000 0.000000 0.017723
#
#
# Mechanical properties :
#
#
# Convention : Reuss Voigt Hill
#
# Bulk Modulus (GPa) = 78.89163 79.22442 79.05803
# Shear Modulus (GPa) = 45.61080 49.50918 47.55999
#
# Velocity S-wave (km/s) = 4.67046 4.86597 4.76922
# Velocity P-wave (km/s) = 8.17398 8.33421 8.25448
#
# Compressibility (1/GPa) = 0.01267562
#
# Stress axis : x y z
#
# Youngs Moduli (GPa) = 121.00647 85.90563 94.76627
#
# Poissons Ratio (x) = 0.16061 0.19571
# Poissons Ratio (y) = 0.22624 0.46965
# Poissons Ratio (z) = 0.24990 0.42574
#
# Static dielectric constant tensor:
#      x y z
#    x 1.649930 0.000000 0.000000 
#    y 0.000000 1.762730 0.000000 
#    z 0.000000 0.000000 2.179860 
# 
# From -- ./inp_files/2632.got.cif
#   From: 2010.05.17/outbox.cif.g08.bks.cpg/sg29_2_cif.got.tgz:2632.got - 2010.06.04 01:19:37.
