data_PCOD9341767
_publ_section_title
;
Structure prediction by ZEFSAII (Michael W. Deem and Ramdas Pophale) SiO2 
 PCOD9341767
Probable space group: P C A 21
;
_chemical_formula_sum "Si O2"
_cell_formula_units_Z 20
_cell_length_a 7.634341
_cell_length_b 11.246908
_cell_length_c 8.561836
_cell_angle_alpha 90.000000
_cell_angle_beta 90.000000
_cell_angle_gamma 90.000000
_cell_volume 735.142620
_symmetry_space_group_name_H-M "P C A 21"
_symmetry_group_IT_number 29
_symmetry_cell_setting 'orthorhombic'
loop_
_space_group_symop_operation_xyz
x,y,z
-x,-y,1/2+z
1/2-x,y,1/2+z
1/2+x,-y,z
loop_
_atom_site_type_symbol
_atom_site_label
_atom_site_fract_x
_atom_site_fract_y
_atom_site_fract_z
Si Si1 0.139733 0.759754 0.064430
Si Si2 0.561421 0.120698 0.365284
Si Si3 0.038040 0.427936 0.763350
Si Si4 0.095885 0.347971 0.122263
Si Si5 0.645581 0.849527 0.344190
O O1 0.131805 0.864477 0.190041
O O2 0.116654 0.641764 0.169833
O O3 0.310229 0.792685 0.963823
O O4 0.966271 0.768813 0.960410
O O5 0.355483 0.152369 0.357849
O O6 0.585525 0.981246 0.392472
O O7 0.210968 0.386132 0.674999
O O8 0.017451 0.567561 0.736157
O O9 0.056333 0.392074 0.945673
O O10 0.090715 0.209043 0.177630
#
# Coordination Sequence:
#
# PCOD9341767 Si02
#       5
#     4   4   4   4   4
#     4  12  30  52  83 125 175 233 294 373 441 534
#     4  12  30  50  87 126 175 238 301 365 451 533
#     4  12  28  55  89 128 177 233 296 375 455 542
#     4  12  28  55  90 129 179 234 300 371 460 540
#     4  12  28  56  87 126 182 234 301 372 447 539
#
# _framework density 27.205603
#
# number of rings (size 3 to 8) (size 9 to 14) (size 15 to 20)
#    0.000    0.000    4.000    3.600    2.800    9.600 
#    0.000    0.000    0.000    0.000    0.000    0.000 
#    0.000    0.000    0.000    0.000    0.000    0.000 
#
# Total GULP energy -111964.850818 kJ/mol
# GULP energy per Si atom -5598.242541 kJ/mol
# Density = 2.714368 g / cm^3
# Si number density = 27.205603 Si / 1000 Ang^3
#
#
#
# Elastic Constant Matrix: (Units=GPa)
#
#
# Indices 1 2 3 4 5 6 
#
# 1 206.7694 60.3850 89.0206 0.0000 0.0000 0.0000
# 2 60.3850 83.9490 23.7150 0.0000 0.0000 0.0000
# 3 89.0206 23.7150 200.2093 0.0000 0.0000 0.0000
# 4 0.0000 0.0000 0.0000 45.9329 0.0000 0.0000
# 5 0.0000 0.0000 0.0000 0.0000 42.9448 0.0000
# 6 0.0000 0.0000 0.0000 0.0000 0.0000 45.2856
#
#
#
# Elastic Compliance Matrix: (Units=1/GPa)
#
#
# Indices 1 2 3 4 5 6 
#
# 1 0.007322 -0.004498 -0.002723 0.000000 0.000000 0.000000
# 2 -0.004498 0.015087 0.000213 0.000000 0.000000 0.000000
# 3 -0.002723 0.000213 0.006180 0.000000 0.000000 0.000000
# 4 0.000000 0.000000 0.000000 0.021771 0.000000 0.000000
# 5 0.000000 0.000000 0.000000 0.000000 0.023286 0.000000
# 6 0.000000 0.000000 0.000000 0.000000 0.000000 0.022082
#
#
# Mechanical properties :
#
#
# Convention : Reuss Voigt Hill
#
# Bulk Modulus (GPa) = 68.61621 93.01878 80.81750
# Shear Modulus (GPa) = 43.62936 48.01979 45.82457
#
# Velocity S-wave (km/s) = 4.00895 4.20583 4.10857
# Velocity P-wave (km/s) = 6.83411 7.60596 7.23034
#
# Compressibility (1/GPa) = 0.01457382
#
# Stress axis : x y z
#
# Youngs Moduli (GPa) = 136.57280 66.28191 161.80459
#
# Poissons Ratio (x) = 0.29811 0.44058
# Poissons Ratio (y) = 0.61425 -0.03442
# Poissons Ratio (z) = 0.37188 -0.01410
#
# Static dielectric constant tensor:
#      x y z
#    x 2.131690 0.000000 0.000000 
#    y 0.000000 2.168910 0.000000 
#    z 0.000000 0.000000 2.120980 
# 
# From -- ./inp_files/1067.got.cif
#   From: 2010.05.17/outbox.cif.g08.bks.cpg/sg29_1_cif.got.tgz:1067.got - 2010.06.04 01:19:37.
