data_PCOD9341512
_publ_section_title
;
Structure prediction by ZEFSAII (Michael W. Deem and Ramdas Pophale) SiO2 
 PCOD9341512
Probable space group: P C A 21
;
_chemical_formula_sum "Si O2"
_cell_formula_units_Z 32
_cell_length_a 12.470827
_cell_length_b 4.978151
_cell_length_c 20.557121
_cell_angle_alpha 90.000000
_cell_angle_beta 90.000000
_cell_angle_gamma 90.000000
_cell_volume 1276.220194
_symmetry_space_group_name_H-M "P C A 21"
_symmetry_group_IT_number 29
_symmetry_cell_setting 'orthorhombic'
loop_
_space_group_symop_operation_xyz
x,y,z
-x,-y,1/2+z
1/2-x,y,1/2+z
1/2+x,-y,z
loop_
_atom_site_type_symbol
_atom_site_label
_atom_site_fract_x
_atom_site_fract_y
_atom_site_fract_z
Si Si1 0.064053 0.879556 0.322710
Si Si2 0.989137 0.783151 0.073197
Si Si3 0.776631 0.334918 0.269296
Si Si4 0.051980 0.594673 0.867450
Si Si5 0.649177 0.605732 0.151949
Si Si6 0.036174 0.991372 0.699908
Si Si7 0.663078 0.062491 0.980446
Si Si8 0.219058 0.420806 0.522411
O O1 0.017250 0.675335 0.376658
O O2 0.188518 0.833910 0.309366
O O3 0.029429 0.185601 0.335575
O O4 0.005506 0.800516 0.254249
O O5 0.907333 0.627437 0.027061
O O6 0.066004 0.596481 0.116750
O O7 0.066439 0.972787 0.031941
O O8 0.923073 0.928877 0.129121
O O9 0.847751 0.489832 0.322100
O O10 0.716975 0.496224 0.212714
O O11 0.865701 0.157968 0.233235
O O12 0.106695 0.771208 0.923374
O O13 0.572783 0.832868 0.181720
O O14 0.729174 0.660428 0.092066
O O15 0.749655 0.273451 0.008756
O O16 0.723242 0.781057 0.971369
#
# Coordination Sequence:
#
# PCOD9341512 Si02
#       8
#     4   4   4   4   4   4   4   4
#     4  11  25  44  67 102 134 185 225 292 350 413
#     4  11  25  41  67 102 142 183 229 292 360 420
#     4  11  24  41  70 101 142 187 230 289 359 426
#     4  11  27  48  71  98 141 185 247 289 341 418
#     4  11  23  43  63 105 145 186 224 295 357 436
#     4  11  24  40  66 103 146 177 231 281 361 429
#     4  11  26  50  68 102 137 187 244 292 339 422
#     4  11  26  41  74  99 135 186 232 288 359 412
#
# _framework density 25.074044000000001
#
# number of rings (size 3 to 8) (size 9 to 14) (size 15 to 20)
#    0.000    1.000    2.500    3.000    8.750    5.000 
#    0.000    0.000    0.000    0.000    0.000    0.000 
#    0.000    0.000    0.000    0.000    0.000    0.000 
#
# Total GULP energy -178951.492181 kJ/mol
# GULP energy per Si atom -5592.234131 kJ/mol
# Density = 2.501697 g / cm^3
# Si number density = 25.074044 Si / 1000 Ang^3
#
#
#
# Elastic Constant Matrix: (Units=GPa)
#
#
# Indices 1 2 3 4 5 6 
#
# 1 77.5864 17.3835 -10.5709 0.0000 0.0000 0.0000
# 2 17.3835 66.1079 -7.6961 0.0000 0.0000 0.0000
# 3 -10.5709 -7.6961 35.2536 0.0000 0.0000 0.0000
# 4 0.0000 0.0000 0.0000 28.7938 0.0000 0.0000
# 5 0.0000 0.0000 0.0000 0.0000 21.1972 0.0000
# 6 0.0000 0.0000 0.0000 0.0000 0.0000 24.7614
#
#
#
# Elastic Compliance Matrix: (Units=1/GPa)
#
#
# Indices 1 2 3 4 5 6 
#
# 1 0.014107 -0.003301 0.003509 0.000000 0.000000 0.000000
# 2 -0.003301 0.016294 0.002567 0.000000 0.000000 0.000000
# 3 0.003509 0.002567 0.029979 0.000000 0.000000 0.000000
# 4 0.000000 0.000000 0.000000 0.034730 0.000000 0.000000
# 5 0.000000 0.000000 0.000000 0.000000 0.047176 0.000000
# 6 0.000000 0.000000 0.000000 0.000000 0.000000 0.040385
#
#
# Mechanical properties :
#
#
# Convention : Reuss Voigt Hill
#
# Bulk Modulus (GPa) = 15.16757 19.68676 17.42717
# Shear Modulus (GPa) = 25.11360 26.93924 26.02642
#
# Velocity S-wave (km/s) = 3.16820 3.28134 3.22527
# Velocity P-wave (km/s) = 4.40972 4.71431 4.56456
#
# Compressibility (1/GPa) = 0.06593012
#
# Stress axis : x y z
#
# Youngs Moduli (GPa) = 70.88900 61.37364 33.35712
#
# Poissons Ratio (x) = 0.20259 -0.11706
# Poissons Ratio (y) = 0.23400 -0.08564
# Poissons Ratio (z) = -0.24877 -0.15756
#
# Static dielectric constant tensor:
#      x y z
#    x 1.985510 0.000000 0.000000 
#    y 0.000000 2.016320 0.000000 
#    z 0.000000 0.000000 2.078200 
# 
# From -- ./inp_files/5528.got.cif
#   From: 2010.05.17/outbox.cif.g08.bks.cpg/sg29_3_cif.got.tgz:5528.got - 2010.06.04 01:19:37.
