data_PCOD9341336
_publ_section_title
;
Structure prediction by ZEFSAII (Michael W. Deem and Ramdas Pophale) SiO2 
 PCOD9341336
Probable space group: P C A 21
;
_chemical_formula_sum "Si O2"
_cell_formula_units_Z 20
_cell_length_a 9.257591
_cell_length_b 9.536711
_cell_length_c 8.703866
_cell_angle_alpha 90.000000
_cell_angle_beta 90.000000
_cell_angle_gamma 90.000000
_cell_volume 768.437956
_symmetry_space_group_name_H-M "P C A 21"
_symmetry_group_IT_number 29
_symmetry_cell_setting 'orthorhombic'
loop_
_space_group_symop_operation_xyz
x,y,z
-x,-y,1/2+z
1/2-x,y,1/2+z
1/2+x,-y,z
loop_
_atom_site_type_symbol
_atom_site_label
_atom_site_fract_x
_atom_site_fract_y
_atom_site_fract_z
Si Si1 0.538786 0.056049 0.984450
Si Si2 0.678785 0.123487 0.316249
Si Si3 0.589582 0.645994 0.037386
Si Si4 0.825095 0.720663 0.842115
Si Si5 0.800179 0.421572 0.945084
O O1 0.669886 0.050782 0.861143
O O2 0.430390 0.184489 0.941773
O O3 0.433801 0.925466 0.949138
O O4 0.611055 0.082318 0.151378
O O5 0.714339 0.287863 0.336985
O O6 0.655082 0.747401 0.164703
O O7 0.655720 0.713822 0.882938
O O8 0.664269 0.492037 0.027105
O O9 0.422694 0.626314 0.062644
O O10 0.868668 0.557083 0.861340
#
# Coordination Sequence:
#
# PCOD9341336 Si02
#       5
#     4   4   4   4   4
#     4  12  30  53  80 114 160 212 273 326 411 472
#     4  12  30  51  82 114 162 212 269 335 394 488
#     4  10  25  41  75 106 156 191 256 318 397 466
#     4  10  27  44  78 109 154 196 261 321 402 465
#     4  10  26  43  77 109 152 197 257 326 392 471
#
# _framework density 26.026824000000001
#
# number of rings (size 3 to 8) (size 9 to 14) (size 15 to 20)
#    1.200    0.000    0.000    2.400   19.600    0.000 
#    0.000    0.000    0.000    0.000    0.000    0.000 
#    0.000    0.000    0.000    0.000    0.000    0.000 
#
# Total GULP energy -111695.472396 kJ/mol
# GULP energy per Si atom -5584.773620 kJ/mol
# Density = 2.596759 g / cm^3
# Si number density = 26.026824 Si / 1000 Ang^3
#
#
#
# Elastic Constant Matrix: (Units=GPa)
#
#
# Indices 1 2 3 4 5 6 
#
# 1 129.4805 34.3843 11.1545 0.0000 0.0000 0.0000
# 2 34.3843 164.5411 18.4789 0.0000 0.0000 0.0000
# 3 11.1545 18.4789 85.7598 0.0000 0.0000 0.0000
# 4 0.0000 0.0000 0.0000 25.2972 0.0000 0.0000
# 5 0.0000 0.0000 0.0000 0.0000 53.0138 0.0000
# 6 0.0000 0.0000 0.0000 0.0000 0.0000 41.3218
#
#
#
# Elastic Compliance Matrix: (Units=1/GPa)
#
#
# Indices 1 2 3 4 5 6 
#
# 1 0.008220 -0.001637 -0.000716 0.000000 0.000000 0.000000
# 2 -0.001637 0.006554 -0.001199 0.000000 0.000000 0.000000
# 3 -0.000716 -0.001199 0.012012 0.000000 0.000000 0.000000
# 4 0.000000 0.000000 0.000000 0.039530 0.000000 0.000000
# 5 0.000000 0.000000 0.000000 0.000000 0.018863 0.000000
# 6 0.000000 0.000000 0.000000 0.000000 0.000000 0.024200
#
#
# Mechanical properties :
#
#
# Convention : Reuss Voigt Hill
#
# Bulk Modulus (GPa) = 50.81224 56.42409 53.61816
# Shear Modulus (GPa) = 40.63543 44.97747 42.80645
#
# Velocity S-wave (km/s) = 3.95560 4.16158 4.05990
# Velocity P-wave (km/s) = 6.35829 6.69462 6.52862
#
# Compressibility (1/GPa) = 0.01968030
#
# Stress axis : x y z
#
# Youngs Moduli (GPa) = 121.65967 152.57080 83.24955
#
# Poissons Ratio (x) = 0.24979 0.05963
# Poissons Ratio (y) = 0.19918 0.09984
# Poissons Ratio (z) = 0.08715 0.18298
#
# Static dielectric constant tensor:
#      x y z
#    x 1.990520 0.000000 0.000000 
#    y 0.000000 2.144550 0.000000 
#    z 0.000000 0.000000 2.072860 
# 
# From -- ./inp_files/1080.got.cif
#   From: 2010.05.17/outbox.cif.g08.bks.cpg/sg29_1_cif.got.tgz:1080.got - 2010.06.04 01:19:37.
