data_PCOD9341494
_publ_section_title
;
Structure prediction by ZEFSAII (Michael W. Deem and Ramdas Pophale) SiO2 
 PCOD9341494
Probable space group: P C A 21
;
_chemical_formula_sum "Si O2"
_cell_formula_units_Z 32
_cell_length_a 10.262316
_cell_length_b 6.674001
_cell_length_c 21.216188
_cell_angle_alpha 90.000000
_cell_angle_beta 90.000000
_cell_angle_gamma 90.000000
_cell_volume 1453.111721
_symmetry_space_group_name_H-M "P C A 21"
_symmetry_group_IT_number 29
_symmetry_cell_setting 'orthorhombic'
loop_
_space_group_symop_operation_xyz
x,y,z
-x,-y,1/2+z
1/2-x,y,1/2+z
1/2+x,-y,z
loop_
_atom_site_type_symbol
_atom_site_label
_atom_site_fract_x
_atom_site_fract_y
_atom_site_fract_z
Si Si1 0.148877 0.679498 0.678210
Si Si2 0.729454 0.552200 0.293042
Si Si3 0.658004 0.049657 0.107837
Si Si4 0.933058 0.894953 0.737922
Si Si5 0.362487 0.168514 0.384677
Si Si6 0.353306 0.845044 0.851401
Si Si7 0.709688 0.679861 0.018810
Si Si8 0.516151 0.589240 0.578931
O O1 0.229014 0.548935 0.727656
O O2 0.231487 0.788876 0.624503
O O3 0.080842 0.853648 0.719085
O O4 0.048001 0.533268 0.642866
O O5 0.613080 0.702364 0.276770
O O6 0.841770 0.687860 0.324161
O O7 0.687445 0.383311 0.342352
O O8 0.531789 0.185900 0.094059
O O9 0.638671 0.922975 0.171655
O O10 0.688866 0.894475 0.053090
O O11 0.899016 0.078626 0.782393
O O12 0.515868 0.124215 0.392340
O O13 0.308184 0.283186 0.445207
O O14 0.270098 0.975905 0.373485
O O15 0.598302 0.529339 0.043508
O O16 0.851548 0.601291 0.038771
#
# Coordination Sequence:
#
# PCOD9341494 Si02
#       8
#     4   4   4   4   4   4   4   4
#     4  12  22  43  72 108 147 184 232 304 374 436
#     4  11  24  44  70 107 146 186 233 303 367 435
#     4  12  25  44  72 107 146 189 238 306 371 435
#     4  11  23  39  68 106 141 180 231 290 369 434
#     4  11  29  46  75 103 144 196 249 296 365 439
#     4  11  25  48  71 107 144 188 241 304 366 434
#     4  12  29  50  73 106 147 200 252 306 365 448
#     4  12  27  48  73 108 145 191 250 303 377 437
#
# _framework density 22.021706999999999
#
# number of rings (size 3 to 8) (size 9 to 14) (size 15 to 20)
#    0.000    0.500    3.750    3.750    7.000    2.000 
#    0.000    0.000    0.000    0.000    0.000    0.000 
#    0.000    0.000    0.000    0.000    0.000    0.000 
#
# Total GULP energy -179071.360900 kJ/mol
# GULP energy per Si atom -5595.980028 kJ/mol
# Density = 2.197158 g / cm^3
# Si number density = 22.021707 Si / 1000 Ang^3
#
#
#
# Elastic Constant Matrix: (Units=GPa)
#
#
# Indices 1 2 3 4 5 6 
#
# 1 102.6120 48.7077 2.0758 0.0000 0.0000 0.0000
# 2 48.7077 105.2684 23.3219 0.0000 0.0000 0.0000
# 3 2.0758 23.3219 56.3799 0.0000 0.0000 0.0000
# 4 0.0000 0.0000 0.0000 21.8899 0.0000 0.0000
# 5 0.0000 0.0000 0.0000 0.0000 25.0111 0.0000
# 6 0.0000 0.0000 0.0000 0.0000 0.0000 28.0629
#
#
#
# Elastic Compliance Matrix: (Units=1/GPa)
#
#
# Indices 1 2 3 4 5 6 
#
# 1 0.012724 -0.006367 0.002165 0.000000 0.000000 0.000000
# 2 -0.006367 0.013644 -0.005410 0.000000 0.000000 0.000000
# 3 0.002165 -0.005410 0.019895 0.000000 0.000000 0.000000
# 4 0.000000 0.000000 0.000000 0.045683 0.000000 0.000000
# 5 0.000000 0.000000 0.000000 0.000000 0.039982 0.000000
# 6 0.000000 0.000000 0.000000 0.000000 0.000000 0.035634
#
#
# Mechanical properties :
#
#
# Convention : Reuss Voigt Hill
#
# Bulk Modulus (GPa) = 36.98199 45.83011 41.40605
# Shear Modulus (GPa) = 25.53647 27.66978 26.60312
#
# Velocity S-wave (km/s) = 3.40899 3.54853 3.47946
# Velocity P-wave (km/s) = 5.68549 6.13563 5.91484
#
# Compressibility (1/GPa) = 0.02704019
#
# Stress axis : x y z
#
# Youngs Moduli (GPa) = 78.59182 73.29211 50.26451
#
# Poissons Ratio (x) = 0.46666 -0.10884
# Poissons Ratio (y) = 0.50040 0.27191
# Poissons Ratio (z) = -0.17018 0.39647
#
# Static dielectric constant tensor:
#      x y z
#    x 1.848760 0.000000 0.000000 
#    y 0.000000 1.803350 0.000000 
#    z 0.000000 0.000000 1.770340 
# 
# From -- ./inp_files/5724.got.cif
#   From: 2010.05.17/outbox.cif.g08.bks.cpg/sg29_3_cif.got.tgz:5724.got - 2010.06.04 01:19:37.
