data_PCOD9341241
_publ_section_title
;
Structure prediction by ZEFSAII (Michael W. Deem and Ramdas Pophale) SiO2 
 PCOD9341241
Probable space group: P C A 21
;
_chemical_formula_sum "Si O2"
_cell_formula_units_Z 32
_cell_length_a 9.179964
_cell_length_b 14.105294
_cell_length_c 11.818973
_cell_angle_alpha 90.000000
_cell_angle_beta 90.000000
_cell_angle_gamma 90.000000
_cell_volume 1530.392615
_symmetry_space_group_name_H-M "P C A 21"
_symmetry_group_IT_number 29
_symmetry_cell_setting 'orthorhombic'
loop_
_space_group_symop_operation_xyz
x,y,z
-x,-y,1/2+z
1/2-x,y,1/2+z
1/2+x,-y,z
loop_
_atom_site_type_symbol
_atom_site_label
_atom_site_fract_x
_atom_site_fract_y
_atom_site_fract_z
Si Si1 0.463338 0.375630 0.998700
Si Si2 0.463338 0.624370 0.255125
Si Si3 0.500000 0.442017 0.376913
Si Si4 0.962924 0.885073 0.509073
Si Si5 0.158261 0.320667 0.060321
Si Si6 0.283501 0.000000 0.126913
Si Si7 0.658261 0.320667 0.193504
Si Si8 0.037076 0.885073 0.244753
O O1 0.500000 0.330365 0.876913
O O2 0.425620 0.484241 0.964787
O O3 0.331344 0.323104 0.058061
O O4 0.599115 0.372045 0.081917
O O5 0.425620 0.515759 0.289038
O O6 0.599115 0.627955 0.171908
O O7 0.331344 0.676896 0.195764
O O8 0.392906 0.377610 0.448969
O O9 0.607094 0.377610 0.304856
O O10 0.910516 0.783119 0.553293
O O11 0.827055 0.954872 0.535433
O O12 0.000000 0.880172 0.376913
O O13 0.106862 0.922974 0.573072
O O14 0.393138 0.077026 0.180753
O O15 0.172945 0.954872 0.218393
O O16 0.589484 0.216881 0.200532
#
# Coordination Sequence:
#
# PCOD9341241 Si02
#       8
#     4   4   4   4   4   4   4   4
#     4  10  27  41  65  96 138 180 222 272 321 385
#     4  10  27  41  65  96 138 180 222 272 321 385
#     4  10  24  42  68  92 140 178 226 266 330 372
#     4  11  23  43  71  97 132 169 215 274 326 403
#     4  12  23  44  68  99 132 180 226 268 328 393
#     4  10  24  44  66 102 128 168 212 270 346 390
#     4  12  23  44  68  99 132 180 226 268 328 393
#     4  11  23  43  71  97 132 169 215 274 326 403
#
# _framework density 20.909666999999999
#
# number of rings (size 3 to 8) (size 9 to 14) (size 15 to 20)
#    0.750    0.500    1.250    3.750    3.500    4.000 
#    0.000    6.250    0.000    0.000    0.000    0.000 
#    0.000    0.000    0.000    0.000    0.000    0.000 
#
# Total GULP energy -178774.803947 kJ/mol
# GULP energy per Si atom -5586.712623 kJ/mol
# Density = 2.086208 g / cm^3
# Si number density = 20.909667 Si / 1000 Ang^3
#
#
#
# Elastic Constant Matrix: (Units=GPa)
#
#
# Indices 1 2 3 4 5 6 
#
# 1 119.3011 21.0913 29.0690 0.0000 0.0000 0.0000
# 2 21.0913 89.4792 0.0590 0.0000 0.0000 0.0000
# 3 29.0690 0.0590 68.1995 0.0000 0.0000 0.0000
# 4 0.0000 0.0000 0.0000 25.7595 0.0000 0.0000
# 5 0.0000 0.0000 0.0000 0.0000 29.8778 0.0000
# 6 0.0000 0.0000 0.0000 0.0000 0.0000 -5.4937
#
#
#
# Elastic Compliance Matrix: (Units=1/GPa)
#
#
# Indices 1 2 3 4 5 6 
#
# 1 0.009809 -0.002309 -0.004179 0.000000 0.000000 0.000000
# 2 -0.002309 0.011719 0.000974 0.000000 0.000000 0.000000
# 3 -0.004179 0.000974 0.016443 0.000000 0.000000 0.000000
# 4 0.000000 0.000000 0.000000 0.038821 0.000000 0.000000
# 5 0.000000 0.000000 0.000000 0.000000 0.033470 0.000000
# 6 0.000000 0.000000 0.000000 0.000000 0.000000 -0.182028
#
#
# Mechanical properties :
#
#
# Convention : Reuss Voigt Hill
#
# Bulk Modulus (GPa) = 37.11476 41.93538 39.52507
# Shear Modulus (GPa) = -96.60473 25.14610 -35.72931
#
# Velocity S-wave (km/s) = -6.80450 3.47162 -4.13818
# Velocity P-wave (km/s) = 6.62921 6.01403 1.97204
#
# Compressibility (1/GPa) = 0.02694346
#
# Stress axis : x y z
#
# Youngs Moduli (GPa) = 101.95133 85.32817 60.81561
#
# Poissons Ratio (x) = 0.19704 0.25413
# Poissons Ratio (y) = 0.23543 -0.05924
# Poissons Ratio (z) = 0.42603 -0.08312
#
# Static dielectric constant tensor:
#      x y z
#    x 1.776380 0.000000 0.000000 
#    y 0.000000 1.754500 0.000000 
#    z 0.000000 0.000000 1.731300 
# 
# From -- ./inp_files/2943.got.cif
#   From: 2010.05.17/outbox.cif.g08.bks.cpg/sg29_2_cif.got.tgz:2943.got - 2010.06.04 01:19:37.
