data_PCOD9341682
_publ_section_title
;
Structure prediction by ZEFSAII (Michael W. Deem and Ramdas Pophale) SiO2 
 PCOD9341682
Probable space group: P C A 21
;
_chemical_formula_sum "Si O2"
_cell_formula_units_Z 24
_cell_length_a 8.926513
_cell_length_b 12.971472
_cell_length_c 8.881434
_cell_angle_alpha 90.000000
_cell_angle_beta 90.000000
_cell_angle_gamma 90.000000
_cell_volume 1028.381362
_symmetry_space_group_name_H-M "P C A 21"
_symmetry_group_IT_number 29
_symmetry_cell_setting 'orthorhombic'
loop_
_space_group_symop_operation_xyz
x,y,z
-x,-y,1/2+z
1/2-x,y,1/2+z
1/2+x,-y,z
loop_
_atom_site_type_symbol
_atom_site_label
_atom_site_fract_x
_atom_site_fract_y
_atom_site_fract_z
Si Si1 0.415487 0.560421 0.060960
Si Si2 0.692089 0.556941 0.855577
Si Si3 0.892547 0.204439 0.027896
Si Si4 0.409446 0.069880 0.751406
Si Si5 0.928575 0.121918 0.542544
Si Si6 0.868498 0.779621 0.259912
O O1 0.384028 0.502131 0.216000
O O2 0.364429 0.678204 0.078438
O O3 0.585047 0.563166 0.002230
O O4 0.331307 0.504681 0.922225
O O5 0.715851 0.672732 0.793743
O O6 0.731492 0.159166 0.984663
O O7 0.973502 0.139176 0.157393
O O8 0.010730 0.207897 0.892157
O O9 0.251029 0.128484 0.754366
O O10 0.397677 0.959727 0.674212
O O11 0.475779 0.063508 0.917401
O O12 0.032936 0.213552 0.607835
#
# Coordination Sequence:
#
# PCOD9341682 Si02
#       6
#     4   4   4   4   4   4
#     4  11  27  45  73 108 150 196 248 303 369 440
#     4  11  27  45  73 108 150 196 248 303 369 440
#     4  11  27  46  74 109 143 195 241 300 369 434
#     4  12  27  48  76 105 148 189 245 304 367 441
#     4  12  27  48  76 105 148 189 245 304 367 441
#     4  11  27  46  74 109 143 195 241 300 369 434
#
# _framework density 23.337648000000002
#
# number of rings (size 3 to 8) (size 9 to 14) (size 15 to 20)
#    0.000    0.667    0.000    5.000   18.667    4.000 
#    0.000    1.667    0.000    0.000    0.000    0.000 
#    0.000    0.000    0.000    0.000    0.000    0.000 
#
# Total GULP energy -134505.822206 kJ/mol
# GULP energy per Si atom -5604.409259 kJ/mol
# Density = 2.328453 g / cm^3
# Si number density = 23.337648 Si / 1000 Ang^3
#
#
#
# Elastic Constant Matrix: (Units=GPa)
#
#
# Indices 1 2 3 4 5 6 
#
# 1 89.2193 0.9054 -6.8973 0.0000 0.0000 0.0000
# 2 0.9054 87.4440 -5.0960 0.0000 0.0000 0.0000
# 3 -6.8973 -5.0960 73.1919 0.0000 0.0000 0.0000
# 4 0.0000 0.0000 0.0000 28.9624 0.0000 0.0000
# 5 0.0000 0.0000 0.0000 0.0000 35.4017 0.0000
# 6 0.0000 0.0000 0.0000 0.0000 0.0000 21.8129
#
#
#
# Elastic Compliance Matrix: (Units=1/GPa)
#
#
# Indices 1 2 3 4 5 6 
#
# 1 0.011291 -0.000055 0.001060 0.000000 0.000000 0.000000
# 2 -0.000055 0.011483 0.000794 0.000000 0.000000 0.000000
# 3 0.001060 0.000794 0.013818 0.000000 0.000000 0.000000
# 4 0.000000 0.000000 0.000000 0.034528 0.000000 0.000000
# 5 0.000000 0.000000 0.000000 0.000000 0.028247 0.000000
# 6 0.000000 0.000000 0.000000 0.000000 0.000000 0.045844
#
#
# Mechanical properties :
#
#
# Convention : Reuss Voigt Hill
#
# Bulk Modulus (GPa) = 24.88168 25.29770 25.08969
# Shear Modulus (GPa) = 32.25624 34.63160 33.44392
#
# Velocity S-wave (km/s) = 3.72177 3.85637 3.78967
# Velocity P-wave (km/s) = 5.39940 5.54005 5.47018
#
# Compressibility (1/GPa) = 0.04019022
#
# Stress axis : x y z
#
# Youngs Moduli (GPa) = 88.56723 87.08711 72.36975
#
# Poissons Ratio (x) = 0.00480 -0.07672
# Poissons Ratio (y) = 0.00488 -0.05748
# Poissons Ratio (z) = -0.09390 -0.06917
#
# Static dielectric constant tensor:
#      x y z
#    x 1.875300 0.000000 0.000000 
#    y 0.000000 1.867410 0.000000 
#    z 0.000000 0.000000 1.865170 
# 
# From -- ./inp_files/1138.got.cif
#   From: 2010.05.17/outbox.cif.g08.bks.cpg/sg29_1_cif.got.tgz:1138.got - 2010.06.04 01:19:37.
