data_PCOD9341894
_publ_section_title
;
Structure prediction by ZEFSAII (Michael W. Deem and Ramdas Pophale) SiO2 
 PCOD9341894
Probable space group: P N C 2
;
_chemical_formula_sum "Si O2"
_cell_formula_units_Z 22
_cell_length_a 8.050905
_cell_length_b 17.191054
_cell_length_c 8.113426
_cell_angle_alpha 90.000000
_cell_angle_beta 90.000000
_cell_angle_gamma 90.000000
_cell_volume 1122.926901
_symmetry_space_group_name_H-M "P N C 2"
_symmetry_group_IT_number 30
_symmetry_cell_setting 'orthorhombic'
loop_
_space_group_symop_operation_xyz
x,y,z
-x,-y,z
-x,1/2+y,1/2+z
x,1/2-y,1/2+z
loop_
_atom_site_type_symbol
_atom_site_label
_atom_site_fract_x
_atom_site_fract_y
_atom_site_fract_z
Si Si1 0.132967 0.154170 0.685130
Si Si2 0.052329 0.757848 0.403175
Si Si3 0.641553 0.327854 0.763121
Si Si4 0.000000 0.000000 0.849056
Si Si5 0.714517 0.394629 0.443626
Si Si6 0.481609 0.660177 0.135624
O O1 0.005950 0.189600 0.552838
O O2 0.111469 0.216798 0.831880
O O3 0.321871 0.148567 0.632129
O O4 0.067008 0.071128 0.741457
O O5 0.160737 0.812035 0.283591
O O6 0.177888 0.685833 0.434773
O O7 0.614271 0.388078 0.614227
O O8 0.558061 0.247645 0.700166
O O9 0.584275 0.348278 0.948500
O O10 0.155112 0.964709 0.947815
O O11 0.606217 0.393546 0.275538
#
# Coordination Sequence:
#
# PCOD9341894 Si02
#       6
#     4   4   4   2   4   4
#     4  11  22  38  63  95 125 163 215 263 317 382
#     4  10  18  36  63  88 119 163 215 254 296 379
#     4  11  18  36  61  96 122 162 206 267 309 360
#     4  10  24  42  62  86 128 176 206 260 336 382
#     4  10  21  40  62  89 126 167 208 258 319 376
#     4  11  21  34  63  95 125 157 208 269 316 363
#
# _framework density 19.591657000000001
#
# number of rings (size 3 to 8) (size 9 to 14) (size 15 to 20)
#    0.000    1.455    5.455    3.273    0.000    0.727 
#    0.000    3.636    0.000    4.364    0.000    0.000 
#    0.000    0.000    0.000    0.000    0.000    0.000 
#
# Total GULP energy -122642.128662 kJ/mol
# GULP energy per Si atom -5574.642212 kJ/mol
# Density = 1.954707 g / cm^3
# Si number density = 19.591657 Si / 1000 Ang^3
#
#
#
# Elastic Constant Matrix: (Units=GPa)
#
#
# Indices 1 2 3 4 5 6 
#
# 1 78.0195 7.7843 28.0184 0.0000 0.0000 0.0000
# 2 7.7843 49.4029 24.1368 0.0000 0.0000 0.0000
# 3 28.0184 24.1368 137.3615 0.0000 0.0000 0.0000
# 4 0.0000 0.0000 0.0000 20.0441 0.0000 0.0000
# 5 0.0000 0.0000 0.0000 0.0000 19.7299 0.0000
# 6 0.0000 0.0000 0.0000 0.0000 0.0000 16.3564
#
#
#
# Elastic Compliance Matrix: (Units=1/GPa)
#
#
# Indices 1 2 3 4 5 6 
#
# 1 0.013865 -0.000878 -0.002674 0.000000 0.000000 0.000000
# 2 -0.000878 0.022198 -0.003721 0.000000 0.000000 0.000000
# 3 -0.002674 -0.003721 0.008479 0.000000 0.000000 0.000000
# 4 0.000000 0.000000 0.000000 0.049890 0.000000 0.000000
# 5 0.000000 0.000000 0.000000 0.000000 0.050685 0.000000
# 6 0.000000 0.000000 0.000000 0.000000 0.000000 0.061138
#
#
# Mechanical properties :
#
#
# Convention : Reuss Voigt Hill
#
# Bulk Modulus (GPa) = 33.33820 42.74031 38.03925
# Shear Modulus (GPa) = 21.66365 24.88237 23.27301
#
# Velocity S-wave (km/s) = 3.32890 3.56764 3.45034
# Velocity P-wave (km/s) = 5.64171 6.23167 5.94401
#
# Compressibility (1/GPa) = 0.02999562
#
# Stress axis : x y z
#
# Youngs Moduli (GPa) = 72.12319 45.04841 117.93318
#
# Poissons Ratio (x) = 0.03957 0.31533
# Poissons Ratio (y) = 0.06335 0.43888
# Poissons Ratio (z) = 0.19284 0.16765
#
# Static dielectric constant tensor:
#      x y z
#    x 1.695710 0.000000 0.000000 
#    y 0.000000 1.664870 0.000000 
#    z 0.000000 0.000000 1.787560 
# 
# From -- ./inp_files/1902.got.cif
#   From: 2010.05.17/outbox.cif.g08.bks.cpg/sg30_1_cif.got.tgz:1902.got - 2010.06.03 17:03:02.
