data_PCOD9341983
_publ_section_title
;
Structure prediction by ZEFSAII (Michael W. Deem and Ramdas Pophale) SiO2 
 PCOD9341983
Probable space group: P N C 2
;
_chemical_formula_sum "Si O2"
_cell_formula_units_Z 30
_cell_length_a 9.042425
_cell_length_b 16.996395
_cell_length_c 9.358648
_cell_angle_alpha 90.000000
_cell_angle_beta 90.000000
_cell_angle_gamma 90.000000
_cell_volume 1438.317762
_symmetry_space_group_name_H-M "P N C 2"
_symmetry_group_IT_number 30
_symmetry_cell_setting 'orthorhombic'
loop_
_space_group_symop_operation_xyz
x,y,z
-x,-y,z
-x,1/2+y,1/2+z
x,1/2-y,1/2+z
loop_
_atom_site_type_symbol
_atom_site_label
_atom_site_fract_x
_atom_site_fract_y
_atom_site_fract_z
Si Si1 0.844027 0.578414 0.250000
Si Si2 0.560627 0.825372 0.836711
Si Si3 0.516557 0.679106 0.657174
Si Si4 0.040560 0.406334 0.942622
Si Si5 0.000000 0.500000 0.485024
Si Si6 0.278975 0.881252 0.360724
Si Si7 0.254025 0.455054 0.709501
Si Si8 0.631648 0.061037 0.658712
O O1 0.710093 0.624102 0.324556
O O2 0.770589 0.493580 0.203844
O O3 0.970964 0.569398 0.369684
O O4 0.902416 0.614328 0.100806
O O5 0.592350 0.750164 0.739780
O O6 0.430097 0.881653 0.779600
O O7 0.511447 0.799142 0.992532
O O8 0.364024 0.669560 0.743964
O O9 0.608993 0.597421 0.659631
O O10 0.162827 0.400824 0.820086
O O11 0.000000 0.500000 0.949432
O O12 0.893616 0.364458 0.885586
O O13 0.142484 0.489976 0.588413
O O14 0.342902 0.885828 0.519875
O O15 0.299729 0.969687 0.300976
O O16 0.500000 0.000000 0.625165
#
# Coordination Sequence:
#
# PCOD9341983 Si02
#       8
#     4   4   4   4   2   4   4   4
#     4  11  21  39  69  97 134 167 229 278 338 396
#     4  11  27  41  63  93 130 183 223 274 336 403
#     4  12  26  43  63  91 137 177 225 271 334 406
#     4  10  19  37  63  99 125 161 208 266 338 392
#     4  12  20  36  64 102 130 158 214 300 322 388
#     4  11  21  38  66  97 128 170 214 279 329 392
#     4  11  22  38  67  98 127 167 219 272 335 390
#     4  10  20  36  63  96 122 166 220 272 326 390
#
# _framework density 20.857699
#
# number of rings (size 3 to 8) (size 9 to 14) (size 15 to 20)
#    0.000    1.067    6.667    2.000    5.600    1.067 
#    0.000    0.000   11.733    0.000    0.000    0.000 
#    0.000    0.000    0.000    0.000    0.000    0.000 
#
# Total GULP energy -167315.733450 kJ/mol
# GULP energy per Si atom -5577.191115 kJ/mol
# Density = 2.081023 g / cm^3
# Si number density = 20.857699 Si / 1000 Ang^3
#
#
#
# Elastic Constant Matrix: (Units=GPa)
#
#
# Indices 1 2 3 4 5 6 
#
# 1 61.2935 8.1166 29.8879 0.0000 0.0000 0.0000
# 2 8.1166 33.5914 10.7732 0.0000 0.0000 0.0000
# 3 29.8879 10.7732 135.4376 0.0000 0.0000 0.0000
# 4 0.0000 0.0000 0.0000 26.8214 0.0000 0.0000
# 5 0.0000 0.0000 0.0000 0.0000 -11.8122 0.0000
# 6 0.0000 0.0000 0.0000 0.0000 0.0000 11.8549
#
#
#
# Elastic Compliance Matrix: (Units=1/GPa)
#
#
# Indices 1 2 3 4 5 6 
#
# 1 0.018625 -0.003265 -0.003850 0.000000 0.000000 0.000000
# 2 -0.003265 0.031121 -0.001755 0.000000 0.000000 0.000000
# 3 -0.003850 -0.001755 0.008373 0.000000 0.000000 0.000000
# 4 0.000000 0.000000 0.000000 0.037284 0.000000 0.000000
# 5 0.000000 0.000000 0.000000 0.000000 -0.084658 0.000000
# 6 0.000000 0.000000 0.000000 0.000000 0.000000 0.084354
#
#
# Mechanical properties :
#
#
# Convention : Reuss Voigt Hill
#
# Bulk Modulus (GPa) = 24.76615 36.43087 30.59851
# Shear Modulus (GPa) = 39.58874 17.47580 28.53227
#
# Velocity S-wave (km/s) = 4.36138 2.89772 3.70259
# Velocity P-wave (km/s) = 6.10424 5.35724 5.74290
#
# Compressibility (1/GPa) = 0.04037769
#
# Stress axis : x y z
#
# Youngs Moduli (GPa) = 53.69177 32.13225 119.43524
#
# Poissons Ratio (x) = 0.10492 0.45986
# Poissons Ratio (y) = 0.17532 0.20960
# Poissons Ratio (z) = 0.20673 0.05639
#
# Static dielectric constant tensor:
#      x y z
#    x 1.813540 0.000000 0.000000 
#    y 0.000000 1.749940 0.000000 
#    z 0.000000 0.000000 1.772490 
# 
# From -- ./inp_files/2105.got.cif
#   From: 2010.05.17/outbox.cif.g08.bks.cpg/sg30_2_cif.got.tgz:2105.got - 2010.06.03 17:03:02.
