data_PCOD9341800
_publ_section_title
;
Structure prediction by ZEFSAII (Michael W. Deem and Ramdas Pophale) SiO2 
 PCOD9341800
Probable space group: P N C 2
;
_chemical_formula_sum "Si O2"
_cell_formula_units_Z 32
_cell_length_a 7.996546
_cell_length_b 24.832821
_cell_length_c 7.266504
_cell_angle_alpha 90.000000
_cell_angle_beta 90.000000
_cell_angle_gamma 90.000000
_cell_volume 1442.959078
_symmetry_space_group_name_H-M "P N C 2"
_symmetry_group_IT_number 30
_symmetry_cell_setting 'orthorhombic'
loop_
_space_group_symop_operation_xyz
x,y,z
-x,-y,z
-x,1/2+y,1/2+z
x,1/2-y,1/2+z
loop_
_atom_site_type_symbol
_atom_site_label
_atom_site_fract_x
_atom_site_fract_y
_atom_site_fract_z
Si Si1 0.999999 0.814873 0.007340
Si Si2 0.315347 0.616803 0.509062
Si Si3 0.000001 0.187982 0.569609
Si Si4 0.690018 0.617805 0.059363
Si Si5 0.690020 0.117805 0.559363
Si Si6 0.807335 1.000000 0.020340
Si Si7 0.299369 0.000000 0.604907
Si Si8 0.684651 0.616804 0.509062
O O1 1.000000 0.751638 0.042955
O O2 0.833352 0.844857 0.073763
O O3 0.166645 0.844857 0.073763
O O4 0.999999 0.821822 0.787747
O O5 0.312464 0.616630 0.284390
O O6 0.282198 0.555584 0.571091
O O7 0.499999 0.634594 0.564960
O O8 0.168234 0.159295 0.499166
O O9 0.831769 0.159295 0.499166
O O10 0.499999 0.630451 0.001744
O O11 0.734387 0.556351 0.005676
O O12 0.687534 0.616630 0.284390
O O13 0.734389 0.056351 0.505677
O O14 0.800067 0.999999 0.796332
O O15 0.000000 0.000000 0.079346
O O16 0.717801 0.944416 0.071092
O O17 0.500000 0.000000 0.648438
#
# Coordination Sequence:
#
# PCOD9341800 Si02
#       8
#     4   4   4   4   4   4   4   4
#     4  10  20  33  45  67  87 122 155 190 218 260
#     4   9  16  27  42  63  92 118 145 181 226 272
#     4  10  20  31  47  63  91 118 155 188 220 258
#     4   8  15  26  41  64  90 116 143 181 226 268
#     4   8  15  26  41  64  90 116 143 181 226 268
#     4  10  14  20  38  65  93 115 139 175 229 278
#     4   8  14  22  36  62  92 116 141 174 226 280
#     4   9  16  27  42  63  92 118 145 181 226 272
#
# _framework density 22.176651
#
# number of rings (size 3 to 8) (size 9 to 14) (size 15 to 20)
#    0.000    3.000    1.250    2.625    5.250    1.000 
#    0.000    0.000    0.000    0.000    0.000    3.500 
#    0.000    4.000    0.000    0.000    0.000    0.000 
#
# Total GULP energy -178709.991838 kJ/mol
# GULP energy per Si atom -5584.687245 kJ/mol
# Density = 2.212618 g / cm^3
# Si number density = 22.176651 Si / 1000 Ang^3
#
#
#
# Elastic Constant Matrix: (Units=GPa)
#
#
# Indices 1 2 3 4 5 6 
#
# 1 200.6859 130.5586 3.2876 0.0000 0.0000 0.0000
# 2 130.5586 196.7801 -3.4820 0.0000 0.0000 0.0000
# 3 3.2876 -3.4820 88.4206 0.0000 0.0000 0.0000
# 4 0.0000 0.0000 0.0000 6.8615 0.0000 0.0000
# 5 0.0000 0.0000 0.0000 0.0000 -15.0404 0.0000
# 6 0.0000 0.0000 0.0000 0.0000 0.0000 5.2815
#
#
#
# Elastic Compliance Matrix: (Units=1/GPa)
#
#
# Indices 1 2 3 4 5 6 
#
# 1 0.008794 -0.005845 -0.000557 0.000000 0.000000 0.000000
# 2 -0.005845 0.008970 0.000571 0.000000 0.000000 0.000000
# 3 -0.000557 0.000571 0.011353 0.000000 0.000000 0.000000
# 4 0.000000 0.000000 0.000000 0.145740 0.000000 0.000000
# 5 0.000000 0.000000 0.000000 0.000000 -0.066487 0.000000
# 6 0.000000 0.000000 0.000000 0.000000 0.000000 0.189341
#
#
# Mechanical properties :
#
#
# Convention : Reuss Voigt Hill
#
# Bulk Modulus (GPa) = 57.29267 82.95721 70.12494
# Shear Modulus (GPa) = 15.86339 23.12202 19.49270
#
# Velocity S-wave (km/s) = 2.67745 3.23248 2.96797
# Velocity P-wave (km/s) = 5.95391 7.17081 6.59051
#
# Compressibility (1/GPa) = 0.01745424
#
# Stress axis : x y z
#
# Youngs Moduli (GPa) = 113.70905 111.48623 88.08428
#
# Poissons Ratio (x) = 0.65160 0.04908
# Poissons Ratio (y) = 0.66460 -0.05026
# Poissons Ratio (z) = 0.06335 -0.06361
#
# Static dielectric constant tensor:
#      x y z
#    x 1.784390 0.000000 0.000000 
#    y 0.000000 1.778790 0.000000 
#    z 0.000000 0.000000 1.911670 
# 
# From -- ./inp_files/3893.got.cif
#   From: 2010.05.17/outbox.cif.g08.bks.cpg/sg30_2_cif.got.tgz:3893.got - 2010.06.03 17:03:02.
