data_PCOD9341074
_publ_section_title
;
Structure prediction by ZEFSAII (Michael W. Deem and Ramdas Pophale) SiO2 
 PCOD9341074
Probable space group: P C A 21
;
_chemical_formula_sum "Si O2"
_cell_formula_units_Z 28
_cell_length_a 5.401098
_cell_length_b 16.045204
_cell_length_c 13.175893
_cell_angle_alpha 90.000000
_cell_angle_beta 90.000000
_cell_angle_gamma 90.000000
_cell_volume 1141.845540
_symmetry_space_group_name_H-M "P C A 21"
_symmetry_group_IT_number 29
_symmetry_cell_setting 'orthorhombic'
loop_
_space_group_symop_operation_xyz
x,y,z
-x,-y,1/2+z
1/2-x,y,1/2+z
1/2+x,-y,z
loop_
_atom_site_type_symbol
_atom_site_label
_atom_site_fract_x
_atom_site_fract_y
_atom_site_fract_z
Si Si1 0.081764 0.701574 0.259230
Si Si2 0.259484 0.483527 0.085391
Si Si3 0.465661 0.627567 0.959424
Si Si4 0.871729 0.046341 0.570001
Si Si5 0.087449 0.218990 0.327061
Si Si6 0.388858 0.961698 0.324293
Si Si7 0.617212 0.239794 0.044153
O O1 0.014505 0.628850 0.338682
O O2 0.371213 0.722481 0.280328
O O3 0.054318 0.701465 0.138933
O O4 0.866338 0.766628 0.291931
O O5 0.510745 0.495586 0.145164
O O6 0.279503 0.555641 0.998817
O O7 0.205846 0.400011 0.022649
O O8 0.358894 0.716620 0.994773
O O9 0.877436 0.036982 0.447148
O O10 0.847527 0.145817 0.586207
O O11 0.128767 0.004161 0.604388
O O12 0.997986 0.127632 0.297439
O O13 0.067439 0.230573 0.448847
O O14 0.604768 0.025950 0.293085
#
# Coordination Sequence:
#
# PCOD9341074 Si02
#       7
#     4   4   4   4   4   4   4
#     4  11  24  39  62  93 123 164 218 258 320 385
#     4   8  18  36  64  88 128 166 192 246 322 364
#     4   9  21  40  66  91 131 163 202 259 307 376
#     4   9  19  36  56  83 121 163 210 269 327 374
#     4  10  23  40  58  86 126 157 205 276 316 373
#     4   9  16  31  56  79 105 154 204 251 325 387
#     4  10  23  42  66  94 124 175 221 267 323 391
#
# _framework density 24.521705000000001
#
# number of rings (size 3 to 8) (size 9 to 14) (size 15 to 20)
#    0.857    1.714    0.000    0.857    4.000   10.286 
#    0.000    5.714    0.000    1.714    0.000    0.000 
#    0.000    0.000    0.000    0.000    0.000    0.000 
#
# Total GULP energy -156179.029823 kJ/mol
# GULP energy per Si atom -5577.822494 kJ/mol
# Density = 2.446589 g / cm^3
# Si number density = 24.521705 Si / 1000 Ang^3
#
#
#
# Elastic Constant Matrix: (Units=GPa)
#
#
# Indices 1 2 3 4 5 6 
#
# 1 113.2894 26.3816 31.3736 0.0000 0.0000 0.0000
# 2 26.3816 89.3055 14.0746 0.0000 0.0000 0.0000
# 3 31.3736 14.0746 116.7693 0.0000 0.0000 0.0000
# 4 0.0000 0.0000 0.0000 14.6731 0.0000 0.0000
# 5 0.0000 0.0000 0.0000 0.0000 27.1610 0.0000
# 6 0.0000 0.0000 0.0000 0.0000 0.0000 32.4645
#
#
#
# Elastic Compliance Matrix: (Units=1/GPa)
#
#
# Indices 1 2 3 4 5 6 
#
# 1 0.010098 -0.002605 -0.002399 0.000000 0.000000 0.000000
# 2 -0.002605 0.012086 -0.000757 0.000000 0.000000 0.000000
# 3 -0.002399 -0.000757 0.009300 0.000000 0.000000 0.000000
# 4 0.000000 0.000000 0.000000 0.068152 0.000000 0.000000
# 5 0.000000 0.000000 0.000000 0.000000 0.036818 0.000000
# 6 0.000000 0.000000 0.000000 0.000000 0.000000 0.030803
#
#
# Mechanical properties :
#
#
# Convention : Reuss Voigt Hill
#
# Bulk Modulus (GPa) = 50.09501 51.44708 50.77104
# Shear Modulus (GPa) = 26.96403 31.36201 29.16302
#
# Velocity S-wave (km/s) = 3.31962 3.58012 3.45233
# Velocity P-wave (km/s) = 5.93012 6.17377 6.05317
#
# Compressibility (1/GPa) = 0.01996207
#
# Stress axis : x y z
#
# Youngs Moduli (GPa) = 99.02990 82.73810 107.53006
#
# Poissons Ratio (x) = 0.21553 0.25798
# Poissons Ratio (y) = 0.25797 0.08139
# Poissons Ratio (z) = 0.23759 0.06263
#
# Static dielectric constant tensor:
#      x y z
#    x 2.003510 0.000000 0.000000 
#    y 0.000000 1.956820 0.000000 
#    z 0.000000 0.000000 1.966460 
# 
# From -- ./inp_files/4098.got.cif
#   From: 2010.05.17/outbox.cif.g08.bks.cpg/sg29_3_cif.got.tgz:4098.got - 2010.06.04 01:19:37.
