data_PCOD9341582
_publ_section_title
;
Structure prediction by ZEFSAII (Michael W. Deem and Ramdas Pophale) SiO2 
 PCOD9341582
Probable space group: P C A 21
;
_chemical_formula_sum "Si O2"
_cell_formula_units_Z 28
_cell_length_a 5.222895
_cell_length_b 21.156582
_cell_length_c 9.991786
_cell_angle_alpha 90.000000
_cell_angle_beta 90.000000
_cell_angle_gamma 90.000000
_cell_volume 1104.078428
_symmetry_space_group_name_H-M "P C A 21"
_symmetry_group_IT_number 29
_symmetry_cell_setting 'orthorhombic'
loop_
_space_group_symop_operation_xyz
x,y,z
-x,-y,1/2+z
1/2-x,y,1/2+z
1/2+x,-y,z
loop_
_atom_site_type_symbol
_atom_site_label
_atom_site_fract_x
_atom_site_fract_y
_atom_site_fract_z
Si Si1 0.427125 0.959950 0.385090
Si Si2 0.074939 0.162040 0.223072
Si Si3 0.938652 0.542274 0.308992
Si Si4 0.338788 0.382121 0.582356
Si Si5 0.345081 0.703965 0.258775
Si Si6 0.493760 0.269381 0.024071
Si Si7 0.425953 0.863712 0.590566
O O1 0.444290 0.893026 0.310595
O O2 0.445245 0.934450 0.536829
O O3 0.667425 0.003889 0.356792
O O4 0.371240 0.142500 0.211640
O O5 0.043232 0.236845 0.248344
O O6 0.874935 0.153416 0.098000
O O7 0.714602 0.489892 0.301334
O O8 0.875767 0.585835 0.178916
O O9 0.913920 0.575334 0.455323
O O10 0.547025 0.358875 0.691044
O O11 0.239066 0.316926 0.517288
O O12 0.306573 0.701978 0.416922
O O13 0.105868 0.724870 0.172573
O O14 0.453852 0.194909 0.004360
#
# Coordination Sequence:
#
# PCOD9341582 Si02
#       7
#     4   4   4   4   4   4   4
#     4  12  26  43  67  98 136 194 248 296 360 456
#     4  11  24  45  69 101 142 184 236 312 374 431
#     4  12  30  51  75 110 158 202 248 300 360 438
#     4  12  26  46  80 110 148 202 252 300 372 448
#     4  11  25  45  74 113 148 192 248 317 383 439
#     4  11  25  45  74 113 148 192 248 317 383 439
#     4  11  24  45  69 101 142 184 236 312 374 431
#
# _framework density 25.360517999999999
#
# number of rings (size 3 to 8) (size 9 to 14) (size 15 to 20)
#    0.000    0.571    4.286    2.571    6.000    3.429 
#    2.571    0.000    0.000    0.000    0.000    0.000 
#    0.000    0.000    0.000    0.000    0.000    0.000 
#
# Total GULP energy -156358.188033 kJ/mol
# GULP energy per Si atom -5584.221001 kJ/mol
# Density = 2.530280 g / cm^3
# Si number density = 25.360518 Si / 1000 Ang^3
#
#
#
# Elastic Constant Matrix: (Units=GPa)
#
#
# Indices 1 2 3 4 5 6 
#
# 1 108.9906 35.9079 10.8885 0.0000 0.0000 0.0000
# 2 35.9079 128.6365 28.4853 0.0000 0.0000 0.0000
# 3 10.8885 28.4853 59.9768 0.0000 0.0000 0.0000
# 4 0.0000 0.0000 0.0000 36.5877 0.0000 0.0000
# 5 0.0000 0.0000 0.0000 0.0000 19.0136 0.0000
# 6 0.0000 0.0000 0.0000 0.0000 0.0000 40.1816
#
#
#
# Elastic Compliance Matrix: (Units=1/GPa)
#
#
# Indices 1 2 3 4 5 6 
#
# 1 0.010121 -0.002702 -0.000554 0.000000 0.000000 0.000000
# 2 -0.002702 0.009409 -0.003978 0.000000 0.000000 0.000000
# 3 -0.000554 -0.003978 0.018663 0.000000 0.000000 0.000000
# 4 0.000000 0.000000 0.000000 0.027332 0.000000 0.000000
# 5 0.000000 0.000000 0.000000 0.000000 0.052594 0.000000
# 6 0.000000 0.000000 0.000000 0.000000 0.000000 0.024887
#
#
# Mechanical properties :
#
#
# Convention : Reuss Voigt Hill
#
# Bulk Modulus (GPa) = 42.15141 49.79634 45.97387
# Shear Modulus (GPa) = 30.23294 33.97805 32.10549
#
# Velocity S-wave (km/s) = 3.45646 3.66430 3.56190
# Velocity P-wave (km/s) = 5.70846 6.13032 5.92314
#
# Compressibility (1/GPa) = 0.02372400
#
# Stress axis : x y z
#
# Youngs Moduli (GPa) = 98.80643 106.27957 53.58181
#
# Poissons Ratio (x) = 0.28722 0.02968
# Poissons Ratio (y) = 0.26702 0.21316
# Poissons Ratio (z) = 0.05472 0.42280
#
# Static dielectric constant tensor:
#      x y z
#    x 2.023580 0.000000 0.000000 
#    y 0.000000 1.980880 0.000000 
#    z 0.000000 0.000000 2.247020 
# 
# From -- ./inp_files/2700.got.cif
#   From: 2010.05.17/outbox.cif.g08.bks.cpg/sg29_2_cif.got.tgz:2700.got - 2010.06.04 01:19:37.
