data_PCOD9341195
_publ_section_title
;
Structure prediction by ZEFSAII (Michael W. Deem and Ramdas Pophale) SiO2 
 PCOD9341195
Probable space group: P C A 21
;
_chemical_formula_sum "Si O2"
_cell_formula_units_Z 28
_cell_length_a 13.604759
_cell_length_b 5.097760
_cell_length_c 15.247514
_cell_angle_alpha 90.000000
_cell_angle_beta 90.000000
_cell_angle_gamma 90.000000
_cell_volume 1057.472979
_symmetry_space_group_name_H-M "P C A 21"
_symmetry_group_IT_number 29
_symmetry_cell_setting 'orthorhombic'
loop_
_space_group_symop_operation_xyz
x,y,z
-x,-y,1/2+z
1/2-x,y,1/2+z
1/2+x,-y,z
loop_
_atom_site_type_symbol
_atom_site_label
_atom_site_fract_x
_atom_site_fract_y
_atom_site_fract_z
Si Si1 0.158069 0.715404 0.400180
Si Si2 0.173811 0.206391 0.283881
Si Si3 0.413827 0.751456 0.600867
Si Si4 0.711523 0.533828 0.641571
Si Si5 0.557275 0.582579 0.924991
Si Si6 0.528249 0.420002 0.727766
Si Si7 0.783428 0.903213 0.506572
O O1 0.169086 0.424234 0.361665
O O2 0.045039 0.740348 0.429226
O O3 0.176985 0.916339 0.321122
O O4 0.230922 0.833247 0.473163
O O5 0.265593 0.272239 0.222526
O O6 0.068818 0.245126 0.235734
O O7 0.312437 0.622316 0.633509
O O8 0.443036 0.613609 0.508307
O O9 0.491799 0.683998 0.676107
O O10 0.373064 0.033621 0.573251
O O11 0.621034 0.349599 0.667453
O O12 0.706190 0.713708 0.554848
O O13 0.559645 0.453832 0.828750
O O14 0.653649 0.761199 0.932150
#
# Coordination Sequence:
#
# PCOD9341195 Si02
#       7
#     4   4   4   4   4   4   4
#     4  11  26  44  76 102 146 194 240 307 370 443
#     4  10  25  46  69 111 143 183 254 303 358 454
#     4  10  25  46  66 108 148 187 254 312 358 458
#     4  10  24  43  69 102 146 196 237 311 374 441
#     4  10  25  45  69 107 139 196 242 305 369 441
#     4  10  23  46  75 101 149 191 249 303 382 434
#     4  11  26  42  72 101 151 195 250 303 377 445
#
# _framework density 26.478217999999998
#
# number of rings (size 3 to 8) (size 9 to 14) (size 15 to 20)
#    0.000    1.714    0.000    0.857   20.000    0.000 
#    5.143    0.000    0.000    0.000    0.000    0.000 
#    0.000    0.000    0.000    0.000    0.000    0.000 
#
# Total GULP energy -156744.019412 kJ/mol
# GULP energy per Si atom -5598.000693 kJ/mol
# Density = 2.641795 g / cm^3
# Si number density = 26.478218 Si / 1000 Ang^3
#
#
#
# Elastic Constant Matrix: (Units=GPa)
#
#
# Indices 1 2 3 4 5 6 
#
# 1 90.1860 5.1949 37.6835 0.0000 0.0000 0.0000
# 2 5.1949 39.8044 27.9380 0.0000 0.0000 0.0000
# 3 37.6835 27.9380 142.4437 0.0000 0.0000 0.0000
# 4 0.0000 0.0000 0.0000 48.2006 0.0000 0.0000
# 5 0.0000 0.0000 0.0000 0.0000 53.4624 0.0000
# 6 0.0000 0.0000 0.0000 0.0000 0.0000 31.9028
#
#
#
# Elastic Compliance Matrix: (Units=1/GPa)
#
#
# Indices 1 2 3 4 5 6 
#
# 1 0.012488 0.000799 -0.003460 0.000000 0.000000 0.000000
# 2 0.000799 0.029185 -0.005935 0.000000 0.000000 0.000000
# 3 -0.003460 -0.005935 0.009100 0.000000 0.000000 0.000000
# 4 0.000000 0.000000 0.000000 0.020747 0.000000 0.000000
# 5 0.000000 0.000000 0.000000 0.000000 0.018705 0.000000
# 6 0.000000 0.000000 0.000000 0.000000 0.000000 0.031345
#
#
# Mechanical properties :
#
#
# Convention : Reuss Voigt Hill
#
# Bulk Modulus (GPa) = 29.78073 46.00743 37.89408
# Shear Modulus (GPa) = 33.34316 40.15433 36.74875
#
# Velocity S-wave (km/s) = 3.55247 3.89846 3.72948
# Velocity P-wave (km/s) = 5.30079 6.13818 5.73479
#
# Compressibility (1/GPa) = 0.03357876
#
# Stress axis : x y z
#
# Youngs Moduli (GPa) = 80.07636 34.26473 109.89117
#
# Poissons Ratio (x) = -0.02738 0.38027
# Poissons Ratio (y) = -0.06398 0.65225
# Poissons Ratio (z) = 0.27710 0.20338
#
# Static dielectric constant tensor:
#      x y z
#    x 2.027550 0.000000 0.000000 
#    y 0.000000 2.093350 0.000000 
#    z 0.000000 0.000000 2.222160 
# 
# From -- ./inp_files/4678.got.cif
#   From: 2010.05.17/outbox.cif.g08.bks.cpg/sg29_3_cif.got.tgz:4678.got - 2010.06.04 01:19:37.
