data_PCOD9341217
_publ_section_title
;
Structure prediction by ZEFSAII (Michael W. Deem and Ramdas Pophale) SiO2 
 PCOD9341217
Probable space group: P C A 21
;
_chemical_formula_sum "Si O2"
_cell_formula_units_Z 28
_cell_length_a 8.546681
_cell_length_b 8.904379
_cell_length_c 18.074124
_cell_angle_alpha 90.000000
_cell_angle_beta 90.000000
_cell_angle_gamma 90.000000
_cell_volume 1375.493013
_symmetry_space_group_name_H-M "P C A 21"
_symmetry_group_IT_number 29
_symmetry_cell_setting 'orthorhombic'
loop_
_space_group_symop_operation_xyz
x,y,z
-x,-y,1/2+z
1/2-x,y,1/2+z
1/2+x,-y,z
loop_
_atom_site_type_symbol
_atom_site_label
_atom_site_fract_x
_atom_site_fract_y
_atom_site_fract_z
Si Si1 0.728503 0.999999 0.263910
Si Si2 0.150472 0.500000 0.263911
Si Si3 0.000000 0.394886 0.513910
Si Si4 0.010958 0.203146 0.828924
Si Si5 0.510961 0.203150 0.698898
Si Si6 0.788075 0.619050 0.418677
Si Si7 0.288073 0.619046 0.109145
O O1 0.839857 0.865861 0.287763
O O2 0.617309 0.928003 0.201614
O O3 0.617311 0.071993 0.326208
O O4 0.839852 0.134140 0.240056
O O5 0.241825 0.451511 0.338669
O O6 0.241822 0.548486 0.189152
O O7 0.054349 0.648619 0.288071
O O8 0.054345 0.351382 0.239753
O O9 0.128851 0.323964 0.458188
O O10 0.116728 0.493277 0.564480
O O11 0.883276 0.493282 0.463342
O O12 0.871148 0.323965 0.569632
O O13 0.081917 0.253402 0.906416
O O14 0.581916 0.253408 0.621406
#
# Coordination Sequence:
#
# PCOD9341217 Si02
#       7
#     4   4   4   4   4   4   4
#     4  10  24  38  58 100 136 164 204 282 340 378
#     4  12  22  36  74 102 118 162 232 278 312 382
#     4  10  24  38  58 100 138 168 202 288 336 376
#     4  11  22  39  62  97 129 163 212 275 328 384
#     4  11  22  39  62  97 129 163 212 275 328 384
#     4  11  22  39  62  98 130 164 215 273 330 383
#     4  11  22  39  62  98 130 164 215 273 330 383
#
# _framework density 20.356337
#
# number of rings (size 3 to 8) (size 9 to 14) (size 15 to 20)
#    0.000    1.143    5.714    0.857    0.000    0.000 
#    0.000    0.000    0.000    5.143    0.000    0.000 
#    0.000    0.000    0.000    0.000    0.000    0.000 
#
# Total GULP energy -155885.544042 kJ/mol
# GULP energy per Si atom -5567.340859 kJ/mol
# Density = 2.031001 g / cm^3
# Si number density = 20.356337 Si / 1000 Ang^3
#
#
#
# Elastic Constant Matrix: (Units=GPa)
#
#
# Indices 1 2 3 4 5 6 
#
# 1 104.8162 32.9207 27.4126 0.0000 0.0000 0.0000
# 2 32.9207 77.2720 11.6539 0.0000 0.0000 0.0000
# 3 27.4126 11.6539 71.8061 0.0000 0.0000 0.0000
# 4 0.0000 0.0000 0.0000 9.3644 0.0000 0.0000
# 5 0.0000 0.0000 0.0000 0.0000 33.2246 0.0000
# 6 0.0000 0.0000 0.0000 0.0000 0.0000 23.8877
#
#
#
# Elastic Compliance Matrix: (Units=1/GPa)
#
#
# Indices 1 2 3 4 5 6 
#
# 1 0.011962 -0.004518 -0.003833 0.000000 0.000000 0.000000
# 2 -0.004518 0.014973 -0.000705 0.000000 0.000000 0.000000
# 3 -0.003833 -0.000705 0.015504 0.000000 0.000000 0.000000
# 4 0.000000 0.000000 0.000000 0.106788 0.000000 0.000000
# 5 0.000000 0.000000 0.000000 0.000000 0.030098 0.000000
# 6 0.000000 0.000000 0.000000 0.000000 0.000000 0.041863
#
#
# Mechanical properties :
#
#
# Convention : Reuss Voigt Hill
#
# Bulk Modulus (GPa) = 41.10899 44.20764 42.65831
# Shear Modulus (GPa) = 20.20944 25.42248 22.81596
#
# Velocity S-wave (km/s) = 3.15427 3.53777 3.35151
# Velocity P-wave (km/s) = 5.78830 6.20095 5.99818
#
# Compressibility (1/GPa) = 0.02432558
#
# Stress axis : x y z
#
# Youngs Moduli (GPa) = 83.59723 66.78893 64.49840
#
# Poissons Ratio (x) = 0.30176 0.24725
# Poissons Ratio (y) = 0.37771 0.04548
# Poissons Ratio (z) = 0.32046 0.04710
#
# Static dielectric constant tensor:
#      x y z
#    x 1.779930 0.000000 0.000000 
#    y 0.000000 1.780930 0.000000 
#    z 0.000000 0.000000 1.870980 
# 
# From -- ./inp_files/5000.got.cif
#   From: 2010.05.17/outbox.cif.g08.bks.cpg/sg29_3_cif.got.tgz:5000.got - 2010.06.04 01:19:37.
