data_PCOD9341140
_publ_section_title
;
Structure prediction by ZEFSAII (Michael W. Deem and Ramdas Pophale) SiO2 
 PCOD9341140
Probable space group: P C A 21
;
_chemical_formula_sum "Si O2"
_cell_formula_units_Z 28
_cell_length_a 10.096081
_cell_length_b 12.732233
_cell_length_c 8.909029
_cell_angle_alpha 90.000000
_cell_angle_beta 90.000000
_cell_angle_gamma 90.000000
_cell_volume 1145.216974
_symmetry_space_group_name_H-M "P C A 21"
_symmetry_group_IT_number 29
_symmetry_cell_setting 'orthorhombic'
loop_
_space_group_symop_operation_xyz
x,y,z
-x,-y,1/2+z
1/2-x,y,1/2+z
1/2+x,-y,z
loop_
_atom_site_type_symbol
_atom_site_label
_atom_site_fract_x
_atom_site_fract_y
_atom_site_fract_z
Si Si1 0.886715 0.298863 0.539050
Si Si2 0.437228 0.924867 0.215182
Si Si3 0.851064 0.779038 0.045926
Si Si4 0.271449 0.366960 0.308025
Si Si5 0.619285 0.302477 0.699985
Si Si6 0.575432 0.531478 0.074734
Si Si7 0.184703 0.005429 0.404849
O O1 0.755317 0.271623 0.624353
O O2 0.849929 0.327364 0.370482
O O3 0.948726 0.408394 0.595915
O O4 0.991403 0.205416 0.547708
O O5 0.470690 0.801001 0.206159
O O6 0.569587 0.979799 0.278969
O O7 0.313562 0.951937 0.328356
O O8 0.384917 0.951151 0.048372
O O9 0.825179 0.684406 0.930635
O O10 0.780232 0.881000 0.980021
O O11 0.817103 0.732700 0.208358
O O12 0.376239 0.430419 0.409946
O O13 0.189802 0.439402 0.194495
O O14 0.549561 0.397553 0.616392
#
# Coordination Sequence:
#
# PCOD9341140 Si02
#       7
#     4   4   4   4   4   4   4
#     4  12  27  43  72 100 147 188 244 297 361 432
#     4  12  27  49  78 108 149 194 247 317 375 455
#     4  11  24  45  69 102 141 182 241 297 359 439
#     4  10  23  43  70 102 143 185 241 297 361 425
#     4  12  28  49  70 107 148 191 248 297 369 440
#     4  11  25  44  71 103 144 192 242 297 364 438
#     4  12  26  47  76 108 146 194 251 306 387 441
#
# _framework density 24.449515999999999
#
# number of rings (size 3 to 8) (size 9 to 14) (size 15 to 20)
#    0.000    0.571    2.857    3.429   10.000    4.571 
#    0.000    0.000    0.000    0.000    0.000    0.000 
#    0.000    0.000    0.000    0.000    0.000    0.000 
#
# Total GULP energy -156732.842471 kJ/mol
# GULP energy per Si atom -5597.601517 kJ/mol
# Density = 2.439387 g / cm^3
# Si number density = 24.449516 Si / 1000 Ang^3
#
#
#
# Elastic Constant Matrix: (Units=GPa)
#
#
# Indices 1 2 3 4 5 6 
#
# 1 70.3601 -18.0909 7.7284 0.0000 0.0000 0.0000
# 2 -18.0909 69.7540 -5.4124 0.0000 0.0000 0.0000
# 3 7.7284 -5.4124 89.3731 0.0000 0.0000 0.0000
# 4 0.0000 0.0000 0.0000 33.3336 0.0000 0.0000
# 5 0.0000 0.0000 0.0000 0.0000 46.9928 0.0000
# 6 0.0000 0.0000 0.0000 0.0000 0.0000 32.2326
#
#
#
# Elastic Compliance Matrix: (Units=1/GPa)
#
#
# Indices 1 2 3 4 5 6 
#
# 1 0.015333 0.003892 -0.001090 0.000000 0.000000 0.000000
# 2 0.003892 0.015392 0.000596 0.000000 0.000000 0.000000
# 3 -0.001090 0.000596 0.011319 0.000000 0.000000 0.000000
# 4 0.000000 0.000000 0.000000 0.030000 0.000000 0.000000
# 5 0.000000 0.000000 0.000000 0.000000 0.021280 0.000000
# 6 0.000000 0.000000 0.000000 0.000000 0.000000 0.031025
#
#
# Mechanical properties :
#
#
# Convention : Reuss Voigt Hill
#
# Bulk Modulus (GPa) = 20.47541 21.99304 21.23422
# Shear Modulus (GPa) = 37.35995 38.86260 38.11127
#
# Velocity S-wave (km/s) = 3.91326 3.99118 3.95241
# Velocity P-wave (km/s) = 5.36758 5.50038 5.43439
#
# Compressibility (1/GPa) = 0.04883907
#
# Stress axis : x y z
#
# Youngs Moduli (GPa) = 65.21852 64.96997 88.34396
#
# Poissons Ratio (x) = -0.25287 0.09631
# Poissons Ratio (y) = -0.25384 -0.05261
# Poissons Ratio (z) = 0.07110 -0.03869
#
# Static dielectric constant tensor:
#      x y z
#    x 1.955840 0.000000 0.000000 
#    y 0.000000 1.971980 0.000000 
#    z 0.000000 0.000000 1.943970 
# 
# From -- ./inp_files/1499.got.cif
#   From: 2010.05.17/outbox.cif.g08.bks.cpg/sg29_1_cif.got.tgz:1499.got - 2010.06.04 01:19:37.
