data_PCOD9341306
_publ_section_title
;
Structure prediction by ZEFSAII (Michael W. Deem and Ramdas Pophale) SiO2 
 PCOD9341306
Probable space group: P C A 21
;
_chemical_formula_sum "Si O2"
_cell_formula_units_Z 32
_cell_length_a 18.746345
_cell_length_b 13.259468
_cell_length_c 5.335753
_cell_angle_alpha 90.000000
_cell_angle_beta 90.000000
_cell_angle_gamma 90.000000
_cell_volume 1326.289777
_symmetry_space_group_name_H-M "P C A 21"
_symmetry_group_IT_number 29
_symmetry_cell_setting 'orthorhombic'
loop_
_space_group_symop_operation_xyz
x,y,z
-x,-y,1/2+z
1/2-x,y,1/2+z
1/2+x,-y,z
loop_
_atom_site_type_symbol
_atom_site_label
_atom_site_fract_x
_atom_site_fract_y
_atom_site_fract_z
Si Si1 0.891649 0.524802 0.411610
Si Si2 0.010968 0.158963 0.965341
Si Si3 0.796039 0.858847 0.944443
Si Si4 0.296002 0.623237 0.661489
Si Si5 0.013384 0.636569 0.711597
Si Si6 0.896721 0.011628 0.729629
Si Si7 0.796917 0.166700 0.504762
Si Si8 0.399445 0.299048 0.100599
O O1 0.843308 0.475599 0.623109
O O2 0.962677 0.576557 0.520108
O O3 0.857803 0.614838 0.252912
O O4 0.916936 0.429467 0.249519
O O5 0.065180 0.214695 0.777490
O O6 0.950296 0.093676 0.836764
O O7 0.975493 0.249796 0.120199
O O8 0.057049 0.080144 0.123417
O O9 0.742852 0.856849 0.710294
O O10 0.843309 0.959594 0.924758
O O11 0.847256 0.761627 0.920149
O O12 0.236513 0.623106 0.439145
O O13 0.335749 0.728110 0.586267
O O14 0.964710 0.647482 0.958638
O O15 0.847822 0.071170 0.533228
O O16 0.762731 0.165330 0.228192
#
# Coordination Sequence:
#
# PCOD9341306 Si02
#       8
#     4   4   4   4   4   4   4   4
#     4  11  25  42  79 100 145 188 244 299 376 438
#     4  11  27  44  72 107 148 184 235 315 357 439
#     4  12  27  48  75 105 150 198 244 303 356 434
#     4  10  25  45  69 106 146 188 244 304 365 440
#     4  11  24  46  69 110 139 187 242 303 370 434
#     4  12  25  46  73 105 141 191 247 287 377 428
#     4  10  24  46  70 101 143 189 243 298 353 435
#     4  11  25  49  67 108 142 185 245 297 366 440
#
# _framework density 24.127457
#
# number of rings (size 3 to 8) (size 9 to 14) (size 15 to 20)
#    0.000    1.000    2.500    2.250    5.250    6.000 
#    0.000    0.000    0.000    0.000    0.000    0.000 
#    0.000    0.000    0.000    0.000    0.000    0.000 
#
# Total GULP energy -179226.234469 kJ/mol
# GULP energy per Si atom -5600.819827 kJ/mol
# Density = 2.407254 g / cm^3
# Si number density = 24.127457 Si / 1000 Ang^3
#
#
#
# Elastic Constant Matrix: (Units=GPa)
#
#
# Indices 1 2 3 4 5 6 
#
# 1 52.2478 46.0760 18.5902 0.0000 0.0000 0.0000
# 2 46.0760 157.6677 31.2446 0.0000 0.0000 0.0000
# 3 18.5902 31.2446 82.8297 0.0000 0.0000 0.0000
# 4 0.0000 0.0000 0.0000 48.2288 0.0000 0.0000
# 5 0.0000 0.0000 0.0000 0.0000 -14.5139 0.0000
# 6 0.0000 0.0000 0.0000 0.0000 0.0000 -77.4860
#
#
#
# Elastic Compliance Matrix: (Units=1/GPa)
#
#
# Indices 1 2 3 4 5 6 
#
# 1 0.026585 -0.007119 -0.003281 0.000000 0.000000 0.000000
# 2 -0.007119 0.008761 -0.001707 0.000000 0.000000 0.000000
# 3 -0.003281 -0.001707 0.013453 0.000000 0.000000 0.000000
# 4 0.000000 0.000000 0.000000 0.020734 0.000000 0.000000
# 5 0.000000 0.000000 0.000000 0.000000 -0.068899 0.000000
# 6 0.000000 0.000000 0.000000 0.000000 0.000000 -0.012906
#
#
# Mechanical properties :
#
#
# Convention : Reuss Voigt Hill
#
# Bulk Modulus (GPa) = 40.67531 53.84075 47.25803
# Shear Modulus (GPa) = 248.28047 4.36807 126.32427
#
# Velocity S-wave (km/s) = 10.15515 1.34698 7.24367
# Velocity P-wave (km/s) = 12.42570 4.97822 9.46522
#
# Compressibility (1/GPa) = 0.02458494
#
# Stress axis : x y z
#
# Youngs Moduli (GPa) = 37.61514 114.14076 74.33086
#
# Poissons Ratio (x) = 0.81255 0.24391
# Poissons Ratio (y) = 0.26778 0.12689
# Poissons Ratio (z) = 0.12343 0.19485
#
# Static dielectric constant tensor:
#      x y z
#    x 1.900490 0.000000 0.000000 
#    y 0.000000 1.912360 0.000000 
#    z 0.000000 0.000000 1.952220 
# 
# From -- ./inp_files/560.got.cif
#   From: 2010.05.17/outbox.cif.g08.bks.cpg/sg29_1_cif.got.tgz:560.got - 2010.06.04 01:19:37.
