data_PCOD9341782
_publ_section_title
;
Structure prediction by ZEFSAII (Michael W. Deem and Ramdas Pophale) SiO2 
 PCOD9341782
Probable space group: P C A 21
;
_chemical_formula_sum "Si O2"
_cell_formula_units_Z 32
_cell_length_a 12.000000
_cell_length_b 15.000000
_cell_length_c 9.000000
_cell_angle_alpha 90.000000
_cell_angle_beta 90.000000
_cell_angle_gamma 90.000000
_cell_volume 1620.000000
_symmetry_space_group_name_H-M "P C A 21"
_symmetry_group_IT_number 29
_symmetry_cell_setting 'orthorhombic'
loop_
_space_group_symop_operation_xyz
x,y,z
-x,-y,1/2+z
1/2-x,y,1/2+z
1/2+x,-y,z
loop_
_atom_site_type_symbol
_atom_site_label
_atom_site_fract_x
_atom_site_fract_y
_atom_site_fract_z
Si Si1 0.424908 0.588183 0.516100
Si Si2 0.094156 0.257638 0.431335
Si Si3 0.024762 0.915332 0.020147
Si Si4 0.513375 0.601988 0.858335
Si Si5 0.640081 0.968436 0.780183
Si Si6 0.686798 0.758013 0.764998
Si Si7 0.695352 0.292900 0.484683
Si Si8 0.731533 0.154979 0.214098
O O1 0.511538 0.658422 0.442141
O O2 0.463044 0.581799 0.691235
O O3 0.437732 0.490069 0.434860
O O4 0.304167 0.640466 0.502593
O O5 0.187468 0.268053 0.306246
O O6 0.157569 0.248932 0.590571
O O7 0.027797 0.163929 0.420648
O O8 0.122158 0.866785 0.115142
O O9 0.935302 0.955675 0.133982
O O10 0.070578 0.995138 0.919779
O O11 0.603399 0.683884 0.839376
O O12 0.411184 0.644061 0.953934
O O13 0.677998 0.864721 0.808674
O O14 0.721277 0.055330 0.752869
O O15 0.703095 0.219533 0.351922
O O16 0.689802 0.223302 0.622060
#
# Coordination Sequence:
#
# PCOD9341782 Si02
#       8
#     4   4   4   4   4   4   4   4
#     4  11  25  47  72 103 136 184 230 289 358 414
#     4  10  22  46  64  95 136 175 222 284 332 414
#     4  11  25  43  64 100 139 179 234 287 346 424
#     4  11  27  47  72 102 142 180 236 292 353 426
#     4  11  26  39  69  98 136 185 227 286 352 423
#     4  10  25  44  65  97 139 178 221 286 343 409
#     4  12  24  48  72 100 141 180 239 295 354 425
#     4  12  24  44  70 101 135 185 235 293 354 421
#
# _framework density 19.753086
#
# number of rings (size 3 to 8) (size 9 to 14) (size 15 to 20)
#    0.000    1.000    3.750    1.500   12.250    1.000 
#    0.000    0.000    0.000    0.000    0.000    0.000 
#    0.000    0.000    0.000    0.000    0.000    0.000 
#
# Total GULP energy -178581.403397 kJ/mol
# GULP energy per Si atom -5580.668856 kJ/mol
# Density = 1.970813 g / cm^3
# Si number density = 19.753086 Si / 1000 Ang^3
#
#
#
# Elastic Constant Matrix: (Units=GPa)
#
#
# Indices 1 2 3 4 5 6 
#
# 1 75.2299 27.0581 -12.9207 0.0000 0.0000 0.0000
# 2 27.0581 152.0406 6.7651 0.0000 0.0000 0.0000
# 3 -12.9207 6.7651 14.7860 0.0000 0.0000 0.0000
# 4 0.0000 0.0000 0.0000 46.7565 0.0000 0.0000
# 5 0.0000 0.0000 0.0000 0.0000 30.5758 0.0000
# 6 0.0000 0.0000 0.0000 0.0000 0.0000 30.3825
#
#
#
# Elastic Compliance Matrix: (Units=1/GPa)
#
#
# Indices 1 2 3 4 5 6 
#
# 1 0.017655 -0.003908 0.017216 0.000000 0.000000 0.000000
# 2 -0.003908 0.007579 -0.006883 0.000000 0.000000 0.000000
# 3 0.017216 -0.006883 0.085825 0.000000 0.000000 0.000000
# 4 0.000000 0.000000 0.000000 0.021387 0.000000 0.000000
# 5 0.000000 0.000000 0.000000 0.000000 0.032706 0.000000
# 6 0.000000 0.000000 0.000000 0.000000 0.000000 0.032914
#
#
# Mechanical properties :
#
#
# Convention : Reuss Voigt Hill
#
# Bulk Modulus (GPa) = 8.07043 31.54017 19.80530
# Shear Modulus (GPa) = 22.07328 36.28655 29.17991
#
# Velocity S-wave (km/s) = 3.34647 4.29068 3.84765
# Velocity P-wave (km/s) = 4.36192 6.36777 5.45778
#
# Compressibility (1/GPa) = 0.12390918
#
# Stress axis : x y z
#
# Youngs Moduli (GPa) = 56.64109 131.94466 11.65164
#
# Poissons Ratio (x) = 0.51564 -0.20059
# Poissons Ratio (y) = 0.22136 0.08019
# Poissons Ratio (z) = -0.97513 0.90813
#
# Static dielectric constant tensor:
#      x y z
#    x 1.728330 0.000000 0.000000 
#    y 0.000000 1.671110 0.000000 
#    z 0.000000 0.000000 1.746620 
# 
# From -- ./inp_files/1571.got.cif
#   From: 2010.05.17/outbox.ucp.g08.bks.cvg/sg29_1_cif.got.tgz:1571.got - 2010.06.11 15:24:14.
