data_PCOD9341248
_publ_section_title
;
Structure prediction by ZEFSAII (Michael W. Deem and Ramdas Pophale) SiO2 
 PCOD9341248
Probable space group: P C A 21
;
_chemical_formula_sum "Si O2"
_cell_formula_units_Z 20
_cell_length_a 8.824069
_cell_length_b 11.351050
_cell_length_c 6.742617
_cell_angle_alpha 90.000000
_cell_angle_beta 90.000000
_cell_angle_gamma 90.000000
_cell_volume 675.357027
_symmetry_space_group_name_H-M "P C A 21"
_symmetry_group_IT_number 29
_symmetry_cell_setting 'orthorhombic'
loop_
_space_group_symop_operation_xyz
x,y,z
-x,-y,1/2+z
1/2-x,y,1/2+z
1/2+x,-y,z
loop_
_atom_site_type_symbol
_atom_site_label
_atom_site_fract_x
_atom_site_fract_y
_atom_site_fract_z
Si Si1 0.785182 0.590791 0.069250
Si Si2 0.751907 0.981539 0.975878
Si Si3 0.249770 0.829641 0.724682
Si Si4 0.576374 0.815358 0.723630
Si Si5 0.476980 0.618440 0.210860
O O1 0.807927 0.711802 0.190890
O O2 0.603556 0.594573 0.041433
O O3 0.837645 0.471894 0.180763
O O4 0.913962 0.600670 0.900230
O O5 0.615272 0.892100 0.918071
O O6 0.782567 0.015084 0.725529
O O7 0.900105 0.904313 0.036621
O O8 0.747657 0.132147 0.974521
O O9 0.410105 0.763542 0.728913
O O10 0.102848 0.745526 0.719077
#
# Coordination Sequence:
#
# PCOD9341248 Si02
#       5
#     4   4   4   4   4
#     4  12  27  49  76 112 156 207 265 332 404 484
#     4  10  24  42  71 110 147 196 253 314 388 468
#     4  11  24  45  74 109 148 199 254 319 392 470
#     4  11  23  44  73 108 152 196 253 319 389 470
#     4  12  28  50  78 113 157 208 269 334 407 484
#
# _framework density 29.613966999999999
#
# number of rings (size 3 to 8) (size 9 to 14) (size 15 to 20)
#    0.000    0.800    0.000    6.000    0.000   14.400 
#    0.000    0.000    0.000    0.000    0.000    0.000 
#    0.000    0.000    0.000    0.000    0.000    0.000 
#
# Total GULP energy -111858.054183 kJ/mol
# GULP energy per Si atom -5592.902709 kJ/mol
# Density = 2.954656 g / cm^3
# Si number density = 29.613967 Si / 1000 Ang^3
#
#
#
# Elastic Constant Matrix: (Units=GPa)
#
#
# Indices 1 2 3 4 5 6 
#
# 1 228.3493 83.8440 32.5990 0.0000 0.0000 0.0000
# 2 83.8440 157.0243 77.3953 0.0000 0.0000 0.0000
# 3 32.5990 77.3953 213.8537 0.0000 0.0000 0.0000
# 4 0.0000 0.0000 0.0000 42.9220 0.0000 0.0000
# 5 0.0000 0.0000 0.0000 0.0000 42.9721 0.0000
# 6 0.0000 0.0000 0.0000 0.0000 0.0000 18.0443
#
#
#
# Elastic Compliance Matrix: (Units=1/GPa)
#
#
# Indices 1 2 3 4 5 6 
#
# 1 0.005460 -0.003049 0.000271 0.000000 0.000000 0.000000
# 2 -0.003049 0.009454 -0.002957 0.000000 0.000000 0.000000
# 3 0.000271 -0.002957 0.005705 0.000000 0.000000 0.000000
# 4 0.000000 0.000000 0.000000 0.023298 0.000000 0.000000
# 5 0.000000 0.000000 0.000000 0.000000 0.023271 0.000000
# 6 0.000000 0.000000 0.000000 0.000000 0.000000 0.055419
#
#
# Mechanical properties :
#
#
# Convention : Reuss Voigt Hill
#
# Bulk Modulus (GPa) = 109.29440 109.65599 109.47520
# Shear Modulus (GPa) = 36.46283 47.81359 42.13821
#
# Velocity S-wave (km/s) = 3.51275 4.02252 3.77625
# Velocity P-wave (km/s) = 7.31020 7.66049 7.48739
#
# Compressibility (1/GPa) = 0.00914960
#
# Stress axis : x y z
#
# Youngs Moduli (GPa) = 183.14696 105.77750 175.29166
#
# Poissons Ratio (x) = 0.32253 -0.04754
# Poissons Ratio (y) = 0.55843 0.51827
# Poissons Ratio (z) = -0.04967 0.31274
#
# Static dielectric constant tensor:
#      x y z
#    x 2.099440 0.000000 0.000000 
#    y 0.000000 2.200410 0.000000 
#    z 0.000000 0.000000 2.692280 
# 
# From -- ./inp_files/1091.got.cif
#   From: 2010.05.17/outbox.cif.g08.bks.cpg/sg29_1_cif.got.tgz:1091.got - 2010.06.04 01:19:37.
