data_PCOD9341604
_publ_section_title
;
Structure prediction by ZEFSAII (Michael W. Deem and Ramdas Pophale) SiO2 
 PCOD9341604
Probable space group: P C A 21
;
_chemical_formula_sum "Si O2"
_cell_formula_units_Z 28
_cell_length_a 23.939970
_cell_length_b 6.333258
_cell_length_c 8.294453
_cell_angle_alpha 90.000000
_cell_angle_beta 90.000000
_cell_angle_gamma 90.000000
_cell_volume 1257.588429
_symmetry_space_group_name_H-M "P C A 21"
_symmetry_group_IT_number 29
_symmetry_cell_setting 'orthorhombic'
loop_
_space_group_symop_operation_xyz
x,y,z
-x,-y,1/2+z
1/2-x,y,1/2+z
1/2+x,-y,z
loop_
_atom_site_type_symbol
_atom_site_label
_atom_site_fract_x
_atom_site_fract_y
_atom_site_fract_z
Si Si1 0.493008 0.779290 0.153020
Si Si2 0.938470 0.570693 0.363482
Si Si3 0.390095 0.079976 0.118457
Si Si4 0.305507 0.249450 0.625539
Si Si5 0.717364 0.988466 0.825341
Si Si6 0.339990 0.672770 0.557141
Si Si7 0.099770 0.024427 0.253609
O O1 0.480409 0.591569 0.275970
O O2 0.534073 0.953543 0.230367
O O3 0.434104 0.889448 0.123208
O O4 0.523813 0.691775 0.995066
O O5 0.913599 0.729575 0.228067
O O6 0.887293 0.437452 0.444034
O O7 0.330923 0.016792 0.192577
O O8 0.384094 0.113476 0.928275
O O9 0.303154 0.498395 0.651730
O O10 0.370217 0.187349 0.633300
O O11 0.286824 0.210473 0.444431
O O12 0.274129 0.073606 0.733426
O O13 0.700395 0.184635 0.941974
O O14 0.375038 0.805346 0.690038
#
# Coordination Sequence:
#
# PCOD9341604 Si02
#       7
#     4   4   4   4   4   4   4
#     4  12  26  41  73 104 152 198 245 310 367 459
#     4  12  25  45  71 111 149 199 251 297 390 446
#     4  12  25  44  69 106 151 194 242 312 364 455
#     4  11  24  47  74 103 150 193 249 316 371 452
#     4  11  24  47  72 107 145 193 250 310 380 439
#     4  11  24  48  72 106 146 194 243 317 372 452
#     4  11  26  42  69 107 147 189 252 302 380 439
#
# _framework density 22.264835999999999
#
# number of rings (size 3 to 8) (size 9 to 14) (size 15 to 20)
#    0.000    0.571    4.286    3.429    6.000    3.429 
#    0.000    0.000    0.000    0.000    0.000    0.000 
#    0.000    0.000    0.000    0.000    0.000    0.000 
#
# Total GULP energy -156236.178936 kJ/mol
# GULP energy per Si atom -5579.863533 kJ/mol
# Density = 2.221416 g / cm^3
# Si number density = 22.264836 Si / 1000 Ang^3
#
#
#
# Elastic Constant Matrix: (Units=GPa)
#
#
# Indices 1 2 3 4 5 6 
#
# 1 95.9611 37.6993 22.7996 0.0000 0.0000 0.0000
# 2 37.6993 100.4569 20.6923 0.0000 0.0000 0.0000
# 3 22.7996 20.6923 74.1398 0.0000 0.0000 0.0000
# 4 0.0000 0.0000 0.0000 29.3451 0.0000 0.0000
# 5 0.0000 0.0000 0.0000 0.0000 43.3128 0.0000
# 6 0.0000 0.0000 0.0000 0.0000 0.0000 23.4914
#
#
#
# Elastic Compliance Matrix: (Units=1/GPa)
#
#
# Indices 1 2 3 4 5 6 
#
# 1 0.012726 -0.004212 -0.002738 0.000000 0.000000 0.000000
# 2 -0.004212 0.011956 -0.002042 0.000000 0.000000 0.000000
# 3 -0.002738 -0.002042 0.014900 0.000000 0.000000 0.000000
# 4 0.000000 0.000000 0.000000 0.034077 0.000000 0.000000
# 5 0.000000 0.000000 0.000000 0.000000 0.023088 0.000000
# 6 0.000000 0.000000 0.000000 0.000000 0.000000 0.042569
#
#
# Mechanical properties :
#
#
# Convention : Reuss Voigt Hill
#
# Bulk Modulus (GPa) = 46.29910 48.10447 47.20178
# Shear Modulus (GPa) = 30.39553 31.85431 31.12492
#
# Velocity S-wave (km/s) = 3.69884 3.78656 3.74296
# Velocity P-wave (km/s) = 6.25154 6.38513 6.31869
#
# Compressibility (1/GPa) = 0.02159869
#
# Stress axis : x y z
#
# Youngs Moduli (GPa) = 78.57879 83.64243 67.11488
#
# Poissons Ratio (x) = 0.35229 0.18376
# Poissons Ratio (y) = 0.33096 0.13702
# Poissons Ratio (z) = 0.21515 0.17076
#
# Static dielectric constant tensor:
#      x y z
#    x 1.813220 0.000000 0.000000 
#    y 0.000000 1.849750 0.000000 
#    z 0.000000 0.000000 1.832430 
# 
# From -- ./inp_files/2517.got.cif
#   From: 2010.05.17/outbox.cif.g08.bks.cpg/sg29_2_cif.got.tgz:2517.got - 2010.06.04 01:19:37.
