data_PCOD9341364
_publ_section_title
;
Structure prediction by ZEFSAII (Michael W. Deem and Ramdas Pophale) SiO2 
 PCOD9341364
Probable space group: P C A 21
;
_chemical_formula_sum "Si O2"
_cell_formula_units_Z 24
_cell_length_a 18.265077
_cell_length_b 4.888244
_cell_length_c 10.712966
_cell_angle_alpha 90.000000
_cell_angle_beta 90.000000
_cell_angle_gamma 90.000000
_cell_volume 956.498096
_symmetry_space_group_name_H-M "P C A 21"
_symmetry_group_IT_number 29
_symmetry_cell_setting 'orthorhombic'
loop_
_space_group_symop_operation_xyz
x,y,z
-x,-y,1/2+z
1/2-x,y,1/2+z
1/2+x,-y,z
loop_
_atom_site_type_symbol
_atom_site_label
_atom_site_fract_x
_atom_site_fract_y
_atom_site_fract_z
Si Si1 0.351894 0.140958 0.851680
Si Si2 0.046710 0.450334 0.524798
Si Si3 0.878719 0.202303 0.234006
Si Si4 0.914737 0.070373 0.616792
Si Si5 0.074450 0.306731 0.884333
Si Si6 0.284688 0.661945 0.744381
O O1 0.295356 0.352829 0.788051
O O2 0.416562 0.089077 0.749632
O O3 0.310653 0.853592 0.860619
O O4 0.387235 0.267708 0.973531
O O5 0.072410 0.668494 0.625644
O O6 0.983412 0.255925 0.579955
O O7 0.010326 0.615754 0.409073
O O8 0.888917 0.406263 0.351822
O O9 0.794028 0.238089 0.201798
O O10 0.904523 0.903788 0.275308
O O11 0.844487 0.262261 0.640035
O O12 0.902227 0.846586 0.510139
#
# Coordination Sequence:
#
# PCOD9341364 Si02
#       6
#     4   4   4   4   4   4
#     4  10  26  48  79 110 154 201 257 318 395 454
#     4  12  29  49  82 115 161 210 265 335 386 480
#     4  12  30  50  79 117 157 208 268 315 412 457
#     4  10  26  48  79 114 153 206 256 332 387 462
#     4  12  28  46  77 116 158 199 262 334 379 484
#     4  10  25  53  74 112 157 200 262 322 383 487
#
# _framework density 25.091531
#
# number of rings (size 3 to 8) (size 9 to 14) (size 15 to 20)
#    1.000    0.000    1.667    2.000   11.667    1.333 
#    6.000    0.000    0.000    0.000    0.000    0.000 
#    0.000    0.000    0.000    0.000    0.000    0.000 
#
# Total GULP energy -134448.658860 kJ/mol
# GULP energy per Si atom -5602.027453 kJ/mol
# Density = 2.503442 g / cm^3
# Si number density = 25.091531 Si / 1000 Ang^3
#
#
#
# Elastic Constant Matrix: (Units=GPa)
#
#
# Indices 1 2 3 4 5 6 
#
# 1 96.6642 21.8172 7.5827 0.0000 0.0000 0.0000
# 2 21.8172 114.1703 9.1542 0.0000 0.0000 0.0000
# 3 7.5827 9.1542 58.5280 0.0000 0.0000 0.0000
# 4 0.0000 0.0000 0.0000 47.7589 0.0000 0.0000
# 5 0.0000 0.0000 0.0000 0.0000 27.6282 0.0000
# 6 0.0000 0.0000 0.0000 0.0000 0.0000 32.3555
#
#
#
# Elastic Compliance Matrix: (Units=1/GPa)
#
#
# Indices 1 2 3 4 5 6 
#
# 1 0.010881 -0.001991 -0.001098 0.000000 0.000000 0.000000
# 2 -0.001991 0.009234 -0.001186 0.000000 0.000000 0.000000
# 3 -0.001098 -0.001186 0.017414 0.000000 0.000000 0.000000
# 4 0.000000 0.000000 0.000000 0.020939 0.000000 0.000000
# 5 0.000000 0.000000 0.000000 0.000000 0.036195 0.000000
# 6 0.000000 0.000000 0.000000 0.000000 0.000000 0.030907
#
#
# Mechanical properties :
#
#
# Convention : Reuss Voigt Hill
#
# Bulk Modulus (GPa) = 34.50980 38.49674 36.50327
# Shear Modulus (GPa) = 34.77549 36.93575 35.85562
#
# Velocity S-wave (km/s) = 3.72687 3.84088 3.78430
# Velocity P-wave (km/s) = 5.68356 5.91994 5.80295
#
# Compressibility (1/GPa) = 0.02897728
#
# Stress axis : x y z
#
# Youngs Moduli (GPa) = 91.90625 108.28995 57.42611
#
# Poissons Ratio (x) = 0.21562 0.06307
# Poissons Ratio (y) = 0.18300 0.06813
# Poissons Ratio (z) = 0.10093 0.12847
#
# Static dielectric constant tensor:
#      x y z
#    x 1.967080 0.000000 0.000000 
#    y 0.000000 1.951860 0.000000 
#    z 0.000000 0.000000 2.024560 
# 
# From -- ./inp_files/3728.got.cif
#   From: 2010.05.17/outbox.cif.g08.bks.cpg/sg29_2_cif.got.tgz:3728.got - 2010.06.04 01:19:37.
