data_PCOD9341000
_publ_section_title
;
Structure prediction by ZEFSAII (Michael W. Deem and Ramdas Pophale) SiO2 
 PCOD9341000
Probable space group: P C A 21
;
_chemical_formula_sum "Si O2"
_cell_formula_units_Z 32
_cell_length_a 13.881129
_cell_length_b 6.229466
_cell_length_c 17.358024
_cell_angle_alpha 90.000000
_cell_angle_beta 90.000000
_cell_angle_gamma 90.000000
_cell_volume 1500.983418
_symmetry_space_group_name_H-M "P C A 21"
_symmetry_group_IT_number 29
_symmetry_cell_setting 'orthorhombic'
loop_
_space_group_symop_operation_xyz
x,y,z
-x,-y,1/2+z
1/2-x,y,1/2+z
1/2+x,-y,z
loop_
_atom_site_type_symbol
_atom_site_label
_atom_site_fract_x
_atom_site_fract_y
_atom_site_fract_z
Si Si1 0.000382 0.045627 0.910560
Si Si2 0.242584 0.541568 0.079478
Si Si3 0.873160 0.850070 0.649434
Si Si4 0.146775 0.249606 0.478139
Si Si5 0.102687 0.563512 0.347612
Si Si6 0.751068 0.188067 0.733332
Si Si7 0.822732 0.069605 0.497781
Si Si8 0.471315 0.774801 0.267526
O O1 0.952502 0.875380 0.968709
O O2 0.988310 0.955204 0.824977
O O3 0.947310 0.272255 0.907779
O O4 0.111576 0.026852 0.931041
O O5 0.169124 0.367846 0.114019
O O6 0.262021 0.697887 0.150334
O O7 0.200248 0.679282 0.007844
O O8 0.334751 0.412900 0.047816
O O9 0.976693 0.813727 0.686596
O O10 0.799732 0.957906 0.711896
O O11 0.875126 0.008477 0.577375
O O12 0.156490 0.383853 0.398833
O O13 0.224360 0.062166 0.490199
O O14 0.175834 0.683432 0.289650
O O15 0.016275 0.446620 0.300742
O O16 0.643317 0.198687 0.766832
#
# Coordination Sequence:
#
# PCOD9341000 Si02
#       8
#     4   4   4   4   4   4   4   4
#     4  11  25  42  63  99 136 174 228 282 342 413
#     4  10  22  44  67  95 136 175 224 285 346 399
#     4  10  22  44  62 100 137 170 230 285 330 420
#     4  10  24  41  66  95 133 175 222 279 341 402
#     4  11  24  43  66  98 142 170 233 285 335 425
#     4  11  24  42  69  95 138 180 224 286 345 406
#     4  10  24  41  70  94 133 177 225 282 341 407
#     4  11  25  39  67 100 131 185 224 276 350 410
#
# _framework density 21.319357
#
# number of rings (size 3 to 8) (size 9 to 14) (size 15 to 20)
#    0.000    1.500    2.500    0.750    5.250    9.000 
#    0.000    0.000    0.000    0.000    0.000    0.000 
#    0.000    0.000    0.000    0.000    0.000    0.000 
#
# Total GULP energy -178484.939706 kJ/mol
# GULP energy per Si atom -5577.654366 kJ/mol
# Density = 2.127083 g / cm^3
# Si number density = 21.319357 Si / 1000 Ang^3
#
#
#
# Elastic Constant Matrix: (Units=GPa)
#
#
# Indices 1 2 3 4 5 6 
#
# 1 81.3772 29.7443 18.5057 0.0000 0.0000 0.0000
# 2 29.7443 84.1770 13.4104 0.0000 0.0000 0.0000
# 3 18.5057 13.4104 48.9492 0.0000 0.0000 0.0000
# 4 0.0000 0.0000 0.0000 27.7798 0.0000 0.0000
# 5 0.0000 0.0000 0.0000 0.0000 39.3571 0.0000
# 6 0.0000 0.0000 0.0000 0.0000 0.0000 14.9852
#
#
#
# Elastic Compliance Matrix: (Units=1/GPa)
#
#
# Indices 1 2 3 4 5 6 
#
# 1 0.014966 -0.004587 -0.004401 0.000000 0.000000 0.000000
# 2 -0.004587 0.013828 -0.002054 0.000000 0.000000 0.000000
# 3 -0.004401 -0.002054 0.022656 0.000000 0.000000 0.000000
# 4 0.000000 0.000000 0.000000 0.035997 0.000000 0.000000
# 5 0.000000 0.000000 0.000000 0.000000 0.025408 0.000000
# 6 0.000000 0.000000 0.000000 0.000000 0.000000 0.066732
#
#
# Mechanical properties :
#
#
# Convention : Reuss Voigt Hill
#
# Bulk Modulus (GPa) = 34.05446 37.53602 35.79524
# Shear Modulus (GPa) = 23.64499 26.61398 25.12948
#
# Velocity S-wave (km/s) = 3.33391 3.53703 3.43697
# Velocity P-wave (km/s) = 5.55230 5.85880 5.70761
#
# Compressibility (1/GPa) = 0.02936473
#
# Stress axis : x y z
#
# Youngs Moduli (GPa) = 66.81821 72.31781 44.13829
#
# Poissons Ratio (x) = 0.33173 0.19427
# Poissons Ratio (y) = 0.30650 0.09067
# Poissons Ratio (z) = 0.29409 0.14855
#
# Static dielectric constant tensor:
#      x y z
#    x 1.746020 0.000000 0.000000 
#    y 0.000000 1.813850 0.000000 
#    z 0.000000 0.000000 1.796980 
# 
# From -- ./inp_files/5211.got.cif
#   From: 2010.05.17/outbox.cif.g08.bks.cpg/sg29_3_cif.got.tgz:5211.got - 2010.06.04 01:19:37.
