data_PCOD9341731
_publ_section_title
;
Structure prediction by ZEFSAII (Michael W. Deem and Ramdas Pophale) SiO2 
 PCOD9341731
Probable space group: P C A 21
;
_chemical_formula_sum "Si O2"
_cell_formula_units_Z 20
_cell_length_a 8.723467
_cell_length_b 9.667406
_cell_length_c 8.516184
_cell_angle_alpha 90.000000
_cell_angle_beta 90.000000
_cell_angle_gamma 90.000000
_cell_volume 718.197876
_symmetry_space_group_name_H-M "P C A 21"
_symmetry_group_IT_number 29
_symmetry_cell_setting 'orthorhombic'
loop_
_space_group_symop_operation_xyz
x,y,z
-x,-y,1/2+z
1/2-x,y,1/2+z
1/2+x,-y,z
loop_
_atom_site_type_symbol
_atom_site_label
_atom_site_fract_x
_atom_site_fract_y
_atom_site_fract_z
Si Si1 0.250006 0.249995 0.594760
Si Si2 0.206248 0.539495 0.427084
Si Si3 0.480683 0.621493 0.230019
Si Si4 0.793755 0.039507 0.427092
Si Si5 0.480690 0.878505 0.730028
O O1 0.254458 0.388375 0.492583
O O2 0.402467 0.253414 0.700367
O O3 0.097552 0.246580 0.700377
O O4 0.245546 0.111612 0.492592
O O5 0.353256 0.623098 0.366147
O O6 0.111351 0.602535 0.569571
O O7 0.094920 0.502731 0.281489
O O8 0.646743 0.123103 0.366153
O O9 0.888655 0.102548 0.569578
O O10 0.905082 0.002735 0.281498
#
# Coordination Sequence:
#
# PCOD9341731 Si02
#       5
#     4   4   4   4   4
#     4  12  26  48  88 114 170 220 272 354 434 486
#     4  12  25  49  81 123 170 220 281 356 418 516
#     4  12  25  50  83 121 173 217 285 351 422 510
#     4  12  25  49  81 123 170 220 281 356 418 516
#     4  12  25  50  83 121 173 217 285 351 422 510
#
# _framework density 27.847479
#
# number of rings (size 3 to 8) (size 9 to 14) (size 15 to 20)
#    0.000    0.000    8.000    1.200    0.000    0.000 
#    0.000   16.000    0.000    0.000    0.000    0.000 
#    0.000    0.000    0.000    0.000    0.000    0.000 
#
# Total GULP energy -112269.345157 kJ/mol
# GULP energy per Si atom -5613.467258 kJ/mol
# Density = 2.778410 g / cm^3
# Si number density = 27.847479 Si / 1000 Ang^3
#
#
#
# Elastic Constant Matrix: (Units=GPa)
#
#
# Indices 1 2 3 4 5 6 
#
# 1 227.1168 72.0948 107.4572 0.0000 0.0000 0.0000
# 2 72.0948 96.0434 64.8956 0.0000 0.0000 0.0000
# 3 107.4572 64.8956 177.5862 0.0000 0.0000 0.0000
# 4 0.0000 0.0000 0.0000 17.3621 0.0000 0.0000
# 5 0.0000 0.0000 0.0000 0.0000 90.9722 0.0000
# 6 0.0000 0.0000 0.0000 0.0000 0.0000 67.1635
#
#
#
# Elastic Compliance Matrix: (Units=1/GPa)
#
#
# Indices 1 2 3 4 5 6 
#
# 1 0.006794 -0.003083 -0.002984 0.000000 0.000000 0.000000
# 2 -0.003083 0.015225 -0.003698 0.000000 0.000000 0.000000
# 3 -0.002984 -0.003698 0.008788 0.000000 0.000000 0.000000
# 4 0.000000 0.000000 0.000000 0.057597 0.000000 0.000000
# 5 0.000000 0.000000 0.000000 0.000000 0.010992 0.000000
# 6 0.000000 0.000000 0.000000 0.000000 0.000000 0.014889
#
#
# Mechanical properties :
#
#
# Convention : Reuss Voigt Hill
#
# Bulk Modulus (GPa) = 88.68364 109.96017 99.32190
# Shear Modulus (GPa) = 36.34390 52.18616 44.26503
#
# Velocity S-wave (km/s) = 3.61654 4.33367 3.99124
# Velocity P-wave (km/s) = 7.02528 8.03823 7.54877
#
# Compressibility (1/GPa) = 0.01127604
#
# Stress axis : x y z
#
# Youngs Moduli (GPa) = 147.19614 65.68069 113.78993
#
# Poissons Ratio (x) = 0.20251 0.33956
# Poissons Ratio (y) = 0.45385 0.42080
# Poissons Ratio (z) = 0.43925 0.24289
#
# Static dielectric constant tensor:
#      x y z
#    x 2.156280 0.000000 0.000000 
#    y 0.000000 2.170040 0.000000 
#    z 0.000000 0.000000 2.157160 
# 
# From -- ./inp_files/1119.got.cif
#   From: 2010.05.17/outbox.cif.g08.bks.cpg/sg29_1_cif.got.tgz:1119.got - 2010.06.04 01:19:37.
