data_PCOD9341704
_publ_section_title
;
Structure prediction by ZEFSAII (Michael W. Deem and Ramdas Pophale) SiO2 
 PCOD9341704
Probable space group: P C A 21
;
_chemical_formula_sum "Si O2"
_cell_formula_units_Z 24
_cell_length_a 9.610098
_cell_length_b 13.430540
_cell_length_c 8.393299
_cell_angle_alpha 90.000000
_cell_angle_beta 90.000000
_cell_angle_gamma 90.000000
_cell_volume 1083.313077
_symmetry_space_group_name_H-M "P C A 21"
_symmetry_group_IT_number 29
_symmetry_cell_setting 'orthorhombic'
loop_
_space_group_symop_operation_xyz
x,y,z
-x,-y,1/2+z
1/2-x,y,1/2+z
1/2+x,-y,z
loop_
_atom_site_type_symbol
_atom_site_label
_atom_site_fract_x
_atom_site_fract_y
_atom_site_fract_z
Si Si1 0.197200 0.897074 0.790710
Si Si2 0.569276 0.410088 0.606707
Si Si3 0.934913 0.191599 0.606784
Si Si4 0.949741 0.806252 0.604399
Si Si5 0.380624 0.588995 0.484216
Si Si6 0.296553 0.127763 0.287455
O O1 0.329208 0.828055 0.753025
O O2 0.080528 0.872049 0.658663
O O3 0.240708 0.011511 0.780512
O O4 0.128686 0.870158 0.959294
O O5 0.502238 0.303733 0.565532
O O6 0.466636 0.498477 0.558793
O O7 0.717362 0.421534 0.520899
O O8 0.595460 0.409259 0.795605
O O9 0.931673 0.306724 0.558659
O O10 0.085539 0.153668 0.657627
O O11 0.839819 0.807871 0.750043
O O12 0.867054 0.850514 0.456037
#
# Coordination Sequence:
#
# PCOD9341704 Si02
#       6
#     4   4   4   4   4   4
#     4  12  23  47  71 107 144 196 242 299 362 433
#     4  12  29  50  82 106 150 187 248 301 376 433
#     4  12  25  45  75 104 149 188 242 304 361 434
#     4  12  27  47  70 109 149 191 245 306 361 433
#     4  12  27  51  77 112 141 196 239 308 368 440
#     4  12  27  42  73 106 149 194 246 292 362 435
#
# _framework density 22.154259
#
# number of rings (size 3 to 8) (size 9 to 14) (size 15 to 20)
#    0.000    0.000    3.333    6.000    7.000    0.000 
#    0.000    0.000    0.000    0.000    0.000    0.000 
#    0.000    0.000    0.000    0.000    0.000    0.000 
#
# Total GULP energy -134641.570061 kJ/mol
# GULP energy per Si atom -5610.065419 kJ/mol
# Density = 2.210384 g / cm^3
# Si number density = 22.154259 Si / 1000 Ang^3
#
#
#
# Elastic Constant Matrix: (Units=GPa)
#
#
# Indices 1 2 3 4 5 6 
#
# 1 66.7748 29.3981 5.8606 0.0000 0.0000 0.0000
# 2 29.3981 110.7161 12.3629 0.0000 0.0000 0.0000
# 3 5.8606 12.3629 57.8074 0.0000 0.0000 0.0000
# 4 0.0000 0.0000 0.0000 35.4796 0.0000 0.0000
# 5 0.0000 0.0000 0.0000 0.0000 39.4406 0.0000
# 6 0.0000 0.0000 0.0000 0.0000 0.0000 19.3073
#
#
#
# Elastic Compliance Matrix: (Units=1/GPa)
#
#
# Indices 1 2 3 4 5 6 
#
# 1 0.016992 -0.004425 -0.000776 0.000000 0.000000 0.000000
# 2 -0.004425 0.010406 -0.001777 0.000000 0.000000 0.000000
# 3 -0.000776 -0.001777 0.017758 0.000000 0.000000 0.000000
# 4 0.000000 0.000000 0.000000 0.028185 0.000000 0.000000
# 5 0.000000 0.000000 0.000000 0.000000 0.025355 0.000000
# 6 0.000000 0.000000 0.000000 0.000000 0.000000 0.051794
#
#
# Mechanical properties :
#
#
# Convention : Reuss Voigt Hill
#
# Bulk Modulus (GPa) = 32.05262 36.72683 34.38973
# Shear Modulus (GPa) = 28.59679 31.35728 29.97703
#
# Velocity S-wave (km/s) = 3.59667 3.76627 3.68245
# Velocity P-wave (km/s) = 5.63448 5.96044 5.79975
#
# Compressibility (1/GPa) = 0.03119869
#
# Stress axis : x y z
#
# Youngs Moduli (GPa) = 58.85097 96.10297 56.31421
#
# Poissons Ratio (x) = 0.42527 0.04372
# Poissons Ratio (y) = 0.26043 0.10005
# Poissons Ratio (z) = 0.04569 0.17075
#
# Static dielectric constant tensor:
#      x y z
#    x 1.788490 0.000000 0.000000 
#    y 0.000000 1.742340 0.000000 
#    z 0.000000 0.000000 1.848620 
# 
# From -- ./inp_files/1122.got.cif
#   From: 2010.05.17/outbox.cif.g08.bks.cpg/sg29_1_cif.got.tgz:1122.got - 2010.06.04 01:19:37.
