data_PCOD9341061
_publ_section_title
;
Structure prediction by ZEFSAII (Michael W. Deem and Ramdas Pophale) SiO2 
 PCOD9341061
Probable space group: P C A 21
;
_chemical_formula_sum "Si O2"
_cell_formula_units_Z 28
_cell_length_a 12.388283
_cell_length_b 5.360995
_cell_length_c 17.390962
_cell_angle_alpha 90.000000
_cell_angle_beta 90.000000
_cell_angle_gamma 90.000000
_cell_volume 1154.995059
_symmetry_space_group_name_H-M "P C A 21"
_symmetry_group_IT_number 29
_symmetry_cell_setting 'orthorhombic'
loop_
_space_group_symop_operation_xyz
x,y,z
-x,-y,1/2+z
1/2-x,y,1/2+z
1/2+x,-y,z
loop_
_atom_site_type_symbol
_atom_site_label
_atom_site_fract_x
_atom_site_fract_y
_atom_site_fract_z
Si Si1 0.368197 0.518289 0.235600
Si Si2 0.060505 0.442137 0.462872
Si Si3 0.437108 0.197176 0.572917
Si Si4 0.772088 0.540427 0.071956
Si Si5 0.839690 0.159280 0.454993
Si Si6 0.681230 0.258027 0.330406
Si Si7 0.499378 0.984782 0.729701
O O1 0.336935 0.543869 0.146416
O O2 0.259861 0.559251 0.283709
O O3 0.421104 0.247336 0.245737
O O4 0.450157 0.747725 0.252098
O O5 0.152205 0.297181 0.513121
O O6 0.108535 0.584081 0.389726
O O7 0.023218 0.634654 0.529269
O O8 0.953164 0.297463 0.437813
O O9 0.337474 0.347848 0.608981
O O10 0.377431 0.076093 0.501094
O O11 0.478435 0.008963 0.637748
O O12 0.727456 0.328916 0.014682
O O13 0.765022 0.104563 0.382929
O O14 0.608737 0.087235 0.275604
#
# Coordination Sequence:
#
# PCOD9341061 Si02
#       7
#     4   4   4   4   4   4   4
#     4  12  28  49  75 113 151 204 257 313 388 460
#     4  10  22  48  73 108 152 197 257 327 384 461
#     4  11  24  44  77 111 142 207 259 320 386 457
#     4  10  23  43  74 106 147 193 258 319 381 457
#     4  10  23  45  72 108 145 196 255 316 387 458
#     4  11  27  47  73 107 157 206 253 320 395 464
#     4  12  29  50  78 111 158 201 257 319 381 465
#
# _framework density 24.242529000000001
#
# number of rings (size 3 to 8) (size 9 to 14) (size 15 to 20)
#    0.000    1.143    1.429    2.571   10.000    2.286 
#   10.286    0.000    0.000    0.000    0.000    0.000 
#    0.000    0.000    0.000    0.000    0.000    0.000 
#
# Total GULP energy -156598.463509 kJ/mol
# GULP energy per Si atom -5592.802268 kJ/mol
# Density = 2.418735 g / cm^3
# Si number density = 24.242529 Si / 1000 Ang^3
#
#
#
# Elastic Constant Matrix: (Units=GPa)
#
#
# Indices 1 2 3 4 5 6 
#
# 1 110.3002 38.3980 68.0303 0.0000 0.0000 0.0000
# 2 38.3980 74.5656 24.6294 0.0000 0.0000 0.0000
# 3 68.0303 24.6294 118.1052 0.0000 0.0000 0.0000
# 4 0.0000 0.0000 0.0000 15.7525 0.0000 0.0000
# 5 0.0000 0.0000 0.0000 0.0000 30.0611 0.0000
# 6 0.0000 0.0000 0.0000 0.0000 0.0000 6.3036
#
#
#
# Elastic Compliance Matrix: (Units=1/GPa)
#
#
# Indices 1 2 3 4 5 6 
#
# 1 0.015956 -0.005564 -0.008031 0.000000 0.000000 0.000000
# 2 -0.005564 0.016343 -0.000203 0.000000 0.000000 0.000000
# 3 -0.008031 -0.000203 0.013135 0.000000 0.000000 0.000000
# 4 0.000000 0.000000 0.000000 0.063482 0.000000 0.000000
# 5 0.000000 0.000000 0.000000 0.000000 0.033266 0.000000
# 6 0.000000 0.000000 0.000000 0.000000 0.000000 0.158640
#
#
# Mechanical properties :
#
#
# Convention : Reuss Voigt Hill
#
# Bulk Modulus (GPa) = 56.05765 62.78737 59.42251
# Shear Modulus (GPa) = 14.95370 21.88430 18.41900
#
# Velocity S-wave (km/s) = 2.48632 3.00779 2.75940
# Velocity P-wave (km/s) = 5.60502 6.16590 5.89214
#
# Compressibility (1/GPa) = 0.01783878
#
# Stress axis : x y z
#
# Youngs Moduli (GPa) = 62.67095 61.18658 76.13119
#
# Poissons Ratio (x) = 0.34046 0.61139
# Poissons Ratio (y) = 0.34872 0.01547
# Poissons Ratio (z) = 0.50329 0.01243
#
# Static dielectric constant tensor:
#      x y z
#    x 2.329400 0.000000 0.000000 
#    y 0.000000 2.030640 0.000000 
#    z 0.000000 0.000000 1.917150 
# 
# From -- ./inp_files/5112.got.cif
#   From: 2010.05.17/outbox.cif.g08.bks.cpg/sg29_3_cif.got.tgz:5112.got - 2010.06.04 01:19:37.
