data_PCOD9341206
_publ_section_title
;
Structure prediction by ZEFSAII (Michael W. Deem and Ramdas Pophale) SiO2 
 PCOD9341206
Probable space group: P C A 21
;
_chemical_formula_sum "Si O2"
_cell_formula_units_Z 24
_cell_length_a 28.601941
_cell_length_b 6.587253
_cell_length_c 5.657207
_cell_angle_alpha 90.000000
_cell_angle_beta 90.000000
_cell_angle_gamma 90.000000
_cell_volume 1065.864310
_symmetry_space_group_name_H-M "P C A 21"
_symmetry_group_IT_number 29
_symmetry_cell_setting 'orthorhombic'
loop_
_space_group_symop_operation_xyz
x,y,z
-x,-y,1/2+z
1/2-x,y,1/2+z
1/2+x,-y,z
loop_
_atom_site_type_symbol
_atom_site_label
_atom_site_fract_x
_atom_site_fract_y
_atom_site_fract_z
Si Si1 0.148477 0.857432 0.902760
Si Si2 0.892686 0.196573 0.820472
Si Si3 0.645185 0.530390 0.683960
Si Si4 0.777695 0.863318 0.164206
Si Si5 0.428388 0.108514 0.177793
Si Si6 0.487990 0.614343 0.700767
O O1 0.151671 0.615091 0.907899
O O2 0.184312 0.961494 0.726681
O O3 0.096702 0.945024 0.846390
O O4 0.150004 0.907778 0.177856
O O5 0.933576 0.330310 0.700722
O O6 0.869345 0.357454 0.998116
O O7 0.920367 0.007573 0.933524
O O8 0.692000 0.657003 0.650233
O O9 0.603367 0.690498 0.698608
O O10 0.747479 0.874188 0.409018
O O11 0.480386 0.182903 0.217527
O O12 0.501500 0.507348 0.448783
#
# Coordination Sequence:
#
# PCOD9341206 Si02
#       6
#     4   4   4   4   4   4
#     4  10  25  44  74 100 148 187 239 293 371 435
#     4  11  25  42  75 101 144 196 243 298 361 429
#     4  10  23  48  70 104 142 192 235 293 373 425
#     4  11  28  48  76 111 145 184 240 305 372 447
#     4  10  24  43  67 103 142 193 238 297 352 424
#     4  12  27  45  70 105 147 192 251 298 353 426
#
# _framework density 22.516940000000002
#
# number of rings (size 3 to 8) (size 9 to 14) (size 15 to 20)
#    0.000    1.333    1.667    1.000   16.333    2.667 
#    0.000    0.000    0.000    0.000    0.000    0.000 
#    0.000    0.000    0.000    0.000    0.000    0.000 
#
# Total GULP energy -133630.840649 kJ/mol
# GULP energy per Si atom -5567.951694 kJ/mol
# Density = 2.246569 g / cm^3
# Si number density = 22.516940 Si / 1000 Ang^3
#
#
#
# Elastic Constant Matrix: (Units=GPa)
#
#
# Indices 1 2 3 4 5 6 
#
# 1 95.9775 34.2574 53.4865 0.0000 0.0000 0.0000
# 2 34.2574 108.1722 24.3475 0.0000 0.0000 0.0000
# 3 53.4865 24.3475 83.7026 0.0000 0.0000 0.0000
# 4 0.0000 0.0000 0.0000 19.6901 0.0000 0.0000
# 5 0.0000 0.0000 0.0000 0.0000 38.7328 0.0000
# 6 0.0000 0.0000 0.0000 0.0000 0.0000 30.6754
#
#
#
# Elastic Compliance Matrix: (Units=1/GPa)
#
#
# Indices 1 2 3 4 5 6 
#
# 1 0.017141 -0.003171 -0.010031 0.000000 0.000000 0.000000
# 2 -0.003171 0.010479 -0.001022 0.000000 0.000000 0.000000
# 3 -0.010031 -0.001022 0.018654 0.000000 0.000000 0.000000
# 4 0.000000 0.000000 0.000000 0.050787 0.000000 0.000000
# 5 0.000000 0.000000 0.000000 0.000000 0.025818 0.000000
# 6 0.000000 0.000000 0.000000 0.000000 0.000000 0.032599
#
#
# Mechanical properties :
#
#
# Convention : Reuss Voigt Hill
#
# Bulk Modulus (GPa) = 56.09565 56.89280 56.49422
# Shear Modulus (GPa) = 26.33425 29.53707 27.93566
#
# Velocity S-wave (km/s) = 3.42355 3.62577 3.52611
# Velocity P-wave (km/s) = 6.37137 6.54597 6.45926
#
# Compressibility (1/GPa) = 0.01782670
#
# Stress axis : x y z
#
# Youngs Moduli (GPa) = 58.34043 95.43201 53.60760
#
# Poissons Ratio (x) = 0.30258 0.53773
# Poissons Ratio (y) = 0.18498 0.05479
# Poissons Ratio (z) = 0.58520 0.09753
#
# Static dielectric constant tensor:
#      x y z
#    x 1.826730 0.000000 0.000000 
#    y 0.000000 1.811080 0.000000 
#    z 0.000000 0.000000 2.072000 
# 
# From -- ./inp_files/740.got.cif
#   From: 2010.05.17/outbox.cif.g08.bks.cpg/sg29_1_cif.got.tgz:740.got - 2010.06.04 01:19:37.
