data_PCOD9341361
_publ_section_title
;
Structure prediction by ZEFSAII (Michael W. Deem and Ramdas Pophale) SiO2 
 PCOD9341361
Probable space group: P C A 21
;
_chemical_formula_sum "Si O2"
_cell_formula_units_Z 28
_cell_length_a 4.875688
_cell_length_b 21.657147
_cell_length_c 9.606899
_cell_angle_alpha 90.000000
_cell_angle_beta 90.000000
_cell_angle_gamma 90.000000
_cell_volume 1014.426010
_symmetry_space_group_name_H-M "P C A 21"
_symmetry_group_IT_number 29
_symmetry_cell_setting 'orthorhombic'
loop_
_space_group_symop_operation_xyz
x,y,z
-x,-y,1/2+z
1/2-x,y,1/2+z
1/2+x,-y,z
loop_
_atom_site_type_symbol
_atom_site_label
_atom_site_fract_x
_atom_site_fract_y
_atom_site_fract_z
Si Si1 0.752681 0.639126 0.018560
Si Si2 0.231305 0.651735 0.372917
Si Si3 0.212660 0.789641 0.794591
Si Si4 0.413430 0.224400 0.061800
Si Si5 0.490303 0.041231 0.970902
Si Si6 0.087731 0.457586 0.721858
Si Si7 0.153747 0.117018 0.745816
O O1 0.823395 0.705480 0.085031
O O2 0.854721 0.573246 0.072303
O O3 0.422814 0.639832 0.020117
O O4 0.943663 0.645241 0.879634
O O5 0.165427 0.722409 0.339653
O O6 0.064044 0.600579 0.290903
O O7 0.284527 0.784130 0.630030
O O8 0.402775 0.849463 0.826391
O O9 0.952795 0.790052 0.899174
O O10 0.239911 0.174198 0.148204
O O11 0.366542 0.083298 0.846974
O O12 0.804200 0.020583 0.959359
O O13 0.445755 0.070473 0.123965
O O14 0.882728 0.513534 0.751733
#
# Coordination Sequence:
#
# PCOD9341361 Si02
#       7
#     4   4   4   4   4   4   4
#     4  11  24  45  67  99 143 187 238 310 377 441
#     4  11  24  45  67  99 143 187 238 310 377 441
#     4   9  21  44  74 115 151 195 248 315 385 445
#     4   9  21  44  74 115 151 195 248 315 385 445
#     4  12  28  52  76 110 154 204 246 304 360 438
#     4  12  25  42  66  98 134 188 252 302 364 450
#     4  10  25  48  76 114 152 196 260 302 372 444
#
# _framework density 27.601817
#
# number of rings (size 3 to 8) (size 9 to 14) (size 15 to 20)
#    0.857    0.571    1.429    2.571    4.000    3.429 
#    5.143    0.000    0.000    0.000    0.000    0.000 
#    0.000    0.000    0.000    0.000    0.000    0.000 
#
# Total GULP energy -156130.529322 kJ/mol
# GULP energy per Si atom -5576.090333 kJ/mol
# Density = 2.753899 g / cm^3
# Si number density = 27.601817 Si / 1000 Ang^3
#
#
#
# Elastic Constant Matrix: (Units=GPa)
#
#
# Indices 1 2 3 4 5 6 
#
# 1 74.9671 12.8092 2.3609 0.0000 0.0000 0.0000
# 2 12.8092 147.1058 30.9978 0.0000 0.0000 0.0000
# 3 2.3609 30.9978 68.4634 0.0000 0.0000 0.0000
# 4 0.0000 0.0000 0.0000 53.8550 0.0000 0.0000
# 5 0.0000 0.0000 0.0000 0.0000 9.7676 0.0000
# 6 0.0000 0.0000 0.0000 0.0000 0.0000 41.0750
#
#
#
# Elastic Compliance Matrix: (Units=1/GPa)
#
#
# Indices 1 2 3 4 5 6 
#
# 1 0.013541 -0.001195 0.000074 0.000000 0.000000 0.000000
# 2 -0.001195 0.007620 -0.003409 0.000000 0.000000 0.000000
# 3 0.000074 -0.003409 0.016147 0.000000 0.000000 0.000000
# 4 0.000000 0.000000 0.000000 0.018568 0.000000 0.000000
# 5 0.000000 0.000000 0.000000 0.000000 0.102379 0.000000
# 6 0.000000 0.000000 0.000000 0.000000 0.000000 0.024346
#
#
# Mechanical properties :
#
#
# Convention : Reuss Voigt Hill
#
# Bulk Modulus (GPa) = 35.39939 42.54136 38.97038
# Shear Modulus (GPa) = 24.86610 37.23075 31.04843
#
# Velocity S-wave (km/s) = 3.00473 3.67666 3.35755
# Velocity P-wave (km/s) = 4.98906 5.78530 5.40187
#
# Compressibility (1/GPa) = 0.02824907
#
# Stress axis : x y z
#
# Youngs Moduli (GPa) = 73.84985 131.23052 61.93009
#
# Poissons Ratio (x) = 0.15678 -0.00458
# Poissons Ratio (y) = 0.08823 0.21112
# Poissons Ratio (z) = -0.00546 0.44736
#
# Static dielectric constant tensor:
#      x y z
#    x 2.232940 0.000000 0.000000 
#    y 0.000000 1.955130 0.000000 
#    z 0.000000 0.000000 2.316060 
# 
# From -- ./inp_files/2694.got.cif
#   From: 2010.05.17/outbox.cif.g08.bks.cpg/sg29_2_cif.got.tgz:2694.got - 2010.06.04 01:19:37.
