data_PCOD9341762
_publ_section_title
;
Structure prediction by ZEFSAII (Michael W. Deem and Ramdas Pophale) SiO2 
 PCOD9341762
Probable space group: P C A 21
;
_chemical_formula_sum "Si O2"
_cell_formula_units_Z 28
_cell_length_a 22.664230
_cell_length_b 4.803590
_cell_length_c 9.857390
_cell_angle_alpha 90.000000
_cell_angle_beta 90.000000
_cell_angle_gamma 90.000000
_cell_volume 1073.170782
_symmetry_space_group_name_H-M "P C A 21"
_symmetry_group_IT_number 29
_symmetry_cell_setting 'orthorhombic'
loop_
_space_group_symop_operation_xyz
x,y,z
-x,-y,1/2+z
1/2-x,y,1/2+z
1/2+x,-y,z
loop_
_atom_site_type_symbol
_atom_site_label
_atom_site_fract_x
_atom_site_fract_y
_atom_site_fract_z
Si Si1 0.682139 0.260968 0.532180
Si Si2 0.141380 0.889243 0.009058
Si Si3 0.159171 0.385209 0.196190
Si Si4 0.601313 0.776132 0.578634
Si Si5 0.257810 0.981927 0.302033
Si Si6 0.957211 0.469690 0.852025
Si Si7 0.534874 0.057850 0.822736
O O1 0.718172 0.139692 0.660823
O O2 0.655014 0.553693 0.579898
O O3 0.608413 0.485369 0.290547
O O4 0.628480 0.047228 0.508383
O O5 0.130923 0.116850 0.123764
O O6 0.168793 0.616063 0.079595
O O7 0.186400 0.025151 0.900511
O O8 0.079845 0.829129 0.936063
O O9 0.219240 0.770544 0.394334
O O10 0.783337 0.754497 0.765655
O O11 0.550353 0.626430 0.494779
O O12 0.424066 0.105427 0.216968
O O13 0.987461 0.173366 0.865684
O O14 0.999971 0.675563 0.767240
#
# Coordination Sequence:
#
# PCOD9341762 Si02
#       7
#     4   4   4   4   4   4   4
#     4  12  28  49  80 112 164 206 273 329 409 490
#     4  12  29  48  78 115 163 204 272 332 414 479
#     4  12  29  50  77 118 159 212 266 340 407 490
#     4  12  28  51  76 112 156 214 265 329 406 491
#     4  12  28  52  79 118 158 218 267 340 406 499
#     4  12  28  50  82 110 163 208 273 335 410 491
#     4  12  28  50  78 117 155 214 268 339 410 492
#
# _framework density 26.090910000000001
#
# number of rings (size 3 to 8) (size 9 to 14) (size 15 to 20)
#    0.000    0.000    4.286    3.429   12.000    2.286 
#    0.000    0.000    0.000    0.000    0.000    0.000 
#    0.000    0.000    0.000    0.000    0.000    0.000 
#
# Total GULP energy -156992.122977 kJ/mol
# GULP energy per Si atom -5606.861535 kJ/mol
# Density = 2.603153 g / cm^3
# Si number density = 26.090910 Si / 1000 Ang^3
#
#
#
# Elastic Constant Matrix: (Units=GPa)
#
#
# Indices 1 2 3 4 5 6 
#
# 1 164.4883 47.5472 57.4341 0.0000 0.0000 0.0000
# 2 47.5472 138.2196 51.7532 0.0000 0.0000 0.0000
# 3 57.4341 51.7532 119.7604 0.0000 0.0000 0.0000
# 4 0.0000 0.0000 0.0000 43.7982 0.0000 0.0000
# 5 0.0000 0.0000 0.0000 0.0000 46.1214 0.0000
# 6 0.0000 0.0000 0.0000 0.0000 0.0000 43.7982
#
#
#
# Elastic Compliance Matrix: (Units=1/GPa)
#
#
# Indices 1 2 3 4 5 6 
#
# 1 0.007548 -0.001481 -0.002980 0.000000 0.000000 0.000000
# 2 -0.001481 0.008922 -0.003145 0.000000 0.000000 0.000000
# 3 -0.002980 -0.003145 0.011138 0.000000 0.000000 0.000000
# 4 0.000000 0.000000 0.000000 0.022832 0.000000 0.000000
# 5 0.000000 0.000000 0.000000 0.000000 0.021682 0.000000
# 6 0.000000 0.000000 0.000000 0.000000 0.000000 0.022832
#
#
# Mechanical properties :
#
#
# Convention : Reuss Voigt Hill
#
# Bulk Modulus (GPa) = 80.67017 81.77080 81.22049
# Shear Modulus (GPa) = 43.74516 44.45916 44.10216
#
# Velocity S-wave (km/s) = 4.09913 4.13244 4.11582
# Velocity P-wave (km/s) = 7.30683 7.36059 7.33376
#
# Compressibility (1/GPa) = 0.01239616
#
# Stress axis : x y z
#
# Youngs Moduli (GPa) = 132.48585 112.08303 89.77979
#
# Poissons Ratio (x) = 0.16596 0.26754
# Poissons Ratio (y) = 0.19617 0.28239
# Poissons Ratio (z) = 0.39480 0.35255
#
# Static dielectric constant tensor:
#      x y z
#    x 2.064960 0.000000 0.000000 
#    y 0.000000 2.012600 0.000000 
#    z 0.000000 0.000000 2.105870 
# 
# From -- ./inp_files/3800.got.cif
#   From: 2010.05.17/outbox.cif.g08.bks.cpg/sg29_2_cif.got.tgz:3800.got - 2010.06.04 01:19:37.
