data_PCOD9341952
_publ_section_title
;
Structure prediction by ZEFSAII (Michael W. Deem and Ramdas Pophale) SiO2 
 PCOD9341952
Probable space group: P N C 2
;
_chemical_formula_sum "Si O2"
_cell_formula_units_Z 24
_cell_length_a 8.908043
_cell_length_b 11.260000
_cell_length_c 12.591368
_cell_angle_alpha 90.000000
_cell_angle_beta 90.000000
_cell_angle_gamma 90.000000
_cell_volume 1262.971680
_symmetry_space_group_name_H-M "P N C 2"
_symmetry_group_IT_number 30
_symmetry_cell_setting 'orthorhombic'
loop_
_space_group_symop_operation_xyz
x,y,z
-x,-y,z
-x,1/2+y,1/2+z
x,1/2-y,1/2+z
loop_
_atom_site_type_symbol
_atom_site_label
_atom_site_fract_x
_atom_site_fract_y
_atom_site_fract_z
Si Si1 0.846413 0.764163 0.913610
Si Si2 0.833934 0.439217 0.687290
Si Si3 0.094556 0.885616 0.521045
Si Si4 0.820063 0.479546 0.451782
Si Si5 0.675371 0.980253 0.388020
Si Si6 0.897311 0.321730 0.261089
O O1 0.762470 0.885211 0.944532
O O2 0.738043 0.650631 0.919074
O O3 0.932196 0.799135 0.803735
O O4 0.992243 0.726384 0.985782
O O5 0.778398 0.429662 0.566512
O O6 0.727629 0.510782 0.765812
O O7 0.840592 0.309662 0.738224
O O8 0.000000 0.500000 0.689262
O O9 0.109218 0.885357 0.647450
O O10 0.245983 0.914761 0.457797
O O11 0.000000 0.000000 0.486024
O O12 0.804324 0.395012 0.349640
O O13 0.000000 0.500000 0.454090
O O14 0.500000 0.000000 0.398293
#
# Coordination Sequence:
#
# PCOD9341952 Si02
#       6
#     4   4   4   4   4   4
#     4  10  19  36  59  90 115 149 197 253 301 357
#     4  11  19  36  61  86 118 151 201 249 299 360
#     4  10  19  34  59  86 112 149 196 250 303 350
#     4   9  20  32  57  97 116 144 192 255 308 350
#     4  11  23  39  58  84 119 165 205 239 299 371
#     4  11  18  33  62  91 118 145 193 259 309 353
#
# _framework density 19.002803
#
# number of rings (size 3 to 8) (size 9 to 14) (size 15 to 20)
#    0.000    1.667    3.333    5.000    0.000    0.000 
#    0.000    1.667    0.000    0.000    0.000    0.000 
#    0.000    0.000    0.000    0.000    0.000    0.000 
#
# Total GULP energy -133628.844331 kJ/mol
# GULP energy per Si atom -5567.868514 kJ/mol
# Density = 1.895955 g / cm^3
# Si number density = 19.002803 Si / 1000 Ang^3
#
#
#
# Elastic Constant Matrix: (Units=GPa)
#
#
# Indices 1 2 3 4 5 6 
#
# 1 76.8907 26.6809 45.6789 0.0000 0.0000 0.0000
# 2 26.6809 131.0037 42.4408 0.0000 0.0000 0.0000
# 3 45.6789 42.4408 140.3719 0.0000 0.0000 0.0000
# 4 0.0000 0.0000 0.0000 28.3320 0.0000 0.0000
# 5 0.0000 0.0000 0.0000 0.0000 0.2475 0.0000
# 6 0.0000 0.0000 0.0000 0.0000 0.0000 12.6936
#
#
#
# Elastic Compliance Matrix: (Units=1/GPa)
#
#
# Indices 1 2 3 4 5 6 
#
# 1 0.016495 -0.001796 -0.004825 0.000000 0.000000 0.000000
# 2 -0.001796 0.008658 -0.002033 0.000000 0.000000 0.000000
# 3 -0.004825 -0.002033 0.009309 0.000000 0.000000 0.000000
# 4 0.000000 0.000000 0.000000 0.035296 0.000000 0.000000
# 5 0.000000 0.000000 0.000000 0.000000 4.040084 0.000000
# 6 0.000000 0.000000 0.000000 0.000000 0.000000 0.078780
#
#
# Mechanical properties :
#
#
# Convention : Reuss Voigt Hill
#
# Bulk Modulus (GPa) = 58.29780 64.20750 61.25265
# Shear Modulus (GPa) = 1.18718 23.81901 12.50310
#
# Velocity S-wave (km/s) = 0.79126 3.54425 2.56786
# Velocity P-wave (km/s) = 5.61960 7.11412 6.41056
#
# Compressibility (1/GPa) = 0.01715331
#
# Stress axis : x y z
#
# Youngs Moduli (GPa) = 60.62452 115.50143 107.42762
#
# Poissons Ratio (x) = 0.20749 0.51829
# Poissons Ratio (y) = 0.10891 0.21841
# Poissons Ratio (z) = 0.29249 0.23482
#
# Static dielectric constant tensor:
#      x y z
#    x 1.647250 0.000000 0.000000 
#    y 0.000000 1.788130 0.000000 
#    z 0.000000 0.000000 1.707900 
# 
# From -- ./inp_files/3633.got.cif
#   From: 2010.05.17/outbox.cif.g08.bks.cpg/sg30_2_cif.got.tgz:3633.got - 2010.06.03 17:03:02.
