data_PCOD9341764
_publ_section_title
;
Structure prediction by ZEFSAII (Michael W. Deem and Ramdas Pophale) SiO2 
 PCOD9341764
Probable space group: P C A 21
;
_chemical_formula_sum "Si O2"
_cell_formula_units_Z 20
_cell_length_a 14.094153
_cell_length_b 5.197350
_cell_length_c 10.676725
_cell_angle_alpha 90.000000
_cell_angle_beta 90.000000
_cell_angle_gamma 90.000000
_cell_volume 782.094087
_symmetry_space_group_name_H-M "P C A 21"
_symmetry_group_IT_number 29
_symmetry_cell_setting 'orthorhombic'
loop_
_space_group_symop_operation_xyz
x,y,z
-x,-y,1/2+z
1/2-x,y,1/2+z
1/2+x,-y,z
loop_
_atom_site_type_symbol
_atom_site_label
_atom_site_fract_x
_atom_site_fract_y
_atom_site_fract_z
Si Si1 0.377976 0.922410 0.388290
Si Si2 0.476104 0.383296 0.743813
Si Si3 0.766961 0.809903 0.726934
Si Si4 0.736792 0.310536 0.561118
Si Si5 0.476534 0.718968 0.983509
O O1 0.439553 0.815790 0.273459
O O2 0.313555 0.703880 0.450503
O O3 0.305324 0.139484 0.340220
O O4 0.454947 0.035495 0.484388
O O5 0.373270 0.260190 0.767510
O O6 0.488636 0.602194 0.846177
O O7 0.487293 0.455590 0.598978
O O8 0.734866 0.578589 0.635520
O O9 0.766624 0.080242 0.653745
O O10 0.634477 0.242937 0.504638
#
# Coordination Sequence:
#
# PCOD9341764 Si02
#       5
#     4   4   4   4   4
#     4  12  28  50  82 124 162 226 280 350 422 508
#     4  12  28  50  84 119 167 220 283 346 424 505
#     4  12  29  53  83 119 169 219 280 350 423 503
#     4  12  29  53  83 119 169 219 280 350 423 503
#     4  12  28  50  84 119 167 220 283 346 424 505
#
# _framework density 25.572368999999998
#
# number of rings (size 3 to 8) (size 9 to 14) (size 15 to 20)
#    0.000    0.000    4.000    3.600   11.200    1.600 
#    0.000    0.000    0.000    0.000    0.000    0.000 
#    0.000    0.000    0.000    0.000    0.000    0.000 
#
# Total GULP energy -112233.094425 kJ/mol
# GULP energy per Si atom -5611.654721 kJ/mol
# Density = 2.551417 g / cm^3
# Si number density = 25.572369 Si / 1000 Ang^3
#
#
#
# Elastic Constant Matrix: (Units=GPa)
#
#
# Indices 1 2 3 4 5 6 
#
# 1 168.1125 4.6257 5.2007 0.0000 0.0000 0.0000
# 2 4.6257 84.2263 18.5421 0.0000 0.0000 0.0000
# 3 5.2007 18.5421 73.9854 0.0000 0.0000 0.0000
# 4 0.0000 0.0000 0.0000 50.6706 0.0000 0.0000
# 5 0.0000 0.0000 0.0000 0.0000 45.3650 0.0000
# 6 0.0000 0.0000 0.0000 0.0000 0.0000 30.7089
#
#
#
# Elastic Compliance Matrix: (Units=1/GPa)
#
#
# Indices 1 2 3 4 5 6 
#
# 1 0.005966 -0.000249 -0.000357 0.000000 0.000000 0.000000
# 2 -0.000249 0.012576 -0.003134 0.000000 0.000000 0.000000
# 3 -0.000357 -0.003134 0.014327 0.000000 0.000000 0.000000
# 4 0.000000 0.000000 0.000000 0.019735 0.000000 0.000000
# 5 0.000000 0.000000 0.000000 0.000000 0.022043 0.000000
# 6 0.000000 0.000000 0.000000 0.000000 0.000000 0.032564
#
#
# Mechanical properties :
#
#
# Convention : Reuss Voigt Hill
#
# Bulk Modulus (GPa) = 39.38760 42.56237 40.97499
# Shear Modulus (GPa) = 40.59894 45.21261 42.90578
#
# Velocity S-wave (km/s) = 3.98880 4.20935 4.10056
# Velocity P-wave (km/s) = 6.05392 6.34861 6.20302
#
# Compressibility (1/GPa) = 0.02538870
#
# Stress axis : x y z
#
# Youngs Moduli (GPa) = 167.60820 79.51347 69.79917
#
# Poissons Ratio (x) = 0.01981 0.02492
# Poissons Ratio (y) = 0.04175 0.21878
# Poissons Ratio (z) = 0.05983 0.24923
#
# Static dielectric constant tensor:
#      x y z
#    x 1.959970 0.000000 0.000000 
#    y 0.000000 1.999460 0.000000 
#    z 0.000000 0.000000 2.071820 
# 
# From -- ./inp_files/3285.got.cif
#   From: 2010.05.17/outbox.cif.g08.bks.cpg/sg29_2_cif.got.tgz:3285.got - 2010.06.04 01:19:37.
