data_PCOD9341509
_publ_section_title
;
Structure prediction by ZEFSAII (Michael W. Deem and Ramdas Pophale) SiO2 
 PCOD9341509
Probable space group: P C A 21
;
_chemical_formula_sum "Si O2"
_cell_formula_units_Z 32
_cell_length_a 11.646702
_cell_length_b 5.345590
_cell_length_c 20.909350
_cell_angle_alpha 90.000000
_cell_angle_beta 90.000000
_cell_angle_gamma 90.000000
_cell_volume 1301.784636
_symmetry_space_group_name_H-M "P C A 21"
_symmetry_group_IT_number 29
_symmetry_cell_setting 'orthorhombic'
loop_
_space_group_symop_operation_xyz
x,y,z
-x,-y,1/2+z
1/2-x,y,1/2+z
1/2+x,-y,z
loop_
_atom_site_type_symbol
_atom_site_label
_atom_site_fract_x
_atom_site_fract_y
_atom_site_fract_z
Si Si1 0.668330 0.043212 0.155340
Si Si2 0.669096 0.753690 0.028293
Si Si3 0.417865 0.858956 0.273928
Si Si4 0.177550 0.613750 0.587637
Si Si5 0.544998 0.346507 0.458064
Si Si6 0.819532 0.933124 0.796736
Si Si7 0.849863 0.849941 0.924826
Si Si8 0.954980 0.648036 0.194080
O O1 0.788333 0.161168 0.133368
O O2 0.583541 0.271225 0.174000
O O3 0.628169 0.901472 0.091201
O O4 0.674667 0.880125 0.220080
O O5 0.705810 0.483530 0.054735
O O6 0.583158 0.738325 0.969643
O O7 0.782020 0.852633 0.992348
O O8 0.539791 0.919724 0.310212
O O9 0.443254 0.598756 0.237635
O O10 0.284010 0.855308 0.298727
O O11 0.413831 0.111469 0.232277
O O12 0.093449 0.665861 0.530115
O O13 0.120847 0.403719 0.631698
O O14 0.558332 0.628314 0.434221
O O15 0.612048 0.138529 0.418281
O O16 0.782225 0.778176 0.859757
#
# Coordination Sequence:
#
# PCOD9341509 Si02
#       8
#     4   4   4   4   4   4   4   4
#     4  11  24  43  78 108 153 197 260 321 396 459
#     4  11  26  45  76 109 150 203 255 324 383 475
#     4  11  27  47  73 110 155 201 251 312 394 456
#     4  11  23  42  69 112 146 195 248 318 387 455
#     4  11  27  46  75 103 149 197 254 314 383 462
#     4  11  27  51  76 113 152 207 253 329 384 473
#     4  11  28  51  73 108 151 202 259 310 394 467
#     4  11  26  41  72 111 154 190 244 322 387 463
#
# _framework density 24.581638999999999
#
# number of rings (size 3 to 8) (size 9 to 14) (size 15 to 20)
#    0.000    1.000    2.500    1.500   15.750    3.000 
#    0.000    0.000    0.000    0.000    0.000    0.000 
#    0.000    0.000    0.000    0.000    0.000    0.000 
#
# Total GULP energy -178142.103275 kJ/mol
# GULP energy per Si atom -5566.940727 kJ/mol
# Density = 2.452569 g / cm^3
# Si number density = 24.581639 Si / 1000 Ang^3
#
#
#
# Elastic Constant Matrix: (Units=GPa)
#
#
# Indices 1 2 3 4 5 6 
#
# 1 79.5279 20.9968 5.6711 0.0000 0.0000 0.0000
# 2 20.9968 95.7540 27.6935 0.0000 0.0000 0.0000
# 3 5.6711 27.6935 128.5929 0.0000 0.0000 0.0000
# 4 0.0000 0.0000 0.0000 26.0726 0.0000 0.0000
# 5 0.0000 0.0000 0.0000 0.0000 34.2305 0.0000
# 6 0.0000 0.0000 0.0000 0.0000 0.0000 30.4239
#
#
#
# Elastic Compliance Matrix: (Units=1/GPa)
#
#
# Indices 1 2 3 4 5 6 
#
# 1 0.013347 -0.002940 0.000044 0.000000 0.000000 0.000000
# 2 -0.002940 0.011785 -0.002408 0.000000 0.000000 0.000000
# 3 0.000044 -0.002408 0.008293 0.000000 0.000000 0.000000
# 4 0.000000 0.000000 0.000000 0.038354 0.000000 0.000000
# 5 0.000000 0.000000 0.000000 0.000000 0.029214 0.000000
# 6 0.000000 0.000000 0.000000 0.000000 0.000000 0.032869
#
#
# Mechanical properties :
#
#
# Convention : Reuss Voigt Hill
#
# Bulk Modulus (GPa) = 43.82501 45.84416 44.83459
# Shear Modulus (GPa) = 32.87859 34.77964 33.82912
#
# Velocity S-wave (km/s) = 3.66119 3.76555 3.71373
# Velocity P-wave (km/s) = 5.97825 6.13156 6.05539
#
# Compressibility (1/GPa) = 0.02281802
#
# Stress axis : x y z
#
# Youngs Moduli (GPa) = 74.92237 84.85711 120.58136
#
# Poissons Ratio (x) = 0.24945 -0.00536
# Poissons Ratio (y) = 0.22024 0.29039
# Poissons Ratio (z) = -0.00333 0.20436
#
# Static dielectric constant tensor:
#      x y z
#    x 2.140490 0.000000 0.000000 
#    y 0.000000 1.933910 0.000000 
#    z 0.000000 0.000000 2.052690 
# 
# From -- ./inp_files/5539.got.cif
#   From: 2010.05.17/outbox.cif.g08.bks.cpg/sg29_3_cif.got.tgz:5539.got - 2010.06.04 01:19:37.
