data_PCOD9341408
_publ_section_title
;
Structure prediction by ZEFSAII (Michael W. Deem and Ramdas Pophale) SiO2 
 PCOD9341408
Probable space group: P C A 21
;
_chemical_formula_sum "Si O2"
_cell_formula_units_Z 32
_cell_length_a 21.840579
_cell_length_b 5.341481
_cell_length_c 11.057992
_cell_angle_alpha 90.000000
_cell_angle_beta 90.000000
_cell_angle_gamma 90.000000
_cell_volume 1290.036822
_symmetry_space_group_name_H-M "P C A 21"
_symmetry_group_IT_number 29
_symmetry_cell_setting 'orthorhombic'
loop_
_space_group_symop_operation_xyz
x,y,z
-x,-y,1/2+z
1/2-x,y,1/2+z
1/2+x,-y,z
loop_
_atom_site_type_symbol
_atom_site_label
_atom_site_fract_x
_atom_site_fract_y
_atom_site_fract_z
Si Si1 0.463572 0.882080 0.164200
Si Si2 0.870245 0.104984 0.781909
Si Si3 0.178468 0.446647 0.892163
Si Si4 0.650005 0.437186 0.625608
Si Si5 0.221152 0.806293 0.080464
Si Si6 0.797363 0.804966 0.968609
Si Si7 0.983600 0.383625 0.739582
Si Si8 0.418929 0.275492 0.581378
O O1 0.398539 0.785680 0.119680
O O2 0.485227 0.655373 0.256894
O O3 0.516785 0.868581 0.061110
O O4 0.469330 0.157928 0.218509
O O5 0.825321 0.238923 0.688032
O O6 0.828315 0.021707 0.891406
O O7 0.892621 0.865145 0.701255
O O8 0.928747 0.270059 0.818960
O O9 0.149786 0.463073 0.761368
O O10 0.247220 0.336053 0.886670
O O11 0.131925 0.295326 0.979501
O O12 0.188824 0.716026 0.957088
O O13 0.646372 0.649062 0.523808
O O14 0.719650 0.358743 0.603368
O O15 0.252228 0.077826 0.070087
O O16 0.944963 0.450987 0.617046
#
# Coordination Sequence:
#
# PCOD9341408 Si02
#       8
#     4   4   4   4   4   4   4   4
#     4   9  21  44  67  98 137 177 232 285 344 415
#     4  11  20  41  69  97 130 180 236 287 346 421
#     4  11  22  41  65  99 133 182 230 288 355 424
#     4  11  26  42  64  97 148 176 230 291 361 426
#     4  11  22  39  63 102 133 179 223 293 352 425
#     4  11  25  39  64  99 137 180 225 288 360 424
#     4   9  20  40  72  93 129 179 230 289 331 411
#     4   9  20  40  70  91 131 173 236 281 339 414
#
# _framework density 24.805492000000001
#
# number of rings (size 3 to 8) (size 9 to 14) (size 15 to 20)
#    0.750    1.000    2.500    1.500    3.500    2.000 
#    4.500    0.000    2.750    0.000    0.000    0.000 
#    0.000    0.000    0.000    0.000    0.000    0.000 
#
# Total GULP energy -178520.691830 kJ/mol
# GULP energy per Si atom -5578.771620 kJ/mol
# Density = 2.474903 g / cm^3
# Si number density = 24.805492 Si / 1000 Ang^3
#
#
#
# Elastic Constant Matrix: (Units=GPa)
#
#
# Indices 1 2 3 4 5 6 
#
# 1 98.2913 18.1456 29.9068 0.0000 0.0000 0.0000
# 2 18.1456 95.9405 10.7789 0.0000 0.0000 0.0000
# 3 29.9068 10.7789 58.6144 0.0000 0.0000 0.0000
# 4 0.0000 0.0000 0.0000 22.3541 0.0000 0.0000
# 5 0.0000 0.0000 0.0000 0.0000 21.3055 0.0000
# 6 0.0000 0.0000 0.0000 0.0000 0.0000 40.2247
#
#
#
# Elastic Compliance Matrix: (Units=1/GPa)
#
#
# Indices 1 2 3 4 5 6 
#
# 1 0.012296 -0.001655 -0.005969 0.000000 0.000000 0.000000
# 2 -0.001655 0.010866 -0.001154 0.000000 0.000000 0.000000
# 3 -0.005969 -0.001154 0.020319 0.000000 0.000000 0.000000
# 4 0.000000 0.000000 0.000000 0.044735 0.000000 0.000000
# 5 0.000000 0.000000 0.000000 0.000000 0.046936 0.000000
# 6 0.000000 0.000000 0.000000 0.000000 0.000000 0.024860
#
#
# Mechanical properties :
#
#
# Convention : Reuss Voigt Hill
#
# Bulk Modulus (GPa) = 38.57423 41.16762 39.87093
# Shear Modulus (GPa) = 26.85168 29.71119 28.28144
#
# Velocity S-wave (km/s) = 3.29369 3.46463 3.38024
# Velocity P-wave (km/s) = 5.48169 5.71289 5.59848
#
# Compressibility (1/GPa) = 0.02592404
#
# Stress axis : x y z
#
# Youngs Moduli (GPa) = 81.32994 92.03229 49.21616
#
# Poissons Ratio (x) = 0.15230 0.29378
# Poissons Ratio (y) = 0.13459 0.05679
# Poissons Ratio (z) = 0.48548 0.10619
#
# Static dielectric constant tensor:
#      x y z
#    x 1.982250 0.000000 0.000000 
#    y 0.000000 2.134860 0.000000 
#    z 0.000000 0.000000 1.959510 
# 
# From -- ./inp_files/3965.got.cif
#   From: 2010.05.17/outbox.cif.g08.bks.cpg/sg29_2_cif.got.tgz:3965.got - 2010.06.04 01:19:37.
