data_PCOD9341090
_publ_section_title
;
Structure prediction by ZEFSAII (Michael W. Deem and Ramdas Pophale) SiO2 
 PCOD9341090
Probable space group: P C A 21
;
_chemical_formula_sum "Si O2"
_cell_formula_units_Z 24
_cell_length_a 26.784417
_cell_length_b 7.478087
_cell_length_c 5.270983
_cell_angle_alpha 90.000000
_cell_angle_beta 90.000000
_cell_angle_gamma 90.000000
_cell_volume 1055.757868
_symmetry_space_group_name_H-M "P C A 21"
_symmetry_group_IT_number 29
_symmetry_cell_setting 'orthorhombic'
loop_
_space_group_symop_operation_xyz
x,y,z
-x,-y,1/2+z
1/2-x,y,1/2+z
1/2+x,-y,z
loop_
_atom_site_type_symbol
_atom_site_label
_atom_site_fract_x
_atom_site_fract_y
_atom_site_fract_z
Si Si1 0.633300 0.398762 0.934390
Si Si2 0.734534 0.535682 0.023678
Si Si3 0.776751 0.936476 0.042213
Si Si4 0.473833 0.441201 0.556738
Si Si5 0.513214 0.078093 0.404911
Si Si6 0.369827 0.834390 0.931570
O O1 0.675787 0.548471 0.977699
O O2 0.638093 0.308548 0.658850
O O3 0.579079 0.482101 0.974097
O O4 0.639954 0.252276 0.156656
O O5 0.756547 0.435457 0.784180
O O6 0.765789 0.721229 0.043872
O O7 0.758662 0.002426 0.315018
O O8 0.832414 0.000597 0.982098
O O9 0.513260 0.507255 0.344111
O O10 0.478686 0.230237 0.529875
O O11 0.571886 0.112883 0.438667
O O12 0.499388 0.922152 0.605561
#
# Coordination Sequence:
#
# PCOD9341090 Si02
#       6
#     4   4   4   4   4   4
#     4  12  24  42  72 100 134 188 235 280 355 419
#     4  10  23  41  64  96 136 172 233 285 337 416
#     4  10  23  43  66  92 138 177 224 285 349 404
#     4  12  23  46  72  99 144 183 232 299 341 419
#     4  12  26  43  69 105 143 184 236 286 353 416
#     4  12  25  43  69 100 139 184 230 283 353 418
#
# _framework density 22.732485
#
# number of rings (size 3 to 8) (size 9 to 14) (size 15 to 20)
#    0.000    0.667    3.333    4.000    0.000    9.333 
#    0.000    0.000    0.000    0.000    0.000    0.000 
#    0.000    0.000    0.000    0.000    0.000    0.000 
#
# Total GULP energy -134084.030640 kJ/mol
# GULP energy per Si atom -5586.834610 kJ/mol
# Density = 2.268074 g / cm^3
# Si number density = 22.732485 Si / 1000 Ang^3
#
#
#
# Elastic Constant Matrix: (Units=GPa)
#
#
# Indices 1 2 3 4 5 6 
#
# 1 105.1124 21.2085 4.0865 0.0000 0.0000 0.0000
# 2 21.2085 45.2784 -4.4725 0.0000 0.0000 0.0000
# 3 4.0865 -4.4725 130.6798 0.0000 0.0000 0.0000
# 4 0.0000 0.0000 0.0000 20.7545 0.0000 0.0000
# 5 0.0000 0.0000 0.0000 0.0000 24.4409 0.0000
# 6 0.0000 0.0000 0.0000 0.0000 0.0000 37.7045
#
#
#
# Elastic Compliance Matrix: (Units=1/GPa)
#
#
# Indices 1 2 3 4 5 6 
#
# 1 0.010539 -0.004986 -0.000500 0.000000 0.000000 0.000000
# 2 -0.004986 0.024519 0.000995 0.000000 0.000000 0.000000
# 3 -0.000500 0.000995 0.007702 0.000000 0.000000 0.000000
# 4 0.000000 0.000000 0.000000 0.048182 0.000000 0.000000
# 5 0.000000 0.000000 0.000000 0.000000 0.040915 0.000000
# 6 0.000000 0.000000 0.000000 0.000000 0.000000 0.026522
#
#
# Mechanical properties :
#
#
# Convention : Reuss Voigt Hill
#
# Bulk Modulus (GPa) = 29.60484 35.85729 32.73106
# Shear Modulus (GPa) = 27.99215 33.92983 30.96099
#
# Velocity S-wave (km/s) = 3.51290 3.86757 3.69449
# Velocity P-wave (km/s) = 5.43188 5.97930 5.71215
#
# Compressibility (1/GPa) = 0.03377827
#
# Stress axis : x y z
#
# Youngs Moduli (GPa) = 94.88487 40.78415 129.83656
#
# Poissons Ratio (x) = 0.20335 0.06495
# Poissons Ratio (y) = 0.47309 -0.12920
# Poissons Ratio (z) = 0.04746 -0.04058
#
# Static dielectric constant tensor:
#      x y z
#    x 1.818950 0.000000 0.000000 
#    y 0.000000 1.932580 0.000000 
#    z 0.000000 0.000000 1.942970 
# 
# From -- ./inp_files/641.got.cif
#   From: 2010.05.17/outbox.cif.g08.bks.cpg/sg29_1_cif.got.tgz:641.got - 2010.06.04 01:19:37.
