data_PCOD9341705
_publ_section_title
;
Structure prediction by ZEFSAII (Michael W. Deem and Ramdas Pophale) SiO2 
 PCOD9341705
Probable space group: P C A 21
;
_chemical_formula_sum "Si O2"
_cell_formula_units_Z 32
_cell_length_a 9.107226
_cell_length_b 11.476262
_cell_length_c 14.267377
_cell_angle_alpha 90.000000
_cell_angle_beta 90.000000
_cell_angle_gamma 90.000000
_cell_volume 1491.182182
_symmetry_space_group_name_H-M "P C A 21"
_symmetry_group_IT_number 29
_symmetry_cell_setting 'orthorhombic'
loop_
_space_group_symop_operation_xyz
x,y,z
-x,-y,1/2+z
1/2-x,y,1/2+z
1/2+x,-y,z
loop_
_atom_site_type_symbol
_atom_site_label
_atom_site_fract_x
_atom_site_fract_y
_atom_site_fract_z
Si Si1 0.454163 0.612750 0.986110
Si Si2 0.659532 0.248733 0.665353
Si Si3 0.120370 0.597737 0.285262
Si Si4 0.160385 0.975427 0.101040
Si Si5 0.712386 0.625134 0.521596
Si Si6 0.113787 0.117524 0.485245
Si Si7 0.718824 0.634002 0.742470
Si Si8 0.104953 0.145393 0.274977
O O1 0.376817 0.651259 0.889610
O O2 0.393401 0.483919 0.006219
O O3 0.629525 0.611119 0.972419
O O4 0.412418 0.691370 0.074618
O O5 0.779521 0.332732 0.712257
O O6 0.735855 0.130561 0.631378
O O7 0.536195 0.219254 0.742093
O O8 0.179992 0.465783 0.287644
O O9 0.951177 0.602335 0.254967
O O10 0.129137 0.051879 0.193123
O O11 0.015295 0.924186 0.053450
O O12 0.240716 0.056672 0.025123
O O13 0.634380 0.743872 0.491909
O O14 0.748739 0.633295 0.631629
O O15 0.085446 0.089144 0.376690
O O16 0.761053 0.762248 0.778412
#
# Coordination Sequence:
#
# PCOD9341705 Si02
#       8
#     4   4   4   4   4   4   4   4
#     4  12  26  46  73 107 151 187 236 291 363 442
#     4  12  27  47  70 107 146 190 236 301 361 432
#     4  12  26  42  74 109 146 191 239 290 369 440
#     4  12  28  51  70 108 144 189 249 302 361 428
#     4  12  25  49  73 107 147 192 235 303 364 429
#     4  12  28  49  79 105 143 196 247 303 368 434
#     4  12  23  48  71 109 146 189 237 303 363 431
#     4  12  27  50  76 102 149 190 247 307 363 432
#
# _framework density 21.459484
#
# number of rings (size 3 to 8) (size 9 to 14) (size 15 to 20)
#    0.000    0.000    5.000    4.500    5.250    0.000 
#    0.000    0.000    0.000    0.000    0.000    0.000 
#    0.000    0.000    0.000    0.000    0.000    0.000 
#
# Total GULP energy -179287.492530 kJ/mol
# GULP energy per Si atom -5602.734142 kJ/mol
# Density = 2.141064 g / cm^3
# Si number density = 21.459484 Si / 1000 Ang^3
#
#
#
# Elastic Constant Matrix: (Units=GPa)
#
#
# Indices 1 2 3 4 5 6 
#
# 1 117.1851 48.9884 25.4574 0.0000 0.0000 0.0000
# 2 48.9884 101.4281 19.7281 0.0000 0.0000 0.0000
# 3 25.4574 19.7281 136.2155 0.0000 0.0000 0.0000
# 4 0.0000 0.0000 0.0000 14.2189 0.0000 0.0000
# 5 0.0000 0.0000 0.0000 0.0000 25.0242 0.0000
# 6 0.0000 0.0000 0.0000 0.0000 0.0000 25.6121
#
#
#
# Elastic Compliance Matrix: (Units=1/GPa)
#
#
# Indices 1 2 3 4 5 6 
#
# 1 0.010916 -0.005017 -0.001314 0.000000 0.000000 0.000000
# 2 -0.005017 0.012451 -0.000866 0.000000 0.000000 0.000000
# 3 -0.001314 -0.000866 0.007712 0.000000 0.000000 0.000000
# 4 0.000000 0.000000 0.000000 0.070329 0.000000 0.000000
# 5 0.000000 0.000000 0.000000 0.000000 0.039961 0.000000
# 6 0.000000 0.000000 0.000000 0.000000 0.000000 0.039044
#
#
# Mechanical properties :
#
#
# Convention : Reuss Voigt Hill
#
# Bulk Modulus (GPa) = 59.92723 60.35296 60.14010
# Shear Modulus (GPa) = 24.95411 30.34800 27.65105
#
# Velocity S-wave (km/s) = 3.41375 3.76466 3.59350
# Velocity P-wave (km/s) = 6.59732 6.86164 6.73078
#
# Compressibility (1/GPa) = 0.01668690
#
# Stress axis : x y z
#
# Youngs Moduli (GPa) = 91.60757 80.31717 129.66525
#
# Poissons Ratio (x) = 0.40294 0.17032
# Poissons Ratio (y) = 0.45958 0.11224
# Poissons Ratio (z) = 0.12033 0.06952
#
# Static dielectric constant tensor:
#      x y z
#    x 1.756080 0.000000 0.000000 
#    y 0.000000 1.749090 0.000000 
#    z 0.000000 0.000000 1.795590 
# 
# From -- ./inp_files/4269.got.cif
#   From: 2010.05.17/outbox.cif.g08.bks.cpg/sg29_3_cif.got.tgz:4269.got - 2010.06.04 01:19:37.
