data_PCOD9341820
_publ_section_title
;
Structure prediction by ZEFSAII (Michael W. Deem and Ramdas Pophale) SiO2 
 PCOD9341820
Probable space group: P N C 2
;
_chemical_formula_sum "Si O2"
_cell_formula_units_Z 32
_cell_length_a 16.661389
_cell_length_b 16.704220
_cell_length_c 5.386705
_cell_angle_alpha 90.000000
_cell_angle_beta 90.000000
_cell_angle_gamma 90.000000
_cell_volume 1499.203535
_symmetry_space_group_name_H-M "P N C 2"
_symmetry_group_IT_number 30
_symmetry_cell_setting 'orthorhombic'
loop_
_space_group_symop_operation_xyz
x,y,z
-x,-y,z
-x,1/2+y,1/2+z
x,1/2-y,1/2+z
loop_
_atom_site_type_symbol
_atom_site_label
_atom_site_fract_x
_atom_site_fract_y
_atom_site_fract_z
Si Si1 0.887798 0.219173 0.041620
Si Si2 0.414559 0.042585 0.329082
Si Si3 0.282631 0.205293 0.827058
Si Si4 0.913148 0.535044 0.903841
Si Si5 0.314166 0.023829 0.827643
Si Si6 0.071286 0.218565 0.545245
Si Si7 0.538956 0.728256 0.835428
Si Si8 0.151709 0.960110 0.915755
O O1 0.849450 0.233850 0.310548
O O2 0.886750 0.126112 0.972864
O O3 0.977787 0.255203 0.072725
O O4 0.362449 0.019086 0.570209
O O5 0.430923 0.137624 0.338950
O O6 0.500000 0.000000 0.337635
O O7 0.370028 0.024008 0.070622
O O8 0.256390 0.249377 0.575934
O O9 0.269267 0.110687 0.823187
O O10 0.380487 0.216637 0.830500
O O11 0.919615 0.629556 0.943898
O O12 0.887361 0.496695 0.166814
O O13 0.000000 0.500000 0.839925
O O14 0.859244 0.512156 0.666938
O O15 0.246050 0.957255 0.856762
O O16 0.104175 0.274535 0.324323
O O17 0.493554 0.748668 0.584206
#
# Coordination Sequence:
#
# PCOD9341820 Si02
#       8
#     4   4   4   4   4   4   4   4
#     4  10  20  39  64  90 109 168 227 248 310 401
#     4  12  23  38  65  96 125 167 215 261 313 376
#     4  10  16  32  59  83 113 164 205 240 294 389
#     4  12  23  41  65  95 129 162 222 278 324 378
#     4  12  23  41  61  93 136 163 212 261 322 388
#     4  10  19  35  59  83 122 161 210 261 310 374
#     4  10  16  32  59  86 112 157 212 242 292 383
#     4  12  26  42  66 100 130 174 211 278 339 382
#
# _framework density 21.344666
#
# number of rings (size 3 to 8) (size 9 to 14) (size 15 to 20)
#    0.000    1.000    5.000    6.000    0.000    0.000 
#    0.000    3.750    0.000    4.500    0.000    0.000 
#    0.000    0.000    0.000    0.000    0.000    0.000 
#
# Total GULP energy -178875.109160 kJ/mol
# GULP energy per Si atom -5589.847161 kJ/mol
# Density = 2.129608 g / cm^3
# Si number density = 21.344666 Si / 1000 Ang^3
#
#
#
# Elastic Constant Matrix: (Units=GPa)
#
#
# Indices 1 2 3 4 5 6 
#
# 1 32.9406 20.6794 18.2057 0.0000 0.0000 0.0000
# 2 20.6794 63.7250 9.1294 0.0000 0.0000 0.0000
# 3 18.2057 9.1294 177.1945 0.0000 0.0000 0.0000
# 4 0.0000 0.0000 0.0000 28.5942 0.0000 0.0000
# 5 0.0000 0.0000 0.0000 0.0000 17.6761 0.0000
# 6 0.0000 0.0000 0.0000 0.0000 0.0000 10.7759
#
#
#
# Elastic Compliance Matrix: (Units=1/GPa)
#
#
# Indices 1 2 3 4 5 6 
#
# 1 0.040146 -0.012529 -0.003479 0.000000 0.000000 0.000000
# 2 -0.012529 0.019720 0.000271 0.000000 0.000000 0.000000
# 3 -0.003479 0.000271 0.005987 0.000000 0.000000 0.000000
# 4 0.000000 0.000000 0.000000 0.034972 0.000000 0.000000
# 5 0.000000 0.000000 0.000000 0.000000 0.056574 0.000000
# 6 0.000000 0.000000 0.000000 0.000000 0.000000 0.092799
#
#
# Mechanical properties :
#
#
# Convention : Reuss Voigt Hill
#
# Bulk Modulus (GPa) = 29.08829 41.09877 35.09353
# Shear Modulus (GPa) = 17.05715 26.46560 21.76137
#
# Velocity S-wave (km/s) = 2.82995 3.52506 3.19646
# Velocity P-wave (km/s) = 4.93312 5.98872 5.48636
#
# Compressibility (1/GPa) = 0.03437809
#
# Stress axis : x y z
#
# Youngs Moduli (GPa) = 24.90890 50.71122 167.02828
#
# Poissons Ratio (x) = 0.63538 0.58113
# Poissons Ratio (y) = 0.31209 -0.04532
# Poissons Ratio (z) = 0.08666 -0.01376
#
# Static dielectric constant tensor:
#      x y z
#    x 1.823330 0.000000 0.000000 
#    y 0.000000 1.767920 0.000000 
#    z 0.000000 0.000000 1.861560 
# 
# From -- ./inp_files/1009.got.cif
#   From: 2010.05.17/outbox.cif.g08.bks.cpg/sg30_1_cif.got.tgz:1009.got - 2010.06.03 17:03:02.
