data_PCOD9341636
_publ_section_title
;
Structure prediction by ZEFSAII (Michael W. Deem and Ramdas Pophale) SiO2 
 PCOD9341636
Probable space group: P C A 21
;
_chemical_formula_sum "Si O2"
_cell_formula_units_Z 24
_cell_length_a 8.713364
_cell_length_b 13.792432
_cell_length_c 8.866778
_cell_angle_alpha 90.000000
_cell_angle_beta 90.000000
_cell_angle_gamma 90.000000
_cell_volume 1065.595907
_symmetry_space_group_name_H-M "P C A 21"
_symmetry_group_IT_number 29
_symmetry_cell_setting 'orthorhombic'
loop_
_space_group_symop_operation_xyz
x,y,z
-x,-y,1/2+z
1/2-x,y,1/2+z
1/2+x,-y,z
loop_
_atom_site_type_symbol
_atom_site_label
_atom_site_fract_x
_atom_site_fract_y
_atom_site_fract_z
Si Si1 0.386507 0.191064 0.647030
Si Si2 0.019921 0.434065 0.450433
Si Si3 0.586096 0.913733 0.643726
Si Si4 0.403438 0.912105 0.926833
Si Si5 0.824662 0.585444 0.622418
Si Si6 0.605853 0.220377 0.922869
O O1 0.235784 0.138638 0.708487
O O2 0.449552 0.136072 0.503392
O O3 0.349422 0.300625 0.604068
O O4 0.522260 0.195362 0.767220
O O5 0.110027 0.440418 0.289745
O O6 0.146288 0.429771 0.583995
O O7 0.916158 0.524626 0.496610
O O8 0.915265 0.336061 0.445855
O O9 0.466348 0.950827 0.768258
O O10 0.492230 0.833758 0.550300
O O11 0.641153 0.999763 0.535092
O O12 0.272174 0.830185 0.917263
#
# Coordination Sequence:
#
# PCOD9341636 Si02
#       6
#     4   4   4   4   4   4
#     4  11  25  46  71 104 145 194 233 302 370 430
#     4  11  25  47  75 108 151 190 249 305 371 443
#     4  12  25  47  73 102 146 188 242 299 366 434
#     4  12  27  44  75 104 144 188 246 302 361 438
#     4  11  25  46  74 108 147 194 245 304 374 438
#     4  11  25  46  70 110 143 188 243 300 366 435
#
# _framework density 22.522607000000001
#
# number of rings (size 3 to 8) (size 9 to 14) (size 15 to 20)
#    0.000    0.667    1.667    5.000    4.667    5.333 
#    0.000    1.667    0.000    0.000    0.000    0.000 
#    0.000    0.000    0.000    0.000    0.000    0.000 
#
# Total GULP energy -134315.495889 kJ/mol
# GULP energy per Si atom -5596.478995 kJ/mol
# Density = 2.247134 g / cm^3
# Si number density = 22.522607 Si / 1000 Ang^3
#
#
#
# Elastic Constant Matrix: (Units=GPa)
#
#
# Indices 1 2 3 4 5 6 
#
# 1 112.5081 54.7947 30.4774 0.0000 0.0000 0.0000
# 2 54.7947 108.2890 52.1334 0.0000 0.0000 0.0000
# 3 30.4774 52.1334 71.8622 0.0000 0.0000 0.0000
# 4 0.0000 0.0000 0.0000 30.9007 0.0000 0.0000
# 5 0.0000 0.0000 0.0000 0.0000 36.6595 0.0000
# 6 0.0000 0.0000 0.0000 0.0000 0.0000 32.4363
#
#
#
# Elastic Compliance Matrix: (Units=1/GPa)
#
#
# Indices 1 2 3 4 5 6 
#
# 1 0.011845 -0.005494 -0.001038 0.000000 0.000000 0.000000
# 2 -0.005494 0.016739 -0.009814 0.000000 0.000000 0.000000
# 3 -0.001038 -0.009814 0.021475 0.000000 0.000000 0.000000
# 4 0.000000 0.000000 0.000000 0.032362 0.000000 0.000000
# 5 0.000000 0.000000 0.000000 0.000000 0.027278 0.000000
# 6 0.000000 0.000000 0.000000 0.000000 0.000000 0.030830
#
#
# Mechanical properties :
#
#
# Convention : Reuss Voigt Hill
#
# Bulk Modulus (GPa) = 57.57599 63.05228 60.31413
# Shear Modulus (GPa) = 27.93154 30.34954 29.14054
#
# Velocity S-wave (km/s) = 3.52540 3.67483 3.60089
# Velocity P-wave (km/s) = 6.49542 6.78688 6.64275
#
# Compressibility (1/GPa) = 0.01736835
#
# Stress axis : x y z
#
# Youngs Moduli (GPa) = 84.42266 59.74053 46.56567
#
# Poissons Ratio (x) = 0.32822 0.04833
# Poissons Ratio (y) = 0.46382 0.45697
# Poissons Ratio (z) = 0.08762 0.58626
#
# Static dielectric constant tensor:
#      x y z
#    x 1.833370 0.000000 0.000000 
#    y 0.000000 1.825680 0.000000 
#    z 0.000000 0.000000 1.859800 
# 
# From -- ./inp_files/1162.got.cif
#   From: 2010.05.17/outbox.cif.g08.bks.cpg/sg29_1_cif.got.tgz:1162.got - 2010.06.04 01:19:37.
