data_PCOD9341925
_publ_section_title
;
Structure prediction by ZEFSAII (Michael W. Deem and Ramdas Pophale) SiO2 
 PCOD9341925
Probable space group: P N C 2
;
_chemical_formula_sum "Si O2"
_cell_formula_units_Z 24
_cell_length_a 7.674578
_cell_length_b 7.183653
_cell_length_c 17.242518
_cell_angle_alpha 90.000000
_cell_angle_beta 90.000000
_cell_angle_gamma 90.000000
_cell_volume 950.605972
_symmetry_space_group_name_H-M "P N C 2"
_symmetry_group_IT_number 30
_symmetry_cell_setting 'orthorhombic'
loop_
_space_group_symop_operation_xyz
x,y,z
-x,-y,z
-x,1/2+y,1/2+z
x,1/2-y,1/2+z
loop_
_atom_site_type_symbol
_atom_site_label
_atom_site_fract_x
_atom_site_fract_y
_atom_site_fract_z
Si Si1 0.205068 0.024879 0.222890
Si Si2 0.704045 0.519833 0.892005
Si Si3 0.794935 0.975125 0.561118
Si Si4 0.789154 0.966795 0.726655
Si Si5 0.206732 0.457541 0.392003
Si Si6 0.210845 0.033209 0.057351
O O1 0.241791 0.942242 0.307702
O O2 0.242565 0.245015 0.225837
O O3 0.279013 0.957212 0.139764
O O4 0.000000 0.000000 0.214240
O O5 0.500000 0.500000 0.892013
O O6 0.770481 0.733770 0.892003
O O7 0.758235 0.442238 0.976303
O O8 0.720984 0.042793 0.644243
O O9 0.757433 0.754989 0.558168
O O10 0.000000 0.000000 0.569776
O O11 0.719470 0.030918 0.810340
O O12 0.000000 0.000000 0.728661
O O13 0.280530 0.530916 0.473668
O O14 0.000000 0.500000 0.392004
O O15 0.000000 0.000000 0.055348
#
# Coordination Sequence:
#
# PCOD9341925 Si02
#       6
#     4   4   4   4   4   4
#     4   9  16  27  45  69  94 123 161 209 255 301
#     4  10  19  29  44  71 103 134 165 206 258 314
#     4   9  16  27  45  69  94 123 161 209 255 301
#     4   8  14  25  45  71  92 116 160 212 255 294
#     4   8  14  27  48  73  94 124 167 216 260 304
#     4   8  14  25  45  71  92 116 160 212 255 294
#
# _framework density 25.247055
#
# number of rings (size 3 to 8) (size 9 to 14) (size 15 to 20)
#    0.000    3.333    0.000    0.500    0.000    0.000 
#    0.000    0.000    0.000   32.000    0.000   66.500 
#    0.000    0.000    0.000    0.000    0.000    0.000 
#
# Total GULP energy -133674.975101 kJ/mol
# GULP energy per Si atom -5569.790629 kJ/mol
# Density = 2.518959 g / cm^3
# Si number density = 25.247055 Si / 1000 Ang^3
#
#
#
# Elastic Constant Matrix: (Units=GPa)
#
#
# Indices 1 2 3 4 5 6 
#
# 1 50.2122 -11.6572 15.1126 0.0000 0.0000 0.0000
# 2 -11.6572 141.8860 12.0374 0.0000 0.0000 0.0000
# 3 15.1126 12.0374 411.8295 0.0000 0.0000 0.0000
# 4 0.0000 0.0000 0.0000 -27.4600 0.0000 0.0000
# 5 0.0000 0.0000 0.0000 0.0000 -76.2069 0.0000
# 6 0.0000 0.0000 0.0000 0.0000 0.0000 1.3419
#
#
#
# Elastic Compliance Matrix: (Units=1/GPa)
#
#
# Indices 1 2 3 4 5 6 
#
# 1 0.020566 0.001758 -0.000806 0.000000 0.000000 0.000000
# 2 0.001758 0.007216 -0.000275 0.000000 0.000000 0.000000
# 3 -0.000806 -0.000275 0.002466 0.000000 0.000000 0.000000
# 4 0.000000 0.000000 0.000000 -0.036417 0.000000 0.000000
# 5 0.000000 0.000000 0.000000 0.000000 -0.013122 0.000000
# 6 0.000000 0.000000 0.000000 0.000000 0.000000 0.745218
#
#
# Mechanical properties :
#
#
# Convention : Reuss Voigt Hill
#
# Bulk Modulus (GPa) = 31.64465 70.54592 51.09528
# Shear Modulus (GPa) = 6.80172 18.76399 12.78286
#
# Velocity S-wave (km/s) = 1.64314 2.72915 2.25258
# Velocity P-wave (km/s) = 4.02009 6.15905 5.20072
#
# Compressibility (1/GPa) = 0.03160092
#
# Stress axis : x y z
#
# Youngs Moduli (GPa) = 48.62339 138.58627 405.54460
#
# Poissons Ratio (x) = -0.24365 0.32691
# Poissons Ratio (y) = -0.08548 0.11170
# Poissons Ratio (z) = 0.03919 0.03817
#
# Static dielectric constant tensor:
#      x y z
#    x 1.869910 0.000000 0.000000 
#    y 0.000000 1.849530 0.000000 
#    z 0.000000 0.000000 2.298750 
# 
# From -- ./inp_files/6304.got.cif
#   From: 2010.05.17/outbox.cif.g08.bks.cpg/sg30_4_cif.got.tgz:6304.got - 2010.06.03 17:03:02.
