data_PCOD9341896
_publ_section_title
;
Structure prediction by ZEFSAII (Michael W. Deem and Ramdas Pophale) SiO2 
 PCOD9341896
Probable space group: P N C 2
;
_chemical_formula_sum "Si O2"
_cell_formula_units_Z 28
_cell_length_a 8.180885
_cell_length_b 13.070035
_cell_length_c 10.444163
_cell_angle_alpha 90.000000
_cell_angle_beta 90.000000
_cell_angle_gamma 90.000000
_cell_volume 1116.736419
_symmetry_space_group_name_H-M "P N C 2"
_symmetry_group_IT_number 30
_symmetry_cell_setting 'orthorhombic'
loop_
_space_group_symop_operation_xyz
x,y,z
-x,-y,z
-x,1/2+y,1/2+z
x,1/2-y,1/2+z
loop_
_atom_site_type_symbol
_atom_site_label
_atom_site_fract_x
_atom_site_fract_y
_atom_site_fract_z
Si Si1 0.933752 0.646715 0.563860
Si Si2 0.907610 0.877971 0.563860
Si Si3 0.570787 0.355425 0.715095
Si Si4 0.429213 0.644575 0.412626
Si Si5 0.241295 0.777580 0.563860
Si Si6 0.241493 0.446858 0.800126
Si Si7 0.241493 0.053142 0.827594
O O1 0.850192 0.759166 0.563860
O O2 0.123070 0.677449 0.563860
O O3 0.881230 0.587791 0.689457
O O4 0.881231 0.587792 0.438262
O O5 0.106243 0.865313 0.563860
O O6 0.841007 0.929046 0.436252
O O7 0.841006 0.929046 0.691467
O O8 0.538427 0.385933 0.563860
O O9 0.645131 0.241762 0.686905
O O10 0.399524 0.373496 0.784625
O O11 0.693936 0.439112 0.773897
O O12 0.600476 0.626504 0.343095
O O13 0.354869 0.741762 0.940815
O O14 0.306063 0.939112 0.853823
#
# Coordination Sequence:
#
# PCOD9341896 Si02
#       7
#     4   4   4   4   4   4   4
#     4  10  18  36  64  83 119 177 215 245 305 418
#     4  10  24  33  59 102 132 167 197 283 336 393
#     4   9  18  36  65  98 118 167 224 275 287 407
#     4   9  18  36  65  98 118 167 224 275 287 407
#     4   8  20  36  58  96 126 168 221 260 315 384
#     4  11  18  36  66  95 126 165 227 259 336 374
#     4  11  18  36  66  95 126 165 227 259 336 374
#
# _framework density 25.073063000000001
#
# number of rings (size 3 to 8) (size 9 to 14) (size 15 to 20)
#    1.714    0.571    2.857    1.714    0.000    4.571 
#    0.000    0.000   25.143    5.143    0.000    0.000 
#    0.000    2.286    0.000    0.000    0.000    0.000 
#
# Total GULP energy -156528.995481 kJ/mol
# GULP energy per Si atom -5590.321267 kJ/mol
# Density = 2.501600 g / cm^3
# Si number density = 25.073063 Si / 1000 Ang^3
#
#
#
# Elastic Constant Matrix: (Units=GPa)
#
#
# Indices 1 2 3 4 5 6 
#
# 1 136.1175 50.1610 57.5487 0.0000 0.0000 0.0000
# 2 50.1610 132.3246 58.3327 0.0000 0.0000 0.0000
# 3 57.5487 58.3327 193.2081 0.0000 0.0000 0.0000
# 4 0.0000 0.0000 0.0000 20.4482 0.0000 0.0000
# 5 0.0000 0.0000 0.0000 0.0000 43.7013 0.0000
# 6 0.0000 0.0000 0.0000 0.0000 0.0000 46.2448
#
#
#
# Elastic Compliance Matrix: (Units=1/GPa)
#
#
# Indices 1 2 3 4 5 6 
#
# 1 0.009124 -0.002608 -0.001930 0.000000 0.000000 0.000000
# 2 -0.002608 0.009463 -0.002080 0.000000 0.000000 0.000000
# 3 -0.001930 -0.002080 0.006379 0.000000 0.000000 0.000000
# 4 0.000000 0.000000 0.000000 0.048904 0.000000 0.000000
# 5 0.000000 0.000000 0.000000 0.000000 0.022883 0.000000
# 6 0.000000 0.000000 0.000000 0.000000 0.000000 0.021624
#
#
# Mechanical properties :
#
#
# Convention : Reuss Voigt Hill
#
# Bulk Modulus (GPa) = 85.25997 88.19277 86.72637
# Shear Modulus (GPa) = 36.89446 41.78604 39.34025
#
# Velocity S-wave (km/s) = 3.84015 4.08679 3.96539
# Velocity P-wave (km/s) = 7.33081 7.58418 7.45857
#
# Compressibility (1/GPa) = 0.01172883
#
# Stress axis : x y z
#
# Youngs Moduli (GPa) = 109.60554 105.67815 156.77006
#
# Poissons Ratio (x) = 0.27557 0.30261
# Poissons Ratio (y) = 0.28581 0.32612
# Poissons Ratio (z) = 0.21157 0.21984
#
# Static dielectric constant tensor:
#      x y z
#    x 1.959850 0.000000 0.000000 
#    y 0.000000 2.060120 0.000000 
#    z 0.000000 0.000000 1.974120 
# 
# From -- ./inp_files/2006.got.cif
#   From: 2010.05.17/outbox.cif.g08.bks.cpg/sg30_2_cif.got.tgz:2006.got - 2010.06.03 17:03:02.
