data_PCOD9341052
_publ_section_title
;
Structure prediction by ZEFSAII (Michael W. Deem and Ramdas Pophale) SiO2 
 PCOD9341052
Probable space group: P C A 21
;
_chemical_formula_sum "Si O2"
_cell_formula_units_Z 16
_cell_length_a 22.677197
_cell_length_b 5.172401
_cell_length_c 4.983686
_cell_angle_alpha 90.000000
_cell_angle_beta 90.000000
_cell_angle_gamma 90.000000
_cell_volume 584.564222
_symmetry_space_group_name_H-M "P C A 21"
_symmetry_group_IT_number 29
_symmetry_cell_setting 'orthorhombic'
loop_
_space_group_symop_operation_xyz
x,y,z
-x,-y,1/2+z
1/2-x,y,1/2+z
1/2+x,-y,z
loop_
_atom_site_type_symbol
_atom_site_label
_atom_site_fract_x
_atom_site_fract_y
_atom_site_fract_z
Si Si1 0.791146 0.350565 0.774540
Si Si2 0.865226 0.713197 0.041579
Si Si3 0.508195 0.668937 0.311799
Si Si4 0.382932 0.812830 0.394056
O O1 0.748010 0.293783 0.530654
O O2 0.852632 0.220596 0.682633
O O3 0.812971 0.643561 0.836715
O O4 0.872139 0.455535 0.229801
O O5 0.855015 0.950725 0.235903
O O6 0.926406 0.755254 0.884624
O O7 0.497622 0.419904 0.505703
O O8 0.453524 0.848640 0.394566
#
# Coordination Sequence:
#
# PCOD9341052 Si02
#       4
#     4   4   4   4
#     4  12  26  52  76 112 156 210 266 320 382 468
#     4  11  26  49  77 113 154 201 259 326 399 470
#     4  10  22  46  74 110 152 194 250 326 402 476
#     4  11  26  49  77 113 154 201 259 326 399 470
#
# _framework density 27.370818
#
# number of rings (size 3 to 8) (size 9 to 14) (size 15 to 20)
#    0.000    1.000    5.000    0.000    0.000   12.000 
#    0.000    0.000    0.000    0.000    0.000    0.000 
#    0.000    0.000    0.000    0.000    0.000    0.000 
#
# Total GULP energy -89739.622641 kJ/mol
# GULP energy per Si atom -5608.726415 kJ/mol
# Density = 2.730852 g / cm^3
# Si number density = 27.370818 Si / 1000 Ang^3
#
#
#
# Elastic Constant Matrix: (Units=GPa)
#
#
# Indices 1 2 3 4 5 6 
#
# 1 139.8829 29.4699 44.0822 0.0000 0.0000 0.0000
# 2 29.4699 144.3055 48.2272 0.0000 0.0000 0.0000
# 3 44.0822 48.2272 142.3308 0.0000 0.0000 0.0000
# 4 0.0000 0.0000 0.0000 46.4600 0.0000 0.0000
# 5 0.0000 0.0000 0.0000 0.0000 51.6819 0.0000
# 6 0.0000 0.0000 0.0000 0.0000 0.0000 31.9929
#
#
#
# Elastic Compliance Matrix: (Units=1/GPa)
#
#
# Indices 1 2 3 4 5 6 
#
# 1 0.008027 -0.000912 -0.002177 0.000000 0.000000 0.000000
# 2 -0.000912 0.007918 -0.002401 0.000000 0.000000 0.000000
# 3 -0.002177 -0.002401 0.008514 0.000000 0.000000 0.000000
# 4 0.000000 0.000000 0.000000 0.021524 0.000000 0.000000
# 5 0.000000 0.000000 0.000000 0.000000 0.019349 0.000000
# 6 0.000000 0.000000 0.000000 0.000000 0.000000 0.031257
#
#
# Mechanical properties :
#
#
# Convention : Reuss Voigt Hill
#
# Bulk Modulus (GPa) = 74.18463 74.45310 74.31887
# Shear Modulus (GPa) = 44.61851 46.34294 45.48072
#
# Velocity S-wave (km/s) = 4.04189 4.11926 4.08076
# Velocity P-wave (km/s) = 6.99606 7.06294 7.02958
#
# Compressibility (1/GPa) = 0.01347988
#
# Stress axis : x y z
#
# Youngs Moduli (GPa) = 124.57937 126.29100 117.45866
#
# Poissons Ratio (x) = 0.11513 0.25573
# Poissons Ratio (y) = 0.11357 0.28198
# Poissons Ratio (z) = 0.27123 0.30318
#
# Static dielectric constant tensor:
#      x y z
#    x 2.139530 0.000000 0.000000 
#    y 0.000000 2.141190 0.000000 
#    z 0.000000 0.000000 2.130720 
# 
# From -- ./inp_files/601.got.cif
#   From: 2010.05.17/outbox.cif.g08.bks.cpg/sg29_1_cif.got.tgz:601.got - 2010.06.04 01:19:37.
