data_PCOD9341619
_publ_section_title
;
Structure prediction by ZEFSAII (Michael W. Deem and Ramdas Pophale) SiO2 
 PCOD9341619
Probable space group: P C A 21
;
_chemical_formula_sum "Si O2"
_cell_formula_units_Z 20
_cell_length_a 10.263225
_cell_length_b 5.245497
_cell_length_c 13.959258
_cell_angle_alpha 90.000000
_cell_angle_beta 90.000000
_cell_angle_gamma 90.000000
_cell_volume 751.506649
_symmetry_space_group_name_H-M "P C A 21"
_symmetry_group_IT_number 29
_symmetry_cell_setting 'orthorhombic'
loop_
_space_group_symop_operation_xyz
x,y,z
-x,-y,1/2+z
1/2-x,y,1/2+z
1/2+x,-y,z
loop_
_atom_site_type_symbol
_atom_site_label
_atom_site_fract_x
_atom_site_fract_y
_atom_site_fract_z
Si Si1 0.944237 0.939453 0.963900
Si Si2 0.424224 0.008698 0.264244
Si Si3 0.053373 0.453040 0.045490
Si Si4 0.171788 0.704264 0.223025
Si Si5 0.761450 0.637746 0.373336
O O1 0.805581 0.892857 0.914404
O O2 0.038990 0.920227 0.871788
O O3 0.959933 0.694343 0.031122
O O4 0.977068 0.192969 0.022181
O O5 0.563104 0.072959 0.217626
O O6 0.352755 0.277345 0.285427
O O7 0.316222 0.826890 0.216726
O O8 0.129902 0.499355 0.143650
O O9 0.158945 0.471450 0.960831
O O10 0.162684 0.562576 0.326116
#
# Coordination Sequence:
#
# PCOD9341619 Si02
#       5
#     4   4   4   4   4
#     4  11  24  50  77 117 162 222 273 349 422 499
#     4  11  25  49  83 113 170 217 285 343 431 498
#     4  11  28  48  79 123 167 220 285 351 418 510
#     4  12  27  51  81 127 168 230 282 355 425 515
#     4  11  24  50  80 116 169 223 279 350 428 504
#
# _framework density 26.613204
#
# number of rings (size 3 to 8) (size 9 to 14) (size 15 to 20)
#    0.000    0.800    4.000    2.400    2.800    1.600 
#   10.800    2.000    0.000    0.000    0.000    0.000 
#    0.000    0.000    0.000    0.000    0.000    0.000 
#
# Total GULP energy -112007.275434 kJ/mol
# GULP energy per Si atom -5600.363772 kJ/mol
# Density = 2.655263 g / cm^3
# Si number density = 26.613204 Si / 1000 Ang^3
#
#
#
# Elastic Constant Matrix: (Units=GPa)
#
#
# Indices 1 2 3 4 5 6 
#
# 1 92.0229 40.4067 12.8192 0.0000 0.0000 0.0000
# 2 40.4067 159.4415 44.7780 0.0000 0.0000 0.0000
# 3 12.8192 44.7780 92.0972 0.0000 0.0000 0.0000
# 4 0.0000 0.0000 0.0000 43.3319 0.0000 0.0000
# 5 0.0000 0.0000 0.0000 0.0000 31.6391 0.0000
# 6 0.0000 0.0000 0.0000 0.0000 0.0000 41.2728
#
#
#
# Elastic Compliance Matrix: (Units=1/GPa)
#
#
# Indices 1 2 3 4 5 6 
#
# 1 0.012232 -0.003036 -0.000226 0.000000 0.000000 0.000000
# 2 -0.003036 0.008017 -0.003475 0.000000 0.000000 0.000000
# 3 -0.000226 -0.003475 0.012579 0.000000 0.000000 0.000000
# 4 0.000000 0.000000 0.000000 0.023078 0.000000 0.000000
# 5 0.000000 0.000000 0.000000 0.000000 0.031607 0.000000
# 6 0.000000 0.000000 0.000000 0.000000 0.000000 0.024229
#
#
# Mechanical properties :
#
#
# Convention : Reuss Voigt Hill
#
# Bulk Modulus (GPa) = 51.67337 59.95215 55.81276
# Shear Modulus (GPa) = 37.97418 39.61928 38.79673
#
# Velocity S-wave (km/s) = 3.78152 3.86256 3.82226
# Velocity P-wave (km/s) = 6.20686 6.51680 6.36372
#
# Compressibility (1/GPa) = 0.01935233
#
# Stress axis : x y z
#
# Youngs Moduli (GPa) = 81.75555 124.72842 79.49515
#
# Poissons Ratio (x) = 0.37871 0.01799
# Poissons Ratio (y) = 0.24823 0.27628
# Poissons Ratio (z) = 0.01850 0.43349
#
# Static dielectric constant tensor:
#      x y z
#    x 2.130980 0.000000 0.000000 
#    y 0.000000 2.091890 0.000000 
#    z 0.000000 0.000000 2.100690 
# 
# From -- ./inp_files/4372.got.cif
#   From: 2010.05.17/outbox.cif.g08.bks.cpg/sg29_3_cif.got.tgz:4372.got - 2010.06.04 01:19:37.
