data_PCOD9341700
_publ_section_title
;
Structure prediction by ZEFSAII (Michael W. Deem and Ramdas Pophale) SiO2 
 PCOD9341700
Probable space group: P C A 21
;
_chemical_formula_sum "Si O2"
_cell_formula_units_Z 24
_cell_length_a 8.513649
_cell_length_b 13.523836
_cell_length_c 8.580191
_cell_angle_alpha 90.000000
_cell_angle_beta 90.000000
_cell_angle_gamma 90.000000
_cell_volume 987.899106
_symmetry_space_group_name_H-M "P C A 21"
_symmetry_group_IT_number 29
_symmetry_cell_setting 'orthorhombic'
loop_
_space_group_symop_operation_xyz
x,y,z
-x,-y,1/2+z
1/2-x,y,1/2+z
1/2+x,-y,z
loop_
_atom_site_type_symbol
_atom_site_label
_atom_site_fract_x
_atom_site_fract_y
_atom_site_fract_z
Si Si1 0.397174 0.585428 0.348510
Si Si2 0.979762 0.091158 0.127603
Si Si3 0.248356 0.179867 0.781674
Si Si4 0.691718 0.529584 0.141997
Si Si5 0.085022 0.294553 0.549520
Si Si6 0.806675 0.035458 0.433895
O O1 0.555342 0.573204 0.249033
O O2 0.373818 0.497139 0.472634
O O3 0.256627 0.568948 0.227933
O O4 0.424320 0.679697 0.460019
O O5 0.112043 0.173462 0.152815
O O6 0.898427 0.086584 0.295129
O O7 0.078155 0.993411 0.076634
O O8 0.843334 0.093328 0.998986
O O9 0.094776 0.215849 0.689267
O O10 0.236248 0.071723 0.858758
O O11 0.302957 0.254290 0.913216
O O12 0.835484 0.605867 0.118390
#
# Coordination Sequence:
#
# PCOD9341700 Si02
#       6
#     4   4   4   4   4   4
#     4  12  23  43  72 103 135 187 241 283 349 429
#     4  12  23  43  72 103 134 187 238 278 339 421
#     4  12  24  42  70 102 136 181 225 293 355 406
#     4  12  23  43  73 100 136 187 243 288 342 434
#     4  12  24  42  70 102 137 177 229 288 361 408
#     4  12  23  43  73 100 138 183 244 278 332 430
#
# _framework density 24.293977000000002
#
# number of rings (size 3 to 8) (size 9 to 14) (size 15 to 20)
#    0.000    0.000   10.000    0.000    0.000    0.000 
#    0.000    1.667    0.000    0.000    0.000    0.000 
#    0.000    0.000    0.000    0.000    0.000    0.000 
#
# Total GULP energy -134109.444517 kJ/mol
# GULP energy per Si atom -5587.893522 kJ/mol
# Density = 2.423868 g / cm^3
# Si number density = 24.293977 Si / 1000 Ang^3
#
#
#
# Elastic Constant Matrix: (Units=GPa)
#
#
# Indices 1 2 3 4 5 6 
#
# 1 46.1511 6.0142 19.2304 0.0000 0.0000 0.0000
# 2 6.0142 50.3178 27.9201 0.0000 0.0000 0.0000
# 3 19.2304 27.9201 116.0005 0.0000 0.0000 0.0000
# 4 0.0000 0.0000 0.0000 29.3388 0.0000 0.0000
# 5 0.0000 0.0000 0.0000 0.0000 62.7309 0.0000
# 6 0.0000 0.0000 0.0000 0.0000 0.0000 30.3186
#
#
#
# Elastic Compliance Matrix: (Units=1/GPa)
#
#
# Indices 1 2 3 4 5 6 
#
# 1 0.023300 -0.000741 -0.003684 0.000000 0.000000 0.000000
# 2 -0.000741 0.022961 -0.005404 0.000000 0.000000 0.000000
# 3 -0.003684 -0.005404 0.010532 0.000000 0.000000 0.000000
# 4 0.000000 0.000000 0.000000 0.034085 0.000000 0.000000
# 5 0.000000 0.000000 0.000000 0.000000 0.015941 0.000000
# 6 0.000000 0.000000 0.000000 0.000000 0.000000 0.032983
#
#
# Mechanical properties :
#
#
# Convention : Reuss Voigt Hill
#
# Bulk Modulus (GPa) = 26.92857 35.42209 31.17533
# Shear Modulus (GPa) = 29.09747 35.09798 32.09773
#
# Velocity S-wave (km/s) = 3.46457 3.80507 3.63880
# Velocity P-wave (km/s) = 5.20700 5.82383 5.52403
#
# Compressibility (1/GPa) = 0.03713528
#
# Stress axis : x y z
#
# Youngs Moduli (GPa) = 42.91904 43.55301 94.94845
#
# Poissons Ratio (x) = 0.03225 0.34982
# Poissons Ratio (y) = 0.03178 0.51306
# Poissons Ratio (z) = 0.15813 0.23534
#
# Static dielectric constant tensor:
#      x y z
#    x 1.961740 0.000000 0.000000 
#    y 0.000000 1.971730 0.000000 
#    z 0.000000 0.000000 1.945740 
# 
# From -- ./inp_files/1158.got.cif
#   From: 2010.05.17/outbox.cif.g08.bks.cpg/sg29_1_cif.got.tgz:1158.got - 2010.06.04 01:19:37.
