data_PCOD9341553
_publ_section_title
;
Structure prediction by ZEFSAII (Michael W. Deem and Ramdas Pophale) SiO2 
 PCOD9341553
Probable space group: P C A 21
;
_chemical_formula_sum "Si O2"
_cell_formula_units_Z 24
_cell_length_a 8.109470
_cell_length_b 14.659679
_cell_length_c 7.855342
_cell_angle_alpha 90.000000
_cell_angle_beta 90.000000
_cell_angle_gamma 90.000000
_cell_volume 933.860551
_symmetry_space_group_name_H-M "P C A 21"
_symmetry_group_IT_number 29
_symmetry_cell_setting 'orthorhombic'
loop_
_space_group_symop_operation_xyz
x,y,z
-x,-y,1/2+z
1/2-x,y,1/2+z
1/2+x,-y,z
loop_
_atom_site_type_symbol
_atom_site_label
_atom_site_fract_x
_atom_site_fract_y
_atom_site_fract_z
Si Si1 0.509459 0.721099 0.136580
Si Si2 0.343977 0.230885 0.273451
Si Si3 0.495973 0.936198 0.642440
Si Si4 0.160566 0.557073 0.458571
Si Si5 0.493515 0.605797 0.598125
Si Si6 0.347647 0.890578 0.275555
O O1 0.662283 0.726562 0.265269
O O2 0.442356 0.623346 0.082831
O O3 0.370780 0.787877 0.210502
O O4 0.581929 0.762129 0.960811
O O5 0.354957 0.128549 0.203761
O O6 0.453961 0.293385 0.148781
O O7 0.428542 0.906667 0.459032
O O8 0.342935 0.917430 0.767927
O O9 0.555146 0.039464 0.653435
O O10 0.345894 0.594402 0.464471
O O11 0.080700 0.564491 0.273250
O O12 0.144246 0.455271 0.531167
#
# Coordination Sequence:
#
# PCOD9341553 Si02
#       6
#     4   4   4   4   4   4
#     4  11  24  42  64  93 126 164 207 255 308 366
#     4  11  24  42  64  93 126 164 207 255 308 366
#     4  12  25  43  66  93 126 164 206 255 308 367
#     4  11  24  41  64  92 126 164 207 256 309 367
#     4  11  24  41  64  92 126 164 207 256 309 367
#     4  12  25  43  66  93 126 164 206 255 308 367
#
# _framework density 25.699769
#
# number of rings (size 3 to 8) (size 9 to 14) (size 15 to 20)
#    0.000    0.667    0.000    8.000    0.000   10.667 
#    0.000    0.000    0.000    0.000    0.000    0.000 
#    0.000    0.000    0.000    0.000    0.000    0.000 
#
# Total GULP energy -134755.532799 kJ/mol
# GULP energy per Si atom -5614.813867 kJ/mol
# Density = 2.564127 g / cm^3
# Si number density = 25.699769 Si / 1000 Ang^3
#
#
#
# Elastic Constant Matrix: (Units=GPa)
#
#
# Indices 1 2 3 4 5 6 
#
# 1 78.0722 -2.3858 -20.0725 0.0000 0.0000 0.0000
# 2 -2.3858 79.8383 18.4750 0.0000 0.0000 0.0000
# 3 -20.0725 18.4750 116.0544 0.0000 0.0000 0.0000
# 4 0.0000 0.0000 0.0000 31.4958 0.0000 0.0000
# 5 0.0000 0.0000 0.0000 0.0000 27.3474 0.0000
# 6 0.0000 0.0000 0.0000 0.0000 0.0000 41.5163
#
#
#
# Elastic Compliance Matrix: (Units=1/GPa)
#
#
# Indices 1 2 3 4 5 6 
#
# 1 0.013406 -0.000141 0.002341 0.000000 0.000000 0.000000
# 2 -0.000141 0.013006 -0.002095 0.000000 0.000000 0.000000
# 3 0.002341 -0.002095 0.009355 0.000000 0.000000 0.000000
# 4 0.000000 0.000000 0.000000 0.031750 0.000000 0.000000
# 5 0.000000 0.000000 0.000000 0.000000 0.036566 0.000000
# 6 0.000000 0.000000 0.000000 0.000000 0.000000 0.024087
#
#
# Mechanical properties :
#
#
# Convention : Reuss Voigt Hill
#
# Bulk Modulus (GPa) = 27.79509 29.55536 28.67522
# Shear Modulus (GPa) = 35.72630 38.60180 37.16405
#
# Velocity S-wave (km/s) = 3.73250 3.87981 3.80687
# Velocity P-wave (km/s) = 5.42349 5.62101 5.52313
#
# Compressibility (1/GPa) = 0.03597758
#
# Stress axis : x y z
#
# Youngs Moduli (GPa) = 74.59199 76.88849 106.89405
#
# Poissons Ratio (x) = 0.01085 -0.25026
# Poissons Ratio (y) = 0.01053 0.22393
# Poissons Ratio (z) = -0.17463 0.16107
#
# Static dielectric constant tensor:
#      x y z
#    x 1.999580 0.000000 0.000000 
#    y 0.000000 1.913990 0.000000 
#    z 0.000000 0.000000 2.008380 
# 
# From -- ./inp_files/1141.got.cif
#   From: 2010.05.17/outbox.cif.g08.bks.cpg/sg29_1_cif.got.tgz:1141.got - 2010.06.04 01:19:37.
