data_PCOD9341676
_publ_section_title
;
Structure prediction by ZEFSAII (Michael W. Deem and Ramdas Pophale) SiO2 
 PCOD9341676
Probable space group: P C A 21
;
_chemical_formula_sum "Si O2"
_cell_formula_units_Z 28
_cell_length_a 11.424239
_cell_length_b 8.323839
_cell_length_c 11.494447
_cell_angle_alpha 90.000000
_cell_angle_beta 90.000000
_cell_angle_gamma 90.000000
_cell_volume 1093.047496
_symmetry_space_group_name_H-M "P C A 21"
_symmetry_group_IT_number 29
_symmetry_cell_setting 'orthorhombic'
loop_
_space_group_symop_operation_xyz
x,y,z
-x,-y,1/2+z
1/2-x,y,1/2+z
1/2+x,-y,z
loop_
_atom_site_type_symbol
_atom_site_label
_atom_site_fract_x
_atom_site_fract_y
_atom_site_fract_z
Si Si1 0.270860 0.047083 0.756150
Si Si2 0.971610 0.549197 0.704715
Si Si3 0.664245 0.222068 0.626942
Si Si4 0.856569 0.402092 0.502428
Si Si5 0.117119 0.326239 0.838291
Si Si6 0.062866 0.077452 0.031057
Si Si7 0.956332 0.807644 0.903256
O O1 0.181960 0.198487 0.756369
O O2 0.351529 0.053631 0.639587
O O3 0.341141 0.083933 0.876441
O O4 0.217523 0.868495 0.739382
O O5 0.091558 0.614264 0.647350
O O6 0.001217 0.389465 0.775787
O O7 0.868774 0.512128 0.616507
O O8 0.946533 0.696985 0.789639
O O9 0.762470 0.268510 0.534371
O O10 0.566710 0.096648 0.583645
O O11 0.824925 0.508811 0.389114
O O12 0.989011 0.327976 0.489966
O O13 0.090553 0.233562 0.956836
O O14 0.052137 0.941869 0.932571
#
# Coordination Sequence:
#
# PCOD9341676 Si02
#       7
#     4   4   4   4   4   4   4
#     4  12  28  48  79 113 158 204 264 326 398 475
#     4  11  26  49  75 113 155 196 269 324 388 481
#     4  12  27  48  79 107 159 204 255 333 395 456
#     4  11  26  50  76 113 155 210 260 331 402 464
#     4  11  28  45  81 109 153 206 257 321 406 464
#     4  12  27  52  71 118 155 199 269 328 380 494
#     4  11  26  48  75 109 155 201 262 317 399 474
#
# _framework density 25.616454999999998
#
# number of rings (size 3 to 8) (size 9 to 14) (size 15 to 20)
#    0.000    0.571    4.286    0.857   12.000    2.286 
#    0.000    0.000    0.000    0.000    0.000    0.000 
#    0.000    0.000    0.000    0.000    0.000    0.000 
#
# Total GULP energy -156114.175874 kJ/mol
# GULP energy per Si atom -5575.506281 kJ/mol
# Density = 2.555815 g / cm^3
# Si number density = 25.616455 Si / 1000 Ang^3
#
#
#
# Elastic Constant Matrix: (Units=GPa)
#
#
# Indices 1 2 3 4 5 6 
#
# 1 58.8710 20.4459 15.0853 0.0000 0.0000 0.0000
# 2 20.4459 93.9971 10.2980 0.0000 0.0000 0.0000
# 3 15.0853 10.2980 49.3540 0.0000 0.0000 0.0000
# 4 0.0000 0.0000 0.0000 41.6671 0.0000 0.0000
# 5 0.0000 0.0000 0.0000 0.0000 38.0938 0.0000
# 6 0.0000 0.0000 0.0000 0.0000 0.0000 28.3504
#
#
#
# Elastic Compliance Matrix: (Units=1/GPa)
#
#
# Indices 1 2 3 4 5 6 
#
# 1 0.019607 -0.003693 -0.005222 0.000000 0.000000 0.000000
# 2 -0.003693 0.011583 -0.001288 0.000000 0.000000 0.000000
# 3 -0.005222 -0.001288 0.022127 0.000000 0.000000 0.000000
# 4 0.000000 0.000000 0.000000 0.024000 0.000000 0.000000
# 5 0.000000 0.000000 0.000000 0.000000 0.026251 0.000000
# 6 0.000000 0.000000 0.000000 0.000000 0.000000 0.035273
#
#
# Mechanical properties :
#
#
# Convention : Reuss Voigt Hill
#
# Bulk Modulus (GPa) = 30.38578 32.65341 31.51960
# Shear Modulus (GPa) = 29.37425 32.04845 30.71135
#
# Velocity S-wave (km/s) = 3.38996 3.54091 3.46626
# Velocity P-wave (km/s) = 5.21632 5.43066 5.32457
#
# Compressibility (1/GPa) = 0.03291013
#
# Stress axis : x y z
#
# Youngs Moduli (GPa) = 51.00223 86.33364 45.19398
#
# Poissons Ratio (x) = 0.31880 0.23602
# Poissons Ratio (y) = 0.18834 0.05822
# Poissons Ratio (z) = 0.26636 0.11121
#
# Static dielectric constant tensor:
#      x y z
#    x 2.095860 0.000000 0.000000 
#    y 0.000000 2.074710 0.000000 
#    z 0.000000 0.000000 2.002610 
# 
# From -- ./inp_files/3157.got.cif
#   From: 2010.05.17/outbox.cif.g08.bks.cpg/sg29_2_cif.got.tgz:3157.got - 2010.06.04 01:19:37.
