data_PCOD9341775
_publ_section_title
;
Structure prediction by ZEFSAII (Michael W. Deem and Ramdas Pophale) SiO2 
 PCOD9341775
Probable space group: P C A 21
;
_chemical_formula_sum "Si O2"
_cell_formula_units_Z 28
_cell_length_a 27.000000
_cell_length_b 6.000000
_cell_length_c 9.000000
_cell_angle_alpha 90.000000
_cell_angle_beta 90.000000
_cell_angle_gamma 90.000000
_cell_volume 1458.000000
_symmetry_space_group_name_H-M "P C A 21"
_symmetry_group_IT_number 29
_symmetry_cell_setting 'orthorhombic'
loop_
_space_group_symop_operation_xyz
x,y,z
-x,-y,1/2+z
1/2-x,y,1/2+z
1/2+x,-y,z
loop_
_atom_site_type_symbol
_atom_site_label
_atom_site_fract_x
_atom_site_fract_y
_atom_site_fract_z
Si Si1 0.905857 0.615472 0.589880
Si Si2 0.206380 0.310179 0.178703
Si Si3 0.293620 0.689821 0.180002
Si Si4 0.905857 0.384528 0.268826
Si Si5 0.462581 0.000000 0.429353
Si Si6 0.500000 0.673232 0.679353
Si Si7 0.748686 0.000000 0.429353
O O1 0.851462 0.617390 0.666848
O O2 0.898413 0.500000 0.429353
O O3 0.950102 0.480303 0.674343
O O4 0.928449 0.857013 0.543770
O O5 0.250000 0.500000 0.179353
O O6 0.216062 0.159456 0.324131
O O7 0.218110 0.154613 0.036154
O O8 0.351462 0.617390 0.191858
O O9 0.281890 0.845387 0.322552
O O10 0.283938 0.840543 0.034574
O O11 0.928449 0.142987 0.314937
O O12 0.950102 0.519697 0.184364
O O13 0.494289 0.829640 0.532310
O O14 0.494289 0.170360 0.326396
#
# Coordination Sequence:
#
# PCOD9341775 Si02
#       7
#     4   4   4   4   4   4   4
#     4  10  21  39  64  88 118 163 204 246 304 359
#     4  11  22  42  63  90 126 159 202 252 299 361
#     4  11  22  42  63  90 126 159 202 252 299 361
#     4  10  21  39  64  88 118 163 204 246 304 359
#     4  10  21  42  63  86 122 160 200 254 302 360
#     4  10  22  40  64  92 118 160 208 246 304 362
#     4  10  23  38  63  94 120 162 204 242 308 362
#
# _framework density 19.20439
#
# number of rings (size 3 to 8) (size 9 to 14) (size 15 to 20)
#    0.000    1.714    0.000    4.286    0.000    6.857 
#    0.000   27.143    0.000    0.000    0.000    0.000 
#    0.000    0.000    0.000    0.000    0.000    0.000 
#
# Total GULP energy -156355.201195 kJ/mol
# GULP energy per Si atom -5584.114328 kJ/mol
# Density = 1.916068 g / cm^3
# Si number density = 19.204390 Si / 1000 Ang^3
#
#
#
# Elastic Constant Matrix: (Units=GPa)
#
#
# Indices 1 2 3 4 5 6 
#
# 1 208.7729 77.7355 61.5988 0.0000 0.0000 0.0000
# 2 77.7355 120.5727 42.8894 0.0000 0.0000 0.0000
# 3 61.5988 42.8894 94.2449 0.0000 0.0000 0.0000
# 4 0.0000 0.0000 0.0000 42.3306 0.0000 0.0000
# 5 0.0000 0.0000 0.0000 0.0000 30.5811 0.0000
# 6 0.0000 0.0000 0.0000 0.0000 0.0000 29.4234
#
#
#
# Elastic Compliance Matrix: (Units=1/GPa)
#
#
# Indices 1 2 3 4 5 6 
#
# 1 0.006941 -0.003414 -0.002983 0.000000 0.000000 0.000000
# 2 -0.003414 0.011575 -0.003036 0.000000 0.000000 0.000000
# 3 -0.002983 -0.003036 0.013942 0.000000 0.000000 0.000000
# 4 0.000000 0.000000 0.000000 0.023624 0.000000 0.000000
# 5 0.000000 0.000000 0.000000 0.000000 0.032700 0.000000
# 6 0.000000 0.000000 0.000000 0.000000 0.000000 0.033987
#
#
# Mechanical properties :
#
#
# Convention : Reuss Voigt Hill
#
# Bulk Modulus (GPa) = 73.57460 87.55976 80.56718
# Shear Modulus (GPa) = 34.20779 36.55813 35.38296
#
# Velocity S-wave (km/s) = 4.22506 4.36780 4.29702
# Velocity P-wave (km/s) = 7.88645 8.43383 8.16473
#
# Compressibility (1/GPa) = 0.01359165
#
# Stress axis : x y z
#
# Youngs Moduli (GPa) = 144.06579 86.39446 71.72486
#
# Poissons Ratio (x) = 0.29495 0.21397
# Poissons Ratio (y) = 0.49184 0.21777
# Poissons Ratio (z) = 0.42977 0.26230
#
# Static dielectric constant tensor:
#      x y z
#    x 1.646490 0.000000 0.000000 
#    y 0.000000 1.730070 0.000000 
#    z 0.000000 0.000000 1.667160 
# 
# From -- ./inp_files/2417.got.cif
#   From: 2010.05.17/outbox.ucp.g08.bks.cvg/sg29_2_cif.got.tgz:2417.got - 2010.06.11 15:24:14.
