data_PCOD9341975
_publ_section_title
;
Structure prediction by ZEFSAII (Michael W. Deem and Ramdas Pophale) SiO2 
 PCOD9341975
Probable space group: P N C 2
;
_chemical_formula_sum "Si O2"
_cell_formula_units_Z 30
_cell_length_a 12.137553
_cell_length_b 15.676540
_cell_length_c 8.227951
_cell_angle_alpha 90.000000
_cell_angle_beta 90.000000
_cell_angle_gamma 90.000000
_cell_volume 1565.572020
_symmetry_space_group_name_H-M "P N C 2"
_symmetry_group_IT_number 30
_symmetry_cell_setting 'orthorhombic'
loop_
_space_group_symop_operation_xyz
x,y,z
-x,-y,z
-x,1/2+y,1/2+z
x,1/2-y,1/2+z
loop_
_atom_site_type_symbol
_atom_site_label
_atom_site_fract_x
_atom_site_fract_y
_atom_site_fract_z
Si Si1 0.681206 0.854259 0.521640
Si Si2 0.812537 0.156964 0.912858
Si Si3 0.206086 0.298869 0.694935
Si Si4 0.000000 0.500000 0.162862
Si Si5 0.933608 0.841658 0.889933
Si Si6 0.771334 0.024318 0.639055
Si Si7 0.324841 0.709934 0.698281
Si Si8 0.425295 0.637528 0.997975
O O1 0.706014 0.762811 0.603975
O O2 0.734280 0.850260 0.340490
O O3 0.553318 0.879479 0.521738
O O4 0.740811 0.925748 0.629225
O O5 0.790657 0.071111 0.810849
O O6 0.756493 0.232809 0.808718
O O7 0.940227 0.177872 0.938364
O O8 0.748803 0.153757 0.080757
O O9 0.119394 0.234820 0.783912
O O10 0.141697 0.349391 0.551905
O O11 0.048361 0.425288 0.277923
O O12 0.105589 0.533473 0.062651
O O13 0.668222 0.071942 0.557103
O O14 0.402608 0.654630 0.810351
O O15 0.396755 0.775685 0.594063
#
# Coordination Sequence:
#
# PCOD9341975 Si02
#       8
#     4   4   4   2   4   4   4   4
#     4  11  21  40  57  85 116 154 201 239 291 347
#     4   9  18  33  60  84 121 151 185 242 290 351
#     4  10  22  36  61  86 115 155 202 237 292 355
#     4  10  20  40  60  84 122 150 194 246 296 358
#     4  10  19  37  58  85 120 153 191 240 292 352
#     4  10  21  38  58  83 117 157 189 241 299 344
#     4   9  18  35  55  93 111 146 199 232 294 342
#     4  10  20  36  62  81 122 153 195 243 288 343
#
# _framework density 19.162324000000002
#
# number of rings (size 3 to 8) (size 9 to 14) (size 15 to 20)
#    0.000    2.133    1.333    2.000    0.000    1.067 
#    7.200    0.000    0.000    0.000    0.000    0.000 
#    0.000    0.000    0.000    0.000    0.000    0.000 
#
# Total GULP energy -167157.282185 kJ/mol
# GULP energy per Si atom -5571.909406 kJ/mol
# Density = 1.911871 g / cm^3
# Si number density = 19.162324 Si / 1000 Ang^3
#
#
#
# Elastic Constant Matrix: (Units=GPa)
#
#
# Indices 1 2 3 4 5 6 
#
# 1 168.9577 34.1649 40.2428 0.0000 0.0000 0.0000
# 2 34.1649 43.5631 0.9005 0.0000 0.0000 0.0000
# 3 40.2428 0.9005 50.3412 0.0000 0.0000 0.0000
# 4 0.0000 0.0000 0.0000 10.9230 0.0000 0.0000
# 5 0.0000 0.0000 0.0000 0.0000 31.6195 0.0000
# 6 0.0000 0.0000 0.0000 0.0000 0.0000 27.8322
#
#
#
# Elastic Compliance Matrix: (Units=1/GPa)
#
#
# Indices 1 2 3 4 5 6 
#
# 1 0.009001 -0.006913 -0.007072 0.000000 0.000000 0.000000
# 2 -0.006913 0.028273 0.005020 0.000000 0.000000 0.000000
# 3 -0.007072 0.005020 0.025428 0.000000 0.000000 0.000000
# 4 0.000000 0.000000 0.000000 0.091550 0.000000 0.000000
# 5 0.000000 0.000000 0.000000 0.000000 0.031626 0.000000
# 6 0.000000 0.000000 0.000000 0.000000 0.000000 0.035930
#
#
# Mechanical properties :
#
#
# Convention : Reuss Voigt Hill
#
# Bulk Modulus (GPa) = 22.33475 45.94206 34.13841
# Shear Modulus (GPa) = 19.63407 26.57853 23.10630
#
# Velocity S-wave (km/s) = 3.20444 3.72831 3.47626
# Velocity P-wave (km/s) = 5.03707 6.52388 5.82808
#
# Compressibility (1/GPa) = 0.04477327
#
# Stress axis : x y z
#
# Youngs Moduli (GPa) = 111.10105 35.36955 39.32721
#
# Poissons Ratio (x) = 0.24450 0.27811
# Poissons Ratio (y) = 0.76802 -0.19744
# Poissons Ratio (z) = 0.78566 -0.17757
#
# Static dielectric constant tensor:
#      x y z
#    x 1.690710 0.000000 0.000000 
#    y 0.000000 1.690780 0.000000 
#    z 0.000000 0.000000 1.670670 
# 
# From -- ./inp_files/2455.got.cif
#   From: 2010.05.17/outbox.cif.g08.bks.cpg/sg30_2_cif.got.tgz:2455.got - 2010.06.03 17:03:02.
