data_PCOD9341849
_publ_section_title
;
Structure prediction by ZEFSAII (Michael W. Deem and Ramdas Pophale) SiO2 
 PCOD9341849
Probable space group: P N C 2
;
_chemical_formula_sum "Si O2"
_cell_formula_units_Z 32
_cell_length_a 9.446015
_cell_length_b 7.075287
_cell_length_c 18.972038
_cell_angle_alpha 90.000000
_cell_angle_beta 90.000000
_cell_angle_gamma 90.000000
_cell_volume 1267.963284
_symmetry_space_group_name_H-M "P N C 2"
_symmetry_group_IT_number 30
_symmetry_cell_setting 'orthorhombic'
loop_
_space_group_symop_operation_xyz
x,y,z
-x,-y,z
-x,1/2+y,1/2+z
x,1/2-y,1/2+z
loop_
_atom_site_type_symbol
_atom_site_label
_atom_site_fract_x
_atom_site_fract_y
_atom_site_fract_z
Si Si1 0.201087 0.357082 0.695780
Si Si2 0.941879 0.249154 0.603133
Si Si3 0.693640 0.808440 0.346914
Si Si4 0.693156 0.254193 0.009687
Si Si5 0.523080 0.723914 0.622643
Si Si6 0.368076 0.736184 0.355168
Si Si7 0.873123 0.886616 0.470709
Si Si8 0.738086 0.308351 0.209822
O O1 0.053577 0.329351 0.658180
O O2 0.223390 0.277414 0.774177
O O3 0.317594 0.256595 0.646269
O O4 0.229269 0.581828 0.705420
O O5 0.041463 0.198293 0.536529
O O6 0.807385 0.346713 0.561490
O O7 0.853462 0.108921 0.655602
O O8 0.537325 0.718209 0.345586
O O9 0.788533 0.761553 0.415052
O O10 0.663823 0.036659 0.352498
O O11 0.539897 0.267519 0.045977
O O12 0.762068 0.460909 0.000798
O O13 0.677175 0.170129 0.932449
O O14 0.500000 0.500000 0.631454
O O15 0.415714 0.826498 0.675202
O O16 0.278988 0.645954 0.291598
O O17 0.000000 0.000000 0.430563
#
# Coordination Sequence:
#
# PCOD9341849 Si02
#       8
#     4   4   4   4   4   4   4   4
#     4  10  18  29  49  78 108 127 166 221 272 322
#     4  10  20  30  45  75 105 138 171 212 267 324
#     4   9  17  29  50  77 106 130 165 224 275 316
#     4   9  19  33  51  73 103 145 174 210 272 321
#     4   9  17  31  50  77 104 136 168 212 263 319
#     4   9  16  30  52  77 100 133 172 216 270 325
#     4   9  19  34  48  74 111 138 178 219 272 330
#     4   9  17  32  51  73 104 134 172 213 273 328
#
# _framework density 25.237323
#
# number of rings (size 3 to 8) (size 9 to 14) (size 15 to 20)
#    0.000    2.750    1.250    0.375    1.750    4.000 
#    0.000    0.000    0.000    0.000   13.000   15.750 
#    0.000    0.000    0.000    0.000    0.000    0.000 
#
# Total GULP energy -178643.502737 kJ/mol
# GULP energy per Si atom -5582.609461 kJ/mol
# Density = 2.517988 g / cm^3
# Si number density = 25.237323 Si / 1000 Ang^3
#
#
#
# Elastic Constant Matrix: (Units=GPa)
#
#
# Indices 1 2 3 4 5 6 
#
# 1 173.0562 30.8394 102.7252 0.0000 0.0000 0.0000
# 2 30.8394 74.7071 15.9717 0.0000 0.0000 0.0000
# 3 102.7252 15.9717 246.1909 0.0000 0.0000 0.0000
# 4 0.0000 0.0000 0.0000 0.9485 0.0000 0.0000
# 5 0.0000 0.0000 0.0000 0.0000 34.3226 0.0000
# 6 0.0000 0.0000 0.0000 0.0000 0.0000 30.8970
#
#
#
# Elastic Compliance Matrix: (Units=1/GPa)
#
#
# Indices 1 2 3 4 5 6 
#
# 1 0.008179 -0.002684 -0.003239 0.000000 0.000000 0.000000
# 2 -0.002684 0.014455 0.000182 0.000000 0.000000 0.000000
# 3 -0.003239 0.000182 0.005401 0.000000 0.000000 0.000000
# 4 0.000000 0.000000 0.000000 1.054340 0.000000 0.000000
# 5 0.000000 0.000000 0.000000 0.000000 0.029135 0.000000
# 6 0.000000 0.000000 0.000000 0.000000 0.000000 0.032366
#
#
# Mechanical properties :
#
#
# Convention : Reuss Voigt Hill
#
# Bulk Modulus (GPa) = 60.40763 88.11408 74.26085
# Shear Modulus (GPa) = 4.30709 36.19481 20.25095
#
# Velocity S-wave (km/s) = 1.30780 3.79116 2.83578
# Velocity P-wave (km/s) = 5.12526 7.35893 6.34122
#
# Compressibility (1/GPa) = 0.01655420
#
# Stress axis : x y z
#
# Youngs Moduli (GPa) = 122.26021 69.18201 185.13508
#
# Poissons Ratio (x) = 0.18569 0.59961
# Poissons Ratio (y) = 0.32815 -0.03373
# Poissons Ratio (z) = 0.39597 -0.01260
#
# Static dielectric constant tensor:
#      x y z
#    x 1.946510 0.000000 0.000000 
#    y 0.000000 2.263150 0.000000 
#    z 0.000000 0.000000 1.994890 
# 
# From -- ./inp_files/6466.got.cif
#   From: 2010.05.17/outbox.cif.g08.bks.cpg/sg30_4_cif.got.tgz:6466.got - 2010.06.03 17:03:02.
