data_PCOD9341680
_publ_section_title
;
Structure prediction by ZEFSAII (Michael W. Deem and Ramdas Pophale) SiO2 
 PCOD9341680
Probable space group: P C A 21
;
_chemical_formula_sum "Si O2"
_cell_formula_units_Z 20
_cell_length_a 9.357933
_cell_length_b 9.168188
_cell_length_c 9.436539
_cell_angle_alpha 90.000000
_cell_angle_beta 90.000000
_cell_angle_gamma 90.000000
_cell_volume 809.610591
_symmetry_space_group_name_H-M "P C A 21"
_symmetry_group_IT_number 29
_symmetry_cell_setting 'orthorhombic'
loop_
_space_group_symop_operation_xyz
x,y,z
-x,-y,1/2+z
1/2-x,y,1/2+z
1/2+x,-y,z
loop_
_atom_site_type_symbol
_atom_site_label
_atom_site_fract_x
_atom_site_fract_y
_atom_site_fract_z
Si Si1 0.069573 0.550542 0.531350
Si Si2 0.198597 0.772891 0.984998
Si Si3 0.619800 0.662499 0.782932
Si Si4 0.598294 0.090358 0.270407
Si Si5 0.937934 0.754841 0.772095
O O1 0.220566 0.618994 0.485939
O O2 0.093798 0.408209 0.627791
O O3 0.969008 0.563072 0.393595
O O4 0.001670 0.666536 0.641093
O O5 0.304901 0.885897 0.908281
O O6 0.053023 0.764644 0.897544
O O7 0.173383 0.822182 0.144141
O O8 0.550009 0.823594 0.791804
O O9 0.787557 0.679988 0.812210
O O10 0.586429 0.922876 0.230590
#
# Coordination Sequence:
#
# PCOD9341680 Si02
#       5
#     4   4   4   4   4
#     4  11  29  53  74 118 162 212 263 328 399 472
#     4  11  26  51  77 113 161 203 262 331 397 471
#     4  11  30  51  82 117 160 213 265 325 401 477
#     4  11  27  49  81 117 159 207 262 340 394 473
#     4  12  28  48  84 115 158 209 274 322 405 473
#
# _framework density 24.703233000000001
#
# number of rings (size 3 to 8) (size 9 to 14) (size 15 to 20)
#    0.000    0.800    2.000    1.200   16.800    0.000 
#    0.000    4.000    0.000    0.000    0.000    0.000 
#    0.000    0.000    0.000    0.000    0.000    0.000 
#
# Total GULP energy -112215.680596 kJ/mol
# GULP energy per Si atom -5610.784030 kJ/mol
# Density = 2.464701 g / cm^3
# Si number density = 24.703233 Si / 1000 Ang^3
#
#
#
# Elastic Constant Matrix: (Units=GPa)
#
#
# Indices 1 2 3 4 5 6 
#
# 1 153.1341 21.6731 20.5547 0.0000 0.0000 0.0000
# 2 21.6731 99.4396 -21.8743 0.0000 0.0000 0.0000
# 3 20.5547 -21.8743 41.4689 0.0000 0.0000 0.0000
# 4 0.0000 0.0000 0.0000 22.6189 0.0000 0.0000
# 5 0.0000 0.0000 0.0000 0.0000 40.0542 0.0000
# 6 0.0000 0.0000 0.0000 0.0000 0.0000 33.6082
#
#
#
# Elastic Compliance Matrix: (Units=1/GPa)
#
#
# Indices 1 2 3 4 5 6 
#
# 1 0.007638 -0.002825 -0.005276 0.000000 0.000000 0.000000
# 2 -0.002825 0.012422 0.007953 0.000000 0.000000 0.000000
# 3 -0.005276 0.007953 0.030925 0.000000 0.000000 0.000000
# 4 0.000000 0.000000 0.000000 0.044211 0.000000 0.000000
# 5 0.000000 0.000000 0.000000 0.000000 0.024966 0.000000
# 6 0.000000 0.000000 0.000000 0.000000 0.000000 0.029755
#
#
# Mechanical properties :
#
#
# Convention : Reuss Voigt Hill
#
# Bulk Modulus (GPa) = 19.72923 37.19439 28.46181
# Shear Modulus (GPa) = 29.92037 37.50221 33.71129
#
# Velocity S-wave (km/s) = 3.48399 3.90052 3.69813
# Velocity P-wave (km/s) = 4.91814 5.94765 5.45723
#
# Compressibility (1/GPa) = 0.05068622
#
# Stress axis : x y z
#
# Youngs Moduli (GPa) = 130.91807 80.50500 32.33653
#
# Poissons Ratio (x) = 0.22747 0.17062
# Poissons Ratio (y) = 0.36991 -0.25716
# Poissons Ratio (z) = 0.69079 -0.64023
#
# Static dielectric constant tensor:
#      x y z
#    x 1.945550 0.000000 0.000000 
#    y 0.000000 1.965810 0.000000 
#    z 0.000000 0.000000 1.890320 
# 
# From -- ./inp_files/1050.got.cif
#   From: 2010.05.17/outbox.cif.g08.bks.cpg/sg29_1_cif.got.tgz:1050.got - 2010.06.04 01:19:37.
