data_PCOD9341067
_publ_section_title
;
Structure prediction by ZEFSAII (Michael W. Deem and Ramdas Pophale) SiO2 
 PCOD9341067
Probable space group: P C A 21
;
_chemical_formula_sum "Si O2"
_cell_formula_units_Z 28
_cell_length_a 5.154484
_cell_length_b 16.141481
_cell_length_c 14.836227
_cell_angle_alpha 90.000000
_cell_angle_beta 90.000000
_cell_angle_gamma 90.000000
_cell_volume 1234.389005
_symmetry_space_group_name_H-M "P C A 21"
_symmetry_group_IT_number 29
_symmetry_cell_setting 'orthorhombic'
loop_
_space_group_symop_operation_xyz
x,y,z
-x,-y,1/2+z
1/2-x,y,1/2+z
1/2+x,-y,z
loop_
_atom_site_type_symbol
_atom_site_label
_atom_site_fract_x
_atom_site_fract_y
_atom_site_fract_z
Si Si1 0.964017 0.957761 0.911160
Si Si2 0.690181 0.213119 0.629798
Si Si3 0.923615 0.027287 0.111723
Si Si4 0.179192 0.317670 0.885207
Si Si5 0.318529 0.316147 0.084579
Si Si6 0.977366 0.553377 0.234576
Si Si7 0.685939 0.214249 0.841154
O O1 0.082374 0.870137 0.885089
O O2 0.672773 0.974039 0.879080
O O3 0.947617 0.972982 0.019836
O O4 0.611873 0.123376 0.592667
O O5 0.441803 0.272488 0.620743
O O6 0.751387 0.202530 0.735766
O O7 0.944162 0.250613 0.582552
O O8 0.684237 0.989785 0.164320
O O9 0.080590 0.390949 0.821759
O O10 0.442386 0.277023 0.847080
O O11 0.943530 0.251207 0.887566
O O12 0.249414 0.346427 0.985162
O O13 0.414191 0.388644 0.149589
O O14 0.771404 0.478457 0.233532
#
# Coordination Sequence:
#
# PCOD9341067 Si02
#       7
#     4   4   4   4   4   4   4
#     4  10  23  38  60  96 139 186 245 296 370 398
#     4  12  24  45  72 101 151 196 251 310 361 442
#     4  10  23  38  60  96 139 186 245 296 370 398
#     4  12  27  46  76 113 143 195 247 291 378 450
#     4  12  27  46  76 113 143 195 247 291 378 450
#     4  12  26  50  80 110 154 180 232 314 372 448
#     4  12  24  45  72 101 151 196 251 310 361 442
#
# _framework density 22.683287
#
# number of rings (size 3 to 8) (size 9 to 14) (size 15 to 20)
#    0.000    0.571    2.857    4.286   12.000    2.286 
#    0.000    0.000    0.000    0.000    0.000    0.000 
#    0.000    0.000    0.000    0.000    0.000    0.000 
#
# Total GULP energy -156779.921380 kJ/mol
# GULP energy per Si atom -5599.282906 kJ/mol
# Density = 2.263166 g / cm^3
# Si number density = 22.683287 Si / 1000 Ang^3
#
#
#
# Elastic Constant Matrix: (Units=GPa)
#
#
# Indices 1 2 3 4 5 6 
#
# 1 123.9409 -6.7815 -15.9582 0.0000 0.0000 0.0000
# 2 -6.7815 61.8511 11.5618 0.0000 0.0000 0.0000
# 3 -15.9582 11.5618 75.2200 0.0000 0.0000 0.0000
# 4 0.0000 0.0000 0.0000 21.3761 0.0000 0.0000
# 5 0.0000 0.0000 0.0000 0.0000 19.0217 0.0000
# 6 0.0000 0.0000 0.0000 0.0000 0.0000 49.2887
#
#
#
# Elastic Compliance Matrix: (Units=1/GPa)
#
#
# Indices 1 2 3 4 5 6 
#
# 1 0.008316 0.000599 0.001672 0.000000 0.000000 0.000000
# 2 0.000599 0.016689 -0.002438 0.000000 0.000000 0.000000
# 3 0.001672 -0.002438 0.014024 0.000000 0.000000 0.000000
# 4 0.000000 0.000000 0.000000 0.046781 0.000000 0.000000
# 5 0.000000 0.000000 0.000000 0.000000 0.052571 0.000000
# 6 0.000000 0.000000 0.000000 0.000000 0.000000 0.020289
#
#
# Mechanical properties :
#
#
# Convention : Reuss Voigt Hill
#
# Bulk Modulus (GPa) = 25.84221 26.51738 26.17979
# Shear Modulus (GPa) = 29.08617 36.08330 32.58473
#
# Velocity S-wave (km/s) = 3.58477 3.99274 3.79424
# Velocity P-wave (km/s) = 5.34336 5.74209 5.54631
#
# Compressibility (1/GPa) = 0.03869638
#
# Stress axis : x y z
#
# Youngs Moduli (GPa) = 120.24347 59.91856 71.30699
#
# Poissons Ratio (x) = -0.03591 -0.11924
# Poissons Ratio (y) = -0.07205 0.17386
# Poissons Ratio (z) = -0.20108 0.14609
#
# Static dielectric constant tensor:
#      x y z
#    x 1.921310 0.000000 0.000000 
#    y 0.000000 1.815980 0.000000 
#    z 0.000000 0.000000 1.855280 
# 
# From -- ./inp_files/4084.got.cif
#   From: 2010.05.17/outbox.cif.g08.bks.cpg/sg29_3_cif.got.tgz:4084.got - 2010.06.04 01:19:37.
