data_PCOD9341508
_publ_section_title
;
Structure prediction by ZEFSAII (Michael W. Deem and Ramdas Pophale) SiO2 
 PCOD9341508
Probable space group: P C A 21
;
_chemical_formula_sum "Si O2"
_cell_formula_units_Z 32
_cell_length_a 17.719659
_cell_length_b 6.774040
_cell_length_c 13.448840
_cell_angle_alpha 90.000000
_cell_angle_beta 90.000000
_cell_angle_gamma 90.000000
_cell_volume 1614.313741
_symmetry_space_group_name_H-M "P C A 21"
_symmetry_group_IT_number 29
_symmetry_cell_setting 'orthorhombic'
loop_
_space_group_symop_operation_xyz
x,y,z
-x,-y,1/2+z
1/2-x,y,1/2+z
1/2+x,-y,z
loop_
_atom_site_type_symbol
_atom_site_label
_atom_site_fract_x
_atom_site_fract_y
_atom_site_fract_z
Si Si1 0.578652 0.200213 0.676520
Si Si2 0.984795 0.552799 0.299207
Si Si3 0.084183 0.506645 0.494810
Si Si4 0.503733 0.195340 0.117184
Si Si5 0.338216 0.949219 0.545369
Si Si6 0.241816 0.644877 0.415858
Si Si7 0.255596 0.935654 0.240691
Si Si8 0.665367 0.739527 0.872613
O O1 0.547802 0.342319 0.763332
O O2 0.568786 0.321769 0.574722
O O3 0.666529 0.153801 0.696287
O O4 0.531815 0.000570 0.664444
O O5 0.915896 0.699000 0.325179
O O6 0.035445 0.529796 0.395716
O O7 0.025415 0.652458 0.204879
O O8 0.170624 0.535563 0.464066
O O9 0.058966 0.305244 0.549457
O O10 0.578164 0.139070 0.056245
O O11 0.283635 0.792214 0.491393
O O12 0.302586 0.985821 0.653626
O O13 0.340897 0.142157 0.475985
O O14 0.222513 0.777864 0.319423
O O15 0.298970 0.473810 0.386257
O O16 0.282690 0.127900 0.301059
#
# Coordination Sequence:
#
# PCOD9341508 Si02
#       8
#     4   4   4   4   4   4   4   4
#     4  11  23  42  66  94 131 174 209 274 325 386
#     4  11  23  43  65  95 133 168 217 267 335 385
#     4  11  25  41  68  98 128 175 220 270 326 400
#     4  11  25  41  67  97 132 173 218 271 330 390
#     4  11  25  43  67  98 131 174 222 271 324 399
#     4  11  24  42  66  95 132 171 220 273 327 387
#     4  11  23  42  67  93 134 171 218 270 330 383
#     4  11  24  40  68  96 127 176 214 270 329 390
#
# _framework density 19.822665000000001
#
# number of rings (size 3 to 8) (size 9 to 14) (size 15 to 20)
#    0.000    1.000    3.750    2.250    3.500    4.000 
#    0.000    0.000    0.000    0.000    0.000    0.000 
#    0.000    0.000    0.000    0.000    0.000    0.000 
#
# Total GULP energy -178892.530206 kJ/mol
# GULP energy per Si atom -5590.391569 kJ/mol
# Density = 1.977755 g / cm^3
# Si number density = 19.822665 Si / 1000 Ang^3
#
#
#
# Elastic Constant Matrix: (Units=GPa)
#
#
# Indices 1 2 3 4 5 6 
#
# 1 52.1886 -0.6942 16.8615 0.0000 0.0000 0.0000
# 2 -0.6942 43.4567 22.5009 0.0000 0.0000 0.0000
# 3 16.8615 22.5009 95.6347 0.0000 0.0000 0.0000
# 4 0.0000 0.0000 0.0000 18.7922 0.0000 0.0000
# 5 0.0000 0.0000 0.0000 0.0000 40.6648 0.0000
# 6 0.0000 0.0000 0.0000 0.0000 0.0000 -3.9643
#
#
#
# Elastic Compliance Matrix: (Units=1/GPa)
#
#
# Indices 1 2 3 4 5 6 
#
# 1 0.020557 0.002511 -0.004215 0.000000 0.000000 0.000000
# 2 0.002511 0.026510 -0.006680 0.000000 0.000000 0.000000
# 3 -0.004215 -0.006680 0.012771 0.000000 0.000000 0.000000
# 4 0.000000 0.000000 0.000000 0.053213 0.000000 0.000000
# 5 0.000000 0.000000 0.000000 0.000000 0.024591 0.000000
# 6 0.000000 0.000000 0.000000 0.000000 0.000000 -0.252249
#
#
# Mechanical properties :
#
#
# Convention : Reuss Voigt Hill
#
# Bulk Modulus (GPa) = 23.21824 29.84626 26.53225
# Shear Modulus (GPa) = -59.89397 21.27266 -19.31066
#
# Velocity S-wave (km/s) = -5.50277 3.27945 -3.12456
# Velocity P-wave (km/s) = 5.35122 5.42485 0.62986
#
# Compressibility (1/GPa) = 0.04306959
#
# Stress axis : x y z
#
# Youngs Moduli (GPa) = 48.64632 37.72121 78.30050
#
# Poissons Ratio (x) = -0.09471 0.33004
# Poissons Ratio (y) = -0.12214 0.52305
# Poissons Ratio (z) = 0.20505 0.25198
#
# Static dielectric constant tensor:
#      x y z
#    x 1.676080 0.000000 0.000000 
#    y 0.000000 1.668350 0.000000 
#    z 0.000000 0.000000 1.696580 
# 
# From -- ./inp_files/3806.got.cif
#   From: 2010.05.17/outbox.cif.g08.bks.cpg/sg29_2_cif.got.tgz:3806.got - 2010.06.04 01:19:37.
