data_PCOD9341499
_publ_section_title
;
Structure prediction by ZEFSAII (Michael W. Deem and Ramdas Pophale) SiO2 
 PCOD9341499
Probable space group: P C A 21
;
_chemical_formula_sum "Si O2"
_cell_formula_units_Z 32
_cell_length_a 11.558552
_cell_length_b 14.700161
_cell_length_c 8.502707
_cell_angle_alpha 90.000000
_cell_angle_beta 90.000000
_cell_angle_gamma 90.000000
_cell_volume 1444.716844
_symmetry_space_group_name_H-M "P C A 21"
_symmetry_group_IT_number 29
_symmetry_cell_setting 'orthorhombic'
loop_
_space_group_symop_operation_xyz
x,y,z
-x,-y,1/2+z
1/2-x,y,1/2+z
1/2+x,-y,z
loop_
_atom_site_type_symbol
_atom_site_label
_atom_site_fract_x
_atom_site_fract_y
_atom_site_fract_z
Si Si1 0.595502 0.953051 0.876700
Si Si2 0.691678 0.836502 0.377663
Si Si3 0.612058 0.996695 0.219350
Si Si4 0.115708 0.755305 0.494094
Si Si5 0.865950 0.453739 0.898569
Si Si6 0.793316 0.134096 0.276732
Si Si7 0.379530 0.482642 0.545161
Si Si8 0.135075 0.267036 0.081643
O O1 0.487722 0.936067 0.767849
O O2 0.623633 0.061132 0.860026
O O3 0.693756 0.887013 0.811202
O O4 0.584723 0.939829 0.063993
O O5 0.621636 0.931665 0.374696
O O6 0.746075 0.775884 0.514317
O O7 0.628315 0.770227 0.258178
O O8 0.720848 0.058995 0.179231
O O9 0.140374 0.649817 0.460382
O O10 0.144856 0.792266 0.668378
O O11 0.201262 0.814604 0.386164
O O12 0.976776 0.761719 0.479087
O O13 0.739344 0.494328 0.948775
O O14 0.990627 0.493247 0.966557
O O15 0.876099 0.462847 0.709848
O O16 0.366243 0.375468 0.581682
#
# Coordination Sequence:
#
# PCOD9341499 Si02
#       8
#     4   4   4   4   4   4   4   4
#     4  11  24  39  64  90 130 179 226 275 333 398
#     4  11  23  41  60  90 132 174 218 277 329 396
#     4  11  24  39  62  92 128 179 225 278 329 400
#     4  11  24  45  65  98 129 175 221 286 335 417
#     4  11  24  45  75 102 146 179 239 290 372 436
#     4  11  23  41  62  88 131 169 228 270 334 387
#     4  11  24  45  73 108 138 189 230 300 362 449
#     4  11  24  43  67  96 134 170 223 280 342 413
#
# _framework density 22.149667999999998
#
# number of rings (size 3 to 8) (size 9 to 14) (size 15 to 20)
#    0.000    1.000    2.500    3.750    3.500    2.000 
#    0.000    2.500    0.000    0.000    0.000    0.000 
#    0.000    0.000    0.000    0.000    0.000    0.000 
#
# Total GULP energy -178139.555487 kJ/mol
# GULP energy per Si atom -5566.861109 kJ/mol
# Density = 2.209925 g / cm^3
# Si number density = 22.149668 Si / 1000 Ang^3
#
#
#
# Elastic Constant Matrix: (Units=GPa)
#
#
# Indices 1 2 3 4 5 6 
#
# 1 108.4711 7.2767 19.8170 0.0000 0.0000 0.0000
# 2 7.2767 60.8128 -14.3201 0.0000 0.0000 0.0000
# 3 19.8170 -14.3201 50.2747 0.0000 0.0000 0.0000
# 4 0.0000 0.0000 0.0000 29.3468 0.0000 0.0000
# 5 0.0000 0.0000 0.0000 0.0000 27.3872 0.0000
# 6 0.0000 0.0000 0.0000 0.0000 0.0000 32.2918
#
#
#
# Elastic Compliance Matrix: (Units=1/GPa)
#
#
# Indices 1 2 3 4 5 6 
#
# 1 0.010234 -0.002331 -0.004698 0.000000 0.000000 0.000000
# 2 -0.002331 0.018157 0.006090 0.000000 0.000000 0.000000
# 3 -0.004698 0.006090 0.023477 0.000000 0.000000 0.000000
# 4 0.000000 0.000000 0.000000 0.034075 0.000000 0.000000
# 5 0.000000 0.000000 0.000000 0.000000 0.036513 0.000000
# 6 0.000000 0.000000 0.000000 0.000000 0.000000 0.030968
#
#
# Mechanical properties :
#
#
# Convention : Reuss Voigt Hill
#
# Bulk Modulus (GPa) = 20.00323 27.23396 23.61860
# Shear Modulus (GPa) = 29.07583 31.59080 30.33332
#
# Velocity S-wave (km/s) = 3.62705 3.78066 3.70465
# Velocity P-wave (km/s) = 5.15666 5.60178 5.38383
#
# Compressibility (1/GPa) = 0.04999192
#
# Stress axis : x y z
#
# Youngs Moduli (GPa) = 97.71689 55.07526 42.59444
#
# Poissons Ratio (x) = 0.12837 0.20010
# Poissons Ratio (y) = 0.22775 -0.25942
# Poissons Ratio (z) = 0.45905 -0.33543
#
# Static dielectric constant tensor:
#      x y z
#    x 1.946220 0.000000 0.000000 
#    y 0.000000 1.833260 0.000000 
#    z 0.000000 0.000000 1.861840 
# 
# From -- ./inp_files/1546.got.cif
#   From: 2010.05.17/outbox.cif.g08.bks.cpg/sg29_1_cif.got.tgz:1546.got - 2010.06.04 01:19:37.
