data_PCOD9341571
_publ_section_title
;
Structure prediction by ZEFSAII (Michael W. Deem and Ramdas Pophale) SiO2 
 PCOD9341571
Probable space group: P C A 21
;
_chemical_formula_sum "Si O2"
_cell_formula_units_Z 28
_cell_length_a 9.423478
_cell_length_b 9.193249
_cell_length_c 11.600636
_cell_angle_alpha 90.000000
_cell_angle_beta 90.000000
_cell_angle_gamma 90.000000
_cell_volume 1004.990703
_symmetry_space_group_name_H-M "P C A 21"
_symmetry_group_IT_number 29
_symmetry_cell_setting 'orthorhombic'
loop_
_space_group_symop_operation_xyz
x,y,z
-x,-y,1/2+z
1/2-x,y,1/2+z
1/2+x,-y,z
loop_
_atom_site_type_symbol
_atom_site_label
_atom_site_fract_x
_atom_site_fract_y
_atom_site_fract_z
Si Si1 0.763972 0.745423 0.413830
Si Si2 0.060154 0.106571 0.097664
Si Si3 0.522102 0.228937 0.015096
Si Si4 0.678891 0.480475 0.282964
Si Si5 0.063182 0.529016 0.624562
Si Si6 0.145121 0.048722 0.707556
Si Si7 0.656645 0.224773 0.447298
O O1 0.838680 0.771086 0.536051
O O2 0.600441 0.788322 0.422024
O O3 0.756336 0.576823 0.380241
O O4 0.834091 0.850190 0.318634
O O5 0.197742 0.027217 0.156706
O O6 0.948853 0.093963 0.985114
O O7 0.941769 0.103003 0.200217
O O8 0.508185 0.394725 0.058277
O O9 0.463459 0.135041 0.122700
O O10 0.679096 0.190062 0.972883
O O11 0.783945 0.500767 0.177163
O O12 0.534475 0.551624 0.237013
O O13 0.652745 0.315966 0.327787
O O14 0.096730 0.656832 0.537159
#
# Coordination Sequence:
#
# PCOD9341571 Si02
#       7
#     4   4   4   4   4   4   4
#     4  11  24  45  75 106 153 202 263 322 401 472
#     4  11  27  47  77 110 148 209 265 337 386 478
#     4  11  24  44  69 106 151 205 258 326 392 480
#     4  12  24  41  70 112 150 210 249 315 408 475
#     4  12  24  40  67 108 156 198 252 315 393 487
#     4  11  25  50  76 106 154 204 273 322 407 467
#     4  12  26  43  72 110 162 196 264 323 399 481
#
# _framework density 27.860954
#
# number of rings (size 3 to 8) (size 9 to 14) (size 15 to 20)
#    0.000    0.571    4.286    3.429    4.000    2.286 
#    0.000    4.286    0.000    0.000    0.000    0.000 
#    0.000    0.000    0.000    0.000    0.000    0.000 
#
# Total GULP energy -156236.339542 kJ/mol
# GULP energy per Si atom -5579.869269 kJ/mol
# Density = 2.779754 g / cm^3
# Si number density = 27.860954 Si / 1000 Ang^3
#
#
#
# Elastic Constant Matrix: (Units=GPa)
#
#
# Indices 1 2 3 4 5 6 
#
# 1 259.1516 20.9188 51.3666 0.0000 0.0000 0.0000
# 2 20.9188 76.9144 30.0135 0.0000 0.0000 0.0000
# 3 51.3666 30.0135 80.7853 0.0000 0.0000 0.0000
# 4 0.0000 0.0000 0.0000 40.0900 0.0000 0.0000
# 5 0.0000 0.0000 0.0000 0.0000 74.5484 0.0000
# 6 0.0000 0.0000 0.0000 0.0000 0.0000 325.3358
#
#
#
# Elastic Compliance Matrix: (Units=1/GPa)
#
#
# Indices 1 2 3 4 5 6 
#
# 1 0.004416 -0.000123 -0.002762 0.000000 0.000000 0.000000
# 2 -0.000123 0.015209 -0.005572 0.000000 0.000000 0.000000
# 3 -0.002762 -0.005572 0.016205 0.000000 0.000000 0.000000
# 4 0.000000 0.000000 0.000000 0.024944 0.000000 0.000000
# 5 0.000000 0.000000 0.000000 0.000000 0.013414 0.000000
# 6 0.000000 0.000000 0.000000 0.000000 0.000000 0.003074
#
#
# Mechanical properties :
#
#
# Convention : Reuss Voigt Hill
#
# Bulk Modulus (GPa) = 52.86754 69.04990 60.95872
# Shear Modulus (GPa) = 49.75974 108.96499 79.36237
#
# Velocity S-wave (km/s) = 4.23070 6.26061 5.34294
# Velocity P-wave (km/s) = 6.54842 8.78054 7.74531
#
# Compressibility (1/GPa) = 0.01891520
#
# Stress axis : x y z
#
# Youngs Moduli (GPa) = 226.43934 65.74890 61.70919
#
# Poissons Ratio (x) = 0.00810 0.17045
# Poissons Ratio (y) = 0.02790 0.34386
# Poissons Ratio (z) = 0.62548 0.36637
#
# Static dielectric constant tensor:
#      x y z
#    x 1.087210 0.000000 0.000000 
#    y 0.000000 4.091920 0.000000 
#    z 0.000000 0.000000 2.243620 
# 
# From -- ./inp_files/2872.got.cif
#   From: 2010.05.17/outbox.cif.g08.bks.cpg/sg29_2_cif.got.tgz:2872.got - 2010.06.04 01:19:37.
