data_PCOD9341453
_publ_section_title
;
Structure prediction by ZEFSAII (Michael W. Deem and Ramdas Pophale) SiO2 
 PCOD9341453
Probable space group: P C A 21
;
_chemical_formula_sum "Si O2"
_cell_formula_units_Z 20
_cell_length_a 13.086591
_cell_length_b 4.881967
_cell_length_c 11.180691
_cell_angle_alpha 90.000000
_cell_angle_beta 90.000000
_cell_angle_gamma 90.000000
_cell_volume 714.315401
_symmetry_space_group_name_H-M "P C A 21"
_symmetry_group_IT_number 29
_symmetry_cell_setting 'orthorhombic'
loop_
_space_group_symop_operation_xyz
x,y,z
-x,-y,1/2+z
1/2-x,y,1/2+z
1/2+x,-y,z
loop_
_atom_site_type_symbol
_atom_site_label
_atom_site_fract_x
_atom_site_fract_y
_atom_site_fract_z
Si Si1 0.539493 0.194946 0.675900
Si Si2 0.858174 0.476058 0.597796
Si Si3 0.239065 0.028173 0.974016
Si Si4 0.917114 0.175300 0.834188
Si Si5 0.871293 0.689565 0.262580
O O1 0.468100 0.373689 0.591526
O O2 0.633360 0.384495 0.715517
O O3 0.456719 0.112904 0.779422
O O4 0.588136 0.896340 0.660198
O O5 0.779535 0.723283 0.567792
O O6 0.858183 0.336905 0.729019
O O7 0.837052 0.219596 0.510256
O O8 0.211199 0.172139 0.847156
O O9 0.346053 0.877553 0.946736
O O10 0.026158 0.322490 0.845675
#
# Coordination Sequence:
#
# PCOD9341453 Si02
#       5
#     4   4   4   4   4
#     4   9  18  42  60  76 132 159 193 262 325 338
#     4  11  22  39  63  95 127 168 207 269 319 373
#     4  12  23  37  70  93 122 173 222 246 323 405
#     4   9  23  42  63  87 136 165 198 279 319 360
#     4   9  20  38  62  87 113 169 204 256 314 374
#
# _framework density 27.998837999999999
#
# number of rings (size 3 to 8) (size 9 to 14) (size 15 to 20)
#    1.200    0.800    2.000    1.200    5.600    0.000 
#    0.000    8.000    4.400    0.000    0.000    0.000 
#    0.000    0.000    0.000    0.000    0.000    0.000 
#
# Total GULP energy -111679.213842 kJ/mol
# GULP energy per Si atom -5583.960692 kJ/mol
# Density = 2.793511 g / cm^3
# Si number density = 27.998838 Si / 1000 Ang^3
#
#
#
# Elastic Constant Matrix: (Units=GPa)
#
#
# Indices 1 2 3 4 5 6 
#
# 1 94.2589 17.7995 -8.5687 0.0000 0.0000 0.0000
# 2 17.7995 181.5496 4.6204 0.0000 0.0000 0.0000
# 3 -8.5687 4.6204 85.6696 0.0000 0.0000 0.0000
# 4 0.0000 0.0000 0.0000 46.8450 0.0000 0.0000
# 5 0.0000 0.0000 0.0000 0.0000 30.9327 0.0000
# 6 0.0000 0.0000 0.0000 0.0000 0.0000 38.9960
#
#
#
# Elastic Compliance Matrix: (Units=1/GPa)
#
#
# Indices 1 2 3 4 5 6 
#
# 1 0.010922 -0.001100 0.001152 0.000000 0.000000 0.000000
# 2 -0.001100 0.005627 -0.000413 0.000000 0.000000 0.000000
# 3 0.001152 -0.000413 0.011810 0.000000 0.000000 0.000000
# 4 0.000000 0.000000 0.000000 0.021347 0.000000 0.000000
# 5 0.000000 0.000000 0.000000 0.000000 0.032328 0.000000
# 6 0.000000 0.000000 0.000000 0.000000 0.000000 0.025644
#
#
# Mechanical properties :
#
#
# Convention : Reuss Voigt Hill
#
# Bulk Modulus (GPa) = 36.18659 43.24228 39.71443
# Shear Modulus (GPa) = 42.51251 46.52986 44.52118
#
# Velocity S-wave (km/s) = 3.90085 4.08100 3.99194
# Velocity P-wave (km/s) = 5.76552 6.13872 5.95505
#
# Compressibility (1/GPa) = 0.02763455
#
# Stress axis : x y z
#
# Youngs Moduli (GPa) = 91.56247 177.72991 84.67223
#
# Poissons Ratio (x) = 0.19552 -0.09752
# Poissons Ratio (y) = 0.10073 0.03501
# Poissons Ratio (z) = -0.10545 0.07349
#
# Static dielectric constant tensor:
#      x y z
#    x 2.326630 0.000000 0.000000 
#    y 0.000000 2.109520 0.000000 
#    z 0.000000 0.000000 2.306380 
# 
# From -- ./inp_files/3540.got.cif
#   From: 2010.05.17/outbox.cif.g08.bks.cpg/sg29_2_cif.got.tgz:3540.got - 2010.06.04 01:19:37.
