data_PCOD9341966
_publ_section_title
;
Structure prediction by ZEFSAII (Michael W. Deem and Ramdas Pophale) SiO2 
 PCOD9341966
Probable space group: P N C 2
;
_chemical_formula_sum "Si O2"
_cell_formula_units_Z 24
_cell_length_a 7.677227
_cell_length_b 21.954785
_cell_length_c 5.500055
_cell_angle_alpha 90.000000
_cell_angle_beta 90.000000
_cell_angle_gamma 90.000000
_cell_volume 927.044545
_symmetry_space_group_name_H-M "P N C 2"
_symmetry_group_IT_number 30
_symmetry_cell_setting 'orthorhombic'
loop_
_space_group_symop_operation_xyz
x,y,z
-x,-y,z
-x,1/2+y,1/2+z
x,1/2-y,1/2+z
loop_
_atom_site_type_symbol
_atom_site_label
_atom_site_fract_x
_atom_site_fract_y
_atom_site_fract_z
Si Si1 0.974595 0.096896 0.784060
Si Si2 0.514279 0.902225 0.276455
Si Si3 0.742609 0.217251 0.754910
Si Si4 0.879058 0.559332 0.784813
Si Si5 0.368864 0.555940 0.275529
Si Si6 0.350732 0.264518 0.765691
O O1 0.845904 0.154562 0.781131
O O2 0.082664 0.094718 0.536032
O O3 0.835263 0.040808 0.779672
O O4 0.078119 0.094759 0.035286
O O5 0.406364 0.909792 0.522219
O O6 0.592938 0.834590 0.272222
O O7 0.672316 0.950743 0.280477
O O8 0.409581 0.910615 0.029036
O O9 0.791123 0.244015 0.492742
O O10 0.528606 0.222753 0.760358
O O11 0.000000 0.500000 0.784983
O O12 0.500000 0.500000 0.273202
O O13 0.254848 0.251391 0.514318
#
# Coordination Sequence:
#
# PCOD9341966 Si02
#       6
#     4   4   4   4   4   4
#     4  12  24  42  68  97 130 177 225 275 335 398
#     4  12  24  43  67  96 134 178 222 273 338 401
#     4  10  19  36  60  90 122 160 210 270 325 381
#     4  12  26  46  66  97 142 183 217 271 340 404
#     4  12  23  40  67 100 128 169 232 287 326 389
#     4  10  20  37  62  90 122 165 212 268 326 385
#
# _framework density 25.888725000000001
#
# number of rings (size 3 to 8) (size 9 to 14) (size 15 to 20)
#    0.000    0.667    0.000   11.000    0.000    0.000 
#    0.000    5.000    0.000    0.000    0.000    0.000 
#    0.000    0.000    0.000    0.000    0.000    0.000 
#
# Total GULP energy -134546.617529 kJ/mol
# GULP energy per Si atom -5606.109064 kJ/mol
# Density = 2.582980 g / cm^3
# Si number density = 25.888725 Si / 1000 Ang^3
#
#
#
# Elastic Constant Matrix: (Units=GPa)
#
#
# Indices 1 2 3 4 5 6 
#
# 1 106.9380 -3.8084 38.8181 0.0000 0.0000 0.0000
# 2 -3.8084 53.3428 21.5140 0.0000 0.0000 0.0000
# 3 38.8181 21.5140 237.2060 0.0000 0.0000 0.0000
# 4 0.0000 0.0000 0.0000 25.5782 0.0000 0.0000
# 5 0.0000 0.0000 0.0000 0.0000 36.6391 0.0000
# 6 0.0000 0.0000 0.0000 0.0000 0.0000 32.1146
#
#
#
# Elastic Compliance Matrix: (Units=1/GPa)
#
#
# Indices 1 2 3 4 5 6 
#
# 1 0.010046 0.001433 -0.001774 0.000000 0.000000 0.000000
# 2 0.001433 0.019663 -0.002018 0.000000 0.000000 0.000000
# 3 -0.001774 -0.002018 0.004689 0.000000 0.000000 0.000000
# 4 0.000000 0.000000 0.000000 0.039096 0.000000 0.000000
# 5 0.000000 0.000000 0.000000 0.000000 0.027293 0.000000
# 6 0.000000 0.000000 0.000000 0.000000 0.000000 0.031138
#
#
# Mechanical properties :
#
#
# Convention : Reuss Voigt Hill
#
# Bulk Modulus (GPa) = 33.69290 56.72601 45.20945
# Shear Modulus (GPa) = 34.12109 41.59726 37.85918
#
# Velocity S-wave (km/s) = 3.63435 4.01280 3.82826
# Velocity P-wave (km/s) = 5.53662 6.59008 6.08618
#
# Compressibility (1/GPa) = 0.02967984
#
# Stress axis : x y z
#
# Youngs Moduli (GPa) = 99.54029 50.85753 213.26229
#
# Poissons Ratio (x) = -0.07286 0.37832
# Poissons Ratio (y) = -0.14261 0.43032
# Poissons Ratio (z) = 0.17658 0.10262
#
# Static dielectric constant tensor:
#      x y z
#    x 1.970270 0.000000 0.000000 
#    y 0.000000 2.147310 0.000000 
#    z 0.000000 0.000000 2.020110 
# 
# From -- ./inp_files/412.got.cif
#   From: 2010.05.17/outbox.cif.g08.bks.cpg/sg30_1_cif.got.tgz:412.got - 2010.06.03 17:03:02.
