data_PCOD9341541
_publ_section_title
;
Structure prediction by ZEFSAII (Michael W. Deem and Ramdas Pophale) SiO2 
 PCOD9341541
Probable space group: P C A 21
;
_chemical_formula_sum "Si O2"
_cell_formula_units_Z 28
_cell_length_a 10.588328
_cell_length_b 5.437145
_cell_length_c 19.281070
_cell_angle_alpha 90.000000
_cell_angle_beta 90.000000
_cell_angle_gamma 90.000000
_cell_volume 1110.016495
_symmetry_space_group_name_H-M "P C A 21"
_symmetry_group_IT_number 29
_symmetry_cell_setting 'orthorhombic'
loop_
_space_group_symop_operation_xyz
x,y,z
-x,-y,1/2+z
1/2-x,y,1/2+z
1/2+x,-y,z
loop_
_atom_site_type_symbol
_atom_site_label
_atom_site_fract_x
_atom_site_fract_y
_atom_site_fract_z
Si Si1 0.498102 0.444140 0.450510
Si Si2 0.351035 0.055312 0.754371
Si Si3 0.703743 0.186380 0.380527
Si Si4 0.492509 0.588586 0.172766
Si Si5 0.859047 0.562418 0.305452
Si Si6 0.773396 0.274766 0.629933
Si Si7 0.880213 0.039100 0.496045
O O1 0.641773 0.402855 0.426068
O O2 0.423785 0.390813 0.378905
O O3 0.462567 0.714503 0.477940
O O4 0.459572 0.211865 0.498361
O O5 0.464303 0.156423 0.707203
O O6 0.256303 0.271327 0.779002
O O7 0.392374 0.951644 0.829391
O O8 0.280524 0.878099 0.700740
O O9 0.800331 0.297239 0.324880
O O10 0.776960 0.021019 0.434971
O O11 0.456280 0.436553 0.241997
O O12 0.365852 0.607829 0.127485
O O13 0.613590 0.472257 0.135810
O O14 0.806400 0.099403 0.566221
#
# Coordination Sequence:
#
# PCOD9341541 Si02
#       7
#     4   4   4   4   4   4   4
#     4  11  26  46  76 106 152 199 257 320 391 468
#     4  12  24  45  77 110 153 201 262 328 396 470
#     4  11  25  45  73 112 147 204 257 329 392 465
#     4  12  27  49  75 115 156 205 267 327 400 476
#     4  11  23  46  71 113 151 194 259 328 395 467
#     4  12  30  48  78 109 159 212 262 326 399 482
#     4  11  29  49  72 111 152 209 258 320 389 476
#
# _framework density 25.224851000000001
#
# number of rings (size 3 to 8) (size 9 to 14) (size 15 to 20)
#    0.000    0.571    4.286    1.714   14.000    0.000 
#    0.000    0.000    0.000    0.000    0.000    0.000 
#    0.000    0.000    0.000    0.000    0.000    0.000 
#
# Total GULP energy -156645.064938 kJ/mol
# GULP energy per Si atom -5594.466605 kJ/mol
# Density = 2.516744 g / cm^3
# Si number density = 25.224851 Si / 1000 Ang^3
#
#
#
# Elastic Constant Matrix: (Units=GPa)
#
#
# Indices 1 2 3 4 5 6 
#
# 1 98.0597 24.7279 5.6748 0.0000 0.0000 0.0000
# 2 24.7279 61.0724 38.9711 0.0000 0.0000 0.0000
# 3 5.6748 38.9711 93.6476 0.0000 0.0000 0.0000
# 4 0.0000 0.0000 0.0000 37.0304 0.0000 0.0000
# 5 0.0000 0.0000 0.0000 0.0000 29.0587 0.0000
# 6 0.0000 0.0000 0.0000 0.0000 0.0000 36.6988
#
#
#
# Elastic Compliance Matrix: (Units=1/GPa)
#
#
# Indices 1 2 3 4 5 6 
#
# 1 0.011552 -0.005760 0.001697 0.000000 0.000000 0.000000
# 2 -0.005760 0.025167 -0.010124 0.000000 0.000000 0.000000
# 3 0.001697 -0.010124 0.014789 0.000000 0.000000 0.000000
# 4 0.000000 0.000000 0.000000 0.027005 0.000000 0.000000
# 5 0.000000 0.000000 0.000000 0.000000 0.034413 0.000000
# 6 0.000000 0.000000 0.000000 0.000000 0.000000 0.027249
#
#
# Mechanical properties :
#
#
# Convention : Reuss Voigt Hill
#
# Bulk Modulus (GPa) = 43.22833 43.50303 43.36568
# Shear Modulus (GPa) = 28.36726 32.78463 30.57594
#
# Velocity S-wave (km/s) = 3.35711 3.60904 3.48535
# Velocity P-wave (km/s) = 5.67462 5.88646 5.78151
#
# Compressibility (1/GPa) = 0.02313298
#
# Stress axis : x y z
#
# Youngs Moduli (GPa) = 86.56306 39.73529 67.62007
#
# Poissons Ratio (x) = 0.22889 -0.11476
# Poissons Ratio (y) = 0.49864 0.68458
# Poissons Ratio (z) = -0.14691 0.40228
#
# Static dielectric constant tensor:
#      x y z
#    x 2.144720 0.000000 0.000000 
#    y 0.000000 2.099730 0.000000 
#    z 0.000000 0.000000 1.949120 
# 
# From -- ./inp_files/5103.got.cif
#   From: 2010.05.17/outbox.cif.g08.bks.cpg/sg29_3_cif.got.tgz:5103.got - 2010.06.04 01:19:37.
