data_PCOD9341858
_publ_section_title
;
Structure prediction by ZEFSAII (Michael W. Deem and Ramdas Pophale) SiO2 
 PCOD9341858
Probable space group: P N C 2
;
_chemical_formula_sum "Si O2"
_cell_formula_units_Z 30
_cell_length_a 8.786868
_cell_length_b 12.489525
_cell_length_c 14.533261
_cell_angle_alpha 90.000000
_cell_angle_beta 90.000000
_cell_angle_gamma 90.000000
_cell_volume 1594.935398
_symmetry_space_group_name_H-M "P N C 2"
_symmetry_group_IT_number 30
_symmetry_cell_setting 'orthorhombic'
loop_
_space_group_symop_operation_xyz
x,y,z
-x,-y,z
-x,1/2+y,1/2+z
x,1/2-y,1/2+z
loop_
_atom_site_type_symbol
_atom_site_label
_atom_site_fract_x
_atom_site_fract_y
_atom_site_fract_z
Si Si1 0.589436 0.890139 0.763280
Si Si2 0.500000 0.500000 0.959531
Si Si3 0.163596 0.018781 0.445366
Si Si4 0.112362 0.660303 0.104522
Si Si5 0.057741 0.389539 0.294420
Si Si6 0.112449 0.232929 0.972992
Si Si7 0.569059 0.881371 0.970883
Si Si8 0.454527 0.700821 0.094454
O O1 0.767496 0.909924 0.769539
O O2 0.541763 0.851099 0.864119
O O3 0.559651 0.807127 0.683154
O O4 0.500000 0.000000 0.741969
O O5 0.664986 0.494500 0.908696
O O6 0.496760 0.602705 0.026904
O O7 0.138292 0.940743 0.534378
O O8 0.172291 0.144731 0.468441
O O9 0.000000 0.000000 0.393664
O O10 0.282497 0.693176 0.127699
O O11 0.027845 0.632257 0.198926
O O12 0.018496 0.752077 0.049618
O O13 0.047115 0.299338 0.372837
O O14 0.000000 0.500000 0.337234
O O15 0.252255 0.149690 0.989456
O O16 0.500000 0.000000 0.979751
O O17 0.476451 0.807085 0.038029
#
# Coordination Sequence:
#
# PCOD9341858 Si02
#       8
#     4   2   4   4   4   4   4   4
#     4  10  21  35  58  87 114 153 197 252 290 346
#     4  10  18  30  60  90 112 146 194 258 292 354
#     4   9  18  33  56  87 115 146 193 244 310 348
#     4  10  22  35  61  91 112 150 194 253 305 355
#     4  11  22  34  57  87 118 152 196 243 295 356
#     4  10  20  37  57  81 121 154 190 244 301 357
#     4  10  22  38  58  84 119 161 197 236 294 364
#     4  11  20  35  61  86 116 150 200 248 302 348
#
# _framework density 18.809539000000001
#
# number of rings (size 3 to 8) (size 9 to 14) (size 15 to 20)
#    0.000    1.867    2.000    2.800    3.733    4.267 
#    0.000    0.000    1.467   18.400    0.000    0.000 
#    0.000    0.000    0.000    0.000    0.000    0.000 
#
# Total GULP energy -167063.471206 kJ/mol
# GULP energy per Si atom -5568.782374 kJ/mol
# Density = 1.876673 g / cm^3
# Si number density = 18.809539 Si / 1000 Ang^3
#
#
#
# Elastic Constant Matrix: (Units=GPa)
#
#
# Indices 1 2 3 4 5 6 
#
# 1 103.3191 18.8233 4.5338 0.0000 0.0000 0.0000
# 2 18.8233 72.8594 34.6872 0.0000 0.0000 0.0000
# 3 4.5338 34.6872 41.4261 0.0000 0.0000 0.0000
# 4 0.0000 0.0000 0.0000 18.4873 0.0000 0.0000
# 5 0.0000 0.0000 0.0000 0.0000 19.9295 0.0000
# 6 0.0000 0.0000 0.0000 0.0000 0.0000 28.8008
#
#
#
# Elastic Compliance Matrix: (Units=1/GPa)
#
#
# Indices 1 2 3 4 5 6 
#
# 1 0.010239 -0.003512 0.001820 0.000000 0.000000 0.000000
# 2 -0.003512 0.024028 -0.019735 0.000000 0.000000 0.000000
# 3 0.001820 -0.019735 0.040465 0.000000 0.000000 0.000000
# 4 0.000000 0.000000 0.000000 0.054091 0.000000 0.000000
# 5 0.000000 0.000000 0.000000 0.000000 0.050177 0.000000
# 6 0.000000 0.000000 0.000000 0.000000 0.000000 0.034721
#
#
# Mechanical properties :
#
#
# Convention : Reuss Voigt Hill
#
# Bulk Modulus (GPa) = 31.36959 37.07698 34.22329
# Shear Modulus (GPa) = 18.71265 24.08089 21.39677
#
# Velocity S-wave (km/s) = 3.15754 3.58194 3.37642
# Velocity P-wave (km/s) = 5.47788 6.07138 5.78225
#
# Compressibility (1/GPa) = 0.03187801
#
# Stress axis : x y z
#
# Youngs Moduli (GPa) = 97.66917 41.61875 24.71294
#
# Poissons Ratio (x) = 0.14614 -0.04497
# Poissons Ratio (y) = 0.34297 0.48770
# Poissons Ratio (z) = -0.17773 0.82133
#
# Static dielectric constant tensor:
#      x y z
#    x 1.710450 0.000000 0.000000 
#    y 0.000000 1.635080 0.000000 
#    z 0.000000 0.000000 1.622120 
# 
# From -- ./inp_files/5179.got.cif
#   From: 2010.05.17/outbox.cif.g08.bks.cpg/sg30_3_cif.got.tgz:5179.got - 2010.06.03 17:03:02.
