data_PCOD9341965
_publ_section_title
;
Structure prediction by ZEFSAII (Michael W. Deem and Ramdas Pophale) SiO2 
 PCOD9341965
Probable space group: P N C 2
;
_chemical_formula_sum "Si O2"
_cell_formula_units_Z 20
_cell_length_a 5.075016
_cell_length_b 25.859358
_cell_length_c 5.566116
_cell_angle_alpha 90.000000
_cell_angle_beta 90.000000
_cell_angle_gamma 90.000000
_cell_volume 730.478449
_symmetry_space_group_name_H-M "P N C 2"
_symmetry_group_IT_number 30
_symmetry_cell_setting 'orthorhombic'
loop_
_space_group_symop_operation_xyz
x,y,z
-x,-y,z
-x,1/2+y,1/2+z
x,1/2-y,1/2+z
loop_
_atom_site_type_symbol
_atom_site_label
_atom_site_fract_x
_atom_site_fract_y
_atom_site_fract_z
Si Si1 0.237768 0.666134 0.177470
Si Si2 0.084898 0.058101 0.177470
Si Si3 0.772291 0.350045 0.677470
Si Si4 0.359562 0.237315 0.177470
Si Si5 0.598097 0.561087 0.177470
O O1 0.091846 0.665248 0.429553
O O2 0.409700 0.718437 0.177470
O O3 0.402687 0.611527 0.177470
O O4 0.091846 0.665248 0.925387
O O5 0.239062 0.067344 0.427976
O O6 0.808681 0.089129 0.177470
O O7 0.239062 0.067344 0.926964
O O8 0.000000 0.000000 0.177470
O O9 0.497137 0.319257 0.677470
O O10 0.223132 0.250000 0.427470
O O11 0.500000 0.500000 0.177470
#
# Coordination Sequence:
#
# PCOD9341965 Si02
#       5
#     4   4   4   4   4
#     4  10  19  36  60  84 112 152 195 235 285 345
#     4  12  24  39  59  87 120 153 194 241 292 346
#     4  10  19  36  60  84 112 152 195 235 285 345
#     4   8  16  30  56  80 104 144 192 226 270 338
#     4  12  24  39  59  87 120 153 194 241 292 346
#
# _framework density 27.379314999999998
#
# number of rings (size 3 to 8) (size 9 to 14) (size 15 to 20)
#    0.000    1.600    0.000    6.000    0.000    0.000 
#    0.000    0.000    0.000   64.800    0.000    0.000 
#    0.000    0.000    0.000    0.000    0.000    0.000 
#
# Total GULP energy -111690.352045 kJ/mol
# GULP energy per Si atom -5584.517602 kJ/mol
# Density = 2.731700 g / cm^3
# Si number density = 27.379315 Si / 1000 Ang^3
#
#
#
# Elastic Constant Matrix: (Units=GPa)
#
#
# Indices 1 2 3 4 5 6 
#
# 1 85.0245 103.0928 47.8374 0.0000 0.0000 0.0000
# 2 103.0928 254.1465 29.3029 0.0000 0.0000 0.0000
# 3 47.8374 29.3029 325.9230 0.0000 0.0000 0.0000
# 4 0.0000 0.0000 0.0000 31.4978 0.0000 0.0000
# 5 0.0000 0.0000 0.0000 0.0000 -44.0331 0.0000
# 6 0.0000 0.0000 0.0000 0.0000 0.0000 89.6588
#
#
#
# Elastic Compliance Matrix: (Units=1/GPa)
#
#
# Indices 1 2 3 4 5 6 
#
# 1 0.025511 -0.010021 -0.002843 0.000000 0.000000 0.000000
# 2 -0.010021 0.007912 0.000759 0.000000 0.000000 0.000000
# 3 -0.002843 0.000759 0.003417 0.000000 0.000000 0.000000
# 4 0.000000 0.000000 0.000000 0.031748 0.000000 0.000000
# 5 0.000000 0.000000 0.000000 0.000000 -0.022710 0.000000
# 6 0.000000 0.000000 0.000000 0.000000 0.000000 0.011153
#
#
# Mechanical properties :
#
#
# Convention : Reuss Voigt Hill
#
# Bulk Modulus (GPa) = 79.16943 113.95112 96.56028
# Shear Modulus (GPa) = 58.51275 47.74876 53.13076
#
# Velocity S-wave (km/s) = 4.62791 4.18062 4.40994
# Velocity P-wave (km/s) = 7.58520 8.06308 7.82779
#
# Compressibility (1/GPa) = 0.01263114
#
# Stress axis : x y z
#
# Youngs Moduli (GPa) = 39.19858 126.39112 292.63014
#
# Poissons Ratio (x) = 1.26651 0.83209
# Poissons Ratio (y) = 0.39279 -0.22223
# Poissons Ratio (z) = 0.11146 -0.09598
#
# Static dielectric constant tensor:
#      x y z
#    x 2.053710 0.000000 0.000000 
#    y 0.000000 2.092970 0.000000 
#    z 0.000000 0.000000 2.230530 
# 
# From -- ./inp_files/180.got.cif
#   From: 2010.05.17/outbox.cif.g08.bks.cpg/sg30_1_cif.got.tgz:180.got - 2010.06.03 17:03:02.
