data_PCOD9341234
_publ_section_title
;
Structure prediction by ZEFSAII (Michael W. Deem and Ramdas Pophale) SiO2 
 PCOD9341234
Probable space group: P C A 21
;
_chemical_formula_sum "Si O2"
_cell_formula_units_Z 20
_cell_length_a 9.295704
_cell_length_b 5.252103
_cell_length_c 18.262744
_cell_angle_alpha 90.000000
_cell_angle_beta 90.000000
_cell_angle_gamma 90.000000
_cell_volume 891.623594
_symmetry_space_group_name_H-M "P C A 21"
_symmetry_group_IT_number 29
_symmetry_cell_setting 'orthorhombic'
loop_
_space_group_symop_operation_xyz
x,y,z
-x,-y,1/2+z
1/2-x,y,1/2+z
1/2+x,-y,z
loop_
_atom_site_type_symbol
_atom_site_label
_atom_site_fract_x
_atom_site_fract_y
_atom_site_fract_z
Si Si1 0.552145 0.286461 0.089190
Si Si2 0.425990 0.734073 0.863622
Si Si3 0.594992 0.236979 0.916419
Si Si4 0.786748 0.131417 0.717694
Si Si5 0.505606 0.208051 0.670204
O O1 0.466670 0.042943 0.120311
O O2 0.490539 0.548792 0.119179
O O3 0.695539 0.256639 0.137932
O O4 0.575989 0.265722 0.003956
O O5 0.508162 0.475597 0.883011
O O6 0.265217 0.751900 0.898198
O O7 0.521790 0.972439 0.890820
O O8 0.393360 0.750434 0.776916
O O9 0.847575 0.846627 0.705206
O O10 0.622429 0.185648 0.734574
#
# Coordination Sequence:
#
# PCOD9341234 Si02
#       5
#     4   4   4   4   4
#     4  10  26  41  73  97 142 175 241 278 349 408
#     4  12  28  47  72 105 148 191 234 295 364 426
#     4  12  28  47  72 105 150 190 236 294 365 426
#     4  10  26  42  74  96 143 173 244 276 350 408
#     4  10  24  41  71  99 131 177 233 289 336 400
#
# _framework density 22.430990999999999
#
# number of rings (size 3 to 8) (size 9 to 14) (size 15 to 20)
#    1.200    0.000    0.000    3.600   14.000    0.000 
#    0.000    0.000    0.000    0.000    0.000    0.000 
#    0.000    0.000    0.000    0.000    0.000    0.000 
#
# Total GULP energy -111562.581095 kJ/mol
# GULP energy per Si atom -5578.129055 kJ/mol
# Density = 2.237994 g / cm^3
# Si number density = 22.430991 Si / 1000 Ang^3
#
#
#
# Elastic Constant Matrix: (Units=GPa)
#
#
# Indices 1 2 3 4 5 6 
#
# 1 124.6409 46.1344 18.2105 0.0000 0.0000 0.0000
# 2 46.1344 150.2448 15.0605 0.0000 0.0000 0.0000
# 3 18.2105 15.0605 80.3905 0.0000 0.0000 0.0000
# 4 0.0000 0.0000 0.0000 27.2193 0.0000 0.0000
# 5 0.0000 0.0000 0.0000 0.0000 31.8279 0.0000
# 6 0.0000 0.0000 0.0000 0.0000 0.0000 27.7676
#
#
#
# Elastic Compliance Matrix: (Units=1/GPa)
#
#
# Indices 1 2 3 4 5 6 
#
# 1 0.009248 -0.002680 -0.001593 0.000000 0.000000 0.000000
# 2 -0.002680 0.007560 -0.000809 0.000000 0.000000 0.000000
# 3 -0.001593 -0.000809 0.012952 0.000000 0.000000 0.000000
# 4 0.000000 0.000000 0.000000 0.036739 0.000000 0.000000
# 5 0.000000 0.000000 0.000000 0.000000 0.031419 0.000000
# 6 0.000000 0.000000 0.000000 0.000000 0.000000 0.036013
#
#
# Mechanical properties :
#
#
# Convention : Reuss Voigt Hill
#
# Bulk Modulus (GPa) = 51.03245 57.12078 54.07661
# Shear Modulus (GPa) = 33.19488 35.75435 34.47462
#
# Velocity S-wave (km/s) = 3.85108 3.99679 3.92461
# Velocity P-wave (km/s) = 6.52493 6.84248 6.68559
#
# Compressibility (1/GPa) = 0.01959538
#
# Stress axis : x y z
#
# Youngs Moduli (GPa) = 108.13485 132.27814 77.21001
#
# Poissons Ratio (x) = 0.35450 0.12298
# Poissons Ratio (y) = 0.28980 0.06248
# Poissons Ratio (z) = 0.17223 0.10704
#
# Static dielectric constant tensor:
#      x y z
#    x 1.900480 0.000000 0.000000 
#    y 0.000000 1.820150 0.000000 
#    z 0.000000 0.000000 1.835920 
# 
# From -- ./inp_files/4932.got.cif
#   From: 2010.05.17/outbox.cif.g08.bks.cpg/sg29_3_cif.got.tgz:4932.got - 2010.06.04 01:19:37.
