data_PCOD9341127
_publ_section_title
;
Structure prediction by ZEFSAII (Michael W. Deem and Ramdas Pophale) SiO2 
 PCOD9341127
Probable space group: P C A 21
;
_chemical_formula_sum "Si O2"
_cell_formula_units_Z 32
_cell_length_a 14.787096
_cell_length_b 10.209457
_cell_length_c 8.910055
_cell_angle_alpha 90.000000
_cell_angle_beta 90.000000
_cell_angle_gamma 90.000000
_cell_volume 1345.135150
_symmetry_space_group_name_H-M "P C A 21"
_symmetry_group_IT_number 29
_symmetry_cell_setting 'orthorhombic'
loop_
_space_group_symop_operation_xyz
x,y,z
-x,-y,1/2+z
1/2-x,y,1/2+z
1/2+x,-y,z
loop_
_atom_site_type_symbol
_atom_site_label
_atom_site_fract_x
_atom_site_fract_y
_atom_site_fract_z
Si Si1 0.347255 0.648154 0.190450
Si Si2 0.470469 0.389605 0.174842
Si Si3 0.430925 0.995270 0.307018
Si Si4 0.746941 0.882880 0.315113
Si Si5 0.495584 0.752580 0.984297
Si Si6 0.330338 0.589813 0.538982
Si Si7 0.684499 0.711000 0.055955
Si Si8 0.064435 0.129597 0.496288
O O1 0.403281 0.512055 0.162786
O O2 0.336917 0.642976 0.370134
O O3 0.245355 0.666610 0.130959
O O4 0.406463 0.744840 0.084651
O O5 0.492742 0.352589 0.348440
O O6 0.569351 0.410902 0.105096
O O7 0.427846 0.269337 0.079649
O O8 0.322699 0.005296 0.325774
O O9 0.480212 0.113647 0.397804
O O10 0.449518 0.030249 0.135041
O O11 0.478829 0.872961 0.384472
O O12 0.729097 0.828360 0.149883
O O13 0.795268 0.756420 0.388165
O O14 0.652382 0.905953 0.398014
O O15 0.579209 0.723373 0.094047
O O16 0.292952 0.440736 0.559145
#
# Coordination Sequence:
#
# PCOD9341127 Si02
#       8
#     4   4   4   4   4   4   4   4
#     4  12  23  42  63 102 141 185 230 283 349 419
#     4  11  23  45  64 105 138 183 232 284 352 415
#     4  10  25  45  68 104 131 181 239 289 349 406
#     4  11  23  41  70 102 132 175 235 282 339 407
#     4  10  23  43  64  93 140 174 235 286 335 412
#     4  12  25  37  69 100 142 188 225 283 352 418
#     4  11  21  39  65  99 135 177 220 289 327 401
#     4  11  25  44  71  97 139 177 228 296 343 412
#
# _framework density 23.789428999999998
#
# number of rings (size 3 to 8) (size 9 to 14) (size 15 to 20)
#    0.000    1.000    3.750    2.250    7.000    1.000 
#    2.250    0.000    0.000    0.000    0.000    0.000 
#    0.000    0.000    0.000    0.000    0.000    0.000 
#
# Total GULP energy -178723.256546 kJ/mol
# GULP energy per Si atom -5585.101767 kJ/mol
# Density = 2.373528 g / cm^3
# Si number density = 23.789429 Si / 1000 Ang^3
#
#
#
# Elastic Constant Matrix: (Units=GPa)
#
#
# Indices 1 2 3 4 5 6 
#
# 1 146.7369 5.3859 63.5324 0.0000 0.0000 0.0000
# 2 5.3859 46.8804 30.2744 0.0000 0.0000 0.0000
# 3 63.5324 30.2744 113.4879 0.0000 0.0000 0.0000
# 4 0.0000 0.0000 0.0000 27.7373 0.0000 0.0000
# 5 0.0000 0.0000 0.0000 0.0000 47.9263 0.0000
# 6 0.0000 0.0000 0.0000 0.0000 0.0000 24.5615
#
#
#
# Elastic Compliance Matrix: (Units=1/GPa)
#
#
# Indices 1 2 3 4 5 6 
#
# 1 0.009283 0.002766 -0.005935 0.000000 0.000000 0.000000
# 2 0.002766 0.026594 -0.008643 0.000000 0.000000 0.000000
# 3 -0.005935 -0.008643 0.014439 0.000000 0.000000 0.000000
# 4 0.000000 0.000000 0.000000 0.036053 0.000000 0.000000
# 5 0.000000 0.000000 0.000000 0.000000 0.020865 0.000000
# 6 0.000000 0.000000 0.000000 0.000000 0.000000 0.040714
#
#
# Mechanical properties :
#
#
# Convention : Reuss Voigt Hill
#
# Bulk Modulus (GPa) = 37.46190 56.16562 46.81376
# Shear Modulus (GPa) = 27.70551 33.90587 30.80569
#
# Velocity S-wave (km/s) = 3.41635 3.77934 3.60242
# Velocity P-wave (km/s) = 5.59852 6.53493 6.08476
#
# Compressibility (1/GPa) = 0.02669379
#
# Stress axis : x y z
#
# Youngs Moduli (GPa) = 107.72540 37.60183 69.25519
#
# Poissons Ratio (x) = -0.10400 0.41100
# Poissons Ratio (y) = -0.29796 0.59856
# Poissons Ratio (z) = 0.63930 0.32499
#
# Static dielectric constant tensor:
#      x y z
#    x 1.955300 0.000000 0.000000 
#    y 0.000000 1.992310 0.000000 
#    z 0.000000 0.000000 1.873220 
# 
# From -- ./inp_files/1827.got.cif
#   From: 2010.05.17/outbox.cif.g08.bks.cpg/sg29_1_cif.got.tgz:1827.got - 2010.06.04 01:19:37.
