data_PCOD9341564
_publ_section_title
;
Structure prediction by ZEFSAII (Michael W. Deem and Ramdas Pophale) SiO2 
 PCOD9341564
Probable space group: P C A 21
;
_chemical_formula_sum "Si O2"
_cell_formula_units_Z 32
_cell_length_a 30.497662
_cell_length_b 6.891477
_cell_length_c 7.074002
_cell_angle_alpha 90.000000
_cell_angle_beta 90.000000
_cell_angle_gamma 90.000000
_cell_volume 1486.770845
_symmetry_space_group_name_H-M "P C A 21"
_symmetry_group_IT_number 29
_symmetry_cell_setting 'orthorhombic'
loop_
_space_group_symop_operation_xyz
x,y,z
-x,-y,1/2+z
1/2-x,y,1/2+z
1/2+x,-y,z
loop_
_atom_site_type_symbol
_atom_site_label
_atom_site_fract_x
_atom_site_fract_y
_atom_site_fract_z
Si Si1 0.847744 0.930848 0.085660
Si Si2 0.805288 0.750198 0.443235
Si Si3 0.014324 0.250151 0.942871
Si Si4 0.554620 0.565583 0.303146
Si Si5 0.745381 0.396927 0.322862
Si Si6 0.652260 0.569413 0.300776
Si Si7 0.554605 0.934702 0.582667
Si Si8 0.245372 0.896582 0.563563
O O1 0.836517 0.855260 0.294182
O O2 0.896201 0.018912 0.074355
O O3 0.806103 0.060715 0.039916
O O4 0.847274 0.750072 0.943287
O O5 0.775327 0.592084 0.330919
O O6 0.836513 0.645154 0.592310
O O7 0.775322 0.908283 0.555551
O O8 0.955759 0.851886 0.288180
O O9 0.044307 0.352032 0.097424
O O10 0.982247 0.090463 0.033325
O O11 0.982257 0.409971 0.852591
O O12 0.603804 0.481319 0.311905
O O13 0.551966 0.750277 0.442735
O O14 0.693901 0.439536 0.346445
O O15 0.745104 0.346515 0.072190
O O16 0.754913 0.153837 0.314243
#
# Coordination Sequence:
#
# PCOD9341564 Si02
#       8
#     4   4   4   4   4   4   4   4
#     4  11  24  43  66  97 133 175 221 273 324 392
#     4  12  23  46  62  92 138 182 216 276 331 380
#     4  12  23  48  70 102 132 176 220 276 353 404
#     4  11  25  44  71 101 137 173 223 280 338 408
#     4  12  23  40  65  93 130 177 224 265 325 389
#     4  11  24  43  66  97 133 175 221 273 324 392
#     4  11  25  44  71 101 137 173 223 280 338 408
#     4  12  23  40  65  93 130 177 224 265 325 389
#
# _framework density 21.523154000000002
#
# number of rings (size 3 to 8) (size 9 to 14) (size 15 to 20)
#    0.000    0.500    6.250    3.000    1.750    0.000 
#    0.000    2.500    0.000    0.000    0.000    0.000 
#    0.000    0.000    0.000    0.000    0.000    0.000 
#
# Total GULP energy -178646.139045 kJ/mol
# GULP energy per Si atom -5582.691845 kJ/mol
# Density = 2.147417 g / cm^3
# Si number density = 21.523154 Si / 1000 Ang^3
#
#
#
# Elastic Constant Matrix: (Units=GPa)
#
#
# Indices 1 2 3 4 5 6 
#
# 1 120.2254 3.3357 12.4400 0.0000 0.0000 0.0000
# 2 3.3357 40.4235 15.7757 0.0000 0.0000 0.0000
# 3 12.4400 15.7757 112.4749 0.0000 0.0000 0.0000
# 4 0.0000 0.0000 0.0000 61.1427 0.0000 0.0000
# 5 0.0000 0.0000 0.0000 0.0000 221.2652 0.0000
# 6 0.0000 0.0000 0.0000 0.0000 0.0000 -7.8560
#
#
#
# Elastic Compliance Matrix: (Units=1/GPa)
#
#
# Indices 1 2 3 4 5 6 
#
# 1 0.008419 -0.000351 -0.000882 0.000000 0.000000 0.000000
# 2 -0.000351 0.026185 -0.003634 0.000000 0.000000 0.000000
# 3 -0.000882 -0.003634 0.009498 0.000000 0.000000 0.000000
# 4 0.000000 0.000000 0.000000 0.016355 0.000000 0.000000
# 5 0.000000 0.000000 0.000000 0.000000 0.004519 0.000000
# 6 0.000000 0.000000 0.000000 0.000000 0.000000 -0.127291
#
#
# Mechanical properties :
#
#
# Convention : Reuss Voigt Hill
#
# Bulk Modulus (GPa) = 29.09589 37.35852 33.22720
# Shear Modulus (GPa) = -121.57866 71.01522 -25.28172
#
# Velocity S-wave (km/s) = -7.52396 5.75034 -3.43100
# Velocity P-wave (km/s) = 7.86970 7.84115 0.47362
#
# Compressibility (1/GPa) = 0.03436912
#
# Stress axis : x y z
#
# Youngs Moduli (GPa) = 118.78325 38.18955 105.28407
#
# Poissons Ratio (x) = 0.01339 0.09286
# Poissons Ratio (y) = 0.04163 0.38260
# Poissons Ratio (z) = 0.10476 0.13878
#
# Static dielectric constant tensor:
#      x y z
#    x 1.693680 0.000000 0.000000 
#    y 0.000000 1.780790 0.000000 
#    z 0.000000 0.000000 2.179710 
# 
# From -- ./inp_files/2615.got.cif
#   From: 2010.05.17/outbox.cif.g08.bks.cpg/sg29_2_cif.got.tgz:2615.got - 2010.06.04 01:19:37.
