data_PCOD9341134
_publ_section_title
;
Structure prediction by ZEFSAII (Michael W. Deem and Ramdas Pophale) SiO2 
 PCOD9341134
Probable space group: P C A 21
;
_chemical_formula_sum "Si O2"
_cell_formula_units_Z 32
_cell_length_a 11.111169
_cell_length_b 14.641614
_cell_length_c 7.611688
_cell_angle_alpha 90.000000
_cell_angle_beta 90.000000
_cell_angle_gamma 90.000000
_cell_volume 1238.310869
_symmetry_space_group_name_H-M "P C A 21"
_symmetry_group_IT_number 29
_symmetry_cell_setting 'orthorhombic'
loop_
_space_group_symop_operation_xyz
x,y,z
-x,-y,1/2+z
1/2-x,y,1/2+z
1/2+x,-y,z
loop_
_atom_site_type_symbol
_atom_site_label
_atom_site_fract_x
_atom_site_fract_y
_atom_site_fract_z
Si Si1 0.299243 0.476408 0.489880
Si Si2 0.935507 0.066150 0.526293
Si Si3 0.599625 0.630622 0.668318
Si Si4 0.847227 0.830187 0.160038
Si Si5 0.263855 0.846062 0.813937
Si Si6 0.087949 0.139451 0.062417
Si Si7 0.106889 0.733824 0.603654
Si Si8 0.857612 0.405597 0.804442
O O1 0.365078 0.405625 0.362887
O O2 0.163584 0.442044 0.539080
O O3 0.277253 0.566598 0.371831
O O4 0.365443 0.503770 0.670682
O O5 0.848544 0.089483 0.362831
O O6 0.852323 0.104636 0.682142
O O7 0.057984 0.122263 0.532140
O O8 0.967198 0.961433 0.556833
O O9 0.663186 0.724036 0.617256
O O10 0.456167 0.649120 0.682304
O O11 0.893369 0.834158 0.359103
O O12 0.718247 0.875085 0.146130
O O13 0.208864 0.747778 0.750697
O O14 0.344562 0.814885 0.975940
O O15 0.020805 0.224211 0.155150
O O16 0.104957 0.641872 0.492908
#
# Coordination Sequence:
#
# PCOD9341134 Si02
#       8
#     4   4   4   4   4   4   4   4
#     4  10  24  40  71  97 132 175 220 279 345 419
#     4  11  25  44  69  97 138 187 246 292 355 413
#     4  11  22  45  65 100 134 172 225 276 349 414
#     4  12  27  46  68 102 142 191 233 304 347 427
#     4  10  23  43  66  98 134 185 234 300 345 413
#     4  12  27  42  68  98 139 187 242 289 354 420
#     4  11  23  42  67  99 137 180 230 293 347 418
#     4  11  21  42  66  99 134 173 224 277 342 414
#
# _framework density 25.841652
#
# number of rings (size 3 to 8) (size 9 to 14) (size 15 to 20)
#    0.000    1.000    2.500    3.000    7.000    1.000 
#    0.000    0.000    0.000    0.000    0.000    0.000 
#    0.000    0.000    0.000    0.000    0.000    0.000 
#
# Total GULP energy -178283.996937 kJ/mol
# GULP energy per Si atom -5571.374904 kJ/mol
# Density = 2.578283 g / cm^3
# Si number density = 25.841652 Si / 1000 Ang^3
#
#
#
# Elastic Constant Matrix: (Units=GPa)
#
#
# Indices 1 2 3 4 5 6 
#
# 1 66.7637 12.7843 18.7962 0.0000 0.0000 0.0000
# 2 12.7843 134.7340 19.9051 0.0000 0.0000 0.0000
# 3 18.7962 19.9051 52.0572 0.0000 0.0000 0.0000
# 4 0.0000 0.0000 0.0000 24.1057 0.0000 0.0000
# 5 0.0000 0.0000 0.0000 0.0000 29.8165 0.0000
# 6 0.0000 0.0000 0.0000 0.0000 0.0000 22.0518
#
#
#
# Elastic Compliance Matrix: (Units=1/GPa)
#
#
# Indices 1 2 3 4 5 6 
#
# 1 0.016742 -0.000737 -0.005763 0.000000 0.000000 0.000000
# 2 -0.000737 0.007899 -0.002754 0.000000 0.000000 0.000000
# 3 -0.005763 -0.002754 0.022344 0.000000 0.000000 0.000000
# 4 0.000000 0.000000 0.000000 0.041484 0.000000 0.000000
# 5 0.000000 0.000000 0.000000 0.000000 0.033538 0.000000
# 6 0.000000 0.000000 0.000000 0.000000 0.000000 0.045348
#
#
# Mechanical properties :
#
#
# Convention : Reuss Voigt Hill
#
# Bulk Modulus (GPa) = 35.11779 39.61401 37.36590
# Shear Modulus (GPa) = 25.59440 28.66608 27.13024
#
# Velocity S-wave (km/s) = 3.15053 3.33422 3.24368
# Velocity P-wave (km/s) = 5.18204 5.49414 5.34037
#
# Compressibility (1/GPa) = 0.02847560
#
# Stress axis : x y z
#
# Youngs Moduli (GPa) = 59.73053 126.60055 44.75553
#
# Poissons Ratio (x) = 0.09332 0.25793
# Poissons Ratio (y) = 0.04403 0.12326
# Poissons Ratio (z) = 0.34423 0.34867
#
# Static dielectric constant tensor:
#      x y z
#    x 2.195800 0.000000 0.000000 
#    y 0.000000 2.146340 0.000000 
#    z 0.000000 0.000000 2.175290 
# 
# From -- ./inp_files/1563.got.cif
#   From: 2010.05.17/outbox.cif.g08.bks.cpg/sg29_1_cif.got.tgz:1563.got - 2010.06.04 01:19:37.
