data_PCOD9341129
_publ_section_title
;
Structure prediction by ZEFSAII (Michael W. Deem and Ramdas Pophale) SiO2 
 PCOD9341129
Probable space group: P C A 21
;
_chemical_formula_sum "Si O2"
_cell_formula_units_Z 20
_cell_length_a 13.014940
_cell_length_b 5.178158
_cell_length_c 12.775475
_cell_angle_alpha 90.000000
_cell_angle_beta 90.000000
_cell_angle_gamma 90.000000
_cell_volume 860.982897
_symmetry_space_group_name_H-M "P C A 21"
_symmetry_group_IT_number 29
_symmetry_cell_setting 'orthorhombic'
loop_
_space_group_symop_operation_xyz
x,y,z
-x,-y,1/2+z
1/2-x,y,1/2+z
1/2+x,-y,z
loop_
_atom_site_type_symbol
_atom_site_label
_atom_site_fract_x
_atom_site_fract_y
_atom_site_fract_z
Si Si1 0.756948 0.788913 0.571060
Si Si2 0.304783 0.709155 0.202659
Si Si3 0.513000 0.714636 0.319231
Si Si4 0.929740 0.778039 0.415637
Si Si5 0.778611 0.913165 0.840813
O O1 0.724443 0.531022 0.630690
O O2 0.873590 0.760956 0.527014
O O3 0.697904 0.855462 0.462493
O O4 0.731702 0.035960 0.640599
O O5 0.425479 0.707702 0.230037
O O6 0.244903 0.787605 0.311781
O O7 0.504737 0.448951 0.382706
O O8 0.626111 0.788428 0.280762
O O9 0.479241 0.946561 0.395754
O O10 0.832345 0.771662 0.334253
#
# Coordination Sequence:
#
# PCOD9341129 Si02
#       5
#     4   4   4   4   4
#     4  10  23  43  65  93 137 171 221 283 334 401
#     4  11  22  42  65  97 132 172 228 275 332 412
#     4  11  21  42  67  91 132 179 218 275 344 396
#     4   9  22  40  65  89 128 173 214 276 333 404
#     4   9  24  43  68  94 139 175 223 283 349 395
#
# _framework density 23.229265000000002
#
# number of rings (size 3 to 8) (size 9 to 14) (size 15 to 20)
#    1.200    0.800    0.000    3.600    0.000    6.400 
#   10.800    0.000    0.000    0.000    0.000    0.000 
#    0.000    0.000    0.000    0.000    0.000    0.000 
#
# Total GULP energy -111507.697542 kJ/mol
# GULP energy per Si atom -5575.384877 kJ/mol
# Density = 2.317639 g / cm^3
# Si number density = 23.229265 Si / 1000 Ang^3
#
#
#
# Elastic Constant Matrix: (Units=GPa)
#
#
# Indices 1 2 3 4 5 6 
#
# 1 86.7244 -3.8861 16.9858 0.0000 0.0000 0.0000
# 2 -3.8861 126.6804 45.5516 0.0000 0.0000 0.0000
# 3 16.9858 45.5516 78.7018 0.0000 0.0000 0.0000
# 4 0.0000 0.0000 0.0000 42.6407 0.0000 0.0000
# 5 0.0000 0.0000 0.0000 0.0000 25.4338 0.0000
# 6 0.0000 0.0000 0.0000 0.0000 0.0000 18.4661
#
#
#
# Elastic Compliance Matrix: (Units=1/GPa)
#
#
# Indices 1 2 3 4 5 6 
#
# 1 0.012318 0.001684 -0.003633 0.000000 0.000000 0.000000
# 2 0.001684 0.010199 -0.006266 0.000000 0.000000 0.000000
# 3 -0.003633 -0.006266 0.017117 0.000000 0.000000 0.000000
# 4 0.000000 0.000000 0.000000 0.023452 0.000000 0.000000
# 5 0.000000 0.000000 0.000000 0.000000 0.039318 0.000000
# 6 0.000000 0.000000 0.000000 0.000000 0.000000 0.054153
#
#
# Mechanical properties :
#
#
# Convention : Reuss Voigt Hill
#
# Bulk Modulus (GPa) = 43.09783 45.48991 44.29387
# Shear Modulus (GPa) = 27.66677 32.87181 30.26929
#
# Velocity S-wave (km/s) = 3.45488 3.76587 3.61372
# Velocity P-wave (km/s) = 5.87439 6.20762 6.04330
#
# Compressibility (1/GPa) = 0.02320302
#
# Stress axis : x y z
#
# Youngs Moduli (GPa) = 81.18273 98.05030 58.42034
#
# Poissons Ratio (x) = -0.16515 0.21226
# Poissons Ratio (y) = -0.13674 0.36609
# Poissons Ratio (z) = 0.29497 0.61443
#
# Static dielectric constant tensor:
#      x y z
#    x 1.934510 0.000000 0.000000 
#    y 0.000000 1.878080 0.000000 
#    z 0.000000 0.000000 2.050890 
# 
# From -- ./inp_files/3305.got.cif
#   From: 2010.05.17/outbox.cif.g08.bks.cpg/sg29_2_cif.got.tgz:3305.got - 2010.06.04 01:19:37.
