data_PCOD9341969
_publ_section_title
;
Structure prediction by ZEFSAII (Michael W. Deem and Ramdas Pophale) SiO2 
 PCOD9341969
Probable space group: P N C 2
;
_chemical_formula_sum "Si O2"
_cell_formula_units_Z 24
_cell_length_a 7.828851
_cell_length_b 13.282941
_cell_length_c 9.176097
_cell_angle_alpha 90.000000
_cell_angle_beta 90.000000
_cell_angle_gamma 90.000000
_cell_volume 954.223850
_symmetry_space_group_name_H-M "P N C 2"
_symmetry_group_IT_number 30
_symmetry_cell_setting 'orthorhombic'
loop_
_space_group_symop_operation_xyz
x,y,z
-x,-y,z
-x,1/2+y,1/2+z
x,1/2-y,1/2+z
loop_
_atom_site_type_symbol
_atom_site_label
_atom_site_fract_x
_atom_site_fract_y
_atom_site_fract_z
Si Si1 0.883641 0.202363 0.301790
Si Si2 0.470781 0.641625 0.848813
Si Si3 0.316246 0.096966 0.598809
Si Si4 0.470781 0.358375 0.503462
Si Si5 0.316246 0.903034 0.753465
Si Si6 0.116359 0.202363 0.050484
O O1 0.734186 0.131283 0.363137
O O2 0.789731 0.301564 0.235599
O O3 0.000000 0.155347 0.176137
O O4 0.000001 0.250000 0.426137
O O5 0.500000 0.638496 0.676137
O O6 0.620088 0.580558 0.932137
O O7 0.500000 0.750000 0.926137
O O8 0.500000 0.110081 0.676137
O O9 0.210270 0.198436 0.616676
O O10 0.235678 0.000000 0.676137
O O11 0.620089 0.419442 0.420137
O O12 0.265815 0.368716 0.489138
#
# Coordination Sequence:
#
# PCOD9341969 Si02
#       6
#     4   4   4   4   4   4
#     4  11  20  33  58  94 126 156 206 272 324 373
#     4  10  19  36  61  89 122 166 222 266 303 376
#     4  10  21  39  60  86 125 174 217 258 319 394
#     4  10  19  36  61  89 122 166 222 266 303 376
#     4  10  21  39  60  86 125 174 217 258 319 394
#     4  11  20  33  58  94 126 156 206 272 324 373
#
# _framework density 25.151332
#
# number of rings (size 3 to 8) (size 9 to 14) (size 15 to 20)
#    0.000    1.667    0.000   10.000    0.000    0.667 
#    0.000    5.000    0.000    0.000    0.000   11.667 
#    0.000    0.000    0.000    0.000    0.000    0.000 
#
# Total GULP energy -134061.856384 kJ/mol
# GULP energy per Si atom -5585.910683 kJ/mol
# Density = 2.509409 g / cm^3
# Si number density = 25.151332 Si / 1000 Ang^3
#
#
#
# Elastic Constant Matrix: (Units=GPa)
#
#
# Indices 1 2 3 4 5 6 
#
# 1 107.6897 14.2662 27.5603 0.0000 0.0000 0.0000
# 2 14.2662 105.6254 2.1118 0.0000 0.0000 0.0000
# 3 27.5603 2.1118 165.6433 0.0000 0.0000 0.0000
# 4 0.0000 0.0000 0.0000 23.3644 0.0000 0.0000
# 5 0.0000 0.0000 0.0000 0.0000 54.6419 0.0000
# 6 0.0000 0.0000 0.0000 0.0000 0.0000 29.9571
#
#
#
# Elastic Compliance Matrix: (Units=1/GPa)
#
#
# Indices 1 2 3 4 5 6 
#
# 1 0.009875 -0.001301 -0.001626 0.000000 0.000000 0.000000
# 2 -0.001301 0.009641 0.000094 0.000000 0.000000 0.000000
# 3 -0.001626 0.000094 0.006306 0.000000 0.000000 0.000000
# 4 0.000000 0.000000 0.000000 0.042800 0.000000 0.000000
# 5 0.000000 0.000000 0.000000 0.000000 0.018301 0.000000
# 6 0.000000 0.000000 0.000000 0.000000 0.000000 0.033381
#
#
# Mechanical properties :
#
#
# Convention : Reuss Voigt Hill
#
# Bulk Modulus (GPa) = 49.61707 51.87057 50.74382
# Shear Modulus (GPa) = 37.68165 43.92735 40.80450
#
# Velocity S-wave (km/s) = 3.87485 4.18367 4.03222
# Velocity P-wave (km/s) = 6.30790 6.63368 6.47284
#
# Compressibility (1/GPa) = 0.02015436
#
# Stress axis : x y z
#
# Youngs Moduli (GPa) = 101.27056 103.72056 158.56718
#
# Poissons Ratio (x) = 0.13496 0.25789
# Poissons Ratio (y) = 0.13177 -0.01484
# Poissons Ratio (z) = 0.16470 -0.00971
#
# Static dielectric constant tensor:
#      x y z
#    x 2.054250 0.000000 0.000000 
#    y 0.000000 2.203480 0.000000 
#    z 0.000000 0.000000 2.107220 
# 
# From -- ./inp_files/1951.got.cif
#   From: 2010.05.17/outbox.cif.g08.bks.cpg/sg30_1_cif.got.tgz:1951.got - 2010.06.03 17:03:02.
