data_PCOD9341302
_publ_section_title
;
Structure prediction by ZEFSAII (Michael W. Deem and Ramdas Pophale) SiO2 
 PCOD9341302
Probable space group: P C A 21
;
_chemical_formula_sum "Si O2"
_cell_formula_units_Z 16
_cell_length_a 15.435853
_cell_length_b 4.937508
_cell_length_c 7.979299
_cell_angle_alpha 90.000000
_cell_angle_beta 90.000000
_cell_angle_gamma 90.000000
_cell_volume 608.139462
_symmetry_space_group_name_H-M "P C A 21"
_symmetry_group_IT_number 29
_symmetry_cell_setting 'orthorhombic'
loop_
_space_group_symop_operation_xyz
x,y,z
-x,-y,1/2+z
1/2-x,y,1/2+z
1/2+x,-y,z
loop_
_atom_site_type_symbol
_atom_site_label
_atom_site_fract_x
_atom_site_fract_y
_atom_site_fract_z
Si Si1 0.841745 0.742509 0.439330
Si Si2 0.904906 0.418068 0.754261
Si Si3 0.335487 0.287588 0.061965
Si Si4 0.990158 0.909146 0.877620
O O1 0.867094 0.522147 0.580104
O O2 0.751763 0.867049 0.507577
O O3 0.826512 0.627005 0.253075
O O4 0.919252 0.956004 0.416794
O O5 0.932646 0.111512 0.765567
O O6 0.988012 0.614843 0.791306
O O7 0.846417 0.486030 0.917021
O O8 0.425481 0.126563 0.036875
#
# Coordination Sequence:
#
# PCOD9341302 Si02
#       4
#     4   4   4   4
#     4  12  22  48  74 105 147 193 235 306 354 436
#     4  10  25  48  64 109 136 189 238 291 354 428
#     4  10  24  46  68 110 140 188 239 294 358 427
#     4  10  25  48  72 102 147 182 244 289 364 419
#
# _framework density 26.309752
#
# number of rings (size 3 to 8) (size 9 to 14) (size 15 to 20)
#    1.500    0.000    2.500    1.500    3.500    0.000 
#   18.000    0.000    0.000    0.000    0.000    0.000 
#    0.000    0.000    0.000    0.000    0.000    0.000 
#
# Total GULP energy -89476.763290 kJ/mol
# GULP energy per Si atom -5592.297706 kJ/mol
# Density = 2.624987 g / cm^3
# Si number density = 26.309752 Si / 1000 Ang^3
#
#
#
# Elastic Constant Matrix: (Units=GPa)
#
#
# Indices 1 2 3 4 5 6 
#
# 1 129.1013 -15.5667 45.9857 0.0000 0.0000 0.0000
# 2 -15.5667 57.2049 20.0298 0.0000 0.0000 0.0000
# 3 45.9857 20.0298 247.9331 0.0000 0.0000 0.0000
# 4 0.0000 0.0000 0.0000 24.8486 0.0000 0.0000
# 5 0.0000 0.0000 0.0000 0.0000 46.8135 0.0000
# 6 0.0000 0.0000 0.0000 0.0000 0.0000 21.5578
#
#
#
# Elastic Compliance Matrix: (Units=1/GPa)
#
#
# Indices 1 2 3 4 5 6 
#
# 1 0.008781 0.003046 -0.001875 0.000000 0.000000 0.000000
# 2 0.003046 0.019046 -0.002104 0.000000 0.000000 0.000000
# 3 -0.001875 -0.002104 0.004551 0.000000 0.000000 0.000000
# 4 0.000000 0.000000 0.000000 0.040244 0.000000 0.000000
# 5 0.000000 0.000000 0.000000 0.000000 0.021361 0.000000
# 6 0.000000 0.000000 0.000000 0.000000 0.000000 0.046387
#
#
# Mechanical properties :
#
#
# Convention : Reuss Voigt Hill
#
# Bulk Modulus (GPa) = 32.77247 59.45965 46.11606
# Shear Modulus (GPa) = 32.80701 44.23002 38.51851
#
# Velocity S-wave (km/s) = 3.53505 4.10460 3.83043
# Velocity P-wave (km/s) = 5.39866 6.71659 6.09336
#
# Compressibility (1/GPa) = 0.03051342
#
# Stress axis : x y z
#
# Youngs Moduli (GPa) = 113.88363 52.50318 219.73145
#
# Poissons Ratio (x) = -0.15992 0.41193
# Poissons Ratio (y) = -0.34688 0.46224
# Poissons Ratio (z) = 0.21350 0.11045
#
# Static dielectric constant tensor:
#      x y z
#    x 2.090150 0.000000 0.000000 
#    y 0.000000 2.006150 0.000000 
#    z 0.000000 0.000000 2.107680 
# 
# From -- ./inp_files/1934.got.cif
#   From: 2010.05.17/outbox.cif.g08.bks.cpg/sg29_1_cif.got.tgz:1934.got - 2010.06.04 01:19:37.
