data_PCOD9341806
_publ_section_title
;
Structure prediction by ZEFSAII (Michael W. Deem and Ramdas Pophale) SiO2 
 PCOD9341806
Probable space group: P N C 2
;
_chemical_formula_sum "Si O2"
_cell_formula_units_Z 32
_cell_length_a 8.674744
_cell_length_b 16.762440
_cell_length_c 12.080068
_cell_angle_alpha 90.000000
_cell_angle_beta 90.000000
_cell_angle_gamma 90.000000
_cell_volume 1756.561188
_symmetry_space_group_name_H-M "P N C 2"
_symmetry_group_IT_number 30
_symmetry_cell_setting 'orthorhombic'
loop_
_space_group_symop_operation_xyz
x,y,z
-x,-y,z
-x,1/2+y,1/2+z
x,1/2-y,1/2+z
loop_
_atom_site_type_symbol
_atom_site_label
_atom_site_fract_x
_atom_site_fract_y
_atom_site_fract_z
Si Si1 0.396974 0.921259 0.539380
Si Si2 0.109771 0.578923 0.602167
Si Si3 0.183317 0.587107 0.847487
Si Si4 0.319074 0.016194 0.943842
Si Si5 0.692054 0.667257 0.069795
Si Si6 0.832108 0.603420 0.853092
Si Si7 0.820574 0.979909 0.699142
Si Si8 0.199081 0.345514 0.601382
O O1 0.313864 0.885152 0.431612
O O2 0.515580 0.858125 0.590653
O O3 0.500000 0.000000 0.510285
O O4 0.271017 0.954686 0.625548
O O5 0.199597 0.597470 0.715579
O O6 0.225324 0.554132 0.506131
O O7 0.000000 0.500000 0.623433
O O8 0.984247 0.646411 0.575122
O O9 0.181540 0.491623 0.867676
O O10 0.013346 0.621216 0.872527
O O11 0.251733 0.023968 0.821035
O O12 0.500000 0.000000 0.940357
O O13 0.283655 0.094570 0.017337
O O14 0.793712 0.604874 0.139842
O O15 0.735886 0.757284 0.093705
O O16 0.729107 0.648121 0.941879
O O17 0.787671 0.624796 0.728020
O O18 0.000000 0.000000 0.703927
#
# Coordination Sequence:
#
# PCOD9341806 Si02
#       8
#     4   4   4   4   4   4   4   4
#     4  10  20  32  55  89 115 145 191 241 288 343
#     4   9  17  35  60  85 110 149 197 239 271 344
#     4  10  15  32  59  85 110 133 196 246 274 330
#     4  11  22  38  61  86 115 152 196 244 290 343
#     4  11  23  36  57  86 120 151 186 242 297 344
#     4  10  18  34  58  85 107 150 189 235 289 335
#     4  11  22  39  62  83 109 159 204 237 281 348
#     4  10  22  39  57  84 118 153 195 230 291 351
#
# _framework density 18.217413000000001
#
# number of rings (size 3 to 8) (size 9 to 14) (size 15 to 20)
#    0.000    1.750    6.250    3.000    1.750    1.500 
#    0.000    2.500    2.750    0.000    0.000    0.000 
#    0.000    0.000    0.000    0.000    0.000    0.000 
#
# Total GULP energy -178517.861898 kJ/mol
# GULP energy per Si atom -5578.683184 kJ/mol
# Density = 1.817595 g / cm^3
# Si number density = 18.217413 Si / 1000 Ang^3
#
#
#
# Elastic Constant Matrix: (Units=GPa)
#
#
# Indices 1 2 3 4 5 6 
#
# 1 122.8733 52.7557 70.2540 0.0000 0.0000 0.0000
# 2 52.7557 77.3965 27.6658 0.0000 0.0000 0.0000
# 3 70.2540 27.6658 116.5689 0.0000 0.0000 0.0000
# 4 0.0000 0.0000 0.0000 -0.8472 0.0000 0.0000
# 5 0.0000 0.0000 0.0000 0.0000 347.8651 0.0000
# 6 0.0000 0.0000 0.0000 0.0000 0.0000 19.3929
#
#
#
# Elastic Compliance Matrix: (Units=1/GPa)
#
#
# Indices 1 2 3 4 5 6 
#
# 1 0.016090 -0.008196 -0.007752 0.000000 0.000000 0.000000
# 2 -0.008196 0.018294 0.000598 0.000000 0.000000 0.000000
# 3 -0.007752 0.000598 0.013108 0.000000 0.000000 0.000000
# 4 0.000000 0.000000 0.000000 -1.180425 0.000000 0.000000
# 5 0.000000 0.000000 0.000000 0.000000 0.002875 0.000000
# 6 0.000000 0.000000 0.000000 0.000000 0.000000 0.051565
#
#
# Mechanical properties :
#
#
# Convention : Reuss Voigt Hill
#
# Bulk Modulus (GPa) = 59.55269 68.68775 64.12022
# Shear Modulus (GPa) = -4.79756 84.35971 39.78107
#
# Velocity S-wave (km/s) = -1.62457 6.81232 4.67806
# Velocity P-wave (km/s) = 5.40759 9.98315 8.02824
#
# Compressibility (1/GPa) = 0.01679185
#
# Stress axis : x y z
#
# Youngs Moduli (GPa) = 62.15179 54.66415 76.28652
#
# Poissons Ratio (x) = 0.44804 0.59135
# Poissons Ratio (y) = 0.50941 -0.04562
# Poissons Ratio (z) = 0.48178 -0.03269
#
# Static dielectric constant tensor:
#      x y z
#    x 1.631260 0.000000 0.000000 
#    y 0.000000 1.616660 0.000000 
#    z 0.000000 0.000000 1.630270 
# 
# From -- ./inp_files/3855.got.cif
#   From: 2010.05.17/outbox.cif.g08.bks.cpg/sg30_2_cif.got.tgz:3855.got - 2010.06.03 17:03:02.
