data_PCOD9341156
_publ_section_title
;
Structure prediction by ZEFSAII (Michael W. Deem and Ramdas Pophale) SiO2 
 PCOD9341156
Probable space group: P C A 21
;
_chemical_formula_sum "Si O2"
_cell_formula_units_Z 28
_cell_length_a 13.069010
_cell_length_b 9.935365
_cell_length_c 10.107271
_cell_angle_alpha 90.000000
_cell_angle_beta 90.000000
_cell_angle_gamma 90.000000
_cell_volume 1312.382490
_symmetry_space_group_name_H-M "P C A 21"
_symmetry_group_IT_number 29
_symmetry_cell_setting 'orthorhombic'
loop_
_space_group_symop_operation_xyz
x,y,z
-x,-y,1/2+z
1/2-x,y,1/2+z
1/2+x,-y,z
loop_
_atom_site_type_symbol
_atom_site_label
_atom_site_fract_x
_atom_site_fract_y
_atom_site_fract_z
Si Si1 0.440869 0.157378 0.965940
Si Si2 0.621058 0.792351 0.747113
Si Si3 0.838182 0.128807 0.015021
Si Si4 0.798891 0.608480 0.649671
Si Si5 0.650831 0.093972 0.826933
Si Si6 0.488316 0.351217 0.476157
Si Si7 0.348713 0.439097 0.924497
O O1 0.542263 0.149541 0.878248
O O2 0.370248 0.279419 0.916687
O O3 0.384230 0.014360 0.967579
O O4 0.455263 0.184445 0.123508
O O5 0.725836 0.734100 0.686466
O O6 0.576195 0.682112 0.845503
O O7 0.640123 0.930836 0.824764
O O8 0.736184 0.144598 0.929065
O O9 0.922854 0.241122 0.986887
O O10 0.823216 0.127061 0.173979
O O11 0.908625 0.653029 0.595908
O O12 0.737861 0.534595 0.532725
O O13 0.813537 0.518639 0.779338
O O14 0.546156 0.492172 0.466701
#
# Coordination Sequence:
#
# PCOD9341156 Si02
#       7
#     4   4   4   4   4   4   4
#     4  10  23  44  67  97 134 181 230 280 341 405
#     4  10  23  44  71  99 131 191 225 282 346 419
#     4  11  26  41  69 104 136 180 226 281 339 411
#     4  11  24  46  70 100 139 183 231 277 348 419
#     4  11  24  42  70 101 139 178 227 289 346 403
#     4  12  26  44  70 104 139 176 236 282 344 409
#     4  11  26  43  73  99 136 183 231 279 342 410
#
# _framework density 21.335243999999999
#
# number of rings (size 3 to 8) (size 9 to 14) (size 15 to 20)
#    0.000    1.143    2.857    1.714   10.000    2.286 
#    0.000    0.000    0.000    0.000    0.000    0.000 
#    0.000    0.000    0.000    0.000    0.000    0.000 
#
# Total GULP energy -156522.831566 kJ/mol
# GULP energy per Si atom -5590.101127 kJ/mol
# Density = 2.128668 g / cm^3
# Si number density = 21.335244 Si / 1000 Ang^3
#
#
#
# Elastic Constant Matrix: (Units=GPa)
#
#
# Indices 1 2 3 4 5 6 
#
# 1 105.9101 9.5603 70.9559 0.0000 0.0000 0.0000
# 2 9.5603 34.1480 14.8812 0.0000 0.0000 0.0000
# 3 70.9559 14.8812 119.4209 0.0000 0.0000 0.0000
# 4 0.0000 0.0000 0.0000 9.8318 0.0000 0.0000
# 5 0.0000 0.0000 0.0000 0.0000 43.3761 0.0000
# 6 0.0000 0.0000 0.0000 0.0000 0.0000 24.8877
#
#
#
# Elastic Compliance Matrix: (Units=1/GPa)
#
#
# Indices 1 2 3 4 5 6 
#
# 1 0.015690 -0.000349 -0.009279 0.000000 0.000000 0.000000
# 2 -0.000349 0.030974 -0.003652 0.000000 0.000000 0.000000
# 3 -0.009279 -0.003652 0.014342 0.000000 0.000000 0.000000
# 4 0.000000 0.000000 0.000000 0.101711 0.000000 0.000000
# 5 0.000000 0.000000 0.000000 0.000000 0.023054 0.000000
# 6 0.000000 0.000000 0.000000 0.000000 0.000000 0.040181
#
#
# Mechanical properties :
#
#
# Convention : Reuss Voigt Hill
#
# Bulk Modulus (GPa) = 29.03166 50.03042 39.53104
# Shear Modulus (GPa) = 18.93982 26.55789 22.74885
#
# Velocity S-wave (km/s) = 2.98270 3.53198 3.26890
# Velocity P-wave (km/s) = 5.04965 6.33512 5.72856
#
# Compressibility (1/GPa) = 0.03444516
#
# Stress axis : x y z
#
# Youngs Moduli (GPa) = 63.73453 32.28555 69.72463
#
# Poissons Ratio (x) = 0.01127 0.64698
# Poissons Ratio (y) = 0.02225 0.25465
# Poissons Ratio (z) = 0.59139 0.11792
#
# Static dielectric constant tensor:
#      x y z
#    x 1.728000 0.000000 0.000000 
#    y 0.000000 1.759740 0.000000 
#    z 0.000000 0.000000 1.803580 
# 
# From -- ./inp_files/1460.got.cif
#   From: 2010.05.17/outbox.cif.g08.bks.cpg/sg29_1_cif.got.tgz:1460.got - 2010.06.04 01:19:37.
