data_PCOD9341586
_publ_section_title
;
Structure prediction by ZEFSAII (Michael W. Deem and Ramdas Pophale) SiO2 
 PCOD9341586
Probable space group: P C A 21
;
_chemical_formula_sum "Si O2"
_cell_formula_units_Z 24
_cell_length_a 4.746206
_cell_length_b 20.910853
_cell_length_c 8.118687
_cell_angle_alpha 90.000000
_cell_angle_beta 90.000000
_cell_angle_gamma 90.000000
_cell_volume 805.757082
_symmetry_space_group_name_H-M "P C A 21"
_symmetry_group_IT_number 29
_symmetry_cell_setting 'orthorhombic'
loop_
_space_group_symop_operation_xyz
x,y,z
-x,-y,1/2+z
1/2-x,y,1/2+z
1/2+x,-y,z
loop_
_atom_site_type_symbol
_atom_site_label
_atom_site_fract_x
_atom_site_fract_y
_atom_site_fract_z
Si Si1 0.861504 0.800680 0.014430
Si Si2 0.936409 0.376066 0.981688
Si Si3 0.409554 0.877500 0.813858
Si Si4 0.525003 0.544601 0.294033
Si Si5 0.613412 0.704830 0.261838
Si Si6 0.013948 0.045234 0.135467
O O1 0.808745 0.744960 0.142335
O O2 0.989024 0.856786 0.127750
O O3 0.574164 0.824017 0.925647
O O4 0.025663 0.760183 0.874164
O O5 0.651370 0.402764 0.899256
O O6 0.169483 0.344372 0.858116
O O7 0.029969 0.432159 0.106440
O O8 0.897469 0.324087 0.127886
O O9 0.087523 0.898927 0.761503
O O10 0.470898 0.933264 0.948266
O O11 0.840669 0.519651 0.315563
O O12 0.819410 0.983176 0.161325
#
# Coordination Sequence:
#
# PCOD9341586 Si02
#       6
#     4   4   4   4   4   4
#     4   9  21  47  80 120 162 213 276 340 412 496
#     4  11  24  45  79 116 164 215 270 342 415 488
#     4  11  24  45  79 116 164 215 270 342 415 488
#     4  12  27  48  76 116 158 210 272 334 405 492
#     4   9  21  47  80 120 162 213 276 340 412 496
#     4  12  27  48  76 116 158 210 272 334 405 492
#
# _framework density 29.785654000000001
#
# number of rings (size 3 to 8) (size 9 to 14) (size 15 to 20)
#    0.000    1.333    0.000    4.000    0.000   10.667 
#    0.000   21.667    0.000    0.000    0.000    0.000 
#    0.000    0.000    0.000    0.000    0.000    0.000 
#
# Total GULP energy -133908.759108 kJ/mol
# GULP energy per Si atom -5579.531630 kJ/mol
# Density = 2.971786 g / cm^3
# Si number density = 29.785654 Si / 1000 Ang^3
#
#
#
# Elastic Constant Matrix: (Units=GPa)
#
#
# Indices 1 2 3 4 5 6 
#
# 1 78.7749 50.0445 53.8737 0.0000 0.0000 0.0000
# 2 50.0445 149.5090 74.6774 0.0000 0.0000 0.0000
# 3 53.8737 74.6774 205.8173 0.0000 0.0000 0.0000
# 4 0.0000 0.0000 0.0000 89.6889 0.0000 0.0000
# 5 0.0000 0.0000 0.0000 0.0000 61.4613 0.0000
# 6 0.0000 0.0000 0.0000 0.0000 0.0000 44.0416
#
#
#
# Elastic Compliance Matrix: (Units=1/GPa)
#
#
# Indices 1 2 3 4 5 6 
#
# 1 0.017521 -0.004365 -0.003002 0.000000 0.000000 0.000000
# 2 -0.004365 0.009257 -0.002216 0.000000 0.000000 0.000000
# 3 -0.003002 -0.002216 0.006449 0.000000 0.000000 0.000000
# 4 0.000000 0.000000 0.000000 0.011150 0.000000 0.000000
# 5 0.000000 0.000000 0.000000 0.000000 0.016270 0.000000
# 6 0.000000 0.000000 0.000000 0.000000 0.000000 0.022706
#
#
# Mechanical properties :
#
#
# Convention : Reuss Voigt Hill
#
# Bulk Modulus (GPa) = 71.12845 87.92138 79.52491
# Shear Modulus (GPa) = 46.63970 56.07206 51.35588
#
# Velocity S-wave (km/s) = 3.96137 4.34351 4.15683
# Velocity P-wave (km/s) = 6.69740 7.39844 7.05663
#
# Compressibility (1/GPa) = 0.01405907
#
# Stress axis : x y z
#
# Youngs Moduli (GPa) = 57.07529 108.03215 155.07235
#
# Poissons Ratio (x) = 0.47156 0.46558
# Poissons Ratio (y) = 0.24913 0.34364
# Poissons Ratio (z) = 0.17136 0.23940
#
# Static dielectric constant tensor:
#      x y z
#    x 2.352470 0.000000 0.000000 
#    y 0.000000 2.523760 0.000000 
#    z 0.000000 0.000000 2.296000 
# 
# From -- ./inp_files/994.got.cif
#   From: 2010.05.17/outbox.cif.g08.bks.cpg/sg29_1_cif.got.tgz:994.got - 2010.06.04 01:19:37.
