data_PCOD9341737
_publ_section_title
;
Structure prediction by ZEFSAII (Michael W. Deem and Ramdas Pophale) SiO2 
 PCOD9341737
Probable space group: P C A 21
;
_chemical_formula_sum "Si O2"
_cell_formula_units_Z 20
_cell_length_a 16.472167
_cell_length_b 9.735724
_cell_length_c 4.978790
_cell_angle_alpha 90.000000
_cell_angle_beta 90.000000
_cell_angle_gamma 90.000000
_cell_volume 798.440943
_symmetry_space_group_name_H-M "P C A 21"
_symmetry_group_IT_number 29
_symmetry_cell_setting 'orthorhombic'
loop_
_space_group_symop_operation_xyz
x,y,z
-x,-y,1/2+z
1/2-x,y,1/2+z
1/2+x,-y,z
loop_
_atom_site_type_symbol
_atom_site_label
_atom_site_fract_x
_atom_site_fract_y
_atom_site_fract_z
Si Si1 0.122318 0.416279 0.618720
Si Si2 0.199264 0.138231 0.417698
Si Si3 0.548690 0.044853 0.583666
Si Si4 0.056577 0.673011 0.287340
Si Si5 0.304127 0.652389 0.405322
O O1 0.166122 0.290599 0.476508
O O2 0.098397 0.539558 0.418405
O O3 0.036422 0.362412 0.727539
O O4 0.176757 0.490359 0.847210
O O5 0.222454 0.119850 0.108378
O O6 0.131518 0.033130 0.517451
O O7 0.556426 0.200852 0.489878
O O8 0.481217 0.978414 0.385108
O O9 0.111075 0.705013 0.025811
O O10 0.262305 0.693201 0.127444
#
# Coordination Sequence:
#
# PCOD9341737 Si02
#       5
#     4   4   4   4   4
#     4  12  26  48  79 119 154 203 260 326 391 468
#     4  12  29  52  80 114 158 207 258 319 394 466
#     4  12  29  53  80 112 156 211 261 318 383 472
#     4  12  28  46  83 113 156 204 267 317 392 463
#     4  12  26  45  70 114 158 197 244 322 390 451
#
# _framework density 25.048814
#
# number of rings (size 3 to 8) (size 9 to 14) (size 15 to 20)
#    0.000    0.000    6.000    2.400    8.400    1.600 
#    0.000    0.000    0.000    0.000    0.000    0.000 
#    0.000    0.000    0.000    0.000    0.000    0.000 
#
# Total GULP energy -112164.839687 kJ/mol
# GULP energy per Si atom -5608.241984 kJ/mol
# Density = 2.499180 g / cm^3
# Si number density = 25.048814 Si / 1000 Ang^3
#
#
#
# Elastic Constant Matrix: (Units=GPa)
#
#
# Indices 1 2 3 4 5 6 
#
# 1 65.6905 14.6797 22.7989 0.0000 0.0000 0.0000
# 2 14.6797 45.8502 28.3848 0.0000 0.0000 0.0000
# 3 22.7989 28.3848 80.8367 0.0000 0.0000 0.0000
# 4 0.0000 0.0000 0.0000 27.5918 0.0000 0.0000
# 5 0.0000 0.0000 0.0000 0.0000 53.3499 0.0000
# 6 0.0000 0.0000 0.0000 0.0000 0.0000 38.3834
#
#
#
# Elastic Compliance Matrix: (Units=1/GPa)
#
#
# Indices 1 2 3 4 5 6 
#
# 1 0.017236 -0.003206 -0.003735 0.000000 0.000000 0.000000
# 2 -0.003206 0.028464 -0.009091 0.000000 0.000000 0.000000
# 3 -0.003735 -0.009091 0.016616 0.000000 0.000000 0.000000
# 4 0.000000 0.000000 0.000000 0.036243 0.000000 0.000000
# 5 0.000000 0.000000 0.000000 0.000000 0.018744 0.000000
# 6 0.000000 0.000000 0.000000 0.000000 0.000000 0.026053
#
#
# Mechanical properties :
#
#
# Convention : Reuss Voigt Hill
#
# Bulk Modulus (GPa) = 33.05520 36.01158 34.53339
# Shear Modulus (GPa) = 26.95356 32.29930 29.62643
#
# Velocity S-wave (km/s) = 3.28387 3.59479 3.44284
# Velocity P-wave (km/s) = 5.25389 5.62475 5.44248
#
# Compressibility (1/GPa) = 0.03025242
#
# Stress axis : x y z
#
# Youngs Moduli (GPa) = 58.01898 35.13160 60.18197
#
# Poissons Ratio (x) = 0.11262 0.22481
# Poissons Ratio (y) = 0.18599 0.54710
# Poissons Ratio (z) = 0.21673 0.31937
#
# Static dielectric constant tensor:
#      x y z
#    x 1.982650 0.000000 0.000000 
#    y 0.000000 1.957490 0.000000 
#    z 0.000000 0.000000 2.005460 
# 
# From -- ./inp_files/354.got.cif
#   From: 2010.05.17/outbox.cif.g08.bks.cpg/sg29_1_cif.got.tgz:354.got - 2010.06.04 01:19:37.
