data_PCOD9341341
_publ_section_title
;
Structure prediction by ZEFSAII (Michael W. Deem and Ramdas Pophale) SiO2 
 PCOD9341341
Probable space group: P C A 21
;
_chemical_formula_sum "Si O2"
_cell_formula_units_Z 28
_cell_length_a 14.695698
_cell_length_b 6.326387
_cell_length_c 12.964394
_cell_angle_alpha 90.000000
_cell_angle_beta 90.000000
_cell_angle_gamma 90.000000
_cell_volume 1205.308432
_symmetry_space_group_name_H-M "P C A 21"
_symmetry_group_IT_number 29
_symmetry_cell_setting 'orthorhombic'
loop_
_space_group_symop_operation_xyz
x,y,z
-x,-y,1/2+z
1/2-x,y,1/2+z
1/2+x,-y,z
loop_
_atom_site_type_symbol
_atom_site_label
_atom_site_fract_x
_atom_site_fract_y
_atom_site_fract_z
Si Si1 0.990204 0.076176 0.167190
Si Si2 0.595351 0.243351 0.457871
Si Si3 0.129306 0.718826 0.823311
Si Si4 0.982992 0.639478 0.260153
Si Si5 0.230676 0.471742 0.987866
Si Si6 0.234562 0.081190 0.362916
Si Si7 0.851589 0.653851 0.688450
O O1 0.960309 0.161543 0.281409
O O2 0.093830 0.140685 0.147447
O O3 0.936420 0.183227 0.072996
O O4 0.972935 0.830495 0.180954
O O5 0.514651 0.296322 0.376728
O O6 0.669665 0.432708 0.463500
O O7 0.650329 0.044044 0.412005
O O8 0.157088 0.629562 0.935207
O O9 0.108751 0.498590 0.764630
O O10 0.205058 0.899891 0.808007
O O11 0.068726 0.505561 0.220149
O O12 0.218607 0.231079 0.947747
O O13 0.211808 0.461140 0.107866
O O14 0.203003 0.255960 0.282979
#
# Coordination Sequence:
#
# PCOD9341341 Si02
#       7
#     4   4   4   4   4   4   4
#     4  11  25  43  73 105 143 191 237 298 356 443
#     4  11  25  43  71 106 145 192 239 294 372 425
#     4  10  25  44  70 105 136 189 237 291 358 425
#     4  11  23  48  69 102 148 184 237 306 353 438
#     4  11  25  44  72 105 144 189 240 299 355 438
#     4  11  24  45  71 104 143 186 238 304 350 436
#     4  11  25  45  72 103 141 189 236 296 368 421
#
# _framework density 23.230568999999999
#
# number of rings (size 3 to 8) (size 9 to 14) (size 15 to 20)
#    0.000    1.143    2.857    1.714    4.000    5.714 
#    0.000    0.000    0.000    0.000    0.000    0.000 
#    0.000    0.000    0.000    0.000    0.000    0.000 
#
# Total GULP energy -156173.333618 kJ/mol
# GULP energy per Si atom -5577.619058 kJ/mol
# Density = 2.317770 g / cm^3
# Si number density = 23.230569 Si / 1000 Ang^3
#
#
#
# Elastic Constant Matrix: (Units=GPa)
#
#
# Indices 1 2 3 4 5 6 
#
# 1 63.1698 19.1924 40.1288 0.0000 0.0000 0.0000
# 2 19.1924 99.9025 30.9904 0.0000 0.0000 0.0000
# 3 40.1288 30.9904 86.0752 0.0000 0.0000 0.0000
# 4 0.0000 0.0000 0.0000 22.5171 0.0000 0.0000
# 5 0.0000 0.0000 0.0000 0.0000 36.0595 0.0000
# 6 0.0000 0.0000 0.0000 0.0000 0.0000 28.0679
#
#
#
# Elastic Compliance Matrix: (Units=1/GPa)
#
#
# Indices 1 2 3 4 5 6 
#
# 1 0.022620 -0.001209 -0.010110 0.000000 0.000000 0.000000
# 2 -0.001209 0.011333 -0.003517 0.000000 0.000000 0.000000
# 3 -0.010110 -0.003517 0.017597 0.000000 0.000000 0.000000
# 4 0.000000 0.000000 0.000000 0.044411 0.000000 0.000000
# 5 0.000000 0.000000 0.000000 0.000000 0.027732 0.000000
# 6 0.000000 0.000000 0.000000 0.000000 0.000000 0.035628
#
#
# Mechanical properties :
#
#
# Convention : Reuss Voigt Hill
#
# Bulk Modulus (GPa) = 45.70742 47.75230 46.72986
# Shear Modulus (GPa) = 25.47299 27.91797 26.69548
#
# Velocity S-wave (km/s) = 3.31498 3.47043 3.39359
# Velocity P-wave (km/s) = 5.86263 6.05466 5.95942
#
# Compressibility (1/GPa) = 0.02187828
#
# Stress axis : x y z
#
# Youngs Moduli (GPa) = 44.20787 88.23841 56.82678
#
# Poissons Ratio (x) = 0.10671 0.57454
# Poissons Ratio (y) = 0.05346 0.19983
# Poissons Ratio (z) = 0.44696 0.31029
#
# Static dielectric constant tensor:
#      x y z
#    x 1.889140 0.000000 0.000000 
#    y 0.000000 1.913070 0.000000 
#    z 0.000000 0.000000 1.892000 
# 
# From -- ./inp_files/3615.got.cif
#   From: 2010.05.17/outbox.cif.g08.bks.cpg/sg29_2_cif.got.tgz:3615.got - 2010.06.04 01:19:37.
