data_PCOD9341448
_publ_section_title
;
Structure prediction by ZEFSAII (Michael W. Deem and Ramdas Pophale) SiO2 
 PCOD9341448
Probable space group: P C A 21
;
_chemical_formula_sum "Si O2"
_cell_formula_units_Z 28
_cell_length_a 4.651916
_cell_length_b 25.386810
_cell_length_c 8.504289
_cell_angle_alpha 90.000000
_cell_angle_beta 90.000000
_cell_angle_gamma 90.000000
_cell_volume 1004.333634
_symmetry_space_group_name_H-M "P C A 21"
_symmetry_group_IT_number 29
_symmetry_cell_setting 'orthorhombic'
loop_
_space_group_symop_operation_xyz
x,y,z
-x,-y,1/2+z
1/2-x,y,1/2+z
1/2+x,-y,z
loop_
_atom_site_type_symbol
_atom_site_label
_atom_site_fract_x
_atom_site_fract_y
_atom_site_fract_z
Si Si1 0.074632 0.247791 0.307270
Si Si2 0.114052 0.605465 0.556854
Si Si3 0.494248 0.464508 0.839645
Si Si4 0.565204 0.036540 0.002243
Si Si5 0.570920 0.824811 0.050546
Si Si6 0.120137 0.099676 0.795701
Si Si7 0.078025 0.321060 0.573062
O O1 0.248586 0.210984 0.429791
O O2 0.905497 0.212541 0.176810
O O3 0.936320 0.289179 0.427702
O O4 0.288117 0.281643 0.199325
O O5 0.342691 0.578987 0.439989
O O6 0.010260 0.558243 0.666039
O O7 0.327509 0.644806 0.649401
O O8 0.839896 0.641322 0.513614
O O9 0.167621 0.481073 0.862233
O O10 0.527616 0.058673 0.177873
O O11 0.893676 0.019083 0.987014
O O12 0.399983 0.073744 0.878610
O O13 0.771636 0.857253 0.168925
O O14 0.442358 0.868845 0.932090
#
# Coordination Sequence:
#
# PCOD9341448 Si02
#       7
#     4   4   4   4   4   4   4
#     4   9  18  35  62  88 118 152 196 239 296 349
#     4  12  24  41  62  90 120 154 196 239 292 344
#     4  12  24  41  62  87 120 157 196 239 286 344
#     4  11  22  37  60  87 120 157 200 247 296 349
#     4   8  16  34  62  87 118 157 196 244 292 354
#     4   9  18  34  60  87 120 157 200 244 296 349
#     4  11  22  38  62  88 118 152 190 242 290 349
#
# _framework density 27.879186000000001
#
# number of rings (size 3 to 8) (size 9 to 14) (size 15 to 20)
#    0.000    1.714    0.000    5.143    0.000    0.000 
#    0.000    0.000    0.000  120.000    0.000    0.000 
#    0.000    0.000    0.000    0.000    0.000    0.000 
#
# Total GULP energy -156725.052368 kJ/mol
# GULP energy per Si atom -5597.323299 kJ/mol
# Density = 2.781573 g / cm^3
# Si number density = 27.879186 Si / 1000 Ang^3
#
#
#
# Elastic Constant Matrix: (Units=GPa)
#
#
# Indices 1 2 3 4 5 6 
#
# 1 99.8635 31.6070 15.3936 0.0000 0.0000 0.0000
# 2 31.6070 114.5628 62.6093 0.0000 0.0000 0.0000
# 3 15.3936 62.6093 173.5063 0.0000 0.0000 0.0000
# 4 0.0000 0.0000 0.0000 -66.5516 0.0000 0.0000
# 5 0.0000 0.0000 0.0000 0.0000 26.3664 0.0000
# 6 0.0000 0.0000 0.0000 0.0000 0.0000 16.1909
#
#
#
# Elastic Compliance Matrix: (Units=1/GPa)
#
#
# Indices 1 2 3 4 5 6 
#
# 1 0.010975 -0.003109 0.000148 0.000000 0.000000 0.000000
# 2 -0.003109 0.011754 -0.003965 0.000000 0.000000 0.000000
# 3 0.000148 -0.003965 0.007181 0.000000 0.000000 0.000000
# 4 0.000000 0.000000 0.000000 -0.015026 0.000000 0.000000
# 5 0.000000 0.000000 0.000000 0.000000 0.037927 0.000000
# 6 0.000000 0.000000 0.000000 0.000000 0.000000 0.061763
#
#
# Mechanical properties :
#
#
# Convention : Reuss Voigt Hill
#
# Bulk Modulus (GPa) = 62.27653 67.46138 64.86896
# Shear Modulus (GPa) = 37.37515 13.75597 25.56556
#
# Velocity S-wave (km/s) = 3.66541 2.22370 3.03151
# Velocity P-wave (km/s) = 6.34824 5.55369 5.96421
#
# Compressibility (1/GPa) = 0.01605741
#
# Stress axis : x y z
#
# Youngs Moduli (GPa) = 91.11796 85.07969 139.25111
#
# Poissons Ratio (x) = 0.26450 -0.02062
# Poissons Ratio (y) = 0.28327 0.55220
# Poissons Ratio (z) = -0.01350 0.33738
#
# Static dielectric constant tensor:
#      x y z
#    x 2.089990 0.000000 0.000000 
#    y 0.000000 2.396780 0.000000 
#    z 0.000000 0.000000 2.130380 
# 
# From -- ./inp_files/1002.got.cif
#   From: 2010.05.17/outbox.cif.g08.bks.cpg/sg29_1_cif.got.tgz:1002.got - 2010.06.04 01:19:37.
