data_PCOD9341614
_publ_section_title
;
Structure prediction by ZEFSAII (Michael W. Deem and Ramdas Pophale) SiO2 
 PCOD9341614
Probable space group: P C A 21
;
_chemical_formula_sum "Si O2"
_cell_formula_units_Z 32
_cell_length_a 8.173010
_cell_length_b 14.126285
_cell_length_c 10.425199
_cell_angle_alpha 90.000000
_cell_angle_beta 90.000000
_cell_angle_gamma 90.000000
_cell_volume 1203.633725
_symmetry_space_group_name_H-M "P C A 21"
_symmetry_group_IT_number 29
_symmetry_cell_setting 'orthorhombic'
loop_
_space_group_symop_operation_xyz
x,y,z
-x,-y,1/2+z
1/2-x,y,1/2+z
1/2+x,-y,z
loop_
_atom_site_type_symbol
_atom_site_label
_atom_site_fract_x
_atom_site_fract_y
_atom_site_fract_z
Si Si1 0.667993 0.814911 0.277150
Si Si2 0.344983 0.614433 0.541905
Si Si3 0.402786 0.854837 0.886673
Si Si4 0.125905 0.540327 0.313552
Si Si5 0.521728 0.296988 0.605561
Si Si6 0.706513 0.636533 0.918268
Si Si7 0.057624 0.951683 0.913693
Si Si8 0.480636 0.196039 0.119924
O O1 0.509050 0.757890 0.234005
O O2 0.756340 0.742607 0.372575
O O3 0.591878 0.910084 0.329876
O O4 0.792114 0.821188 0.158667
O O5 0.277876 0.587431 0.398709
O O6 0.401588 0.543560 0.657866
O O7 0.462586 0.707713 0.547462
O O8 0.171950 0.634971 0.610490
O O9 0.232258 0.909796 0.876867
O O10 0.427122 0.800055 0.754772
O O11 0.540091 0.935998 0.907528
O O12 0.419655 0.781360 0.001825
O O13 0.150623 0.434550 0.373637
O O14 0.961184 0.593574 0.359379
O O15 0.353105 0.348623 0.563892
O O16 0.030822 0.900251 0.049566
#
# Coordination Sequence:
#
# PCOD9341614 Si02
#       8
#     4   4   4   4   4   4   4   4
#     4  12  26  46  76 108 149 193 252 305 384 446
#     4  11  24  49  75 106 148 204 251 312 383 456
#     4  12  27  51  72 114 151 195 257 307 383 454
#     4  11  27  45  74 108 152 197 256 318 377 461
#     4  11  25  47  73 105 149 195 248 312 374 454
#     4  11  26  47  69 113 150 193 252 312 380 448
#     4  12  30  45  80 110 148 203 247 314 379 462
#     4  12  25  48  77 104 155 198 249 316 376 459
#
# _framework density 26.58616
#
# number of rings (size 3 to 8) (size 9 to 14) (size 15 to 20)
#    0.000    0.500    3.750    3.000    8.750    2.000 
#    0.000    0.000    0.000    0.000    0.000    0.000 
#    0.000    0.000    0.000    0.000    0.000    0.000 
#
# Total GULP energy -178801.995543 kJ/mol
# GULP energy per Si atom -5587.562361 kJ/mol
# Density = 2.652565 g / cm^3
# Si number density = 26.586160 Si / 1000 Ang^3
#
#
#
# Elastic Constant Matrix: (Units=GPa)
#
#
# Indices 1 2 3 4 5 6 
#
# 1 103.3977 -2.0587 0.8208 0.0000 0.0000 0.0000
# 2 -2.0587 93.6044 32.1025 0.0000 0.0000 0.0000
# 3 0.8208 32.1025 83.5299 0.0000 0.0000 0.0000
# 4 0.0000 0.0000 0.0000 24.8665 0.0000 0.0000
# 5 0.0000 0.0000 0.0000 0.0000 12.7828 0.0000
# 6 0.0000 0.0000 0.0000 0.0000 0.0000 55.9253
#
#
#
# Elastic Compliance Matrix: (Units=1/GPa)
#
#
# Indices 1 2 3 4 5 6 
#
# 1 0.009679 0.000283 -0.000204 0.000000 0.000000 0.000000
# 2 0.000283 0.012313 -0.004735 0.000000 0.000000 0.000000
# 3 -0.000204 -0.004735 0.013794 0.000000 0.000000 0.000000
# 4 0.000000 0.000000 0.000000 0.040215 0.000000 0.000000
# 5 0.000000 0.000000 0.000000 0.000000 0.078230 0.000000
# 6 0.000000 0.000000 0.000000 0.000000 0.000000 0.017881
#
#
# Mechanical properties :
#
#
# Convention : Reuss Voigt Hill
#
# Bulk Modulus (GPa) = 37.77380 38.02902 37.90141
# Shear Modulus (GPa) = 26.28145 35.35940 30.82043
#
# Velocity S-wave (km/s) = 3.14751 3.65086 3.40849
# Velocity P-wave (km/s) = 5.23909 5.66629 5.45687
#
# Compressibility (1/GPa) = 0.02647338
#
# Stress axis : x y z
#
# Youngs Moduli (GPa) = 103.32025 81.21219 72.49751
#
# Poissons Ratio (x) = -0.02296 0.01477
# Poissons Ratio (y) = -0.02921 0.34328
# Poissons Ratio (z) = 0.02105 0.38455
#
# Static dielectric constant tensor:
#      x y z
#    x 2.129930 0.000000 0.000000 
#    y 0.000000 2.061550 0.000000 
#    z 0.000000 0.000000 2.085800 
# 
# From -- ./inp_files/2967.got.cif
#   From: 2010.05.17/outbox.cif.g08.bks.cpg/sg29_2_cif.got.tgz:2967.got - 2010.06.04 01:19:37.
