data_PCOD9341595
_publ_section_title
;
Structure prediction by ZEFSAII (Michael W. Deem and Ramdas Pophale) SiO2 
 PCOD9341595
Probable space group: P C A 21
;
_chemical_formula_sum "Si O2"
_cell_formula_units_Z 20
_cell_length_a 16.158372
_cell_length_b 6.009715
_cell_length_c 8.149236
_cell_angle_alpha 90.000000
_cell_angle_beta 90.000000
_cell_angle_gamma 90.000000
_cell_volume 791.349576
_symmetry_space_group_name_H-M "P C A 21"
_symmetry_group_IT_number 29
_symmetry_cell_setting 'orthorhombic'
loop_
_space_group_symop_operation_xyz
x,y,z
-x,-y,1/2+z
1/2-x,y,1/2+z
1/2+x,-y,z
loop_
_atom_site_type_symbol
_atom_site_label
_atom_site_fract_x
_atom_site_fract_y
_atom_site_fract_z
Si Si1 0.398206 0.855931 0.220250
Si Si2 0.172958 0.477874 0.924149
Si Si3 0.847376 0.190371 0.708843
Si Si4 0.772110 0.922751 0.005286
Si Si5 0.009076 0.187538 0.907327
O O1 0.337816 0.662899 0.282089
O O2 0.342283 0.057438 0.145498
O O3 0.453415 0.943484 0.370415
O O4 0.459687 0.788052 0.075913
O O5 0.175730 0.595810 0.101867
O O6 0.251532 0.311666 0.921526
O O7 0.085632 0.352281 0.908220
O O8 0.942518 0.216425 0.761287
O O9 0.813989 0.994802 0.589233
O O10 0.803862 0.109952 0.878110
#
# Coordination Sequence:
#
# PCOD9341595 Si02
#       5
#     4   4   4   4   4
#     4  11  25  46  73 108 148 192 245 302 361 434
#     4  12  24  46  73 104 144 193 244 297 370 436
#     4  11  25  46  73 107 146 191 244 302 360 433
#     4  11  26  46  70 106 151 192 239 302 359 435
#     4  11  24  46  75 107 147 190 242 305 362 432
#
# _framework density 25.27328
#
# number of rings (size 3 to 8) (size 9 to 14) (size 15 to 20)
#    0.000    0.800    0.000    7.200    0.000    6.400 
#    0.000   18.000    0.000    0.000    0.000    0.000 
#    0.000    0.000    0.000    0.000    0.000    0.000 
#
# Total GULP energy -111837.450477 kJ/mol
# GULP energy per Si atom -5591.872524 kJ/mol
# Density = 2.521576 g / cm^3
# Si number density = 25.273280 Si / 1000 Ang^3
#
#
#
# Elastic Constant Matrix: (Units=GPa)
#
#
# Indices 1 2 3 4 5 6 
#
# 1 120.0023 52.7304 57.7469 0.0000 0.0000 0.0000
# 2 52.7304 96.6714 49.1378 0.0000 0.0000 0.0000
# 3 57.7469 49.1378 135.7952 0.0000 0.0000 0.0000
# 4 0.0000 0.0000 0.0000 43.2281 0.0000 0.0000
# 5 0.0000 0.0000 0.0000 0.0000 69.9864 0.0000
# 6 0.0000 0.0000 0.0000 0.0000 0.0000 43.4916
#
#
#
# Elastic Compliance Matrix: (Units=1/GPa)
#
#
# Indices 1 2 3 4 5 6 
#
# 1 0.012107 -0.004885 -0.003381 0.000000 0.000000 0.000000
# 2 -0.004885 0.014647 -0.003223 0.000000 0.000000 0.000000
# 3 -0.003381 -0.003223 0.009968 0.000000 0.000000 0.000000
# 4 0.000000 0.000000 0.000000 0.023133 0.000000 0.000000
# 5 0.000000 0.000000 0.000000 0.000000 0.014288 0.000000
# 6 0.000000 0.000000 0.000000 0.000000 0.000000 0.022993
#
#
# Mechanical properties :
#
#
# Convention : Reuss Voigt Hill
#
# Bulk Modulus (GPa) = 72.75671 74.63324 73.69498
# Shear Modulus (GPa) = 40.09798 44.19813 42.14805
#
# Velocity S-wave (km/s) = 3.98751 4.18641 4.08817
# Velocity P-wave (km/s) = 7.07466 7.27755 7.17682
#
# Compressibility (1/GPa) = 0.01374444
#
# Stress axis : x y z
#
# Youngs Moduli (GPa) = 82.59931 68.27280 100.32378
#
# Poissons Ratio (x) = 0.33354 0.33915
# Poissons Ratio (y) = 0.40353 0.32330
# Poissons Ratio (z) = 0.27923 0.22002
#
# Static dielectric constant tensor:
#      x y z
#    x 1.976660 0.000000 0.000000 
#    y 0.000000 2.036230 0.000000 
#    z 0.000000 0.000000 2.040590 
# 
# From -- ./inp_files/1960.got.cif
#   From: 2010.05.17/outbox.cif.g08.bks.cpg/sg29_1_cif.got.tgz:1960.got - 2010.06.04 01:19:37.
