data_PCOD9341536
_publ_section_title
;
Structure prediction by ZEFSAII (Michael W. Deem and Ramdas Pophale) SiO2 
 PCOD9341536
Probable space group: P C A 21
;
_chemical_formula_sum "Si O2"
_cell_formula_units_Z 24
_cell_length_a 13.126905
_cell_length_b 8.915980
_cell_length_c 8.243027
_cell_angle_alpha 90.000000
_cell_angle_beta 90.000000
_cell_angle_gamma 90.000000
_cell_volume 964.757471
_symmetry_space_group_name_H-M "P C A 21"
_symmetry_group_IT_number 29
_symmetry_cell_setting 'orthorhombic'
loop_
_space_group_symop_operation_xyz
x,y,z
-x,-y,1/2+z
1/2-x,y,1/2+z
1/2+x,-y,z
loop_
_atom_site_type_symbol
_atom_site_label
_atom_site_fract_x
_atom_site_fract_y
_atom_site_fract_z
Si Si1 0.909464 0.409975 0.456270
Si Si2 0.344585 0.745392 0.781745
Si Si3 0.625463 0.149279 0.765203
Si Si4 0.495071 0.074004 0.467136
Si Si5 0.140973 0.424508 0.439938
Si Si6 0.829483 0.701606 0.581947
O O1 0.853209 0.321532 0.601175
O O2 0.894857 0.326595 0.285692
O O3 0.868054 0.576569 0.454908
O O4 0.026658 0.421730 0.501196
O O5 0.246936 0.856376 0.789655
O O6 0.448443 0.830921 0.826910
O O7 0.331712 0.599971 0.900699
O O8 0.583692 0.076143 0.601963
O O9 0.550527 0.078862 0.899469
O O10 0.394512 0.153625 0.539418
O O11 0.144421 0.348034 0.262862
O O12 0.209854 0.320213 0.554844
#
# Coordination Sequence:
#
# PCOD9341536 Si02
#       6
#     4   4   4   4   4   4
#     4  11  23  45  74 107 147 187 245 308 373 447
#     4  11  25  45  78 110 146 197 241 310 380 451
#     4  12  26  49  71 105 151 199 250 299 382 437
#     4  12  27  48  72 107 146 195 252 307 361 453
#     4  11  24  42  76 112 149 187 246 309 378 443
#     4  11  25  43  73 111 145 189 244 311 366 441
#
# _framework density 24.876719000000001
#
# number of rings (size 3 to 8) (size 9 to 14) (size 15 to 20)
#    0.000    0.667    5.000    2.000    4.667    1.333 
#    6.000    0.000    0.000    0.000    0.000    0.000 
#    0.000    0.000    0.000    0.000    0.000    0.000 
#
# Total GULP energy -134273.932889 kJ/mol
# GULP energy per Si atom -5594.747204 kJ/mol
# Density = 2.482010 g / cm^3
# Si number density = 24.876719 Si / 1000 Ang^3
#
#
#
# Elastic Constant Matrix: (Units=GPa)
#
#
# Indices 1 2 3 4 5 6 
#
# 1 102.9667 -6.7688 9.7476 0.0000 0.0000 0.0000
# 2 -6.7688 31.4332 15.6039 0.0000 0.0000 0.0000
# 3 9.7476 15.6039 72.9581 0.0000 0.0000 0.0000
# 4 0.0000 0.0000 0.0000 24.7730 0.0000 0.0000
# 5 0.0000 0.0000 0.0000 0.0000 35.8757 0.0000
# 6 0.0000 0.0000 0.0000 0.0000 0.0000 45.3004
#
#
#
# Elastic Compliance Matrix: (Units=1/GPa)
#
#
# Indices 1 2 3 4 5 6 
#
# 1 0.010114 0.003187 -0.002033 0.000000 0.000000 0.000000
# 2 0.003187 0.036597 -0.008253 0.000000 0.000000 0.000000
# 3 -0.002033 -0.008253 0.015743 0.000000 0.000000 0.000000
# 4 0.000000 0.000000 0.000000 0.040366 0.000000 0.000000
# 5 0.000000 0.000000 0.000000 0.000000 0.027874 0.000000
# 6 0.000000 0.000000 0.000000 0.000000 0.000000 0.022075
#
#
# Mechanical properties :
#
#
# Convention : Reuss Voigt Hill
#
# Bulk Modulus (GPa) = 20.72273 27.16924 23.94599
# Shear Modulus (GPa) = 27.31468 33.77485 30.54476
#
# Velocity S-wave (km/s) = 3.31721 3.68868 3.50786
# Velocity P-wave (km/s) = 4.79792 5.39324 5.10427
#
# Compressibility (1/GPa) = 0.04825618
#
# Stress axis : x y z
#
# Youngs Moduli (GPa) = 98.87443 27.32496 63.51956
#
# Poissons Ratio (x) = -0.08709 0.12913
# Poissons Ratio (y) = -0.31512 0.52422
# Poissons Ratio (z) = 0.20100 0.22551
#
# Static dielectric constant tensor:
#      x y z
#    x 2.010650 0.000000 0.000000 
#    y 0.000000 1.967550 0.000000 
#    z 0.000000 0.000000 2.006460 
# 
# From -- ./inp_files/1396.got.cif
#   From: 2010.05.17/outbox.cif.g08.bks.cpg/sg29_1_cif.got.tgz:1396.got - 2010.06.04 01:19:37.
