data_PCOD9341874
_publ_section_title
;
Structure prediction by ZEFSAII (Michael W. Deem and Ramdas Pophale) SiO2 
 PCOD9341874
Probable space group: P N C 2
;
_chemical_formula_sum "Si O2"
_cell_formula_units_Z 30
_cell_length_a 9.821906
_cell_length_b 12.890010
_cell_length_c 10.085864
_cell_angle_alpha 90.000000
_cell_angle_beta 90.000000
_cell_angle_gamma 90.000000
_cell_volume 1276.915432
_symmetry_space_group_name_H-M "P N C 2"
_symmetry_group_IT_number 30
_symmetry_cell_setting 'orthorhombic'
loop_
_space_group_symop_operation_xyz
x,y,z
-x,-y,z
-x,1/2+y,1/2+z
x,1/2-y,1/2+z
loop_
_atom_site_type_symbol
_atom_site_label
_atom_site_fract_x
_atom_site_fract_y
_atom_site_fract_z
Si Si1 0.687028 0.070715 0.037470
Si Si2 0.928532 0.180241 0.154571
Si Si3 0.391560 0.155232 0.387872
Si Si4 0.600198 0.661871 0.589991
Si Si5 0.676663 0.422028 0.964759
Si Si6 0.000000 0.500000 0.139550
Si Si7 0.245374 0.619931 0.242213
Si Si8 0.982148 0.168800 0.436990
O O1 0.826868 0.088718 0.116440
O O2 0.562324 0.137959 0.095154
O O3 0.656015 0.949155 0.041638
O O4 0.698542 0.112414 0.888031
O O5 0.829025 0.272669 0.206476
O O6 0.022784 0.163341 0.283295
O O7 0.990008 0.222567 0.015908
O O8 0.361398 0.245740 0.491677
O O9 0.353387 0.184549 0.238938
O O10 0.554694 0.136793 0.393587
O O11 0.331684 0.042104 0.423917
O O12 0.823986 0.371541 0.937916
O O13 0.653122 0.407514 0.122736
O O14 0.876636 0.462307 0.227452
O O15 0.049806 0.410410 0.039635
#
# Coordination Sequence:
#
# PCOD9341874 Si02
#       8
#     4   4   4   4   4   2   4   4
#     4  11  22  37  58  91 125 157 207 249 301 353
#     4  10  18  33  61  91 111 146 195 247 297 348
#     4  11  22  38  54  85 123 170 204 247 298 352
#     4  11  25  34  56  84 132 161 206 249 291 364
#     4   9  20  34  60  78 115 158 203 240 296 348
#     4   8  20  38  58  82 118 144 184 252 316 352
#     4  10  21  37  65  91 116 155 198 262 307 369
#     4  10  18  35  62  86 113 145 191 250 301 354
#
# _framework density 23.494116999999999
#
# number of rings (size 3 to 8) (size 9 to 14) (size 15 to 20)
#    0.000    2.133    1.333    4.800    5.600    1.067 
#    0.000    0.667   11.733    1.600    0.000    0.000 
#    0.000    0.000    0.000    0.000    0.000    0.000 
#
# Total GULP energy -167745.967358 kJ/mol
# GULP energy per Si atom -5591.532245 kJ/mol
# Density = 2.344064 g / cm^3
# Si number density = 23.494117 Si / 1000 Ang^3
#
#
#
# Elastic Constant Matrix: (Units=GPa)
#
#
# Indices 1 2 3 4 5 6 
#
# 1 50.8397 -1.9163 4.2269 0.0000 0.0000 0.0000
# 2 -1.9163 83.1582 24.6867 0.0000 0.0000 0.0000
# 3 4.2269 24.6867 164.7372 0.0000 0.0000 0.0000
# 4 0.0000 0.0000 0.0000 32.8309 0.0000 0.0000
# 5 0.0000 0.0000 0.0000 0.0000 -20.5888 0.0000
# 6 0.0000 0.0000 0.0000 0.0000 0.0000 15.0056
#
#
#
# Elastic Compliance Matrix: (Units=1/GPa)
#
#
# Indices 1 2 3 4 5 6 
#
# 1 0.019744 0.000634 -0.000602 0.000000 0.000000 0.000000
# 2 0.000634 0.012605 -0.001905 0.000000 0.000000 0.000000
# 3 -0.000602 -0.001905 0.006371 0.000000 0.000000 0.000000
# 4 0.000000 0.000000 0.000000 0.030459 0.000000 0.000000
# 5 0.000000 0.000000 0.000000 0.000000 -0.048570 0.000000
# 6 0.000000 0.000000 0.000000 0.000000 0.000000 0.066642
#
#
# Mechanical properties :
#
#
# Convention : Reuss Voigt Hill
#
# Bulk Modulus (GPa) = 28.59284 39.19218 33.89251
# Shear Modulus (GPa) = 48.70666 23.56540 36.13603
#
# Velocity S-wave (km/s) = 4.55812 3.17051 3.92610
# Velocity P-wave (km/s) = 6.31653 5.48824 5.91689
#
# Compressibility (1/GPa) = 0.03497379
#
# Stress axis : x y z
#
# Youngs Moduli (GPa) = 50.64940 79.33066 156.95579
#
# Poissons Ratio (x) = -0.05026 0.09441
# Poissons Ratio (y) = -0.03209 0.29904
# Poissons Ratio (z) = 0.03047 0.15114
#
# Static dielectric constant tensor:
#      x y z
#    x 1.944650 0.000000 0.000000 
#    y 0.000000 1.885260 0.000000 
#    z 0.000000 0.000000 1.903080 
# 
# From -- ./inp_files/2463.got.cif
#   From: 2010.05.17/outbox.cif.g08.bks.cpg/sg30_2_cif.got.tgz:2463.got - 2010.06.03 17:03:02.
