data_PCOD9341500
_publ_section_title
;
Structure prediction by ZEFSAII (Michael W. Deem and Ramdas Pophale) SiO2 
 PCOD9341500
Probable space group: P C A 21
;
_chemical_formula_sum "Si O2"
_cell_formula_units_Z 32
_cell_length_a 8.794018
_cell_length_b 5.299480
_cell_length_c 28.023008
_cell_angle_alpha 90.000000
_cell_angle_beta 90.000000
_cell_angle_gamma 90.000000
_cell_volume 1305.976489
_symmetry_space_group_name_H-M "P C A 21"
_symmetry_group_IT_number 29
_symmetry_cell_setting 'orthorhombic'
loop_
_space_group_symop_operation_xyz
x,y,z
-x,-y,1/2+z
1/2-x,y,1/2+z
1/2+x,-y,z
loop_
_atom_site_type_symbol
_atom_site_label
_atom_site_fract_x
_atom_site_fract_y
_atom_site_fract_z
Si Si1 0.685584 0.283648 0.342790
Si Si2 0.513906 0.712798 0.982340
Si Si3 0.887689 0.853760 0.691685
Si Si4 0.310640 0.767668 0.238320
Si Si5 0.648681 0.774047 0.876454
Si Si6 0.153274 0.195597 0.514973
Si Si7 0.270049 0.531278 0.139621
Si Si8 0.989097 0.213279 0.613110
O O1 0.752419 0.305552 0.289571
O O2 0.503530 0.245085 0.343732
O O3 0.734475 0.545075 0.367482
O O4 0.767549 0.040982 0.367279
O O5 0.582803 0.732607 0.929359
O O6 0.431733 0.447123 0.994487
O O7 0.665513 0.756293 0.014790
O O8 0.394514 0.943117 0.986853
O O9 0.011621 0.737681 0.727753
O O10 0.797037 0.744357 0.646139
O O11 0.992324 0.047369 0.660627
O O12 0.758401 0.957873 0.727113
O O13 0.239522 0.618798 0.193582
O O14 0.081514 0.144588 0.566931
O O15 0.442728 0.487763 0.127923
O O16 0.186053 0.714579 0.103831
#
# Coordination Sequence:
#
# PCOD9341500 Si02
#       8
#     4   4   4   4   4   4   4   4
#     4  12  27  44  76 107 141 188 238 302 342 448
#     4  12  26  50  73 108 141 189 229 306 369 430
#     4  11  23  41  61  90 134 179 215 281 328 404
#     4  11  25  39  67  93 135 176 237 270 347 395
#     4  12  26  49  74 106 145 184 236 298 378 421
#     4  12  27  44  77 103 143 181 244 292 350 440
#     4  11  23  41  61  90 134 177 217 279 331 401
#     4  11  25  40  65  95 129 180 228 276 339 403
#
# _framework density 24.502738000000001
#
# number of rings (size 3 to 8) (size 9 to 14) (size 15 to 20)
#    0.000    0.500    2.500    5.250    7.000    0.000 
#    0.000    0.000    0.000    0.000    0.000    0.000 
#    0.000    0.000    0.000    0.000    0.000    0.000 
#
# Total GULP energy -178700.455702 kJ/mol
# GULP energy per Si atom -5584.389241 kJ/mol
# Density = 2.444697 g / cm^3
# Si number density = 24.502738 Si / 1000 Ang^3
#
#
#
# Elastic Constant Matrix: (Units=GPa)
#
#
# Indices 1 2 3 4 5 6 
#
# 1 81.6703 28.5003 -23.8865 0.0000 0.0000 0.0000
# 2 28.5003 90.7901 -3.2182 0.0000 0.0000 0.0000
# 3 -23.8865 -3.2182 60.7735 0.0000 0.0000 0.0000
# 4 0.0000 0.0000 0.0000 20.8935 0.0000 0.0000
# 5 0.0000 0.0000 0.0000 0.0000 36.9288 0.0000
# 6 0.0000 0.0000 0.0000 0.0000 0.0000 33.1691
#
#
#
# Elastic Compliance Matrix: (Units=1/GPa)
#
#
# Indices 1 2 3 4 5 6 
#
# 1 0.015601 -0.004689 0.005884 0.000000 0.000000 0.000000
# 2 -0.004689 0.012444 -0.001184 0.000000 0.000000 0.000000
# 3 0.005884 -0.001184 0.018704 0.000000 0.000000 0.000000
# 4 0.000000 0.000000 0.000000 0.047862 0.000000 0.000000
# 5 0.000000 0.000000 0.000000 0.000000 0.027079 0.000000
# 6 0.000000 0.000000 0.000000 0.000000 0.000000 0.030149
#
#
# Mechanical properties :
#
#
# Convention : Reuss Voigt Hill
#
# Bulk Modulus (GPa) = 21.38039 26.22500 23.80270
# Shear Modulus (GPa) = 29.86703 33.65417 31.76060
#
# Velocity S-wave (km/s) = 3.49510 3.71008 3.60419
# Velocity P-wave (km/s) = 5.00323 5.39250 5.20151
#
# Compressibility (1/GPa) = 0.04677183
#
# Stress axis : x y z
#
# Youngs Moduli (GPa) = 64.09648 80.35756 53.46342
#
# Poissons Ratio (x) = 0.37679 -0.31456
# Poissons Ratio (y) = 0.30055 0.06330
# Poissons Ratio (z) = -0.37713 0.09514
#
# Static dielectric constant tensor:
#      x y z
#    x 1.959720 0.000000 0.000000 
#    y 0.000000 2.581680 0.000000 
#    z 0.000000 0.000000 1.931050 
# 
# From -- ./inp_files/5815.got.cif
#   From: 2010.05.17/outbox.cif.g08.bks.cpg/sg29_3_cif.got.tgz:5815.got - 2010.06.04 01:19:37.
