data_PCOD9341868
_publ_section_title
;
Structure prediction by ZEFSAII (Michael W. Deem and Ramdas Pophale) SiO2 
 PCOD9341868
Probable space group: P N C 2
;
_chemical_formula_sum "Si O2"
_cell_formula_units_Z 26
_cell_length_a 15.151729
_cell_length_b 6.064997
_cell_length_c 14.296556
_cell_angle_alpha 90.000000
_cell_angle_beta 90.000000
_cell_angle_gamma 90.000000
_cell_volume 1313.784743
_symmetry_space_group_name_H-M "P N C 2"
_symmetry_group_IT_number 30
_symmetry_cell_setting 'orthorhombic'
loop_
_space_group_symop_operation_xyz
x,y,z
-x,-y,z
-x,1/2+y,1/2+z
x,1/2-y,1/2+z
loop_
_atom_site_type_symbol
_atom_site_label
_atom_site_fract_x
_atom_site_fract_y
_atom_site_fract_z
Si Si1 0.092046 0.902987 0.684910
Si Si2 0.722507 0.312788 0.105021
Si Si3 0.596881 0.924622 0.462402
Si Si4 0.709134 0.971547 0.955519
Si Si5 0.000000 0.000000 0.293538
Si Si6 0.695082 0.354692 0.804389
Si Si7 0.163326 0.270143 0.832474
O O1 0.174369 0.871997 0.616071
O O2 0.056909 0.675359 0.732340
O O3 0.134417 0.073581 0.761616
O O4 0.000000 0.000000 0.646332
O O5 0.665970 0.475965 0.038954
O O6 0.682107 0.274356 0.207870
O O7 0.719302 0.076782 0.055495
O O8 0.618551 0.666152 0.453364
O O9 0.500000 0.000000 0.490843
O O10 0.616526 0.022860 0.359019
O O11 0.786225 0.810272 0.923690
O O12 0.718087 0.167492 0.880353
O O13 0.070722 0.122635 0.355850
O O14 0.770525 0.542570 0.790896
#
# Coordination Sequence:
#
# PCOD9341868 Si02
#       7
#     4   4   4   4   2   4   4
#     4  10  21  35  66  92 130 177 225 279 333 401
#     4  11  22  40  67  95 130 178 226 273 336 404
#     4  10  25  45  65 100 133 169 218 286 341 410
#     4  10  22  39  68  87 135 170 213 277 332 401
#     4  10  18  32  62  88 128 168 234 266 332 398
#     4  10  21  41  65  92 125 173 220 264 346 398
#     4  10  18  36  62  89 124 175 221 275 333 388
#
# _framework density 19.790151000000002
#
# number of rings (size 3 to 8) (size 9 to 14) (size 15 to 20)
#    0.000    1.846    3.077    0.000    2.154    2.462 
#    5.538    0.000   66.000    0.000    0.000    0.000 
#    0.000    0.000    0.000    0.000    0.000    0.000 
#
# Total GULP energy -144752.739526 kJ/mol
# GULP energy per Si atom -5567.413059 kJ/mol
# Density = 1.974511 g / cm^3
# Si number density = 19.790151 Si / 1000 Ang^3
#
#
#
# Elastic Constant Matrix: (Units=GPa)
#
#
# Indices 1 2 3 4 5 6 
#
# 1 125.8819 42.7570 25.1258 0.0000 0.0000 0.0000
# 2 42.7570 81.3530 9.6440 0.0000 0.0000 0.0000
# 3 25.1258 9.6440 68.8014 0.0000 0.0000 0.0000
# 4 0.0000 0.0000 0.0000 25.1914 0.0000 0.0000
# 5 0.0000 0.0000 0.0000 0.0000 26.0176 0.0000
# 6 0.0000 0.0000 0.0000 0.0000 0.0000 13.9961
#
#
#
# Elastic Compliance Matrix: (Units=1/GPa)
#
#
# Indices 1 2 3 4 5 6 
#
# 1 0.010260 -0.005032 -0.003042 0.000000 0.000000 0.000000
# 2 -0.005032 0.014968 -0.000260 0.000000 0.000000 0.000000
# 3 -0.003042 -0.000260 0.015682 0.000000 0.000000 0.000000
# 4 0.000000 0.000000 0.000000 0.039696 0.000000 0.000000
# 5 0.000000 0.000000 0.000000 0.000000 0.038435 0.000000
# 6 0.000000 0.000000 0.000000 0.000000 0.000000 0.071449
#
#
# Mechanical properties :
#
#
# Convention : Reuss Voigt Hill
#
# Bulk Modulus (GPa) = 41.25106 47.89885 44.57495
# Shear Modulus (GPa) = 23.23007 26.27500 24.75254
#
# Velocity S-wave (km/s) = 3.42982 3.64769 3.54043
# Velocity P-wave (km/s) = 6.04768 6.48049 6.26782
#
# Compressibility (1/GPa) = 0.02424180
#
# Stress axis : x y z
#
# Youngs Moduli (GPa) = 97.46401 66.81091 63.76788
#
# Poissons Ratio (x) = 0.33619 0.19396
# Poissons Ratio (y) = 0.49043 0.01661
# Poissons Ratio (z) = 0.29645 0.01740
#
# Static dielectric constant tensor:
#      x y z
#    x 1.697310 0.000000 0.000000 
#    y 0.000000 1.798500 0.000000 
#    z 0.000000 0.000000 1.663760 
# 
# From -- ./inp_files/5613.got.cif
#   From: 2010.05.17/outbox.cif.g08.bks.cpg/sg30_3_cif.got.tgz:5613.got - 2010.06.03 17:03:02.
