data_PCOD9341598
_publ_section_title
;
Structure prediction by ZEFSAII (Michael W. Deem and Ramdas Pophale) SiO2 
 PCOD9341598
Probable space group: P C A 21
;
_chemical_formula_sum "Si O2"
_cell_formula_units_Z 20
_cell_length_a 14.727005
_cell_length_b 5.196438
_cell_length_c 9.925379
_cell_angle_alpha 90.000000
_cell_angle_beta 90.000000
_cell_angle_gamma 90.000000
_cell_volume 759.569091
_symmetry_space_group_name_H-M "P C A 21"
_symmetry_group_IT_number 29
_symmetry_cell_setting 'orthorhombic'
loop_
_space_group_symop_operation_xyz
x,y,z
-x,-y,1/2+z
1/2-x,y,1/2+z
1/2+x,-y,z
loop_
_atom_site_type_symbol
_atom_site_label
_atom_site_fract_x
_atom_site_fract_y
_atom_site_fract_z
Si Si1 0.522995 0.427339 0.552490
Si Si2 0.773046 0.857064 0.625042
Si Si3 0.701929 0.521822 0.379741
Si Si4 0.128104 0.775714 0.952706
Si Si5 0.931025 0.933066 0.211172
O O1 0.608325 0.434777 0.449200
O O2 0.433072 0.527537 0.479975
O O3 0.520651 0.154104 0.624508
O O4 0.539805 0.649247 0.666226
O O5 0.837955 0.092740 0.589883
O O6 0.674724 0.945185 0.673191
O O7 0.748888 0.718945 0.484532
O O8 0.810513 0.662995 0.737708
O O9 0.779205 0.303612 0.375661
O O10 0.067576 0.971869 0.864606
#
# Coordination Sequence:
#
# PCOD9341598 Si02
#       5
#     4   4   4   4   4
#     4  11  28  46  75 110 154 193 259 320 381 463
#     4  11  24  46  76 103 149 207 245 315 388 453
#     4  11  25  47  74 110 151 198 258 310 384 461
#     4  12  26  46  79 108 151 207 251 324 393 457
#     4  11  25  51  68 113 151 191 259 317 374 470
#
# _framework density 26.330718999999998
#
# number of rings (size 3 to 8) (size 9 to 14) (size 15 to 20)
#    0.000    0.800    4.000    2.400    5.600    0.000 
#    3.600    0.000    0.000    0.000    0.000    0.000 
#    0.000    0.000    0.000    0.000    0.000    0.000 
#
# Total GULP energy -112237.975133 kJ/mol
# GULP energy per Si atom -5611.898757 kJ/mol
# Density = 2.627079 g / cm^3
# Si number density = 26.330719 Si / 1000 Ang^3
#
#
#
# Elastic Constant Matrix: (Units=GPa)
#
#
# Indices 1 2 3 4 5 6 
#
# 1 109.8900 8.3982 0.1727 0.0000 0.0000 0.0000
# 2 8.3982 90.0309 31.3436 0.0000 0.0000 0.0000
# 3 0.1727 31.3436 108.1435 0.0000 0.0000 0.0000
# 4 0.0000 0.0000 0.0000 61.5530 0.0000 0.0000
# 5 0.0000 0.0000 0.0000 0.0000 28.2101 0.0000
# 6 0.0000 0.0000 0.0000 0.0000 0.0000 52.0250
#
#
#
# Elastic Compliance Matrix: (Units=1/GPa)
#
#
# Indices 1 2 3 4 5 6 
#
# 1 0.009172 -0.000946 0.000260 0.000000 0.000000 0.000000
# 2 -0.000946 0.012451 -0.003607 0.000000 0.000000 0.000000
# 3 0.000260 -0.003607 0.010292 0.000000 0.000000 0.000000
# 4 0.000000 0.000000 0.000000 0.016246 0.000000 0.000000
# 5 0.000000 0.000000 0.000000 0.000000 0.035448 0.000000
# 6 0.000000 0.000000 0.000000 0.000000 0.000000 0.019222
#
#
# Mechanical properties :
#
#
# Convention : Reuss Voigt Hill
#
# Bulk Modulus (GPa) = 42.86710 43.09929 42.98319
# Shear Modulus (GPa) = 41.94812 46.23426 44.09119
#
# Velocity S-wave (km/s) = 3.99573 4.19490 4.09652
# Velocity P-wave (km/s) = 6.13216 6.31402 6.22376
#
# Compressibility (1/GPa) = 0.02332791
#
# Stress axis : x y z
#
# Youngs Moduli (GPa) = 109.02875 80.31223 97.16211
#
# Poissons Ratio (x) = 0.07597 -0.02521
# Poissons Ratio (y) = 0.10313 0.35050
# Poissons Ratio (z) = -0.02829 0.28971
#
# Static dielectric constant tensor:
#      x y z
#    x 2.044160 0.000000 0.000000 
#    y 0.000000 2.069050 0.000000 
#    z 0.000000 0.000000 2.072010 
# 
# From -- ./inp_files/1942.got.cif
#   From: 2010.05.17/outbox.cif.g08.bks.cpg/sg29_1_cif.got.tgz:1942.got - 2010.06.04 01:19:37.
