data_PCOD9341808
_publ_section_title
;
Structure prediction by ZEFSAII (Michael W. Deem and Ramdas Pophale) SiO2 
 PCOD9341808
Probable space group: P N C 2
;
_chemical_formula_sum "Si O2"
_cell_formula_units_Z 32
_cell_length_a 5.551965
_cell_length_b 21.667733
_cell_length_c 9.641418
_cell_angle_alpha 90.000000
_cell_angle_beta 90.000000
_cell_angle_gamma 90.000000
_cell_volume 1159.848077
_symmetry_space_group_name_H-M "P N C 2"
_symmetry_group_IT_number 30
_symmetry_cell_setting 'orthorhombic'
loop_
_space_group_symop_operation_xyz
x,y,z
-x,-y,z
-x,1/2+y,1/2+z
x,1/2-y,1/2+z
loop_
_atom_site_type_symbol
_atom_site_label
_atom_site_fract_x
_atom_site_fract_y
_atom_site_fract_z
Si Si1 0.910870 0.224858 0.625000
Si Si2 0.420214 0.216846 0.466211
Si Si3 0.102652 0.581529 0.174427
Si Si4 0.391769 0.092894 0.575636
Si Si5 0.237482 0.937787 0.977875
Si Si6 0.373622 0.342273 0.367701
Si Si7 0.252554 0.473702 0.722565
Si Si8 0.069283 0.351529 0.643135
O O1 0.653887 0.239581 0.555026
O O2 0.871009 0.156780 0.687315
O O3 0.145526 0.217509 0.525489
O O4 0.987674 0.286927 0.708447
O O5 0.461393 0.143484 0.459685
O O6 0.436630 0.269650 0.349691
O O7 0.358850 0.559093 0.111835
O O8 0.086979 0.559208 0.334160
O O9 0.877307 0.564847 0.074310
O O10 0.338298 0.133052 0.714966
O O11 0.455754 0.895902 0.925817
O O12 0.257620 0.002558 0.059720
O O13 0.150882 0.895321 0.105569
O O14 0.176266 0.339120 0.489505
O O15 0.500000 0.500000 0.786165
O O16 0.240472 0.399710 0.720241
O O17 0.000000 0.500000 0.778967
#
# Coordination Sequence:
#
# PCOD9341808 Si02
#       8
#     4   4   4   4   4   4   4   4
#     4   9  17  27  39  54  73  98 133 172 200 235
#     4   9  17  26  37  55  74  96 133 170 199 237
#     4   9  17  27  39  54  73  98 133 172 200 235
#     4   9  17  26  37  55  74  96 133 170 199 237
#     4  10  17  27  40  54  79 103 139 170 202 241
#     4  10  16  25  42  52  76 106 134 167 204 238
#     4  10  20  28  38  56  78 104 138 174 200 242
#     4  10  17  27  40  54  79 103 139 170 202 241
#
# _framework density 27.589822000000002
#
# number of rings (size 3 to 8) (size 9 to 14) (size 15 to 20)
#    0.000    2.500    3.750    0.000    0.000    0.000 
#    0.000    0.000    0.000    0.000    0.000    0.000 
#    0.000    0.000    0.000    0.000    0.000  101.250 
#
# Total GULP energy -178188.113505 kJ/mol
# GULP energy per Si atom -5568.378547 kJ/mol
# Density = 2.752703 g / cm^3
# Si number density = 27.589822 Si / 1000 Ang^3
#
#
#
# Elastic Constant Matrix: (Units=GPa)
#
#
# Indices 1 2 3 4 5 6 
#
# 1 163.2415 37.0345 25.1980 0.0000 0.0000 0.0000
# 2 37.0345 141.7646 52.2591 0.0000 0.0000 0.0000
# 3 25.1980 52.2591 59.2609 0.0000 0.0000 0.0000
# 4 0.0000 0.0000 0.0000 9.9625 0.0000 0.0000
# 5 0.0000 0.0000 0.0000 0.0000 212.3192 0.0000
# 6 0.0000 0.0000 0.0000 0.0000 0.0000 24.1206
#
#
#
# Elastic Compliance Matrix: (Units=1/GPa)
#
#
# Indices 1 2 3 4 5 6 
#
# 1 0.006656 -0.001031 -0.001921 0.000000 0.000000 0.000000
# 2 -0.001031 0.010611 -0.008919 0.000000 0.000000 0.000000
# 3 -0.001921 -0.008919 0.025557 0.000000 0.000000 0.000000
# 4 0.000000 0.000000 0.000000 0.100376 0.000000 0.000000
# 5 0.000000 0.000000 0.000000 0.000000 0.004710 0.000000
# 6 0.000000 0.000000 0.000000 0.000000 0.000000 0.041458
#
#
# Mechanical properties :
#
#
# Convention : Reuss Voigt Hill
#
# Bulk Modulus (GPa) = 52.40581 65.91671 59.16126
# Shear Modulus (GPa) = 22.78201 65.93216 44.35708
#
# Velocity S-wave (km/s) = 2.87669 4.89379 4.01401
# Velocity P-wave (km/s) = 5.48358 7.47501 6.55536
#
# Compressibility (1/GPa) = 0.01908185
#
# Stress axis : x y z
#
# Youngs Moduli (GPa) = 150.23368 94.24117 39.12838
#
# Poissons Ratio (x) = 0.09712 0.07518
# Poissons Ratio (y) = 0.15483 0.34899
# Poissons Ratio (z) = 0.28867 0.84055
#
# Static dielectric constant tensor:
#      x y z
#    x 2.256380 0.000000 0.000000 
#    y 0.000000 2.319830 0.000000 
#    z 0.000000 0.000000 2.156080 
# 
# From -- ./inp_files/6086.got.cif
#   From: 2010.05.17/outbox.cif.g08.bks.cpg/sg30_4_cif.got.tgz:6086.got - 2010.06.03 17:03:02.
