data_PCOD9341575
_publ_section_title
;
Structure prediction by ZEFSAII (Michael W. Deem and Ramdas Pophale) SiO2 
 PCOD9341575
Probable space group: P C A 21
;
_chemical_formula_sum "Si O2"
_cell_formula_units_Z 16
_cell_length_a 8.228666
_cell_length_b 4.500580
_cell_length_c 15.123676
_cell_angle_alpha 90.000000
_cell_angle_beta 90.000000
_cell_angle_gamma 90.000000
_cell_volume 560.086733
_symmetry_space_group_name_H-M "P C A 21"
_symmetry_group_IT_number 29
_symmetry_cell_setting 'orthorhombic'
loop_
_space_group_symop_operation_xyz
x,y,z
-x,-y,1/2+z
1/2-x,y,1/2+z
1/2+x,-y,z
loop_
_atom_site_type_symbol
_atom_site_label
_atom_site_fract_x
_atom_site_fract_y
_atom_site_fract_z
Si Si1 0.900964 0.746804 0.920370
Si Si2 0.599036 0.253216 0.551334
Si Si3 0.129037 0.329956 0.800581
Si Si4 0.370960 0.670052 0.671126
O O1 0.750340 0.859308 0.861281
O O2 0.028367 0.565674 0.860043
O O3 0.829178 0.500013 0.985853
O O4 0.965581 0.000014 0.985851
O O5 0.471632 0.434340 0.611663
O O6 0.749656 0.140695 0.610422
O O7 0.249999 0.500000 0.735852
O O8 0.999998 0.170458 0.735854
#
# Coordination Sequence:
#
# PCOD9341575 Si02
#       4
#     4   4   4   4
#     4  11  24  44  71 106 143 188 244 305 367 439
#     4  11  24  44  71 106 143 188 244 305 367 439
#     4   9  21  46  72 104 146 194 244 301 371 447
#     4   9  21  46  72 104 146 194 244 301 371 447
#
# _framework density 28.567001999999999
#
# number of rings (size 3 to 8) (size 9 to 14) (size 15 to 20)
#    0.000    2.000    0.000    1.500    0.000    8.000 
#    0.000   57.500    0.000    0.000    0.000    0.000 
#    0.000    0.000    0.000    0.000    0.000    0.000 
#
# Total GULP energy -89715.700400 kJ/mol
# GULP energy per Si atom -5607.231275 kJ/mol
# Density = 2.850198 g / cm^3
# Si number density = 28.567002 Si / 1000 Ang^3
#
#
#
# Elastic Constant Matrix: (Units=GPa)
#
#
# Indices 1 2 3 4 5 6 
#
# 1 166.3632 25.9633 108.6423 0.0000 0.0000 0.0000
# 2 25.9633 85.7732 51.4459 0.0000 0.0000 0.0000
# 3 108.6423 51.4459 169.2345 0.0000 0.0000 0.0000
# 4 0.0000 0.0000 0.0000 53.9924 0.0000 0.0000
# 5 0.0000 0.0000 0.0000 0.0000 110.0240 0.0000
# 6 0.0000 0.0000 0.0000 0.0000 0.0000 16.0093
#
#
#
# Elastic Compliance Matrix: (Units=1/GPa)
#
#
# Indices 1 2 3 4 5 6 
#
# 1 0.010427 0.001050 -0.007013 0.000000 0.000000 0.000000
# 2 0.001050 0.014364 -0.005041 0.000000 0.000000 0.000000
# 3 -0.007013 -0.005041 0.011943 0.000000 0.000000 0.000000
# 4 0.000000 0.000000 0.000000 0.018521 0.000000 0.000000
# 5 0.000000 0.000000 0.000000 0.000000 0.009089 0.000000
# 6 0.000000 0.000000 0.000000 0.000000 0.000000 0.062464
#
#
# Mechanical properties :
#
#
# Convention : Reuss Voigt Hill
#
# Bulk Modulus (GPa) = 67.90114 88.16376 78.03245
# Shear Modulus (GPa) = 32.52586 51.69309 42.10947
#
# Velocity S-wave (km/s) = 3.37795 4.25848 3.84351
# Velocity P-wave (km/s) = 6.24778 7.42352 6.86088
#
# Compressibility (1/GPa) = 0.01472729
#
# Stress axis : x y z
#
# Youngs Moduli (GPa) = 95.90757 69.61777 83.72947
#
# Poissons Ratio (x) = -0.07310 0.58718
# Poissons Ratio (y) = -0.10071 0.42205
# Poissons Ratio (z) = 0.67258 0.35092
#
# Static dielectric constant tensor:
#      x y z
#    x 2.129280 0.000000 0.000000 
#    y 0.000000 2.173190 0.000000 
#    z 0.000000 0.000000 2.204430 
# 
# From -- ./inp_files/4163.got.cif
#   From: 2010.05.17/outbox.cif.g08.bks.cpg/sg29_3_cif.got.tgz:4163.got - 2010.06.04 01:19:37.
