data_PCOD9341991
_publ_section_title
;
Structure prediction by ZEFSAII (Michael W. Deem and Ramdas Pophale) SiO2 
 PCOD9341991
Probable space group: P N C 2
;
_chemical_formula_sum "Si O2"
_cell_formula_units_Z 30
_cell_length_a 7.975153
_cell_length_b 12.697484
_cell_length_c 14.176619
_cell_angle_alpha 90.000000
_cell_angle_beta 90.000000
_cell_angle_gamma 90.000000
_cell_volume 1435.586500
_symmetry_space_group_name_H-M "P N C 2"
_symmetry_group_IT_number 30
_symmetry_cell_setting 'orthorhombic'
loop_
_space_group_symop_operation_xyz
x,y,z
-x,-y,z
-x,1/2+y,1/2+z
x,1/2-y,1/2+z
loop_
_atom_site_type_symbol
_atom_site_label
_atom_site_fract_x
_atom_site_fract_y
_atom_site_fract_z
Si Si1 0.440542 0.609059 0.288690
Si Si2 0.083812 0.891985 0.875035
Si Si3 0.988963 0.206962 0.487104
Si Si4 0.369977 0.250686 0.432381
Si Si5 0.592814 0.733521 0.140616
Si Si6 0.344565 0.078094 0.272029
Si Si7 0.064691 0.120488 0.680345
Si Si8 0.000000 0.000000 0.357141
O O1 0.500000 0.500000 0.246347
O O2 0.259788 0.584199 0.328000
O O3 0.561759 0.651602 0.371877
O O4 0.443687 0.697629 0.208856
O O5 0.120882 0.802587 0.950688
O O6 0.972277 0.846473 0.787822
O O7 0.000000 0.000000 0.909777
O O8 0.176079 0.252008 0.464839
O O9 0.970325 0.181141 0.596612
O O10 0.969286 0.101292 0.424900
O O11 0.460302 0.239417 0.532655
O O12 0.385744 0.150630 0.363516
O O13 0.664617 0.842400 0.183186
O O14 0.741942 0.647383 0.156455
O O15 0.166571 0.023360 0.295595
O O16 0.500000 0.000000 0.257963
O O17 0.000000 0.000000 0.674867
#
# Coordination Sequence:
#
# PCOD9341991 Si02
#       8
#     4   4   4   4   4   4   4   2
#     4  11  22  38  60  84 117 163 205 248 313 367
#     4  11  23  38  61  87 123 163 207 256 309 385
#     4  10  20  37  63  90 122 156 209 257 322 377
#     4   9  21  40  61  86 123 162 204 264 313 378
#     4  10  22  41  61  93 125 163 206 272 317 385
#     4  10  22  40  64  94 132 169 217 264 334 393
#     4  10  19  38  64  91 122 159 207 261 318 379
#     4  10  20  36  64  92 126 166 202 272 322 380
#
# _framework density 20.897383000000001
#
# number of rings (size 3 to 8) (size 9 to 14) (size 15 to 20)
#    0.000    1.867    0.667    4.800    3.733    2.133 
#    0.000    0.000   22.000    0.000    0.000    0.000 
#    0.000    0.000    0.000    0.000    0.000    0.000 
#
# Total GULP energy -167411.542557 kJ/mol
# GULP energy per Si atom -5580.384752 kJ/mol
# Density = 2.084982 g / cm^3
# Si number density = 20.897383 Si / 1000 Ang^3
#
#
#
# Elastic Constant Matrix: (Units=GPa)
#
#
# Indices 1 2 3 4 5 6 
#
# 1 56.8425 26.7396 -0.1839 0.0000 0.0000 0.0000
# 2 26.7396 73.8533 35.6459 0.0000 0.0000 0.0000
# 3 -0.1839 35.6459 103.4215 0.0000 0.0000 0.0000
# 4 0.0000 0.0000 0.0000 10.7019 0.0000 0.0000
# 5 0.0000 0.0000 0.0000 0.0000 8.2021 0.0000
# 6 0.0000 0.0000 0.0000 0.0000 0.0000 37.2809
#
#
#
# Elastic Compliance Matrix: (Units=1/GPa)
#
#
# Indices 1 2 3 4 5 6 
#
# 1 0.022137 -0.009637 0.003361 0.000000 0.000000 0.000000
# 2 -0.009637 0.020438 -0.007061 0.000000 0.000000 0.000000
# 3 0.003361 -0.007061 0.012109 0.000000 0.000000 0.000000
# 4 0.000000 0.000000 0.000000 0.093441 0.000000 0.000000
# 5 0.000000 0.000000 0.000000 0.000000 0.121921 0.000000
# 6 0.000000 0.000000 0.000000 0.000000 0.000000 0.026823
#
#
# Mechanical properties :
#
#
# Convention : Reuss Voigt Hill
#
# Bulk Modulus (GPa) = 35.70342 39.83561 37.76952
# Shear Modulus (GPa) = 15.02043 22.69804 18.85923
#
# Velocity S-wave (km/s) = 2.68390 3.29928 3.00737
# Velocity P-wave (km/s) = 5.16978 5.79806 5.49291
#
# Compressibility (1/GPa) = 0.02800852
#
# Stress axis : x y z
#
# Youngs Moduli (GPa) = 45.17362 48.92889 82.58355
#
# Poissons Ratio (x) = 0.47153 -0.27756
# Poissons Ratio (y) = 0.43534 0.58315
# Poissons Ratio (z) = -0.15183 0.34550
#
# Static dielectric constant tensor:
#      x y z
#    x 1.919130 0.000000 0.000000 
#    y 0.000000 1.764670 0.000000 
#    z 0.000000 0.000000 1.790360 
# 
# From -- ./inp_files/5193.got.cif
#   From: 2010.05.17/outbox.cif.g08.bks.cpg/sg30_3_cif.got.tgz:5193.got - 2010.06.03 17:03:02.
