data_PCOD9341695
_publ_section_title
;
Structure prediction by ZEFSAII (Michael W. Deem and Ramdas Pophale) SiO2 
 PCOD9341695
Probable space group: P C A 21
;
_chemical_formula_sum "Si O2"
_cell_formula_units_Z 24
_cell_length_a 15.975126
_cell_length_b 8.499454
_cell_length_c 8.036931
_cell_angle_alpha 90.000000
_cell_angle_beta 90.000000
_cell_angle_gamma 90.000000
_cell_volume 1091.253274
_symmetry_space_group_name_H-M "P C A 21"
_symmetry_group_IT_number 29
_symmetry_cell_setting 'orthorhombic'
loop_
_space_group_symop_operation_xyz
x,y,z
-x,-y,1/2+z
1/2-x,y,1/2+z
1/2+x,-y,z
loop_
_atom_site_type_symbol
_atom_site_label
_atom_site_fract_x
_atom_site_fract_y
_atom_site_fract_z
Si Si1 0.354561 0.823932 0.214030
Si Si2 0.187692 0.347336 0.899837
Si Si3 0.207306 0.657573 0.389492
Si Si4 0.577050 0.448701 0.141515
Si Si5 0.023286 0.275448 0.380547
Si Si6 0.177801 0.165693 0.567739
O O1 0.287935 0.765222 0.351636
O O2 0.448491 0.814536 0.285702
O O3 0.332356 0.995601 0.147981
O O4 0.340328 0.707778 0.056286
O O5 0.260371 0.478815 0.895802
O O6 0.164493 0.291706 0.716265
O O7 0.115951 0.435623 0.001612
O O8 0.230008 0.201687 0.996012
O O9 0.147057 0.657185 0.230619
O O10 0.540935 0.566844 0.277281
O O11 0.512441 0.333321 0.056187
O O12 0.109170 0.185700 0.421502
#
# Coordination Sequence:
#
# PCOD9341695 Si02
#       6
#     4   4   4   4   4   4
#     4  12  26  44  70 102 145 178 226 284 353 410
#     4  12  22  45  72 101 126 183 239 284 326 408
#     4  12  22  45  72 101 126 183 239 284 326 408
#     4  12  24  40  74  96 138 172 244 288 330 396
#     4  12  26  42  64 106 138 184 222 284 352 408
#     4  12  26  44  70 102 145 178 226 284 353 410
#
# _framework density 21.993061999999998
#
# number of rings (size 3 to 8) (size 9 to 14) (size 15 to 20)
#    0.000    0.000    6.667    3.000    0.000    2.667 
#    0.000    1.667    0.000    0.000    0.000    0.000 
#    0.000    0.000    0.000    0.000    0.000    0.000 
#
# Total GULP energy -134328.639672 kJ/mol
# GULP energy per Si atom -5597.026653 kJ/mol
# Density = 2.194300 g / cm^3
# Si number density = 21.993062 Si / 1000 Ang^3
#
#
#
# Elastic Constant Matrix: (Units=GPa)
#
#
# Indices 1 2 3 4 5 6 
#
# 1 57.6641 4.7894 13.4707 0.0000 0.0000 0.0000
# 2 4.7894 71.9106 6.8871 0.0000 0.0000 0.0000
# 3 13.4707 6.8871 84.5085 0.0000 0.0000 0.0000
# 4 0.0000 0.0000 0.0000 38.3525 0.0000 0.0000
# 5 0.0000 0.0000 0.0000 0.0000 64.4779 0.0000
# 6 0.0000 0.0000 0.0000 0.0000 0.0000 11.2804
#
#
#
# Elastic Compliance Matrix: (Units=1/GPa)
#
#
# Indices 1 2 3 4 5 6 
#
# 1 0.018075 -0.000935 -0.002805 0.000000 0.000000 0.000000
# 2 -0.000935 0.014064 -0.000997 0.000000 0.000000 0.000000
# 3 -0.002805 -0.000997 0.012361 0.000000 0.000000 0.000000
# 4 0.000000 0.000000 0.000000 0.026074 0.000000 0.000000
# 5 0.000000 0.000000 0.000000 0.000000 0.015509 0.000000
# 6 0.000000 0.000000 0.000000 0.000000 0.000000 0.088650
#
#
# Mechanical properties :
#
#
# Convention : Reuss Voigt Hill
#
# Bulk Modulus (GPa) = 28.55039 29.37531 28.96285
# Shear Modulus (GPa) = 25.52550 35.41789 30.47169
#
# Velocity S-wave (km/s) = 3.41048 4.01735 3.72629
# Velocity P-wave (km/s) = 5.34024 5.90799 5.63128
#
# Compressibility (1/GPa) = 0.03502579
#
# Stress axis : x y z
#
# Youngs Moduli (GPa) = 55.32581 71.10390 80.89641
#
# Poissons Ratio (x) = 0.06650 0.22691
# Poissons Ratio (y) = 0.05174 0.08066
# Poissons Ratio (z) = 0.15518 0.07090
#
# Static dielectric constant tensor:
#      x y z
#    x 1.828440 0.000000 0.000000 
#    y 0.000000 1.781100 0.000000 
#    z 0.000000 0.000000 1.820350 
# 
# From -- ./inp_files/1731.got.cif
#   From: 2010.05.17/outbox.cif.g08.bks.cpg/sg29_1_cif.got.tgz:1731.got - 2010.06.04 01:19:37.
