data_PCOD9341215
_publ_section_title
;
Structure prediction by ZEFSAII (Michael W. Deem and Ramdas Pophale) SiO2 
 PCOD9341215
Probable space group: P C A 21
;
_chemical_formula_sum "Si O2"
_cell_formula_units_Z 28
_cell_length_a 8.827760
_cell_length_b 5.067494
_cell_length_c 23.042977
_cell_angle_alpha 90.000000
_cell_angle_beta 90.000000
_cell_angle_gamma 90.000000
_cell_volume 1030.818839
_symmetry_space_group_name_H-M "P C A 21"
_symmetry_group_IT_number 29
_symmetry_cell_setting 'orthorhombic'
loop_
_space_group_symop_operation_xyz
x,y,z
-x,-y,1/2+z
1/2-x,y,1/2+z
1/2+x,-y,z
loop_
_atom_site_type_symbol
_atom_site_label
_atom_site_fract_x
_atom_site_fract_y
_atom_site_fract_z
Si Si1 0.612022 0.733801 0.445430
Si Si2 0.408244 0.244701 0.172534
Si Si3 0.646845 0.042768 0.018423
Si Si4 0.082799 0.743552 0.594735
Si Si5 0.612544 0.645408 0.244167
Si Si6 0.660056 0.354748 0.355680
Si Si7 0.561565 0.032182 0.833836
O O1 0.481284 0.762691 0.493106
O O2 0.673691 0.456991 0.421127
O O3 0.526133 0.828436 0.387272
O O4 0.752065 0.902433 0.469034
O O5 0.406823 0.448123 0.118169
O O6 0.528691 0.397883 0.213630
O O7 0.243902 0.246989 0.202815
O O8 0.437616 0.953043 0.147710
O O9 0.762223 0.184138 0.061861
O O10 0.554632 0.814829 0.052160
O O11 0.695771 0.542414 0.302053
O O12 0.495791 0.856140 0.272146
O O13 0.766637 0.107447 0.342705
O O14 0.487641 0.266073 0.344489
#
# Coordination Sequence:
#
# PCOD9341215 Si02
#       7
#     4   4   4   4   4   4   4
#     4  10  24  49  77 108 152 198 263 316 414 460
#     4  12  26  48  76 115 156 211 260 338 394 477
#     4  10  23  52  77 111 149 213 255 345 394 479
#     4  11  26  49  76 114 156 202 280 323 403 473
#     4  11  26  41  75 110 154 209 255 323 398 471
#     4  11  26  47  73 113 157 205 261 327 389 503
#     4  11  25  46  70 115 152 204 262 318 390 497
#
# _framework density 27.162876000000001
#
# number of rings (size 3 to 8) (size 9 to 14) (size 15 to 20)
#    0.000    1.143    1.429    2.571    6.000    3.429 
#   25.714    2.857    0.000    0.000    0.000    0.000 
#    0.000    0.000    0.000    0.000    0.000    0.000 
#
# Total GULP energy -157066.586605 kJ/mol
# GULP energy per Si atom -5609.520950 kJ/mol
# Density = 2.710105 g / cm^3
# Si number density = 27.162876 Si / 1000 Ang^3
#
#
#
# Elastic Constant Matrix: (Units=GPa)
#
#
# Indices 1 2 3 4 5 6 
#
# 1 138.9732 20.6332 47.6982 0.0000 0.0000 0.0000
# 2 20.6332 77.4614 36.7520 0.0000 0.0000 0.0000
# 3 47.6982 36.7520 145.3699 0.0000 0.0000 0.0000
# 4 0.0000 0.0000 0.0000 42.8774 0.0000 0.0000
# 5 0.0000 0.0000 0.0000 0.0000 55.1332 0.0000
# 6 0.0000 0.0000 0.0000 0.0000 0.0000 29.8064
#
#
#
# Elastic Compliance Matrix: (Units=1/GPa)
#
#
# Indices 1 2 3 4 5 6 
#
# 1 0.008180 -0.001029 -0.002424 0.000000 0.000000 0.000000
# 2 -0.001029 0.014799 -0.003404 0.000000 0.000000 0.000000
# 3 -0.002424 -0.003404 0.008535 0.000000 0.000000 0.000000
# 4 0.000000 0.000000 0.000000 0.023322 0.000000 0.000000
# 5 0.000000 0.000000 0.000000 0.000000 0.018138 0.000000
# 6 0.000000 0.000000 0.000000 0.000000 0.000000 0.033550
#
#
# Mechanical properties :
#
#
# Convention : Reuss Voigt Hill
#
# Bulk Modulus (GPa) = 56.17787 63.55236 59.86512
# Shear Modulus (GPa) = 39.62887 42.67817 41.15352
#
# Velocity S-wave (km/s) = 3.82374 3.96813 3.89661
# Velocity P-wave (km/s) = 6.34204 6.66651 6.50630
#
# Compressibility (1/GPa) = 0.01780060
#
# Stress axis : x y z
#
# Youngs Moduli (GPa) = 122.24424 67.57369 117.16633
#
# Poissons Ratio (x) = 0.06953 0.28401
# Poissons Ratio (y) = 0.12578 0.39881
# Poissons Ratio (z) = 0.29632 0.23000
#
# Static dielectric constant tensor:
#      x y z
#    x 2.027850 0.000000 0.000000 
#    y 0.000000 2.243270 0.000000 
#    z 0.000000 0.000000 2.113310 
# 
# From -- ./inp_files/5668.got.cif
#   From: 2010.05.17/outbox.cif.g08.bks.cpg/sg29_3_cif.got.tgz:5668.got - 2010.06.04 01:19:37.
