data_PCOD9341096
_publ_section_title
;
Structure prediction by ZEFSAII (Michael W. Deem and Ramdas Pophale) SiO2 
 PCOD9341096
Probable space group: P C A 21
;
_chemical_formula_sum "Si O2"
_cell_formula_units_Z 32
_cell_length_a 11.769757
_cell_length_b 10.770202
_cell_length_c 11.548705
_cell_angle_alpha 90.000000
_cell_angle_beta 90.000000
_cell_angle_gamma 90.000000
_cell_volume 1463.944570
_symmetry_space_group_name_H-M "P C A 21"
_symmetry_group_IT_number 29
_symmetry_cell_setting 'orthorhombic'
loop_
_space_group_symop_operation_xyz
x,y,z
-x,-y,1/2+z
1/2-x,y,1/2+z
1/2+x,-y,z
loop_
_atom_site_type_symbol
_atom_site_label
_atom_site_fract_x
_atom_site_fract_y
_atom_site_fract_z
Si Si1 0.566668 0.980993 0.406640
Si Si2 0.017312 0.504474 0.258544
Si Si3 0.134816 0.392494 0.929356
Si Si4 0.578469 0.971225 0.146606
Si Si5 0.115046 0.306616 0.440802
Si Si6 0.398642 0.643021 0.570559
Si Si7 0.735740 0.131710 0.548424
Si Si8 0.986615 0.273828 0.100019
O O1 0.530295 0.013936 0.273339
O O2 0.591264 0.834319 0.403606
O O3 0.487347 0.000645 0.522911
O O4 0.678977 0.060694 0.440189
O O5 0.902995 0.569061 0.302400
O O6 0.983586 0.403747 0.163283
O O7 0.074363 0.417602 0.355642
O O8 0.105344 0.602778 0.204449
O O9 0.251247 0.323538 0.952269
O O10 0.139319 0.522122 0.999300
O O11 0.029371 0.308600 0.972728
O O12 0.578394 0.822116 0.149675
O O13 0.701164 0.031921 0.128595
O O14 0.031416 0.328625 0.548687
O O15 0.327659 0.760427 0.527916
O O16 0.631590 0.203341 0.607958
#
# Coordination Sequence:
#
# PCOD9341096 Si02
#       8
#     4   4   4   4   4   4   4   4
#     4  11  25  47  74 106 147 202 248 318 369 450
#     4  10  23  41  69 104 139 190 237 307 375 450
#     4  10  24  40  68 104 134 187 238 297 375 446
#     4  11  24  47  71 107 145 198 251 303 383 434
#     4  11  22  46  71  96 147 188 245 306 371 453
#     4  10  24  42  67 102 144 183 244 297 379 440
#     4  11  25  42  73 103 147 194 250 310 371 455
#     4  10  23  45  67 102 147 182 241 310 365 448
#
# _framework density 21.858750000000001
#
# number of rings (size 3 to 8) (size 9 to 14) (size 15 to 20)
#    0.000    1.500    2.500    0.750    7.000    7.000 
#    2.250    0.000    0.000    0.000    0.000    0.000 
#    0.000    0.000    0.000    0.000    0.000    0.000 
#
# Total GULP energy -178254.314466 kJ/mol
# GULP energy per Si atom -5570.447327 kJ/mol
# Density = 2.180900 g / cm^3
# Si number density = 21.858750 Si / 1000 Ang^3
#
#
#
# Elastic Constant Matrix: (Units=GPa)
#
#
# Indices 1 2 3 4 5 6 
#
# 1 88.5754 26.9747 20.3858 0.0000 0.0000 0.0000
# 2 26.9747 86.8488 24.4215 0.0000 0.0000 0.0000
# 3 20.3858 24.4215 93.4187 0.0000 0.0000 0.0000
# 4 0.0000 0.0000 0.0000 11.8832 0.0000 0.0000
# 5 0.0000 0.0000 0.0000 0.0000 16.1474 0.0000
# 6 0.0000 0.0000 0.0000 0.0000 0.0000 23.5998
#
#
#
# Elastic Compliance Matrix: (Units=1/GPa)
#
#
# Indices 1 2 3 4 5 6 
#
# 1 0.012771 -0.003435 -0.001889 0.000000 0.000000 0.000000
# 2 -0.003435 0.013352 -0.002741 0.000000 0.000000 0.000000
# 3 -0.001889 -0.002741 0.011833 0.000000 0.000000 0.000000
# 4 0.000000 0.000000 0.000000 0.084152 0.000000 0.000000
# 5 0.000000 0.000000 0.000000 0.000000 0.061929 0.000000
# 6 0.000000 0.000000 0.000000 0.000000 0.000000 0.042373
#
#
# Mechanical properties :
#
#
# Convention : Reuss Voigt Hill
#
# Bulk Modulus (GPa) = 45.81696 45.82298 45.81997
# Shear Modulus (GPa) = 20.01473 23.46348 21.73911
#
# Velocity S-wave (km/s) = 3.02924 3.27985 3.15703
# Velocity P-wave (km/s) = 5.76550 5.94575 5.85632
#
# Compressibility (1/GPa) = 0.02182598
#
# Stress axis : x y z
#
# Youngs Moduli (GPa) = 78.30405 74.89530 84.50833
#
# Poissons Ratio (x) = 0.25730 0.15961
# Poissons Ratio (y) = 0.26901 0.23162
# Poissons Ratio (z) = 0.14790 0.20527
#
# Static dielectric constant tensor:
#      x y z
#    x 1.816230 0.000000 0.000000 
#    y 0.000000 1.802420 0.000000 
#    z 0.000000 0.000000 1.890120 
# 
# From -- ./inp_files/3242.got.cif
#   From: 2010.05.17/outbox.cif.g08.bks.cpg/sg29_2_cif.got.tgz:3242.got - 2010.06.04 01:19:37.
