data_PCOD9341492
_publ_section_title
;
Structure prediction by ZEFSAII (Michael W. Deem and Ramdas Pophale) SiO2 
 PCOD9341492
Probable space group: P C A 21
;
_chemical_formula_sum "Si O2"
_cell_formula_units_Z 32
_cell_length_a 14.456886
_cell_length_b 6.712598
_cell_length_c 16.785715
_cell_angle_alpha 90.000000
_cell_angle_beta 90.000000
_cell_angle_gamma 90.000000
_cell_volume 1628.940573
_symmetry_space_group_name_H-M "P C A 21"
_symmetry_group_IT_number 29
_symmetry_cell_setting 'orthorhombic'
loop_
_space_group_symop_operation_xyz
x,y,z
-x,-y,1/2+z
1/2-x,y,1/2+z
1/2+x,-y,z
loop_
_atom_site_type_symbol
_atom_site_label
_atom_site_fract_x
_atom_site_fract_y
_atom_site_fract_z
Si Si1 0.767491 0.050383 0.439170
Si Si2 0.929055 0.918016 0.925622
Si Si3 0.732509 0.050382 0.629595
Si Si4 0.429055 0.081983 0.643143
Si Si5 0.574401 0.752251 0.971632
Si Si6 0.574401 0.752249 0.597133
Si Si7 0.911745 0.358806 0.195158
Si Si8 0.411745 0.641193 0.373607
O O1 0.750000 0.087373 0.534382
O O2 0.821734 0.235726 0.401573
O O3 0.671229 0.990489 0.398317
O O4 0.838269 0.866351 0.433864
O O5 0.001249 0.792858 0.874081
O O6 0.912233 0.777718 0.002808
O O7 0.983697 0.117128 0.952288
O O8 0.678265 0.235724 0.667192
O O9 0.828771 0.990490 0.670448
O O10 0.661731 0.866348 0.634901
O O11 0.412233 0.222281 0.565957
O O12 0.501248 0.207143 0.694684
O O13 0.483698 0.882872 0.616477
O O14 0.569426 0.533630 0.936389
O O15 0.569425 0.533629 0.632376
O O16 0.899605 0.438674 0.284383
#
# Coordination Sequence:
#
# PCOD9341492 Si02
#       8
#     4   4   4   4   4   4   4   4
#     4   9  20  38  60  84 111 149 194 236 279 337
#     4   9  19  38  60  80 109 154 198 231 272 336
#     4   9  20  38  60  84 111 149 194 236 279 337
#     4   9  19  38  60  80 109 154 198 231 272 336
#     4   9  19  36  58  84 113 146 191 238 276 329
#     4   9  19  36  58  84 113 146 191 238 276 329
#     4  11  23  36  56  88 121 149 183 238 296 341
#     4  11  23  36  56  88 121 149 183 238 296 341
#
# _framework density 19.644669
#
# number of rings (size 3 to 8) (size 9 to 14) (size 15 to 20)
#    0.000    2.500    0.000    2.250    0.000   10.000 
#    0.000    2.500    0.000    0.000    0.000    0.000 
#    0.000    0.000    0.000    0.000    0.000    0.000 
#
# Total GULP energy -178447.878321 kJ/mol
# GULP energy per Si atom -5576.496198 kJ/mol
# Density = 1.959996 g / cm^3
# Si number density = 19.644669 Si / 1000 Ang^3
#
#
#
# Elastic Constant Matrix: (Units=GPa)
#
#
# Indices 1 2 3 4 5 6 
#
# 1 133.0773 32.5718 20.6515 0.0000 0.0000 0.0000
# 2 32.5718 91.1605 33.6845 0.0000 0.0000 0.0000
# 3 20.6515 33.6845 49.5896 0.0000 0.0000 0.0000
# 4 0.0000 0.0000 0.0000 4.9405 0.0000 0.0000
# 5 0.0000 0.0000 0.0000 0.0000 7.8122 0.0000
# 6 0.0000 0.0000 0.0000 0.0000 0.0000 10.7519
#
#
#
# Elastic Compliance Matrix: (Units=1/GPa)
#
#
# Indices 1 2 3 4 5 6 
#
# 1 0.008372 -0.002274 -0.001942 0.000000 0.000000 0.000000
# 2 -0.002274 0.015263 -0.009421 0.000000 0.000000 0.000000
# 3 -0.001942 -0.009421 0.027374 0.000000 0.000000 0.000000
# 4 0.000000 0.000000 0.000000 0.202411 0.000000 0.000000
# 5 0.000000 0.000000 0.000000 0.000000 0.128004 0.000000
# 6 0.000000 0.000000 0.000000 0.000000 0.000000 0.093007
#
#
# Mechanical properties :
#
#
# Convention : Reuss Voigt Hill
#
# Bulk Modulus (GPa) = 42.13091 49.73812 45.93452
# Shear Modulus (GPa) = 9.81131 17.16222 13.48676
#
# Velocity S-wave (km/s) = 2.23724 2.95893 2.62303
# Velocity P-wave (km/s) = 5.30723 6.08667 5.71027
#
# Compressibility (1/GPa) = 0.02373554
#
# Stress axis : x y z
#
# Youngs Moduli (GPa) = 119.44068 65.51717 36.53161
#
# Poissons Ratio (x) = 0.14897 0.07095
# Poissons Ratio (y) = 0.27159 0.34416
# Poissons Ratio (z) = 0.23197 0.61723
#
# Static dielectric constant tensor:
#      x y z
#    x 1.692360 0.000000 0.000000 
#    y 0.000000 1.659940 0.000000 
#    z 0.000000 0.000000 1.706260 
# 
# From -- ./inp_files/5234.got.cif
#   From: 2010.05.17/outbox.cif.g08.bks.cpg/sg29_3_cif.got.tgz:5234.got - 2010.06.04 01:19:37.
