data_PCOD9341245
_publ_section_title
;
Structure prediction by ZEFSAII (Michael W. Deem and Ramdas Pophale) SiO2 
 PCOD9341245
Probable space group: P C A 21
;
_chemical_formula_sum "Si O2"
_cell_formula_units_Z 28
_cell_length_a 21.582065
_cell_length_b 7.278838
_cell_length_c 8.889301
_cell_angle_alpha 90.000000
_cell_angle_beta 90.000000
_cell_angle_gamma 90.000000
_cell_volume 1396.441227
_symmetry_space_group_name_H-M "P C A 21"
_symmetry_group_IT_number 29
_symmetry_cell_setting 'orthorhombic'
loop_
_space_group_symop_operation_xyz
x,y,z
-x,-y,1/2+z
1/2-x,y,1/2+z
1/2+x,-y,z
loop_
_atom_site_type_symbol
_atom_site_label
_atom_site_fract_x
_atom_site_fract_y
_atom_site_fract_z
Si Si1 0.443111 0.083127 0.029700
Si Si2 0.160884 0.667341 0.089409
Si Si3 0.242349 0.750000 0.338314
Si Si4 0.339116 0.832659 0.087219
Si Si5 0.443111 0.416873 0.646927
Si Si6 0.426991 0.508774 0.992370
Si Si7 0.426991 0.991226 0.684257
O O1 0.420425 0.292270 0.023378
O O2 0.395270 0.965305 0.126618
O O3 0.511631 0.076045 0.097015
O O4 0.439797 0.987947 0.864264
O O5 0.197606 0.617116 0.242572
O O6 0.104730 0.534695 0.050010
O O7 0.129608 0.865358 0.126622
O O8 0.211905 0.664578 0.960418
O O9 0.288095 0.835422 0.216210
O O10 0.197606 0.882885 0.434056
O O11 0.370392 0.634642 0.050005
O O12 0.511632 0.423956 0.579612
O O13 0.420426 0.207729 0.653249
O O14 0.439797 0.512053 0.812364
#
# Coordination Sequence:
#
# PCOD9341245 Si02
#       7
#     4   4   4   4   4   4   4
#     4  11  23  38  62  94 125 157 201 257 313 363
#     4  11  22  46  62  92 126 161 210 250 303 365
#     4  10  24  42  70  82 124 180 200 244 302 368
#     4  11  22  46  62  92 126 161 210 250 303 365
#     4  11  23  38  62  94 125 157 201 257 313 363
#     4  11  23  38  62  94 125 157 201 257 313 363
#     4  11  23  38  62  94 125 157 201 257 313 363
#
# _framework density 20.05097
#
# number of rings (size 3 to 8) (size 9 to 14) (size 15 to 20)
#    0.000    1.143    5.714    0.000    4.000    0.000 
#    0.000    8.571    0.000    0.000    0.000    0.000 
#    0.000    0.000    0.000    0.000    0.000    0.000 
#
# Total GULP energy -156208.789922 kJ/mol
# GULP energy per Si atom -5578.885354 kJ/mol
# Density = 2.000533 g / cm^3
# Si number density = 20.050970 Si / 1000 Ang^3
#
#
#
# Elastic Constant Matrix: (Units=GPa)
#
#
# Indices 1 2 3 4 5 6 
#
# 1 106.4458 23.3079 34.0888 0.0000 0.0000 0.0000
# 2 23.3079 74.7697 6.5704 0.0000 0.0000 0.0000
# 3 34.0888 6.5704 60.5143 0.0000 0.0000 0.0000
# 4 0.0000 0.0000 0.0000 15.1854 0.0000 0.0000
# 5 0.0000 0.0000 0.0000 0.0000 39.2355 0.0000
# 6 0.0000 0.0000 0.0000 0.0000 0.0000 -26.1906
#
#
#
# Elastic Compliance Matrix: (Units=1/GPa)
#
#
# Indices 1 2 3 4 5 6 
#
# 1 0.012187 -0.003227 -0.006515 0.000000 0.000000 0.000000
# 2 -0.003227 0.014357 0.000259 0.000000 0.000000 0.000000
# 3 -0.006515 0.000259 0.020167 0.000000 0.000000 0.000000
# 4 0.000000 0.000000 0.000000 0.065853 0.000000 0.000000
# 5 0.000000 0.000000 0.000000 0.000000 0.025487 0.000000
# 6 0.000000 0.000000 0.000000 0.000000 0.000000 -0.038182
#
#
# Mechanical properties :
#
#
# Convention : Reuss Voigt Hill
#
# Bulk Modulus (GPa) = 36.04126 41.07377 38.55752
# Shear Modulus (GPa) = 39.03664 17.49690 28.26677
#
# Velocity S-wave (km/s) = 4.41712 2.95722 3.75873
# Velocity P-wave (km/s) = 6.63540 5.67357 6.17324
#
# Compressibility (1/GPa) = 0.02774598
#
# Stress axis : x y z
#
# Youngs Moduli (GPa) = 82.05201 69.65003 49.58606
#
# Poissons Ratio (x) = 0.22474 0.32306
# Poissons Ratio (y) = 0.26475 -0.01283
# Poissons Ratio (z) = 0.53457 -0.01802
#
# Static dielectric constant tensor:
#      x y z
#    x 1.685270 0.000000 0.000000 
#    y 0.000000 1.702670 0.000000 
#    z 0.000000 0.000000 1.762770 
# 
# From -- ./inp_files/2123.got.cif
#   From: 2010.05.17/outbox.cif.g08.bks.cpg/sg29_2_cif.got.tgz:2123.got - 2010.06.04 01:19:37.
