data_PCOD9341708
_publ_section_title
;
Structure prediction by ZEFSAII (Michael W. Deem and Ramdas Pophale) SiO2 
 PCOD9341708
Probable space group: P C A 21
;
_chemical_formula_sum "Si O2"
_cell_formula_units_Z 24
_cell_length_a 13.784640
_cell_length_b 8.978638
_cell_length_c 8.359460
_cell_angle_alpha 90.000000
_cell_angle_beta 90.000000
_cell_angle_gamma 90.000000
_cell_volume 1034.627731
_symmetry_space_group_name_H-M "P C A 21"
_symmetry_group_IT_number 29
_symmetry_cell_setting 'orthorhombic'
loop_
_space_group_symop_operation_xyz
x,y,z
-x,-y,1/2+z
1/2-x,y,1/2+z
1/2+x,-y,z
loop_
_atom_site_type_symbol
_atom_site_label
_atom_site_fract_x
_atom_site_fract_y
_atom_site_fract_z
Si Si1 0.394747 0.134562 0.580140
Si Si2 0.026346 0.147898 0.579105
Si Si3 0.504610 0.633655 0.877521
Si Si4 0.112657 0.672038 0.855201
Si Si5 0.810068 0.282608 0.005320
Si Si6 0.792146 0.942209 0.905537
O O1 0.442215 0.289790 0.529569
O O2 0.320010 0.087365 0.440311
O O3 0.330404 0.120400 0.738444
O O4 0.480224 0.014829 0.599745
O O5 0.009831 0.249006 0.733216
O O6 0.138459 0.135498 0.535267
O O7 0.966284 0.219052 0.432296
O O8 0.559532 0.484560 0.831662
O O9 0.391987 0.616071 0.922665
O O10 0.160218 0.727746 0.690523
O O11 0.201947 0.657744 0.979405
O O12 0.811349 0.118679 0.925239
#
# Coordination Sequence:
#
# PCOD9341708 Si02
#       6
#     4   4   4   4   4   4
#     4  12  24  43  71 105 140 183 244 303 353 436
#     4  12  24  45  72 106 141 190 242 301 365 430
#     4  12  27  47  71 109 149 190 243 303 372 442
#     4  12  28  45  74 103 149 194 244 300 373 448
#     4  12  24  46  73 100 143 193 241 300 369 438
#     4  12  25  42  75 105 136 186 244 301 362 424
#
# _framework density 23.196749000000001
#
# number of rings (size 3 to 8) (size 9 to 14) (size 15 to 20)
#    0.000    0.000    5.000    5.000    2.333    4.000 
#    0.000    0.000    0.000    0.000    0.000    0.000 
#    0.000    0.000    0.000    0.000    0.000    0.000 
#
# Total GULP energy -134543.494355 kJ/mol
# GULP energy per Si atom -5605.978931 kJ/mol
# Density = 2.314395 g / cm^3
# Si number density = 23.196749 Si / 1000 Ang^3
#
#
#
# Elastic Constant Matrix: (Units=GPa)
#
#
# Indices 1 2 3 4 5 6 
#
# 1 113.5994 38.0335 7.9046 0.0000 0.0000 0.0000
# 2 38.0335 36.0526 6.4041 0.0000 0.0000 0.0000
# 3 7.9046 6.4041 81.4567 0.0000 0.0000 0.0000
# 4 0.0000 0.0000 0.0000 25.4702 0.0000 0.0000
# 5 0.0000 0.0000 0.0000 0.0000 46.0715 0.0000
# 6 0.0000 0.0000 0.0000 0.0000 0.0000 28.0092
#
#
#
# Elastic Compliance Matrix: (Units=1/GPa)
#
#
# Indices 1 2 3 4 5 6 
#
# 1 0.013613 -0.014326 -0.000195 0.000000 0.000000 0.000000
# 2 -0.014326 0.043207 -0.002007 0.000000 0.000000 0.000000
# 3 -0.000195 -0.002007 0.012453 0.000000 0.000000 0.000000
# 4 0.000000 0.000000 0.000000 0.039262 0.000000 0.000000
# 5 0.000000 0.000000 0.000000 0.000000 0.021705 0.000000
# 6 0.000000 0.000000 0.000000 0.000000 0.000000 0.035703
#
#
# Mechanical properties :
#
#
# Convention : Reuss Voigt Hill
#
# Bulk Modulus (GPa) = 27.61067 37.31035 32.46051
# Shear Modulus (GPa) = 23.68874 31.82796 27.75835
#
# Velocity S-wave (km/s) = 3.19910 3.70819 3.46301
# Velocity P-wave (km/s) = 5.05711 5.86970 5.47849
#
# Compressibility (1/GPa) = 0.03621788
#
# Stress axis : x y z
#
# Youngs Moduli (GPa) = 73.45965 23.14426 80.30118
#
# Poissons Ratio (x) = 0.33157 0.01563
# Poissons Ratio (y) = 1.05241 0.16114
# Poissons Ratio (z) = 0.01430 0.04644
#
# Static dielectric constant tensor:
#      x y z
#    x 1.832410 0.000000 0.000000 
#    y 0.000000 1.818040 0.000000 
#    z 0.000000 0.000000 1.931710 
# 
# From -- ./inp_files/1729.got.cif
#   From: 2010.05.17/outbox.cif.g08.bks.cpg/sg29_1_cif.got.tgz:1729.got - 2010.06.04 01:19:37.
