data_PCOD9341176
_publ_section_title
;
Structure prediction by ZEFSAII (Michael W. Deem and Ramdas Pophale) SiO2 
 PCOD9341176
Probable space group: P C A 21
;
_chemical_formula_sum "Si O2"
_cell_formula_units_Z 32
_cell_length_a 12.173097
_cell_length_b 8.902991
_cell_length_c 12.660786
_cell_angle_alpha 90.000000
_cell_angle_beta 90.000000
_cell_angle_gamma 90.000000
_cell_volume 1372.137663
_symmetry_space_group_name_H-M "P C A 21"
_symmetry_group_IT_number 29
_symmetry_cell_setting 'orthorhombic'
loop_
_space_group_symop_operation_xyz
x,y,z
-x,-y,1/2+z
1/2-x,y,1/2+z
1/2+x,-y,z
loop_
_atom_site_type_symbol
_atom_site_label
_atom_site_fract_x
_atom_site_fract_y
_atom_site_fract_z
Si Si1 0.347237 0.896552 0.429490
Si Si2 0.988148 0.752148 0.760750
Si Si3 0.812193 0.595696 0.451801
Si Si4 0.820993 0.327363 0.982476
Si Si5 0.258929 0.159263 0.303778
Si Si6 0.360987 0.208355 0.082929
Si Si7 0.975719 0.089329 0.032578
Si Si8 0.509478 0.503149 0.610985
O O1 0.427338 0.799950 0.352646
O O2 0.277240 0.788206 0.504475
O O3 0.409758 0.024238 0.494499
O O4 0.270746 0.995857 0.354128
O O5 0.866910 0.789707 0.800862
O O6 0.986819 0.578054 0.722465
O O7 0.013562 0.844374 0.651616
O O8 0.739682 0.453047 0.412632
O O9 0.833384 0.709132 0.356662
O O10 0.730297 0.698946 0.520515
O O11 0.913005 0.540652 0.526391
O O12 0.875834 0.424452 0.074974
O O13 0.922292 0.216417 0.957439
O O14 0.304045 0.151222 0.187268
O O15 0.401904 0.058646 0.027738
O O16 0.462819 0.321152 0.106150
#
# Coordination Sequence:
#
# PCOD9341176 Si02
#       8
#     4   4   4   4   4   4   4   4
#     4  12  24  42  68 100 136 180 229 282 340 407
#     4  11  24  42  66 100 136 174 231 282 335 412
#     4  11  23  45  69  96 140 177 225 283 345 405
#     4  10  24  41  71  96 126 181 223 276 340 402
#     4  12  25  42  69 102 135 181 226 283 347 408
#     4  11  23  45  69  99 134 181 225 280 350 407
#     4  11  24  46  68  96 138 177 229 282 340 410
#     4  10  23  45  68  97 137 179 226 282 343 405
#
# _framework density 23.321273999999999
#
# number of rings (size 3 to 8) (size 9 to 14) (size 15 to 20)
#    0.000    1.000    2.500    4.500    3.500    1.000 
#    2.250    0.000    0.000    0.000    0.000    0.000 
#    0.000    0.000    0.000    0.000    0.000    0.000 
#
# Total GULP energy -178622.086150 kJ/mol
# GULP energy per Si atom -5581.940192 kJ/mol
# Density = 2.326819 g / cm^3
# Si number density = 23.321274 Si / 1000 Ang^3
#
#
#
# Elastic Constant Matrix: (Units=GPa)
#
#
# Indices 1 2 3 4 5 6 
#
# 1 96.7388 27.2296 16.6978 0.0000 0.0000 0.0000
# 2 27.2296 116.8774 6.0329 0.0000 0.0000 0.0000
# 3 16.6978 6.0329 39.8683 0.0000 0.0000 0.0000
# 4 0.0000 0.0000 0.0000 19.3588 0.0000 0.0000
# 5 0.0000 0.0000 0.0000 0.0000 24.5981 0.0000
# 6 0.0000 0.0000 0.0000 0.0000 0.0000 57.9749
#
#
#
# Elastic Compliance Matrix: (Units=1/GPa)
#
#
# Indices 1 2 3 4 5 6 
#
# 1 0.011837 -0.002521 -0.004576 0.000000 0.000000 0.000000
# 2 -0.002521 0.009160 -0.000330 0.000000 0.000000 0.000000
# 3 -0.004576 -0.000330 0.027049 0.000000 0.000000 0.000000
# 4 0.000000 0.000000 0.000000 0.051656 0.000000 0.000000
# 5 0.000000 0.000000 0.000000 0.000000 0.040653 0.000000
# 6 0.000000 0.000000 0.000000 0.000000 0.000000 0.017249
#
#
# Mechanical properties :
#
#
# Convention : Reuss Voigt Hill
#
# Bulk Modulus (GPa) = 30.12851 39.26723 34.69787
# Shear Modulus (GPa) = 27.24447 33.95463 30.59955
#
# Velocity S-wave (km/s) = 3.42164 3.81983 3.62620
# Velocity P-wave (km/s) = 5.34388 6.02735 5.69587
#
# Compressibility (1/GPa) = 0.03319115
#
# Stress axis : x y z
#
# Youngs Moduli (GPa) = 84.48312 109.16493 36.96986
#
# Poissons Ratio (x) = 0.27525 0.16917
# Poissons Ratio (y) = 0.21302 0.01220
# Poissons Ratio (z) = 0.38659 0.03604
#
# Static dielectric constant tensor:
#      x y z
#    x 1.933110 0.000000 0.000000 
#    y 0.000000 1.908240 0.000000 
#    z 0.000000 0.000000 1.889520 
# 
# From -- ./inp_files/4573.got.cif
#   From: 2010.05.17/outbox.cif.g08.bks.cpg/sg29_3_cif.got.tgz:4573.got - 2010.06.04 01:19:37.
