data_PCOD9341077
_publ_section_title
;
Structure prediction by ZEFSAII (Michael W. Deem and Ramdas Pophale) SiO2 
 PCOD9341077
Probable space group: P C A 21
;
_chemical_formula_sum "Si O2"
_cell_formula_units_Z 24
_cell_length_a 9.955432
_cell_length_b 9.840833
_cell_length_c 9.331904
_cell_angle_alpha 90.000000
_cell_angle_beta 90.000000
_cell_angle_gamma 90.000000
_cell_volume 914.244244
_symmetry_space_group_name_H-M "P C A 21"
_symmetry_group_IT_number 29
_symmetry_cell_setting 'orthorhombic'
loop_
_space_group_symop_operation_xyz
x,y,z
-x,-y,1/2+z
1/2-x,y,1/2+z
1/2+x,-y,z
loop_
_atom_site_type_symbol
_atom_site_label
_atom_site_fract_x
_atom_site_fract_y
_atom_site_fract_z
Si Si1 0.244409 0.853066 0.241230
Si Si2 0.668159 0.965199 0.989443
Si Si3 0.526972 0.468760 0.127437
Si Si4 0.228443 0.404442 0.779046
Si Si5 0.933423 0.257426 0.992355
Si Si6 0.639358 0.749292 0.532458
O O1 0.151157 0.763914 0.346807
O O2 0.336658 0.938204 0.352089
O O3 0.339578 0.778661 0.127494
O O4 0.158772 0.952937 0.138102
O O5 0.558497 0.846467 0.985098
O O6 0.819301 0.897746 0.983263
O O7 0.667858 0.502442 0.194753
O O8 0.415563 0.470328 0.253687
O O9 0.505561 0.320978 0.053657
O O10 0.486219 0.592406 0.024789
O O11 0.209624 0.265943 0.687311
O O12 0.286810 0.359112 0.928931
#
# Coordination Sequence:
#
# PCOD9341077 Si02
#       6
#     4   4   4   4   4   4
#     4  10  25  40  65  97 119 177 224 270 333 389
#     4  11  21  45  66  92 131 168 226 268 335 398
#     4  10  24  40  65  97 134 167 217 265 340 388
#     4  10  23  40  62  98 132 169 217 261 337 396
#     4  11  22  43  65  91 135 167 216 285 325 399
#     4  10  23  40  67  95 127 176 208 277 324 402
#
# _framework density 26.251190000000001
#
# number of rings (size 3 to 8) (size 9 to 14) (size 15 to 20)
#    1.000    0.667    1.667    2.000    4.667    0.000 
#    0.000    3.333    0.000    0.000    0.000    0.000 
#    0.000    0.000    0.000    0.000    0.000    0.000 
#
# Total GULP energy -134327.326845 kJ/mol
# GULP energy per Si atom -5596.971952 kJ/mol
# Density = 2.619144 g / cm^3
# Si number density = 26.251190 Si / 1000 Ang^3
#
#
#
# Elastic Constant Matrix: (Units=GPa)
#
#
# Indices 1 2 3 4 5 6 
#
# 1 62.3624 16.6561 33.2701 0.0000 0.0000 0.0000
# 2 16.6561 103.2218 50.4499 0.0000 0.0000 0.0000
# 3 33.2701 50.4499 178.7520 0.0000 0.0000 0.0000
# 4 0.0000 0.0000 0.0000 33.0219 0.0000 0.0000
# 5 0.0000 0.0000 0.0000 0.0000 39.5242 0.0000
# 6 0.0000 0.0000 0.0000 0.0000 0.0000 36.3918
#
#
#
# Elastic Compliance Matrix: (Units=1/GPa)
#
#
# Indices 1 2 3 4 5 6 
#
# 1 0.017993 -0.001469 -0.002934 0.000000 0.000000 0.000000
# 2 -0.001469 0.011358 -0.002932 0.000000 0.000000 0.000000
# 3 -0.002934 -0.002932 0.006968 0.000000 0.000000 0.000000
# 4 0.000000 0.000000 0.000000 0.030283 0.000000 0.000000
# 5 0.000000 0.000000 0.000000 0.000000 0.025301 0.000000
# 6 0.000000 0.000000 0.000000 0.000000 0.000000 0.027479
#
#
# Mechanical properties :
#
#
# Convention : Reuss Voigt Hill
#
# Bulk Modulus (GPa) = 46.19406 60.56537 53.37971
# Shear Modulus (GPa) = 35.39342 38.05159 36.72250
#
# Velocity S-wave (km/s) = 3.67585 3.81139 3.74423
# Velocity P-wave (km/s) = 5.97084 6.51847 6.25066
#
# Compressibility (1/GPa) = 0.02164781
#
# Stress axis : x y z
#
# Youngs Moduli (GPa) = 55.57669 88.04323 143.51234
#
# Poissons Ratio (x) = 0.12936 0.42111
# Poissons Ratio (y) = 0.08166 0.42080
# Poissons Ratio (z) = 0.16308 0.25816
#
# Static dielectric constant tensor:
#      x y z
#    x 2.066220 0.000000 0.000000 
#    y 0.000000 2.060350 0.000000 
#    z 0.000000 0.000000 1.991120 
# 
# From -- ./inp_files/1440.got.cif
#   From: 2010.05.17/outbox.cif.g08.bks.cpg/sg29_1_cif.got.tgz:1440.got - 2010.06.04 01:19:37.
