data_PCOD9341488
_publ_section_title
;
Structure prediction by ZEFSAII (Michael W. Deem and Ramdas Pophale) SiO2 
 PCOD9341488
Probable space group: P C A 21
;
_chemical_formula_sum "Si O2"
_cell_formula_units_Z 28
_cell_length_a 19.390585
_cell_length_b 5.185331
_cell_length_c 10.225837
_cell_angle_alpha 90.000000
_cell_angle_beta 90.000000
_cell_angle_gamma 90.000000
_cell_volume 1028.173158
_symmetry_space_group_name_H-M "P C A 21"
_symmetry_group_IT_number 29
_symmetry_cell_setting 'orthorhombic'
loop_
_space_group_symop_operation_xyz
x,y,z
-x,-y,1/2+z
1/2-x,y,1/2+z
1/2+x,-y,z
loop_
_atom_site_type_symbol
_atom_site_label
_atom_site_fract_x
_atom_site_fract_y
_atom_site_fract_z
Si Si1 0.287793 0.289224 0.629560
Si Si2 0.399955 0.718096 0.298716
Si Si3 0.969519 0.928734 0.141120
Si Si4 0.490534 0.410948 0.479423
Si Si5 0.848654 0.613587 0.078394
Si Si6 0.744408 0.047565 0.873484
Si Si7 0.628319 0.435031 0.318314
O O1 0.228451 0.491647 0.595853
O O2 0.355703 0.437243 0.678090
O O3 0.277000 0.093555 0.509684
O O4 0.253297 0.157369 0.756357
O O5 0.425669 0.488642 0.391763
O O6 0.391554 0.602944 0.153132
O O7 0.324741 0.792301 0.346260
O O8 0.460742 0.931917 0.283945
O O9 0.009943 0.149266 0.061447
O O10 0.999498 0.663598 0.076227
O O11 0.886740 0.869829 0.127449
O O12 0.551784 0.370732 0.368585
O O13 0.856038 0.652810 0.925022
O O14 0.814468 0.217971 0.852928
#
# Coordination Sequence:
#
# PCOD9341488 Si02
#       7
#     4   4   4   4   4   4   4
#     4  12  24  41  76 111 150 191 257 323 383 460
#     4  12  25  47  75 109 153 206 262 325 393 473
#     4  11  23  47  72 103 146 207 249 307 390 475
#     4  11  28  44  74 108 153 201 258 315 392 470
#     4  11  22  46  76 104 149 208 248 313 401 466
#     4  12  26  43  74 112 149 197 256 324 385 465
#     4  11  24  46  69 105 150 196 254 317 386 465
#
# _framework density 27.232765000000001
#
# number of rings (size 3 to 8) (size 9 to 14) (size 15 to 20)
#    0.000    0.571    7.143    1.714    4.000    1.143 
#    2.571    0.000    0.000    0.000    0.000    0.000 
#    0.000    0.000    0.000    0.000    0.000    0.000 
#
# Total GULP energy -155919.767011 kJ/mol
# GULP energy per Si atom -5568.563108 kJ/mol
# Density = 2.717078 g / cm^3
# Si number density = 27.232765 Si / 1000 Ang^3
#
#
#
# Elastic Constant Matrix: (Units=GPa)
#
#
# Indices 1 2 3 4 5 6 
#
# 1 86.8227 23.7654 12.6040 0.0000 0.0000 0.0000
# 2 23.7654 137.6242 29.8205 0.0000 0.0000 0.0000
# 3 12.6040 29.8205 109.5018 0.0000 0.0000 0.0000
# 4 0.0000 0.0000 0.0000 35.4868 0.0000 0.0000
# 5 0.0000 0.0000 0.0000 0.0000 36.9953 0.0000
# 6 0.0000 0.0000 0.0000 0.0000 0.0000 39.9908
#
#
#
# Elastic Compliance Matrix: (Units=1/GPa)
#
#
# Indices 1 2 3 4 5 6 
#
# 1 0.012168 -0.001911 -0.000880 0.000000 0.000000 0.000000
# 2 -0.001911 0.008022 -0.001965 0.000000 0.000000 0.000000
# 3 -0.000880 -0.001965 0.009769 0.000000 0.000000 0.000000
# 4 0.000000 0.000000 0.000000 0.028180 0.000000 0.000000
# 5 0.000000 0.000000 0.000000 0.000000 0.027030 0.000000
# 6 0.000000 0.000000 0.000000 0.000000 0.000000 0.025006
#
#
# Mechanical properties :
#
#
# Convention : Reuss Voigt Hill
#
# Bulk Modulus (GPa) = 48.90491 51.81426 50.35958
# Shear Modulus (GPa) = 39.52518 40.34516 39.93517
#
# Velocity S-wave (km/s) = 3.81384 3.85319 3.83356
# Velocity P-wave (km/s) = 6.11481 6.23409 6.17474
#
# Compressibility (1/GPa) = 0.02044784
#
# Stress axis : x y z
#
# Youngs Moduli (GPa) = 82.17956 124.66050 102.36847
#
# Poissons Ratio (x) = 0.23817 0.09012
# Poissons Ratio (y) = 0.15701 0.20112
# Poissons Ratio (z) = 0.07235 0.24491
#
# Static dielectric constant tensor:
#      x y z
#    x 2.331900 0.000000 0.000000 
#    y 0.000000 2.291990 0.000000 
#    z 0.000000 0.000000 2.263670 
# 
# From -- ./inp_files/3743.got.cif
#   From: 2010.05.17/outbox.cif.g08.bks.cpg/sg29_2_cif.got.tgz:3743.got - 2010.06.04 01:19:37.
