data_PCOD9341726
_publ_section_title
;
Structure prediction by ZEFSAII (Michael W. Deem and Ramdas Pophale) SiO2 
 PCOD9341726
Probable space group: P C A 21
;
_chemical_formula_sum "Si O2"
_cell_formula_units_Z 16
_cell_length_a 7.531013
_cell_length_b 8.813727
_cell_length_c 8.082020
_cell_angle_alpha 90.000000
_cell_angle_beta 90.000000
_cell_angle_gamma 90.000000
_cell_volume 536.454524
_symmetry_space_group_name_H-M "P C A 21"
_symmetry_group_IT_number 29
_symmetry_cell_setting 'orthorhombic'
loop_
_space_group_symop_operation_xyz
x,y,z
-x,-y,1/2+z
1/2-x,y,1/2+z
1/2+x,-y,z
loop_
_atom_site_type_symbol
_atom_site_label
_atom_site_fract_x
_atom_site_fract_y
_atom_site_fract_z
Si Si1 0.570560 0.011080 0.889050
Si Si2 0.790731 0.822683 0.686858
Si Si3 0.296046 0.674218 0.386001
Si Si4 0.977612 0.557288 0.193552
O O1 0.405055 0.121926 0.846312
O O2 0.715180 0.146588 0.909855
O O3 0.612179 0.922173 0.718739
O O4 0.601743 0.886423 0.030842
O O5 0.704875 0.656070 0.684896
O O6 0.403321 0.602254 0.537525
O O7 0.415228 0.614345 0.229995
O O8 0.101770 0.610743 0.346278
#
# Coordination Sequence:
#
# PCOD9341726 Si02
#       4
#     4   4   4   4
#     4  12  25  47  77 111 158 209 268 336 408 483
#     4  12  27  49  79 117 159 212 272 340 412 488
#     4  12  26  49  77 115 164 216 272 338 407 490
#     4  12  28  49  79 117 165 219 276 338 411 487
#
# _framework density 29.825457
#
# number of rings (size 3 to 8) (size 9 to 14) (size 15 to 20)
#    0.000    0.000    0.000   10.500    0.000    6.000 
#    0.000    7.500    0.000    0.000    0.000    0.000 
#    0.000    0.000    0.000    0.000    0.000    0.000 
#
# Total GULP energy -89623.104712 kJ/mol
# GULP energy per Si atom -5601.444044 kJ/mol
# Density = 2.975757 g / cm^3
# Si number density = 29.825457 Si / 1000 Ang^3
#
#
#
# Elastic Constant Matrix: (Units=GPa)
#
#
# Indices 1 2 3 4 5 6 
#
# 1 126.2200 15.5713 49.2356 0.0000 0.0000 0.0000
# 2 15.5713 207.2832 59.0922 0.0000 0.0000 0.0000
# 3 49.2356 59.0922 170.4947 0.0000 0.0000 0.0000
# 4 0.0000 0.0000 0.0000 28.4732 0.0000 0.0000
# 5 0.0000 0.0000 0.0000 0.0000 74.2354 0.0000
# 6 0.0000 0.0000 0.0000 0.0000 0.0000 55.4974
#
#
#
# Elastic Compliance Matrix: (Units=1/GPa)
#
#
# Indices 1 2 3 4 5 6 
#
# 1 0.008929 0.000071 -0.002603 0.000000 0.000000 0.000000
# 2 0.000071 0.005354 -0.001876 0.000000 0.000000 0.000000
# 3 -0.002603 -0.001876 0.007267 0.000000 0.000000 0.000000
# 4 0.000000 0.000000 0.000000 0.035121 0.000000 0.000000
# 5 0.000000 0.000000 0.000000 0.000000 0.013471 0.000000
# 6 0.000000 0.000000 0.000000 0.000000 0.000000 0.018019
#
#
# Mechanical properties :
#
#
# Convention : Reuss Voigt Hill
#
# Bulk Modulus (GPa) = 78.52883 83.53291 81.03087
# Shear Modulus (GPa) = 49.39638 56.98112 53.18875
#
# Velocity S-wave (km/s) = 4.07404 4.37565 4.22754
# Velocity P-wave (km/s) = 6.96541 7.32096 7.14540
#
# Compressibility (1/GPa) = 0.01273418
#
# Stress axis : x y z
#
# Youngs Moduli (GPa) = 111.98973 186.78243 137.60138
#
# Poissons Ratio (x) = -0.01333 0.35823
# Poissons Ratio (y) = -0.00799 0.25817
# Poissons Ratio (z) = 0.29155 0.35044
#
# Static dielectric constant tensor:
#      x y z
#    x 2.591290 0.000000 0.000000 
#    y 0.000000 2.240190 0.000000 
#    z 0.000000 0.000000 2.340020 
# 
# From -- ./inp_files/1046.got.cif
#   From: 2010.05.17/outbox.cif.g08.bks.cpg/sg29_1_cif.got.tgz:1046.got - 2010.06.04 01:19:37.
