data_PCOD9341911
_publ_section_title
;
Structure prediction by ZEFSAII (Michael W. Deem and Ramdas Pophale) SiO2 
 PCOD9341911
Probable space group: P N C 2
;
_chemical_formula_sum "Si O2"
_cell_formula_units_Z 24
_cell_length_a 8.913829
_cell_length_b 14.179300
_cell_length_c 8.944852
_cell_angle_alpha 90.000000
_cell_angle_beta 90.000000
_cell_angle_gamma 90.000000
_cell_volume 1130.556442
_symmetry_space_group_name_H-M "P N C 2"
_symmetry_group_IT_number 30
_symmetry_cell_setting 'orthorhombic'
loop_
_space_group_symop_operation_xyz
x,y,z
-x,-y,z
-x,1/2+y,1/2+z
x,1/2-y,1/2+z
loop_
_atom_site_type_symbol
_atom_site_label
_atom_site_fract_x
_atom_site_fract_y
_atom_site_fract_z
Si Si1 0.000000 0.500000 0.518370
Si Si2 0.702655 0.438842 0.662664
Si Si3 0.565536 0.875413 0.001462
Si Si4 0.143764 0.179348 0.870100
Si Si5 0.234595 0.532910 0.995850
Si Si6 0.055379 0.149202 0.537347
Si Si7 0.500000 0.500000 0.223514
O O1 0.876659 0.442448 0.613832
O O2 0.912837 0.576176 0.418915
O O3 0.593442 0.361576 0.584886
O O4 0.641093 0.540467 0.601251
O O5 0.696544 0.431557 0.840439
O O6 0.697599 0.803833 0.956652
O O7 0.525813 0.915091 0.837972
O O8 0.134500 0.178536 0.692040
O O9 0.038944 0.261410 0.931559
O O10 0.156119 0.432343 0.962547
O O11 0.358661 0.517558 0.120164
O O12 0.105991 0.601200 0.059428
#
# Coordination Sequence:
#
# PCOD9341911 Si02
#       7
#     2   4   4   4   4   4   2
#     4  10  20  38  72  86 130 170 214 274 336 396
#     4   9  19  34  65  97 120 165 216 264 326 395
#     4   9  20  38  64  90 124 173 219 259 335 400
#     4  11  24  43  64  93 130 175 227 280 328 405
#     4  11  22  41  68  99 132 172 221 279 337 402
#     4  11  26  40  67  96 132 174 230 276 340 400
#     4  10  18  38  66  94 122 174 214 264 334 410
#
# _framework density 21.228484000000002
#
# number of rings (size 3 to 8) (size 9 to 14) (size 15 to 20)
#    0.000    2.000    1.667    3.000   11.667    0.000 
#    0.000    1.667    0.000    0.000    0.000    0.000 
#    0.000    0.000    0.000    0.000    0.000    0.000 
#
# Total GULP energy -133871.605281 kJ/mol
# GULP energy per Si atom -5577.983553 kJ/mol
# Density = 2.118017 g / cm^3
# Si number density = 21.228484 Si / 1000 Ang^3
#
#
#
# Elastic Constant Matrix: (Units=GPa)
#
#
# Indices 1 2 3 4 5 6 
#
# 1 111.2507 7.3928 44.6618 0.0000 0.0000 0.0000
# 2 7.3928 48.3575 11.0128 0.0000 0.0000 0.0000
# 3 44.6618 11.0128 131.0021 0.0000 0.0000 0.0000
# 4 0.0000 0.0000 0.0000 11.1780 0.0000 0.0000
# 5 0.0000 0.0000 0.0000 0.0000 4.1652 0.0000
# 6 0.0000 0.0000 0.0000 0.0000 0.0000 -11.0668
#
#
#
# Elastic Compliance Matrix: (Units=1/GPa)
#
#
# Indices 1 2 3 4 5 6 
#
# 1 0.010444 -0.000801 -0.003493 0.000000 0.000000 0.000000
# 2 -0.000801 0.021144 -0.001504 0.000000 0.000000 0.000000
# 3 -0.003493 -0.001504 0.008951 0.000000 0.000000 0.000000
# 4 0.000000 0.000000 0.000000 0.089461 0.000000 0.000000
# 5 0.000000 0.000000 0.000000 0.000000 0.240082 0.000000
# 6 0.000000 0.000000 0.000000 0.000000 0.000000 -0.090361
#
#
# Mechanical properties :
#
#
# Convention : Reuss Voigt Hill
#
# Bulk Modulus (GPa) = 34.55204 46.30501 40.42853
# Shear Modulus (GPa) = 16.61308 16.02482 16.31895
#
# Velocity S-wave (km/s) = 2.80051 2.75048 2.77560
# Velocity P-wave (km/s) = 5.17385 5.65216 5.41828
#
# Compressibility (1/GPa) = 0.02894185
#
# Stress axis : x y z
#
# Youngs Moduli (GPa) = 95.74532 47.29380 111.72038
#
# Poissons Ratio (x) = 0.03789 0.39028
# Poissons Ratio (y) = 0.07671 0.16807
# Poissons Ratio (z) = 0.33448 0.07115
#
# Static dielectric constant tensor:
#      x y z
#    x 1.974020 0.000000 0.000000 
#    y 0.000000 2.046100 0.000000 
#    z 0.000000 0.000000 1.733400 
# 
# From -- ./inp_files/1869.got.cif
#   From: 2010.05.17/outbox.cif.g08.bks.cpg/sg30_1_cif.got.tgz:1869.got - 2010.06.03 17:03:02.
