data_PCOD9341053
_publ_section_title
;
Structure prediction by ZEFSAII (Michael W. Deem and Ramdas Pophale) SiO2 
 PCOD9341053
Probable space group: P C A 21
;
_chemical_formula_sum "Si O2"
_cell_formula_units_Z 28
_cell_length_a 27.729337
_cell_length_b 5.742899
_cell_length_c 7.727038
_cell_angle_alpha 90.000000
_cell_angle_beta 90.000000
_cell_angle_gamma 90.000000
_cell_volume 1230.505934
_symmetry_space_group_name_H-M "P C A 21"
_symmetry_group_IT_number 29
_symmetry_cell_setting 'orthorhombic'
loop_
_space_group_symop_operation_xyz
x,y,z
-x,-y,1/2+z
1/2-x,y,1/2+z
1/2+x,-y,z
loop_
_atom_site_type_symbol
_atom_site_label
_atom_site_fract_x
_atom_site_fract_y
_atom_site_fract_z
Si Si1 0.116374 0.558828 0.915760
Si Si2 0.046268 0.198413 0.798376
Si Si3 0.942572 0.083661 0.942021
Si Si4 0.104539 0.965604 0.109589
Si Si5 0.691364 0.819965 0.977290
Si Si6 0.349394 0.676314 0.051502
Si Si7 0.303006 0.170853 0.064768
O O1 0.072045 0.446796 0.808116
O O2 0.156770 0.400319 0.005861
O O3 0.145415 0.683878 0.760730
O O4 0.093235 0.697389 0.074041
O O5 0.050341 0.071760 0.613668
O O6 0.080215 0.073591 0.939836
O O7 0.992734 0.183336 0.872551
O O8 0.902683 0.279445 0.978840
O O9 0.918821 0.940936 0.782888
O O10 0.161900 0.989067 0.086457
O O11 0.689202 0.845389 0.770753
O O12 0.746397 0.801667 0.029708
O O13 0.328304 0.417713 0.008529
O O14 0.320974 0.915713 0.998054
#
# Coordination Sequence:
#
# PCOD9341053 Si02
#       7
#     4   4   4   4   4   4   4
#     4  10  22  47  69 100 153 190 247 316 380 445
#     4  11  24  47  71 108 148 196 248 322 376 465
#     4  12  24  45  77 106 149 197 255 311 391 454
#     4  11  23  46  71 105 144 194 254 310 374 454
#     4  10  24  43  69 103 144 194 249 314 375 456
#     4  11  24  46  70 105 147 198 244 314 371 453
#     4  11  25  44  73 101 151 195 249 311 383 449
#
# _framework density 22.754867000000001
#
# number of rings (size 3 to 8) (size 9 to 14) (size 15 to 20)
#    0.000    1.143    4.286    1.714    4.000    2.286 
#   10.286    0.000    0.000    0.000    0.000    0.000 
#    0.000    0.000    0.000    0.000    0.000    0.000 
#
# Total GULP energy -156080.608803 kJ/mol
# GULP energy per Si atom -5574.307457 kJ/mol
# Density = 2.270308 g / cm^3
# Si number density = 22.754867 Si / 1000 Ang^3
#
#
#
# Elastic Constant Matrix: (Units=GPa)
#
#
# Indices 1 2 3 4 5 6 
#
# 1 163.0249 20.7797 30.4726 0.0000 0.0000 0.0000
# 2 20.7797 -57.9120 -1.0145 0.0000 0.0000 0.0000
# 3 30.4726 -1.0145 96.4985 0.0000 0.0000 0.0000
# 4 0.0000 0.0000 0.0000 -5.8312 0.0000 0.0000
# 5 0.0000 0.0000 0.0000 0.0000 41.6781 0.0000
# 6 0.0000 0.0000 0.0000 0.0000 0.0000 6.0026
#
#
#
# Elastic Compliance Matrix: (Units=1/GPa)
#
#
# Indices 1 2 3 4 5 6 
#
# 1 0.006208 0.002261 -0.001937 0.000000 0.000000 0.000000
# 2 0.002261 -0.016441 -0.000887 0.000000 0.000000 0.000000
# 3 -0.001937 -0.000887 0.010965 0.000000 0.000000 0.000000
# 4 0.000000 0.000000 0.000000 -0.171490 0.000000 0.000000
# 5 0.000000 0.000000 0.000000 0.000000 0.023993 0.000000
# 6 0.000000 0.000000 0.000000 0.000000 0.000000 0.166593
#
#
# Mechanical properties :
#
#
# Convention : Reuss Voigt Hill
#
# Bulk Modulus (GPa) = -2550.89319 33.56521 -1258.66399
# Shear Modulus (GPa) = 240.12737 18.46147 129.29442
#
# Velocity S-wave (km/s) = 10.28382 2.85146 7.54612
# Velocity P-wave (km/s) = 31.34416 5.06200 21.87273
#
# Compressibility (1/GPa) = -0.00039202
#
# Stress axis : x y z
#
# Youngs Moduli (GPa) = 161.08848 -60.82496 91.19879
#
# Poissons Ratio (x) = 0.13755 0.17661
# Poissons Ratio (y) = -0.36428 0.08089
# Poissons Ratio (z) = 0.31195 -0.05395
#
# Static dielectric constant tensor:
#      x y z
#    x 1.830720 0.000000 0.000000 
#    y 0.000000 2.233740 0.000000 
#    z 0.000000 0.000000 1.902730 
# 
# From -- ./inp_files/2547.got.cif
#   From: 2010.05.17/outbox.cif.g08.bks.cpg/sg29_2_cif.got.tgz:2547.got - 2010.06.04 01:19:37.
