data_PCOD9341284
_publ_section_title
;
Structure prediction by ZEFSAII (Michael W. Deem and Ramdas Pophale) SiO2 
 PCOD9341284
Probable space group: P C A 21
;
_chemical_formula_sum "Si O2"
_cell_formula_units_Z 32
_cell_length_a 14.195160
_cell_length_b 8.936966
_cell_length_c 10.647445
_cell_angle_alpha 90.000000
_cell_angle_beta 90.000000
_cell_angle_gamma 90.000000
_cell_volume 1350.752572
_symmetry_space_group_name_H-M "P C A 21"
_symmetry_group_IT_number 29
_symmetry_cell_setting 'orthorhombic'
loop_
_space_group_symop_operation_xyz
x,y,z
-x,-y,1/2+z
1/2-x,y,1/2+z
1/2+x,-y,z
loop_
_atom_site_type_symbol
_atom_site_label
_atom_site_fract_x
_atom_site_fract_y
_atom_site_fract_z
Si Si1 0.671549 0.042143 0.676510
Si Si2 0.604526 0.089016 0.932761
Si Si3 0.665174 0.247303 0.156530
Si Si4 0.673641 0.718716 0.574934
Si Si5 0.522383 0.680448 0.781365
Si Si6 0.009266 0.180189 0.058418
Si Si7 0.002952 0.382979 0.406412
Si Si8 0.134685 0.438884 0.101639
O O1 0.632039 0.992696 0.812313
O O2 0.761555 0.137889 0.720898
O O3 0.594676 0.148912 0.610130
O O4 0.686784 0.898475 0.587759
O O5 0.538047 0.219706 0.879790
O O6 0.557750 0.979187 0.033883
O O7 0.677988 0.186792 0.013652
O O8 0.556552 0.234506 0.199268
O O9 0.682837 0.423245 0.177694
O O10 0.620922 0.680938 0.707394
O O11 0.601534 0.653560 0.472545
O O12 0.773318 0.643968 0.548317
O O13 0.511178 0.746600 0.920024
O O14 0.493557 0.506418 0.797888
O O15 0.072580 0.293797 0.139948
O O16 0.931670 0.464247 0.506873
#
# Coordination Sequence:
#
# PCOD9341284 Si02
#       8
#     4   4   4   4   4   4   4   4
#     4  12  27  43  78 106 145 196 241 306 373 450
#     4  11  23  46  72 102 145 189 242 299 364 444
#     4  11  26  46  69 108 145 182 247 299 364 446
#     4  12  23  49  67 103 146 188 243 306 365 438
#     4  11  24  45  72 100 148 191 234 309 366 437
#     4  11  24  48  70 105 143 189 240 295 372 440
#     4  10  24  44  71 101 144 192 238 299 371 435
#     4  10  25  43  69  99 140 185 239 299 349 442
#
# _framework density 23.690498999999999
#
# number of rings (size 3 to 8) (size 9 to 14) (size 15 to 20)
#    0.000    1.000    5.000    0.750    8.750    1.000 
#    2.250    0.000    0.000    0.000    0.000    0.000 
#    0.000    0.000    0.000    0.000    0.000    0.000 
#
# Total GULP energy -178376.985605 kJ/mol
# GULP energy per Si atom -5574.280800 kJ/mol
# Density = 2.363658 g / cm^3
# Si number density = 23.690499 Si / 1000 Ang^3
#
#
#
# Elastic Constant Matrix: (Units=GPa)
#
#
# Indices 1 2 3 4 5 6 
#
# 1 85.8018 32.5140 -15.2502 0.0000 0.0000 0.0000
# 2 32.5140 162.9957 7.4067 0.0000 0.0000 0.0000
# 3 -15.2502 7.4067 38.2448 0.0000 0.0000 0.0000
# 4 0.0000 0.0000 0.0000 50.8619 0.0000 0.0000
# 5 0.0000 0.0000 0.0000 0.0000 0.2480 0.0000
# 6 0.0000 0.0000 0.0000 0.0000 0.0000 34.2553
#
#
#
# Elastic Compliance Matrix: (Units=1/GPa)
#
#
# Indices 1 2 3 4 5 6 
#
# 1 0.013902 -0.003052 0.006134 0.000000 0.000000 0.000000
# 2 -0.003052 0.006860 -0.002545 0.000000 0.000000 0.000000
# 3 0.006134 -0.002545 0.029086 0.000000 0.000000 0.000000
# 4 0.000000 0.000000 0.000000 0.019661 0.000000 0.000000
# 5 0.000000 0.000000 0.000000 0.000000 4.032786 0.000000
# 6 0.000000 0.000000 0.000000 0.000000 0.000000 0.029193
#
#
# Mechanical properties :
#
#
# Convention : Reuss Voigt Hill
#
# Bulk Modulus (GPa) = 19.63799 37.37591 28.50695
# Shear Modulus (GPa) = 1.20558 34.56451 17.88504
#
# Velocity S-wave (km/s) = 0.71414 3.82383 2.75061
# Velocity P-wave (km/s) = 2.99790 5.94194 4.70606
#
# Compressibility (1/GPa) = 0.05092171
#
# Stress axis : x y z
#
# Youngs Moduli (GPa) = 71.93463 145.78195 34.38037
#
# Poissons Ratio (x) = 0.44490 -0.21090
# Poissons Ratio (y) = 0.21953 0.08751
# Poissons Ratio (z) = -0.44127 0.37107
#
# Static dielectric constant tensor:
#      x y z
#    x 1.936270 0.000000 0.000000 
#    y 0.000000 1.935540 0.000000 
#    z 0.000000 0.000000 2.088150 
# 
# From -- ./inp_files/3507.got.cif
#   From: 2010.05.17/outbox.cif.g08.bks.cpg/sg29_2_cif.got.tgz:3507.got - 2010.06.04 01:19:37.
