data_PCOD9341261
_publ_section_title
;
Structure prediction by ZEFSAII (Michael W. Deem and Ramdas Pophale) SiO2 
 PCOD9341261
Probable space group: P C A 21
;
_chemical_formula_sum "Si O2"
_cell_formula_units_Z 32
_cell_length_a 15.941625
_cell_length_b 10.892450
_cell_length_c 8.296778
_cell_angle_alpha 90.000000
_cell_angle_beta 90.000000
_cell_angle_gamma 90.000000
_cell_volume 1440.680353
_symmetry_space_group_name_H-M "P C A 21"
_symmetry_group_IT_number 29
_symmetry_cell_setting 'orthorhombic'
loop_
_space_group_symop_operation_xyz
x,y,z
-x,-y,1/2+z
1/2-x,y,1/2+z
1/2+x,-y,z
loop_
_atom_site_type_symbol
_atom_site_label
_atom_site_fract_x
_atom_site_fract_y
_atom_site_fract_z
Si Si1 0.482931 0.604002 0.166760
Si Si2 0.236471 0.919878 0.915260
Si Si3 0.996363 0.950677 0.409568
Si Si4 0.867439 0.168874 0.112632
Si Si5 0.132068 0.246677 0.027170
Si Si6 0.696636 0.801191 0.391758
Si Si7 0.045381 0.351071 0.522123
Si Si8 0.573052 0.149078 0.087195
O O1 0.409354 0.704643 0.161728
O O2 0.558950 0.651178 0.049149
O O3 0.523854 0.606101 0.342114
O O4 0.443368 0.473840 0.123410
O O5 0.187511 0.894171 0.750697
O O6 0.277445 0.055972 0.923504
O O7 0.309564 0.822894 0.953755
O O8 0.167492 0.887459 0.051561
O O9 0.057567 0.917338 0.555688
O O10 0.041677 0.917304 0.246528
O O11 0.914324 0.867702 0.439807
O O12 0.974598 0.091854 0.431498
O O13 0.163673 0.210619 0.207815
O O14 0.216575 0.272115 0.926459
O O15 0.624143 0.742823 0.506415
O O16 0.962366 0.285097 0.593287
#
# Coordination Sequence:
#
# PCOD9341261 Si02
#       8
#     4   4   4   4   4   4   4   4
#     4  10  25  49  69 100 144 194 258 295 356 450
#     4  12  23  42  71 109 147 180 241 315 382 452
#     4  11  25  41  67 103 146 189 241 300 381 450
#     4  11  24  43  67 100 143 190 238 309 367 443
#     4  10  24  43  69 102 144 187 245 304 368 441
#     4  11  24  42  69 110 143 186 242 311 387 440
#     4  11  26  48  74 101 145 200 249 302 366 446
#     4  12  25  42  72 105 144 190 238 304 379 442
#
# _framework density 22.211725999999999
#
# number of rings (size 3 to 8) (size 9 to 14) (size 15 to 20)
#    0.000    1.000    2.500    3.000   10.500    0.000 
#    2.250    1.250    0.000    0.000    0.000    0.000 
#    0.000    0.000    0.000    0.000    0.000    0.000 
#
# Total GULP energy -178838.632748 kJ/mol
# GULP energy per Si atom -5588.707273 kJ/mol
# Density = 2.216117 g / cm^3
# Si number density = 22.211726 Si / 1000 Ang^3
#
#
#
# Elastic Constant Matrix: (Units=GPa)
#
#
# Indices 1 2 3 4 5 6 
#
# 1 134.4424 50.1967 39.7319 0.0000 0.0000 0.0000
# 2 50.1967 97.3551 18.3041 0.0000 0.0000 0.0000
# 3 39.7319 18.3041 71.0020 0.0000 0.0000 0.0000
# 4 0.0000 0.0000 0.0000 29.0269 0.0000 0.0000
# 5 0.0000 0.0000 0.0000 0.0000 49.0946 0.0000
# 6 0.0000 0.0000 0.0000 0.0000 0.0000 29.6564
#
#
#
# Elastic Compliance Matrix: (Units=1/GPa)
#
#
# Indices 1 2 3 4 5 6 
#
# 1 0.010529 -0.004541 -0.004721 0.000000 0.000000 0.000000
# 2 -0.004541 0.012753 -0.000747 0.000000 0.000000 0.000000
# 3 -0.004721 -0.000747 0.016919 0.000000 0.000000 0.000000
# 4 0.000000 0.000000 0.000000 0.034451 0.000000 0.000000
# 5 0.000000 0.000000 0.000000 0.000000 0.020369 0.000000
# 6 0.000000 0.000000 0.000000 0.000000 0.000000 0.033720
#
#
# Mechanical properties :
#
#
# Convention : Reuss Voigt Hill
#
# Bulk Modulus (GPa) = 49.54661 57.69611 53.62136
# Shear Modulus (GPa) = 32.15734 34.52671 33.34203
#
# Velocity S-wave (km/s) = 3.80908 3.94691 3.87861
# Velocity P-wave (km/s) = 6.45758 6.84125 6.65218
#
# Compressibility (1/GPa) = 0.02018302
#
# Stress axis : x y z
#
# Youngs Moduli (GPa) = 94.97682 78.41010 59.10689
#
# Poissons Ratio (x) = 0.35607 0.27905
# Poissons Ratio (y) = 0.43130 0.04413
# Poissons Ratio (z) = 0.44840 0.05855
#
# Static dielectric constant tensor:
#      x y z
#    x 1.880490 0.000000 0.000000 
#    y 0.000000 1.784910 0.000000 
#    z 0.000000 0.000000 1.876910 
# 
# From -- ./inp_files/1846.got.cif
#   From: 2010.05.17/outbox.cif.g08.bks.cpg/sg29_1_cif.got.tgz:1846.got - 2010.06.04 01:19:37.
