data_PCOD9341850
_publ_section_title
;
Structure prediction by ZEFSAII (Michael W. Deem and Ramdas Pophale) SiO2 
 PCOD9341850
Probable space group: P N C 2
;
_chemical_formula_sum "Si O2"
_cell_formula_units_Z 30
_cell_length_a 9.516406
_cell_length_b 8.919333
_cell_length_c 18.201662
_cell_angle_alpha 90.000000
_cell_angle_beta 90.000000
_cell_angle_gamma 90.000000
_cell_volume 1544.956963
_symmetry_space_group_name_H-M "P N C 2"
_symmetry_group_IT_number 30
_symmetry_cell_setting 'orthorhombic'
loop_
_space_group_symop_operation_xyz
x,y,z
-x,-y,z
-x,1/2+y,1/2+z
x,1/2-y,1/2+z
loop_
_atom_site_type_symbol
_atom_site_label
_atom_site_fract_x
_atom_site_fract_y
_atom_site_fract_z
Si Si1 0.400721 0.362898 0.084600
Si Si2 0.241562 0.200659 0.952233
Si Si3 0.659015 0.320672 0.623478
Si Si4 0.307281 0.645395 0.447043
Si Si5 0.146179 0.938820 0.624473
Si Si6 0.500000 0.000000 0.222270
Si Si7 0.462216 0.334817 0.864977
Si Si8 0.946324 0.152105 0.459320
O O1 0.500000 0.500000 0.056697
O O2 0.511261 0.267156 0.130647
O O3 0.269721 0.438466 0.125983
O O4 0.334206 0.261398 0.020642
O O5 0.302944 0.295371 0.884428
O O6 0.080735 0.240849 0.968676
O O7 0.268323 0.027183 0.935507
O O8 0.672792 0.344043 0.535748
O O9 0.785520 0.216421 0.651523
O O10 0.633522 0.469095 0.670283
O O11 0.441042 0.708777 0.403089
O O12 0.179659 0.754640 0.424706
O O13 0.113656 0.903937 0.538216
O O14 0.000000 0.000000 0.656395
O O15 0.486640 0.138702 0.278969
O O16 0.500000 0.500000 0.896091
O O17 0.000000 0.000000 0.421244
#
# Coordination Sequence:
#
# PCOD9341850 Si02
#       8
#     4   4   4   4   4   2   4   4
#     4  10  18  29  55  88 121 158 204 245 309 365
#     4  12  19  32  54  91 124 155 194 267 310 357
#     4  10  20  35  60  86 123 158 206 262 304 370
#     4  11  22  34  59  97 120 149 209 271 304 359
#     4   9  17  31  53  88 120 161 201 249 309 371
#     4  10  24  42  58  88 124 172 210 258 324 392
#     4  10  23  38  62  80 120 163 211 245 313 383
#     4  10  19  32  54  86 129 158 196 248 320 365
#
# _framework density 19.418015
#
# number of rings (size 3 to 8) (size 9 to 14) (size 15 to 20)
#    0.400    1.333    4.000    2.800    1.867    0.000 
#    0.000    4.000    0.000    4.800    0.000    0.000 
#    0.000    0.000    0.000    0.000    0.000    0.000 
#
# Total GULP energy -167090.088380 kJ/mol
# GULP energy per Si atom -5569.669613 kJ/mol
# Density = 1.937382 g / cm^3
# Si number density = 19.418015 Si / 1000 Ang^3
#
#
#
# Elastic Constant Matrix: (Units=GPa)
#
#
# Indices 1 2 3 4 5 6 
#
# 1 95.3277 11.1805 -1.3623 0.0000 0.0000 0.0000
# 2 11.1805 89.2914 3.9385 0.0000 0.0000 0.0000
# 3 -1.3623 3.9385 48.1181 0.0000 0.0000 0.0000
# 4 0.0000 0.0000 0.0000 7.1871 0.0000 0.0000
# 5 0.0000 0.0000 0.0000 0.0000 3.5219 0.0000
# 6 0.0000 0.0000 0.0000 0.0000 0.0000 40.5766
#
#
#
# Elastic Compliance Matrix: (Units=1/GPa)
#
#
# Indices 1 2 3 4 5 6 
#
# 1 0.010655 -0.001352 0.000412 0.000000 0.000000 0.000000
# 2 -0.001352 0.011412 -0.000972 0.000000 0.000000 0.000000
# 3 0.000412 -0.000972 0.020873 0.000000 0.000000 0.000000
# 4 0.000000 0.000000 0.000000 0.139137 0.000000 0.000000
# 5 0.000000 0.000000 0.000000 0.000000 0.283941 0.000000
# 6 0.000000 0.000000 0.000000 0.000000 0.000000 0.024645
#
#
# Mechanical properties :
#
#
# Convention : Reuss Voigt Hill
#
# Bulk Modulus (GPa) = 25.56563 28.91673 27.24118
# Shear Modulus (GPa) = 9.85172 24.85582 17.35377
#
# Velocity S-wave (km/s) = 2.25489 3.58165 2.99272
# Velocity P-wave (km/s) = 4.46921 5.65935 5.09912
#
# Compressibility (1/GPa) = 0.03911501
#
# Stress axis : x y z
#
# Youngs Moduli (GPa) = 93.85600 87.63087 47.90776
#
# Poissons Ratio (x) = 0.11850 -0.01975
# Poissons Ratio (y) = 0.12692 0.04658
# Poissons Ratio (z) = -0.03870 0.08520
#
# Static dielectric constant tensor:
#      x y z
#    x 1.794520 0.000000 0.000000 
#    y 0.000000 1.767910 0.000000 
#    z 0.000000 0.000000 1.693580 
# 
# From -- ./inp_files/6962.got.cif
#   From: 2010.05.17/outbox.cif.g08.bks.cpg/sg30_4_cif.got.tgz:6962.got - 2010.06.03 17:03:02.
