data_PCOD9341224
_publ_section_title
;
Structure prediction by ZEFSAII (Michael W. Deem and Ramdas Pophale) SiO2 
 PCOD9341224
Probable space group: P C A 21
;
_chemical_formula_sum "Si O2"
_cell_formula_units_Z 20
_cell_length_a 11.991030
_cell_length_b 7.305547
_cell_length_c 10.414716
_cell_angle_alpha 90.000000
_cell_angle_beta 90.000000
_cell_angle_gamma 90.000000
_cell_volume 912.339883
_symmetry_space_group_name_H-M "P C A 21"
_symmetry_group_IT_number 29
_symmetry_cell_setting 'orthorhombic'
loop_
_space_group_symop_operation_xyz
x,y,z
-x,-y,1/2+z
1/2-x,y,1/2+z
1/2+x,-y,z
loop_
_atom_site_type_symbol
_atom_site_label
_atom_site_fract_x
_atom_site_fract_y
_atom_site_fract_z
Si Si1 0.897383 0.759406 0.185500
Si Si2 0.397382 0.259407 0.474800
Si Si3 0.739119 0.047287 0.523381
Si Si4 0.239119 0.547288 0.136919
Si Si5 0.884022 0.250000 0.830150
O O1 0.848643 0.750001 0.330150
O O2 0.853509 0.567286 0.130445
O O3 0.028381 0.779993 0.213681
O O4 0.848065 0.922566 0.101601
O O5 0.348064 0.422568 0.558697
O O6 0.528380 0.279995 0.446618
O O7 0.353508 0.067287 0.529856
O O8 0.750000 0.249999 0.580150
O O9 0.692932 0.085180 0.379307
O O10 0.192933 0.585180 0.280993
#
# Coordination Sequence:
#
# PCOD9341224 Si02
#       5
#     4   4   4   4   4
#     4   9  23  42  61  97 129 169 224 271 328 398
#     4   9  23  42  61  97 129 169 224 271 328 398
#     4  11  22  42  67  92 133 174 222 278 329 395
#     4  11  22  42  67  92 133 174 222 278 329 395
#     4  10  24  40  66 100 126 180 216 268 344 384
#
# _framework density 21.921655000000001
#
# number of rings (size 3 to 8) (size 9 to 14) (size 15 to 20)
#    1.200    0.800    0.000    2.400    5.600    0.000 
#    0.000    8.000    0.000    0.000    0.000    0.000 
#    0.000    0.000    0.000    0.000    0.000    0.000 
#
# Total GULP energy -111368.062035 kJ/mol
# GULP energy per Si atom -5568.403102 kJ/mol
# Density = 2.187176 g / cm^3
# Si number density = 21.921655 Si / 1000 Ang^3
#
#
#
# Elastic Constant Matrix: (Units=GPa)
#
#
# Indices 1 2 3 4 5 6 
#
# 1 96.6653 59.6535 35.5639 0.0000 0.0000 0.0000
# 2 59.6535 188.5593 54.5492 0.0000 0.0000 0.0000
# 3 35.5639 54.5492 56.8791 0.0000 0.0000 0.0000
# 4 0.0000 0.0000 0.0000 52.7436 0.0000 0.0000
# 5 0.0000 0.0000 0.0000 0.0000 27.2368 0.0000
# 6 0.0000 0.0000 0.0000 0.0000 0.0000 17.4460
#
#
#
# Elastic Compliance Matrix: (Units=1/GPa)
#
#
# Indices 1 2 3 4 5 6 
#
# 1 0.014360 -0.002693 -0.006396 0.000000 0.000000 0.000000
# 2 -0.002693 0.007845 -0.005840 0.000000 0.000000 0.000000
# 3 -0.006396 -0.005840 0.027181 0.000000 0.000000 0.000000
# 4 0.000000 0.000000 0.000000 0.018960 0.000000 0.000000
# 5 0.000000 0.000000 0.000000 0.000000 0.036715 0.000000
# 6 0.000000 0.000000 0.000000 0.000000 0.000000 0.057320
#
#
# Mechanical properties :
#
#
# Convention : Reuss Voigt Hill
#
# Bulk Modulus (GPa) = 51.20784 71.29300 61.25042
# Shear Modulus (GPa) = 25.15767 32.30774 28.73271
#
# Velocity S-wave (km/s) = 3.39133 3.84315 3.62429
# Velocity P-wave (km/s) = 6.22455 7.23087 6.74649
#
# Compressibility (1/GPa) = 0.01952826
#
# Stress axis : x y z
#
# Youngs Moduli (GPa) = 69.63876 127.47617 36.79036
#
# Poissons Ratio (x) = 0.34323 0.23532
# Poissons Ratio (y) = 0.18750 0.21485
# Poissons Ratio (z) = 0.44543 0.74443
#
# Static dielectric constant tensor:
#      x y z
#    x 1.829190 0.000000 0.000000 
#    y 0.000000 1.759190 0.000000 
#    z 0.000000 0.000000 1.925890 
# 
# From -- ./inp_files/3359.got.cif
#   From: 2010.05.17/outbox.cif.g08.bks.cpg/sg29_2_cif.got.tgz:3359.got - 2010.06.04 01:19:37.
