data_PCOD9341150
_publ_section_title
;
Structure prediction by ZEFSAII (Michael W. Deem and Ramdas Pophale) SiO2 
 PCOD9341150
Probable space group: P C A 21
;
_chemical_formula_sum "Si O2"
_cell_formula_units_Z 28
_cell_length_a 9.322410
_cell_length_b 7.305997
_cell_length_c 15.466363
_cell_angle_alpha 90.000000
_cell_angle_beta 90.000000
_cell_angle_gamma 90.000000
_cell_volume 1053.406243
_symmetry_space_group_name_H-M "P C A 21"
_symmetry_group_IT_number 29
_symmetry_cell_setting 'orthorhombic'
loop_
_space_group_symop_operation_xyz
x,y,z
-x,-y,1/2+z
1/2-x,y,1/2+z
1/2+x,-y,z
loop_
_atom_site_type_symbol
_atom_site_label
_atom_site_fract_x
_atom_site_fract_y
_atom_site_fract_z
Si Si1 0.221936 0.496331 0.043240
Si Si2 0.453120 0.817911 0.501520
Si Si3 0.324263 0.531878 0.845275
Si Si4 0.317131 0.751715 0.200989
Si Si5 0.398632 0.271084 0.312489
Si Si6 0.253774 0.118401 0.472516
Si Si7 0.450801 0.993075 0.677916
O O1 0.072699 0.609089 0.030431
O O2 0.288048 0.597407 0.127209
O O3 0.219703 0.274448 0.046509
O O4 0.291045 0.525258 0.947197
O O5 0.590540 0.847050 0.440735
O O6 0.503118 0.939761 0.582508
O O7 0.297026 0.907857 0.485699
O O8 0.237994 0.691831 0.795289
O O9 0.489907 0.565513 0.828859
O O10 0.255976 0.357610 0.797329
O O11 0.213984 0.927682 0.181379
O O12 0.481436 0.811841 0.198388
O O13 0.373562 0.167925 0.401744
O O14 0.468298 0.143997 0.242588
#
# Coordination Sequence:
#
# PCOD9341150 Si02
#       7
#     4   4   4   4   4   4   4
#     4  10  25  45  73 104 139 186 244 288 360 421
#     4  11  25  45  70 104 138 184 234 293 353 429
#     4  10  24  45  66 101 138 183 238 293 359 424
#     4  10  23  45  69  99 144 184 233 301 351 430
#     4  10  25  43  68 100 140 182 238 293 356 431
#     4  11  27  43  73 104 140 186 234 293 358 424
#     4  10  23  44  63 104 133 179 237 283 361 421
#
# _framework density 26.580439999999999
#
# number of rings (size 3 to 8) (size 9 to 14) (size 15 to 20)
#    0.000    1.714    0.000    1.714   16.000    2.286 
#    5.143    0.000    0.000    0.000    0.000    0.000 
#    0.000    0.000    0.000    0.000    0.000    0.000 
#
# Total GULP energy -156356.439709 kJ/mol
# GULP energy per Si atom -5584.158561 kJ/mol
# Density = 2.651994 g / cm^3
# Si number density = 26.580440 Si / 1000 Ang^3
#
#
#
# Elastic Constant Matrix: (Units=GPa)
#
#
# Indices 1 2 3 4 5 6 
#
# 1 109.3485 33.8869 18.1712 0.0000 0.0000 0.0000
# 2 33.8869 82.2258 8.2811 0.0000 0.0000 0.0000
# 3 18.1712 8.2811 80.0156 0.0000 0.0000 0.0000
# 4 0.0000 0.0000 0.0000 19.2883 0.0000 0.0000
# 5 0.0000 0.0000 0.0000 0.0000 28.5815 0.0000
# 6 0.0000 0.0000 0.0000 0.0000 0.0000 47.1878
#
#
#
# Elastic Compliance Matrix: (Units=1/GPa)
#
#
# Indices 1 2 3 4 5 6 
#
# 1 0.010795 -0.004246 -0.002012 0.000000 0.000000 0.000000
# 2 -0.004246 0.013960 -0.000480 0.000000 0.000000 0.000000
# 3 -0.002012 -0.000480 0.013004 0.000000 0.000000 0.000000
# 4 0.000000 0.000000 0.000000 0.051845 0.000000 0.000000
# 5 0.000000 0.000000 0.000000 0.000000 0.034988 0.000000
# 6 0.000000 0.000000 0.000000 0.000000 0.000000 0.021192
#
#
# Mechanical properties :
#
#
# Convention : Reuss Voigt Hill
#
# Bulk Modulus (GPa) = 41.18307 43.58536 42.38421
# Shear Modulus (GPa) = 29.87644 33.09489 31.48567
#
# Velocity S-wave (km/s) = 3.35625 3.53240 3.44545
# Velocity P-wave (km/s) = 5.52690 5.75068 5.63990
#
# Compressibility (1/GPa) = 0.02428182
#
# Stress axis : x y z
#
# Youngs Moduli (GPa) = 92.63231 71.63316 76.89810
#
# Poissons Ratio (x) = 0.30418 0.15473
# Poissons Ratio (y) = 0.39335 0.03694
# Poissons Ratio (z) = 0.18639 0.03442
#
# Static dielectric constant tensor:
#      x y z
#    x 2.208450 0.000000 0.000000 
#    y 0.000000 2.177350 0.000000 
#    z 0.000000 0.000000 2.106460 
# 
# From -- ./inp_files/4994.got.cif
#   From: 2010.05.17/outbox.cif.g08.bks.cpg/sg29_3_cif.got.tgz:4994.got - 2010.06.04 01:19:37.
