data_PCOD9341785
_publ_section_title
;
Structure prediction by ZEFSAII (Michael W. Deem and Ramdas Pophale) SiO2 
 PCOD9341785
Probable space group: P C A 21
;
_chemical_formula_sum "Si O2"
_cell_formula_units_Z 28
_cell_length_a 9.000000
_cell_length_b 15.000000
_cell_length_c 9.000000
_cell_angle_alpha 90.000000
_cell_angle_beta 90.000000
_cell_angle_gamma 90.000000
_cell_volume 1215.000000
_symmetry_space_group_name_H-M "P C A 21"
_symmetry_group_IT_number 29
_symmetry_cell_setting 'orthorhombic'
loop_
_space_group_symop_operation_xyz
x,y,z
-x,-y,1/2+z
1/2-x,y,1/2+z
1/2+x,-y,z
loop_
_atom_site_type_symbol
_atom_site_label
_atom_site_fract_x
_atom_site_fract_y
_atom_site_fract_z
Si Si1 0.079018 0.771359 0.465330
Si Si2 0.778823 0.732611 0.278929
Si Si3 0.043933 0.033499 0.013329
Si Si4 0.699231 0.329059 0.753170
Si Si5 0.713724 0.613712 0.516512
Si Si6 0.834674 0.925368 0.831720
Si Si7 0.900604 0.445597 0.533828
O O1 0.214208 0.744722 0.354713
O O2 0.102565 0.719165 0.622602
O O3 0.931528 0.743430 0.371917
O O4 0.056494 0.876587 0.498906
O O5 0.702210 0.645886 0.348024
O O6 0.795849 0.705665 0.108503
O O7 0.684281 0.821429 0.296663
O O8 0.111038 0.029179 0.178833
O O9 0.176243 0.042874 0.893832
O O10 0.948379 0.948920 0.963205
O O11 0.815401 0.389385 0.659888
O O12 0.628042 0.394678 0.876927
O O13 0.850351 0.547536 0.529162
O O14 0.573755 0.557054 0.566154
#
# Coordination Sequence:
#
# PCOD9341785 Si02
#       7
#     4   4   4   4   4   4   4
#     4  10  23  45  71 106 142 190 238 300 364 436
#     4  11  25  46  73 101 148 191 243 295 371 436
#     4  11  25  47  75 109 150 189 246 297 371 442
#     4  10  23  45  69 103 146 182 245 302 363 429
#     4  12  27  44  70 103 143 194 244 302 361 434
#     4  11  25  48  75 111 146 194 241 306 364 447
#     4  11  26  43  71 101 143 192 245 300 366 430
#
# _framework density 23.045266999999999
#
# number of rings (size 3 to 8) (size 9 to 14) (size 15 to 20)
#    0.000    1.143    1.429    3.429    8.000    5.714 
#    2.571    0.000    0.000    0.000    0.000    0.000 
#    0.000    0.000    0.000    0.000    0.000    0.000 
#
# Total GULP energy -156698.763792 kJ/mol
# GULP energy per Si atom -5596.384421 kJ/mol
# Density = 2.299282 g / cm^3
# Si number density = 23.045267 Si / 1000 Ang^3
#
#
#
# Elastic Constant Matrix: (Units=GPa)
#
#
# Indices 1 2 3 4 5 6 
#
# 1 59.3308 43.0342 8.8354 0.0000 0.0000 0.0000
# 2 43.0342 52.8498 18.4448 0.0000 0.0000 0.0000
# 3 8.8354 18.4448 113.4693 0.0000 0.0000 0.0000
# 4 0.0000 0.0000 0.0000 31.6954 0.0000 0.0000
# 5 0.0000 0.0000 0.0000 0.0000 39.0422 0.0000
# 6 0.0000 0.0000 0.0000 0.0000 0.0000 45.2136
#
#
#
# Elastic Compliance Matrix: (Units=1/GPa)
#
#
# Indices 1 2 3 4 5 6 
#
# 1 0.041785 -0.034867 0.002414 0.000000 0.000000 0.000000
# 2 -0.034867 0.049154 -0.005275 0.000000 0.000000 0.000000
# 3 0.002414 -0.005275 0.009482 0.000000 0.000000 0.000000
# 4 0.000000 0.000000 0.000000 0.031550 0.000000 0.000000
# 5 0.000000 0.000000 0.000000 0.000000 0.025613 0.000000
# 6 0.000000 0.000000 0.000000 0.000000 0.000000 0.022117
#
#
# Mechanical properties :
#
#
# Convention : Reuss Voigt Hill
#
# Bulk Modulus (GPa) = 40.05560 40.69763 40.37661
# Shear Modulus (GPa) = 18.97666 33.54593 26.26129
#
# Velocity S-wave (km/s) = 2.87270 3.81944 3.37939
# Velocity P-wave (km/s) = 5.33125 6.09500 5.72587
#
# Compressibility (1/GPa) = 0.02496530
#
# Stress axis : x y z
#
# Youngs Moduli (GPa) = 23.93180 20.34413 105.45765
#
# Poissons Ratio (x) = 0.70935 -0.25459
# Poissons Ratio (y) = 0.83444 0.55631
# Poissons Ratio (z) = -0.05777 0.10732
#
# Static dielectric constant tensor:
#      x y z
#    x 1.909330 0.000000 0.000000 
#    y 0.000000 1.827620 0.000000 
#    z 0.000000 0.000000 1.819290 
# 
# From -- ./inp_files/1194.got.cif
#   From: 2010.05.17/outbox.ucp.g08.bks.cvg/sg29_1_cif.got.tgz:1194.got - 2010.06.11 15:24:14.
