data_PCOD9341267
_publ_section_title
;
Structure prediction by ZEFSAII (Michael W. Deem and Ramdas Pophale) SiO2 
 PCOD9341267
Probable space group: P C A 21
;
_chemical_formula_sum "Si O2"
_cell_formula_units_Z 24
_cell_length_a 22.064024
_cell_length_b 5.208641
_cell_length_c 9.110102
_cell_angle_alpha 90.000000
_cell_angle_beta 90.000000
_cell_angle_gamma 90.000000
_cell_volume 1046.965536
_symmetry_space_group_name_H-M "P C A 21"
_symmetry_group_IT_number 29
_symmetry_cell_setting 'orthorhombic'
loop_
_space_group_symop_operation_xyz
x,y,z
-x,-y,1/2+z
1/2-x,y,1/2+z
1/2+x,-y,z
loop_
_atom_site_type_symbol
_atom_site_label
_atom_site_fract_x
_atom_site_fract_y
_atom_site_fract_z
Si Si1 0.885019 0.221555 0.866140
Si Si2 0.176224 0.234576 0.698105
Si Si3 0.043473 0.292394 0.328482
Si Si4 0.562383 0.484493 0.629679
Si Si5 0.222165 0.893616 0.174360
Si Si6 0.769686 0.612475 0.496823
O O1 0.927491 0.986522 0.816407
O O2 0.817209 0.152304 0.819374
O O3 0.907426 0.485144 0.790710
O O4 0.898954 0.274486 0.037078
O O5 0.107306 0.316825 0.710501
O O6 0.207216 0.954939 0.707847
O O7 0.199216 0.334813 0.538476
O O8 0.213422 0.374592 0.827968
O O9 0.030022 0.355421 0.499595
O O10 0.984551 0.344498 0.233331
O O11 0.200910 0.148223 0.085784
O O12 0.213667 0.653710 0.069570
#
# Coordination Sequence:
#
# PCOD9341267 Si02
#       6
#     4   4   4   4   4   4
#     4  10  24  44  72  99 148 188 240 303 361 430
#     4  10  26  44  71 107 146 190 239 302 368 445
#     4  10  25  45  73 105 137 200 241 305 356 431
#     4  10  26  47  75 104 149 187 256 302 365 427
#     4  10  24  43  71 103 144 188 233 294 377 433
#     4  10  25  41  66 106 140 187 237 286 367 444
#
# _framework density 22.923390000000001
#
# number of rings (size 3 to 8) (size 9 to 14) (size 15 to 20)
#    2.000    0.000    0.000    1.000    9.333    4.000 
#    0.000    0.000    0.000    0.000    0.000    0.000 
#    0.000    0.000    0.000    0.000    0.000    0.000 
#
# Total GULP energy -133891.009981 kJ/mol
# GULP energy per Si atom -5578.792083 kJ/mol
# Density = 2.287121 g / cm^3
# Si number density = 22.923390 Si / 1000 Ang^3
#
#
#
# Elastic Constant Matrix: (Units=GPa)
#
#
# Indices 1 2 3 4 5 6 
#
# 1 84.2561 21.2415 33.2445 0.0000 0.0000 0.0000
# 2 21.2415 141.8415 34.7408 0.0000 0.0000 0.0000
# 3 33.2445 34.7408 70.1509 0.0000 0.0000 0.0000
# 4 0.0000 0.0000 0.0000 31.1219 0.0000 0.0000
# 5 0.0000 0.0000 0.0000 0.0000 47.2722 0.0000
# 6 0.0000 0.0000 0.0000 0.0000 0.0000 20.9228
#
#
#
# Elastic Compliance Matrix: (Units=1/GPa)
#
#
# Indices 1 2 3 4 5 6 
#
# 1 0.014637 -0.000561 -0.006659 0.000000 0.000000 0.000000
# 2 -0.000561 0.008045 -0.003718 0.000000 0.000000 0.000000
# 3 -0.006659 -0.003718 0.019252 0.000000 0.000000 0.000000
# 4 0.000000 0.000000 0.000000 0.032132 0.000000 0.000000
# 5 0.000000 0.000000 0.000000 0.000000 0.021154 0.000000
# 6 0.000000 0.000000 0.000000 0.000000 0.000000 0.047795
#
#
# Mechanical properties :
#
#
# Convention : Reuss Voigt Hill
#
# Bulk Modulus (GPa) = 49.85521 52.74467 51.29994
# Shear Modulus (GPa) = 29.14148 33.66481 31.40315
#
# Velocity S-wave (km/s) = 3.56933 3.83636 3.70525
# Velocity P-wave (km/s) = 6.22758 6.53319 6.38221
#
# Compressibility (1/GPa) = 0.02005809
#
# Stress axis : x y z
#
# Youngs Moduli (GPa) = 68.31845 124.30353 51.94293
#
# Poissons Ratio (x) = 0.06975 0.34587
# Poissons Ratio (y) = 0.03833 0.19313
# Poissons Ratio (z) = 0.45492 0.46218
#
# Static dielectric constant tensor:
#      x y z
#    x 1.846470 0.000000 0.000000 
#    y 0.000000 1.910140 0.000000 
#    z 0.000000 0.000000 1.872390 
# 
# From -- ./inp_files/2391.got.cif
#   From: 2010.05.17/outbox.cif.g08.bks.cpg/sg29_2_cif.got.tgz:2391.got - 2010.06.04 01:19:37.
