data_PCOD9341599
_publ_section_title
;
Structure prediction by ZEFSAII (Michael W. Deem and Ramdas Pophale) SiO2 
 PCOD9341599
Probable space group: P C A 21
;
_chemical_formula_sum "Si O2"
_cell_formula_units_Z 32
_cell_length_a 11.683733
_cell_length_b 14.625944
_cell_length_c 8.409565
_cell_angle_alpha 90.000000
_cell_angle_beta 90.000000
_cell_angle_gamma 90.000000
_cell_volume 1437.073767
_symmetry_space_group_name_H-M "P C A 21"
_symmetry_group_IT_number 29
_symmetry_cell_setting 'orthorhombic'
loop_
_space_group_symop_operation_xyz
x,y,z
-x,-y,1/2+z
1/2-x,y,1/2+z
1/2+x,-y,z
loop_
_atom_site_type_symbol
_atom_site_label
_atom_site_fract_x
_atom_site_fract_y
_atom_site_fract_z
Si Si1 0.486810 0.090072 0.438810
Si Si2 0.826785 0.766599 0.322702
Si Si3 0.949227 0.106905 0.307142
Si Si4 0.942050 0.428880 0.602196
Si Si5 0.235545 0.693536 0.522926
Si Si6 0.088414 0.267854 0.465785
Si Si7 0.997891 0.621865 0.465074
Si Si8 0.207348 0.824200 0.269131
O O1 0.366284 0.134618 0.386774
O O2 0.507652 0.105405 0.625062
O O3 0.587678 0.140159 0.336651
O O4 0.489756 0.983655 0.397136
O O5 0.864901 0.761408 0.139582
O O6 0.696266 0.738218 0.348342
O O7 0.901873 0.696327 0.427516
O O8 0.811619 0.108223 0.297636
O O9 0.997884 0.195803 0.396201
O O10 0.818598 0.389703 0.555040
O O11 0.963472 0.411559 0.788908
O O12 0.030434 0.365864 0.500320
O O13 0.955070 0.534182 0.559531
O O14 0.104316 0.668098 0.556883
O O15 0.231728 0.722676 0.338901
O O16 0.282567 0.790727 0.588855
#
# Coordination Sequence:
#
# PCOD9341599 Si02
#       8
#     4   4   4   4   4   4   4   4
#     4  12  27  45  71 105 139 180 234 285 350 417
#     4  11  24  47  67  97 139 183 227 285 346 413
#     4  12  27  44  72 104 138 183 230 289 348 417
#     4  11  26  43  69 103 137 182 232 289 349 416
#     4  12  23  47  73 101 135 183 236 293 348 413
#     4  11  25  46  69  96 140 183 227 285 349 407
#     4  11  26  44  69 103 139 180 234 287 350 414
#     4  12  24  46  76  99 135 182 236 291 348 415
#
# _framework density 22.267469999999999
#
# number of rings (size 3 to 8) (size 9 to 14) (size 15 to 20)
#    0.000    0.500    5.000    2.250    7.000    2.000 
#    0.000    0.000    0.000    0.000    0.000    0.000 
#    0.000    0.000    0.000    0.000    0.000    0.000 
#
# Total GULP energy -178944.904936 kJ/mol
# GULP energy per Si atom -5592.028279 kJ/mol
# Density = 2.221679 g / cm^3
# Si number density = 22.267470 Si / 1000 Ang^3
#
#
#
# Elastic Constant Matrix: (Units=GPa)
#
#
# Indices 1 2 3 4 5 6 
#
# 1 97.7976 14.3056 10.4156 0.0000 0.0000 0.0000
# 2 14.3056 53.2593 14.0880 0.0000 0.0000 0.0000
# 3 10.4156 14.0880 62.9490 0.0000 0.0000 0.0000
# 4 0.0000 0.0000 0.0000 38.7775 0.0000 0.0000
# 5 0.0000 0.0000 0.0000 0.0000 30.8742 0.0000
# 6 0.0000 0.0000 0.0000 0.0000 0.0000 31.6032
#
#
#
# Elastic Compliance Matrix: (Units=1/GPa)
#
#
# Indices 1 2 3 4 5 6 
#
# 1 0.010728 -0.002564 -0.001201 0.000000 0.000000 0.000000
# 2 -0.002564 0.020570 -0.004179 0.000000 0.000000 0.000000
# 3 -0.001201 -0.004179 0.017020 0.000000 0.000000 0.000000
# 4 0.000000 0.000000 0.000000 0.025788 0.000000 0.000000
# 5 0.000000 0.000000 0.000000 0.000000 0.032389 0.000000
# 6 0.000000 0.000000 0.000000 0.000000 0.000000 0.031642
#
#
# Mechanical properties :
#
#
# Convention : Reuss Voigt Hill
#
# Bulk Modulus (GPa) = 30.83632 32.40270 31.61951
# Shear Modulus (GPa) = 30.33293 31.93077 31.13185
#
# Velocity S-wave (km/s) = 3.69481 3.79088 3.74316
# Velocity P-wave (km/s) = 5.66396 5.80898 5.73693
#
# Compressibility (1/GPa) = 0.03242929
#
# Stress axis : x y z
#
# Youngs Moduli (GPa) = 93.21254 48.61386 58.75442
#
# Poissons Ratio (x) = 0.12464 0.07058
# Poissons Ratio (y) = 0.23898 0.24556
# Poissons Ratio (z) = 0.11198 0.20318
#
# Static dielectric constant tensor:
#      x y z
#    x 1.845370 0.000000 0.000000 
#    y 0.000000 1.762090 0.000000 
#    z 0.000000 0.000000 1.835960 
# 
# From -- ./inp_files/1567.got.cif
#   From: 2010.05.17/outbox.cif.g08.bks.cpg/sg29_1_cif.got.tgz:1567.got - 2010.06.04 01:19:37.
