data_PCOD9341514
_publ_section_title
;
Structure prediction by ZEFSAII (Michael W. Deem and Ramdas Pophale) SiO2 
 PCOD9341514
Probable space group: P C A 21
;
_chemical_formula_sum "Si O2"
_cell_formula_units_Z 32
_cell_length_a 8.914225
_cell_length_b 11.323186
_cell_length_c 14.779216
_cell_angle_alpha 90.000000
_cell_angle_beta 90.000000
_cell_angle_gamma 90.000000
_cell_volume 1491.776047
_symmetry_space_group_name_H-M "P C A 21"
_symmetry_group_IT_number 29
_symmetry_cell_setting 'orthorhombic'
loop_
_space_group_symop_operation_xyz
x,y,z
-x,-y,1/2+z
1/2-x,y,1/2+z
1/2+x,-y,z
loop_
_atom_site_type_symbol
_atom_site_label
_atom_site_fract_x
_atom_site_fract_y
_atom_site_fract_z
Si Si1 0.462010 0.077135 0.951490
Si Si2 0.646588 0.884819 0.878228
Si Si3 0.298909 0.132533 0.687051
Si Si4 0.606732 0.081984 0.611808
Si Si5 0.660820 0.267168 0.037347
Si Si6 0.827095 0.499745 0.976784
Si Si7 0.099386 0.349799 0.652506
Si Si8 0.914645 0.628215 0.366978
O O1 0.283554 0.093064 0.946689
O O2 0.538053 0.997602 0.873614
O O3 0.552401 0.196535 0.968626
O O4 0.485329 0.992242 0.037509
O O5 0.742228 0.859263 0.788953
O O6 0.552948 0.765380 0.890306
O O7 0.476935 0.131155 0.676299
O O8 0.224563 0.247479 0.640697
O O9 0.221768 0.011165 0.654562
O O10 0.701090 0.184670 0.564852
O O11 0.719848 0.388503 0.996512
O O12 0.559929 0.292380 0.125868
O O13 0.873045 0.552586 0.074732
O O14 0.740040 0.596004 0.916979
O O15 0.962205 0.451856 0.915706
O O16 0.095779 0.388622 0.757956
#
# Coordination Sequence:
#
# PCOD9341514 Si02
#       8
#     4   4   4   4   4   4   4   4
#     4  12  22  42  69  99 139 179 230 274 354 421
#     4  11  25  43  67 101 139 181 226 292 342 417
#     4  11  23  43  66 102 140 177 230 287 349 418
#     4  12  22  40  70  99 135 181 221 276 352 425
#     4  12  25  43  70 102 135 186 233 288 352 427
#     4  12  27  49  73 102 140 188 240 295 360 414
#     4  11  26  50  73 100 145 186 243 300 350 425
#     4  11  28  48  74 105 141 186 243 298 355 423
#
# _framework density 21.450939999999999
#
# number of rings (size 3 to 8) (size 9 to 14) (size 15 to 20)
#    0.000    0.500    5.000    2.250    5.250    1.000 
#    4.500    0.000    0.000    0.000    0.000    0.000 
#    0.000    0.000    0.000    0.000    0.000    0.000 
#
# Total GULP energy -178833.857727 kJ/mol
# GULP energy per Si atom -5588.558054 kJ/mol
# Density = 2.140212 g / cm^3
# Si number density = 21.450940 Si / 1000 Ang^3
#
#
#
# Elastic Constant Matrix: (Units=GPa)
#
#
# Indices 1 2 3 4 5 6 
#
# 1 84.2190 21.6260 23.9415 0.0000 0.0000 0.0000
# 2 21.6260 93.2285 41.9249 0.0000 0.0000 0.0000
# 3 23.9415 41.9249 91.7351 0.0000 0.0000 0.0000
# 4 0.0000 0.0000 0.0000 34.3103 0.0000 0.0000
# 5 0.0000 0.0000 0.0000 0.0000 29.8328 0.0000
# 6 0.0000 0.0000 0.0000 0.0000 0.0000 42.2683
#
#
#
# Elastic Compliance Matrix: (Units=1/GPa)
#
#
# Indices 1 2 3 4 5 6 
#
# 1 0.013084 -0.001887 -0.002552 0.000000 0.000000 0.000000
# 2 -0.001887 0.013773 -0.005802 0.000000 0.000000 0.000000
# 3 -0.002552 -0.005802 0.014219 0.000000 0.000000 0.000000
# 4 0.000000 0.000000 0.000000 0.029146 0.000000 0.000000
# 5 0.000000 0.000000 0.000000 0.000000 0.033520 0.000000
# 6 0.000000 0.000000 0.000000 0.000000 0.000000 0.023658
#
#
# Mechanical properties :
#
#
# Convention : Reuss Voigt Hill
#
# Bulk Modulus (GPa) = 48.56081 49.35194 48.95637
# Shear Modulus (GPa) = 32.31061 33.39497 32.85279
#
# Velocity S-wave (km/s) = 3.88526 3.94992 3.91772
# Velocity P-wave (km/s) = 6.54326 6.62264 6.58307
#
# Compressibility (1/GPa) = 0.02059274
#
# Stress axis : x y z
#
# Youngs Moduli (GPa) = 76.42947 72.60386 70.32977
#
# Poissons Ratio (x) = 0.13703 0.17949
# Poissons Ratio (y) = 0.14425 0.40806
# Poissons Ratio (z) = 0.19506 0.42126
#
# Static dielectric constant tensor:
#      x y z
#    x 1.767540 0.000000 0.000000 
#    y 0.000000 1.777740 0.000000 
#    z 0.000000 0.000000 1.858090 
# 
# From -- ./inp_files/4306.got.cif
#   From: 2010.05.17/outbox.cif.g08.bks.cpg/sg29_3_cif.got.tgz:4306.got - 2010.06.04 01:19:37.
