data_PCOD9341205
_publ_section_title
;
Structure prediction by ZEFSAII (Michael W. Deem and Ramdas Pophale) SiO2 
 PCOD9341205
Probable space group: P C A 21
;
_chemical_formula_sum "Si O2"
_cell_formula_units_Z 28
_cell_length_a 24.814042
_cell_length_b 5.595102
_cell_length_c 7.586058
_cell_angle_alpha 90.000000
_cell_angle_beta 90.000000
_cell_angle_gamma 90.000000
_cell_volume 1053.226263
_symmetry_space_group_name_H-M "P C A 21"
_symmetry_group_IT_number 29
_symmetry_cell_setting 'orthorhombic'
loop_
_space_group_symop_operation_xyz
x,y,z
-x,-y,1/2+z
1/2-x,y,1/2+z
1/2+x,-y,z
loop_
_atom_site_type_symbol
_atom_site_label
_atom_site_fract_x
_atom_site_fract_y
_atom_site_fract_z
Si Si1 0.564203 0.880626 0.142220
Si Si2 0.217210 0.262649 0.661190
Si Si3 0.575436 0.301021 0.334966
Si Si4 0.523417 0.483082 0.653883
Si Si5 0.327366 0.773846 0.026057
Si Si6 0.329569 0.372041 0.539719
Si Si7 0.606548 0.254063 0.864406
O O1 0.566361 0.015992 0.328093
O O2 0.505569 0.771412 0.125418
O O3 0.579738 0.050210 0.978326
O O4 0.614182 0.698545 0.130710
O O5 0.198809 0.519435 0.579156
O O6 0.281236 0.305763 0.668967
O O7 0.187897 0.245479 0.852547
O O8 0.206585 0.017860 0.549816
O O9 0.558861 0.498586 0.479604
O O10 0.527869 0.356259 0.192644
O O11 0.640583 0.282969 0.346292
O O12 0.563682 0.464706 0.818526
O O13 0.374165 0.821054 0.171754
O O14 0.342388 0.638343 0.467932
#
# Coordination Sequence:
#
# PCOD9341205 Si02
#       7
#     4   4   4   4   4   4   4
#     4  12  23  41  69 103 141 191 248 309 379 459
#     4  11  26  47  74 108 146 198 250 315 380 451
#     4  11  25  41  69 101 148 190 252 306 378 462
#     4  11  24  44  68 105 142 198 246 317 386 461
#     4  10  25  47  73 106 149 194 250 314 375 447
#     4  11  26  44  74 103 149 193 254 316 385 458
#     4  10  23  48  69 104 147 192 252 319 383 462
#
# _framework density 26.584982
#
# number of rings (size 3 to 8) (size 9 to 14) (size 15 to 20)
#    0.000    1.143    1.429    3.429    6.000    1.143 
#    5.143    0.000    0.000    0.000    0.000    0.000 
#    0.000    0.000    0.000    0.000    0.000    0.000 
#
# Total GULP energy -156076.398520 kJ/mol
# GULP energy per Si atom -5574.157090 kJ/mol
# Density = 2.652447 g / cm^3
# Si number density = 26.584982 Si / 1000 Ang^3
#
#
#
# Elastic Constant Matrix: (Units=GPa)
#
#
# Indices 1 2 3 4 5 6 
#
# 1 121.9849 19.9260 16.2433 0.0000 0.0000 0.0000
# 2 19.9260 99.2807 25.9090 0.0000 0.0000 0.0000
# 3 16.2433 25.9090 83.7222 0.0000 0.0000 0.0000
# 4 0.0000 0.0000 0.0000 32.1032 0.0000 0.0000
# 5 0.0000 0.0000 0.0000 0.0000 34.9227 0.0000
# 6 0.0000 0.0000 0.0000 0.0000 0.0000 46.4385
#
#
#
# Elastic Compliance Matrix: (Units=1/GPa)
#
#
# Indices 1 2 3 4 5 6 
#
# 1 0.008591 -0.001403 -0.001233 0.000000 0.000000 0.000000
# 2 -0.001403 0.011186 -0.003190 0.000000 0.000000 0.000000
# 3 -0.001233 -0.003190 0.013171 0.000000 0.000000 0.000000
# 4 0.000000 0.000000 0.000000 0.031150 0.000000 0.000000
# 5 0.000000 0.000000 0.000000 0.000000 0.028635 0.000000
# 6 0.000000 0.000000 0.000000 0.000000 0.000000 0.021534
#
#
# Mechanical properties :
#
#
# Convention : Reuss Voigt Hill
#
# Bulk Modulus (GPa) = 46.95283 47.68272 47.31777
# Shear Modulus (GPa) = 37.58971 38.88683 38.23827
#
# Velocity S-wave (km/s) = 3.76433 3.82872 3.79666
# Velocity P-wave (km/s) = 6.04924 6.12539 6.08743
#
# Compressibility (1/GPa) = 0.02129797
#
# Stress axis : x y z
#
# Youngs Moduli (GPa) = 116.40104 89.39477 75.92716
#
# Poissons Ratio (x) = 0.12538 0.09360
# Poissons Ratio (y) = 0.16326 0.24218
# Poissons Ratio (z) = 0.14349 0.28514
#
# Static dielectric constant tensor:
#      x y z
#    x 2.025590 0.000000 0.000000 
#    y 0.000000 2.222180 0.000000 
#    z 0.000000 0.000000 2.394490 
# 
# From -- ./inp_files/2405.got.cif
#   From: 2010.05.17/outbox.cif.g08.bks.cpg/sg29_2_cif.got.tgz:2405.got - 2010.06.04 01:19:37.
