data_PCOD9341427
_publ_section_title
;
Structure prediction by ZEFSAII (Michael W. Deem and Ramdas Pophale) SiO2 
 PCOD9341427
Probable space group: P C A 21
;
_chemical_formula_sum "Si O2"
_cell_formula_units_Z 32
_cell_length_a 10.923435
_cell_length_b 5.663820
_cell_length_c 21.800466
_cell_angle_alpha 90.000000
_cell_angle_beta 90.000000
_cell_angle_gamma 90.000000
_cell_volume 1348.759288
_symmetry_space_group_name_H-M "P C A 21"
_symmetry_group_IT_number 29
_symmetry_cell_setting 'orthorhombic'
loop_
_space_group_symop_operation_xyz
x,y,z
-x,-y,1/2+z
1/2-x,y,1/2+z
1/2+x,-y,z
loop_
_atom_site_type_symbol
_atom_site_label
_atom_site_fract_x
_atom_site_fract_y
_atom_site_fract_z
Si Si1 0.267290 0.573169 0.541000
Si Si2 0.092020 0.206478 0.975637
Si Si3 0.120968 0.456097 0.646557
Si Si4 0.492674 0.897273 0.563515
Si Si5 0.019785 0.154872 0.190961
Si Si6 0.719196 0.904717 0.742150
Si Si7 0.283588 0.059876 0.878502
Si Si8 0.111582 0.560277 0.415823
O O1 0.340607 0.325831 0.533389
O O2 0.202929 0.630870 0.606132
O O3 0.374287 0.763262 0.539772
O O4 0.185268 0.565702 0.480167
O O5 0.186632 0.068245 0.933856
O O6 0.030248 0.405747 0.933424
O O7 0.980055 0.057393 0.004910
O O8 0.090975 0.283480 0.589457
O O9 0.999070 0.568807 0.675403
O O10 0.189214 0.326736 0.701444
O O11 0.466243 0.039336 0.624828
O O12 0.135649 0.064540 0.228944
O O13 0.887924 0.081034 0.219206
O O14 0.711919 0.900115 0.815000
O O15 0.363951 0.301790 0.886628
O O16 0.348122 0.800474 0.879444
#
# Coordination Sequence:
#
# PCOD9341427 Si02
#       8
#     4   4   4   4   4   4   4   4
#     4  11  22  41  65 105 144 186 240 311 383 466
#     4  11  25  41  68 101 146 189 247 311 385 458
#     4  11  24  41  70 107 146 191 250 315 396 460
#     4  11  21  39  67 100 140 186 237 309 384 456
#     4  11  25  46  73 106 146 194 254 320 390 461
#     4  11  27  47  73 104 146 201 261 314 387 461
#     4  11  28  48  71 107 141 204 251 317 373 458
#     4  11  26  45  73 102 147 191 252 307 388 452
#
# _framework density 23.725507
#
# number of rings (size 3 to 8) (size 9 to 14) (size 15 to 20)
#    0.000    1.000    1.250    4.500    8.750    4.000 
#    0.000    0.000    0.000    0.000    0.000    0.000 
#    0.000    0.000    0.000    0.000    0.000    0.000 
#
# Total GULP energy -178550.668622 kJ/mol
# GULP energy per Si atom -5579.708394 kJ/mol
# Density = 2.367151 g / cm^3
# Si number density = 23.725507 Si / 1000 Ang^3
#
#
#
# Elastic Constant Matrix: (Units=GPa)
#
#
# Indices 1 2 3 4 5 6 
#
# 1 72.0059 19.6675 17.8695 0.0000 0.0000 0.0000
# 2 19.6675 78.7237 25.9494 0.0000 0.0000 0.0000
# 3 17.8695 25.9494 77.5513 0.0000 0.0000 0.0000
# 4 0.0000 0.0000 0.0000 -22.9335 0.0000 0.0000
# 5 0.0000 0.0000 0.0000 0.0000 25.1880 0.0000
# 6 0.0000 0.0000 0.0000 0.0000 0.0000 28.6931
#
#
#
# Elastic Compliance Matrix: (Units=1/GPa)
#
#
# Indices 1 2 3 4 5 6 
#
# 1 0.015334 -0.002997 -0.002531 0.000000 0.000000 0.000000
# 2 -0.002997 0.014863 -0.004283 0.000000 0.000000 0.000000
# 3 -0.002531 -0.004283 0.014911 0.000000 0.000000 0.000000
# 4 0.000000 0.000000 0.000000 -0.043604 0.000000 0.000000
# 5 0.000000 0.000000 0.000000 0.000000 0.039701 0.000000
# 6 0.000000 0.000000 0.000000 0.000000 0.000000 0.034852
#
#
# Mechanical properties :
#
#
# Convention : Reuss Voigt Hill
#
# Bulk Modulus (GPa) = 39.23441 39.47264 39.35352
# Shear Modulus (GPa) = 47.99697 17.17582 32.58640
#
# Velocity S-wave (km/s) = 4.50267 2.69353 3.71006
# Velocity P-wave (km/s) = 6.60339 5.13291 5.91403
#
# Compressibility (1/GPa) = 0.02548783
#
# Stress axis : x y z
#
# Youngs Moduli (GPa) = 65.21323 67.28093 67.06528
#
# Poissons Ratio (x) = 0.20163 0.16972
# Poissons Ratio (y) = 0.19543 0.28723
# Poissons Ratio (z) = 0.16503 0.28815
#
# Static dielectric constant tensor:
#      x y z
#    x 2.069770 0.000000 0.000000 
#    y 0.000000 2.339750 0.000000 
#    z 0.000000 0.000000 1.875160 
# 
# From -- ./inp_files/5526.got.cif
#   From: 2010.05.17/outbox.cif.g08.bks.cpg/sg29_3_cif.got.tgz:5526.got - 2010.06.04 01:19:37.
