data_PCOD9341776
_publ_section_title
;
Structure prediction by ZEFSAII (Michael W. Deem and Ramdas Pophale) SiO2 
 PCOD9341776
Probable space group: P C A 21
;
_chemical_formula_sum "Si O2"
_cell_formula_units_Z 28
_cell_length_a 12.000000
_cell_length_b 12.000000
_cell_length_c 9.000000
_cell_angle_alpha 90.000000
_cell_angle_beta 90.000000
_cell_angle_gamma 90.000000
_cell_volume 1296.000000
_symmetry_space_group_name_H-M "P C A 21"
_symmetry_group_IT_number 29
_symmetry_cell_setting 'orthorhombic'
loop_
_space_group_symop_operation_xyz
x,y,z
-x,-y,1/2+z
1/2-x,y,1/2+z
1/2+x,-y,z
loop_
_atom_site_type_symbol
_atom_site_label
_atom_site_fract_x
_atom_site_fract_y
_atom_site_fract_z
Si Si1 0.124553 0.287076 0.670240
Si Si2 0.152802 0.851271 0.587338
Si Si3 0.372615 0.798109 0.431925
Si Si4 0.515215 0.684108 0.950784
Si Si5 0.607429 0.903013 0.469601
Si Si6 0.495932 0.582219 0.426841
Si Si7 0.853435 0.726157 0.724262
O O1 0.167358 0.174427 0.591897
O O2 0.078817 0.377626 0.557093
O O3 0.234293 0.328424 0.752785
O O4 0.029560 0.265402 0.788086
O O5 0.277990 0.837577 0.539147
O O6 0.142167 0.843288 0.764476
O O7 0.090283 0.742892 0.523428
O O8 0.114507 0.967780 0.510615
O O9 0.483354 0.857501 0.487856
O O10 0.388674 0.663749 0.438997
O O11 0.517069 0.550022 0.932728
O O12 0.615763 0.728699 0.052392
O O13 0.638338 0.844412 0.311338
O O14 0.555785 0.636855 0.284180
#
# Coordination Sequence:
#
# PCOD9341776 Si02
#       7
#     4   4   4   4   4   4   4
#     4  10  23  38  69  97 124 182 224 278 349 396
#     4  12  27  43  73 100 136 183 227 277 348 406
#     4  10  26  48  65 103 137 178 227 282 345 401
#     4  12  23  41  70  97 133 184 226 277 347 403
#     4  10  25  45  65  97 146 168 224 290 329 415
#     4  10  23  47  61  98 144 167 229 296 329 413
#     4  10  21  44  65  96 132 174 233 280 337 408
#
# _framework density 21.604938000000001
#
# number of rings (size 3 to 8) (size 9 to 14) (size 15 to 20)
#    0.000    1.714    2.857    2.571    8.000    3.429 
#    0.000    0.000    0.000    0.000    0.000    0.000 
#    0.000    0.000    0.000    0.000    0.000    0.000 
#
# Total GULP energy -155892.596016 kJ/mol
# GULP energy per Si atom -5567.592715 kJ/mol
# Density = 2.155576 g / cm^3
# Si number density = 21.604938 Si / 1000 Ang^3
#
#
#
# Elastic Constant Matrix: (Units=GPa)
#
#
# Indices 1 2 3 4 5 6 
#
# 1 70.0558 8.8967 24.4220 0.0000 0.0000 0.0000
# 2 8.8967 131.8967 36.7985 0.0000 0.0000 0.0000
# 3 24.4220 36.7985 46.4004 0.0000 0.0000 0.0000
# 4 0.0000 0.0000 0.0000 7.4716 0.0000 0.0000
# 5 0.0000 0.0000 0.0000 0.0000 45.4661 0.0000
# 6 0.0000 0.0000 0.0000 0.0000 0.0000 -8.3942
#
#
#
# Elastic Compliance Matrix: (Units=1/GPa)
#
#
# Indices 1 2 3 4 5 6 
#
# 1 0.017814 0.001816 -0.010817 0.000000 0.000000 0.000000
# 2 0.001816 0.009921 -0.008824 0.000000 0.000000 0.000000
# 3 -0.010817 -0.008824 0.034243 0.000000 0.000000 0.000000
# 4 0.000000 0.000000 0.000000 0.133839 0.000000 0.000000
# 5 0.000000 0.000000 0.000000 0.000000 0.021994 0.000000
# 6 0.000000 0.000000 0.000000 0.000000 0.000000 -0.119130
#
#
# Mechanical properties :
#
#
# Convention : Reuss Voigt Hill
#
# Bulk Modulus (GPa) = 37.98049 43.17637 40.57843
# Shear Modulus (GPa) = 34.93892 20.79108 27.86500
#
# Velocity S-wave (km/s) = 4.02577 3.10551 3.59521
# Velocity P-wave (km/s) = 6.26313 5.73470 6.00473
#
# Compressibility (1/GPa) = 0.02632931
#
# Stress axis : x y z
#
# Youngs Moduli (GPa) = 56.13422 100.79613 29.20337
#
# Poissons Ratio (x) = -0.18306 0.31588
# Poissons Ratio (y) = -0.10195 0.25769
# Poissons Ratio (z) = 0.60718 0.88942
#
# Static dielectric constant tensor:
#      x y z
#    x 1.865780 0.000000 0.000000 
#    y 0.000000 1.825940 0.000000 
#    z 0.000000 0.000000 1.913050 
# 
# From -- ./inp_files/1481.got.cif
#   From: 2010.05.17/outbox.ucp.g08.bks.cvg/sg29_1_cif.got.tgz:1481.got - 2010.06.11 15:24:14.
