data_PCOD9341137
_publ_section_title
;
Structure prediction by ZEFSAII (Michael W. Deem and Ramdas Pophale) SiO2 
 PCOD9341137
Probable space group: P C A 21
;
_chemical_formula_sum "Si O2"
_cell_formula_units_Z 28
_cell_length_a 9.669606
_cell_length_b 11.270843
_cell_length_c 10.931775
_cell_angle_alpha 90.000000
_cell_angle_beta 90.000000
_cell_angle_gamma 90.000000
_cell_volume 1191.395247
_symmetry_space_group_name_H-M "P C A 21"
_symmetry_group_IT_number 29
_symmetry_cell_setting 'orthorhombic'
loop_
_space_group_symop_operation_xyz
x,y,z
-x,-y,1/2+z
1/2-x,y,1/2+z
1/2+x,-y,z
loop_
_atom_site_type_symbol
_atom_site_label
_atom_site_fract_x
_atom_site_fract_y
_atom_site_fract_z
Si Si1 0.009057 0.519508 0.691230
Si Si2 0.904871 0.290644 0.389363
Si Si3 0.765495 0.496220 0.534090
Si Si4 0.648333 0.836451 0.299962
Si Si5 0.991742 0.875772 0.543743
Si Si6 0.236974 0.946370 0.939117
Si Si7 0.606726 0.682393 0.854503
O O1 0.074998 0.621347 0.775009
O O2 0.106336 0.511786 0.571404
O O3 0.013784 0.397450 0.766821
O O4 0.852854 0.541493 0.650764
O O5 0.835337 0.372062 0.493605
O O6 0.810641 0.174838 0.376170
O O7 0.057754 0.232999 0.402508
O O8 0.797939 0.589433 0.428357
O O9 0.561086 0.841719 0.176942
O O10 0.791824 0.768613 0.280898
O O11 0.684709 0.966848 0.346236
O O12 0.972743 0.764770 0.451539
O O13 0.150034 0.915586 0.541866
O O14 0.891809 0.980197 0.493274
#
# Coordination Sequence:
#
# PCOD9341137 Si02
#       7
#     4   4   4   4   4   4   4
#     4  11  24  42  69 102 135 178 223 281 348 401
#     4  11  25  42  70  99 138 172 233 281 330 415
#     4  11  25  43  69 101 137 177 224 283 348 403
#     4  11  24  47  70  96 138 188 224 285 347 403
#     4  11  25  43  74  95 142 179 232 282 348 400
#     4  11  26  46  64 106 134 179 230 289 327 420
#     4  10  23  43  68 101 138 175 232 277 342 420
#
# _framework density 23.501857999999999
#
# number of rings (size 3 to 8) (size 9 to 14) (size 15 to 20)
#    0.000    1.143    1.429    3.429    8.000    3.429 
#    0.000    0.000    0.000    0.000    0.000    0.000 
#    0.000    0.000    0.000    0.000    0.000    0.000 
#
# Total GULP energy -156783.374644 kJ/mol
# GULP energy per Si atom -5599.406237 kJ/mol
# Density = 2.344837 g / cm^3
# Si number density = 23.501858 Si / 1000 Ang^3
#
#
#
# Elastic Constant Matrix: (Units=GPa)
#
#
# Indices 1 2 3 4 5 6 
#
# 1 71.5568 19.7015 -0.2545 0.0000 0.0000 0.0000
# 2 19.7015 130.6742 25.9199 0.0000 0.0000 0.0000
# 3 -0.2545 25.9199 52.9244 0.0000 0.0000 0.0000
# 4 0.0000 0.0000 0.0000 21.1335 0.0000 0.0000
# 5 0.0000 0.0000 0.0000 0.0000 33.0562 0.0000
# 6 0.0000 0.0000 0.0000 0.0000 0.0000 44.2140
#
#
#
# Elastic Compliance Matrix: (Units=1/GPa)
#
#
# Indices 1 2 3 4 5 6 
#
# 1 0.014658 -0.002463 0.001277 0.000000 0.000000 0.000000
# 2 -0.002463 0.008890 -0.004366 0.000000 0.000000 0.000000
# 3 0.001277 -0.004366 0.021039 0.000000 0.000000 0.000000
# 4 0.000000 0.000000 0.000000 0.047318 0.000000 0.000000
# 5 0.000000 0.000000 0.000000 0.000000 0.030252 0.000000
# 6 0.000000 0.000000 0.000000 0.000000 0.000000 0.022617
#
#
# Mechanical properties :
#
#
# Convention : Reuss Voigt Hill
#
# Bulk Modulus (GPa) = 29.86628 38.43215 34.14922
# Shear Modulus (GPa) = 29.93318 33.66663 31.79991
#
# Velocity S-wave (km/s) = 3.57270 3.78896 3.68241
# Velocity P-wave (km/s) = 5.45477 5.96070 5.71334
#
# Compressibility (1/GPa) = 0.03348257
#
# Stress axis : x y z
#
# Youngs Moduli (GPa) = 68.22390 112.48657 47.53046
#
# Poissons Ratio (x) = 0.27707 -0.06069
# Poissons Ratio (y) = 0.16805 0.20750
# Poissons Ratio (z) = -0.08711 0.49109
#
# Static dielectric constant tensor:
#      x y z
#    x 1.863540 0.000000 0.000000 
#    y 0.000000 1.890120 0.000000 
#    z 0.000000 0.000000 1.882430 
# 
# From -- ./inp_files/2851.got.cif
#   From: 2010.05.17/outbox.cif.g08.bks.cpg/sg29_2_cif.got.tgz:2851.got - 2010.06.04 01:19:37.
