data_PCOD9341001
_publ_section_title
;
Structure prediction by ZEFSAII (Michael W. Deem and Ramdas Pophale) SiO2 
 PCOD9341001
Probable space group: P C A 21
;
_chemical_formula_sum "Si O2"
_cell_formula_units_Z 32
_cell_length_a 18.240579
_cell_length_b 8.287445
_cell_length_c 8.508722
_cell_angle_alpha 90.000000
_cell_angle_beta 90.000000
_cell_angle_gamma 90.000000
_cell_volume 1286.244745
_symmetry_space_group_name_H-M "P C A 21"
_symmetry_group_IT_number 29
_symmetry_cell_setting 'orthorhombic'
loop_
_space_group_symop_operation_xyz
x,y,z
-x,-y,1/2+z
1/2-x,y,1/2+z
1/2+x,-y,z
loop_
_atom_site_type_symbol
_atom_site_label
_atom_site_fract_x
_atom_site_fract_y
_atom_site_fract_z
Si Si1 0.853177 0.858294 0.301870
Si Si2 0.511686 0.460994 0.931704
Si Si3 0.924176 0.332719 0.728750
Si Si4 0.769172 0.957097 0.996900
Si Si5 0.849055 0.477420 0.253286
Si Si6 0.785049 0.334941 0.932217
Si Si7 0.004608 0.014757 0.648393
Si Si8 0.083713 0.162946 0.368407
O O1 0.811207 0.888154 0.463639
O O2 0.859499 0.669579 0.263831
O O3 0.929574 0.947940 0.272115
O O4 0.797706 0.930701 0.172197
O O5 0.476098 0.626800 0.876405
O O6 0.572931 0.406272 0.805995
O O7 0.445336 0.332598 0.934456
O O8 0.553478 0.461669 0.096431
O O9 0.947400 0.163219 0.655826
O O10 0.842090 0.342755 0.787745
O O11 0.830165 0.863893 0.889652
O O12 0.770231 0.147064 0.963458
O O13 0.821531 0.415518 0.085203
O O14 0.788454 0.423561 0.379482
O O15 0.048046 0.026940 0.484707
O O16 0.955577 0.865953 0.702680
#
# Coordination Sequence:
#
# PCOD9341001 Si02
#       8
#     4   4   4   4   4   4   4   4
#     4  11  25  45  68  94 137 175 223 275 339 403
#     4  11  25  42  69 100 136 176 226 275 339 401
#     4  11  23  44  67  99 135 175 221 278 333 401
#     4  11  25  45  67  99 131 180 221 279 336 404
#     4  12  26  46  69 101 135 181 227 283 340 408
#     4  12  26  44  72  97 138 176 231 280 341 405
#     4  10  22  44  64  96 131 169 219 272 329 400
#     4  10  24  40  68  96 133 170 222 270 335 396
#
# _framework density 24.878625
#
# number of rings (size 3 to 8) (size 9 to 14) (size 15 to 20)
#    0.000    1.000    2.500    3.000   10.500    2.000 
#    0.000    0.000    0.000    0.000    0.000    0.000 
#    0.000    0.000    0.000    0.000    0.000    0.000 
#
# Total GULP energy -179275.761538 kJ/mol
# GULP energy per Si atom -5602.367548 kJ/mol
# Density = 2.482200 g / cm^3
# Si number density = 24.878625 Si / 1000 Ang^3
#
#
#
# Elastic Constant Matrix: (Units=GPa)
#
#
# Indices 1 2 3 4 5 6 
#
# 1 130.5106 16.7066 21.4560 0.0000 0.0000 0.0000
# 2 16.7066 72.3151 8.1485 0.0000 0.0000 0.0000
# 3 21.4560 8.1485 43.3652 0.0000 0.0000 0.0000
# 4 0.0000 0.0000 0.0000 28.8174 0.0000 0.0000
# 5 0.0000 0.0000 0.0000 0.0000 56.4184 0.0000
# 6 0.0000 0.0000 0.0000 0.0000 0.0000 30.0475
#
#
#
# Elastic Compliance Matrix: (Units=1/GPa)
#
#
# Indices 1 2 3 4 5 6 
#
# 1 0.008502 -0.001522 -0.003920 0.000000 0.000000 0.000000
# 2 -0.001522 0.014400 -0.001953 0.000000 0.000000 0.000000
# 3 -0.003920 -0.001953 0.025367 0.000000 0.000000 0.000000
# 4 0.000000 0.000000 0.000000 0.034701 0.000000 0.000000
# 5 0.000000 0.000000 0.000000 0.000000 0.017725 0.000000
# 6 0.000000 0.000000 0.000000 0.000000 0.000000 0.033281
#
#
# Mechanical properties :
#
#
# Convention : Reuss Voigt Hill
#
# Bulk Modulus (GPa) = 29.87065 37.64589 33.75827
# Shear Modulus (GPa) = 31.26474 36.38199 33.82336
#
# Velocity S-wave (km/s) = 3.54883 3.82826 3.69119
# Velocity P-wave (km/s) = 5.36888 5.89113 5.63606
#
# Compressibility (1/GPa) = 0.03347768
#
# Stress axis : x y z
#
# Youngs Moduli (GPa) = 117.62502 69.44401 39.42201
#
# Poissons Ratio (x) = 0.10572 0.15455
# Poissons Ratio (y) = 0.17906 0.07698
# Poissons Ratio (z) = 0.46113 0.13560
#
# Static dielectric constant tensor:
#      x y z
#    x 1.915310 0.000000 0.000000 
#    y 0.000000 1.953110 0.000000 
#    z 0.000000 0.000000 2.042130 
# 
# From -- ./inp_files/2138.got.cif
#   From: 2010.05.17/outbox.cif.g08.bks.cpg/sg29_2_cif.got.tgz:2138.got - 2010.06.04 01:19:37.
