data_PCOD9341125
_publ_section_title
;
Structure prediction by ZEFSAII (Michael W. Deem and Ramdas Pophale) SiO2 
 PCOD9341125
Probable space group: P C A 21
;
_chemical_formula_sum "Si O2"
_cell_formula_units_Z 24
_cell_length_a 14.418678
_cell_length_b 7.907538
_cell_length_c 9.282851
_cell_angle_alpha 90.000000
_cell_angle_beta 90.000000
_cell_angle_gamma 90.000000
_cell_volume 1058.395806
_symmetry_space_group_name_H-M "P C A 21"
_symmetry_group_IT_number 29
_symmetry_cell_setting 'orthorhombic'
loop_
_space_group_symop_operation_xyz
x,y,z
-x,-y,1/2+z
1/2-x,y,1/2+z
1/2+x,-y,z
loop_
_atom_site_type_symbol
_atom_site_label
_atom_site_fract_x
_atom_site_fract_y
_atom_site_fract_z
Si Si1 0.545115 0.522719 0.707270
Si Si2 0.051567 0.992718 0.124479
Si Si3 0.706003 0.224137 0.271687
Si Si4 0.715014 0.468078 0.524840
Si Si5 0.590798 0.147434 0.824058
Si Si6 0.905364 0.642142 0.500793
O O1 0.631857 0.563872 0.604100
O O2 0.569351 0.338414 0.774784
O O3 0.543418 0.641322 0.846322
O O4 0.455877 0.491039 0.608190
O O5 0.955844 0.026192 0.206497
O O6 0.125319 0.901746 0.227247
O O7 0.088118 0.176411 0.074797
O O8 0.045415 0.886476 0.978255
O O9 0.677234 0.360261 0.391549
O O10 0.741564 0.331286 0.134837
O O11 0.798306 0.129769 0.329945
O O12 0.799722 0.585585 0.477027
#
# Coordination Sequence:
#
# PCOD9341125 Si02
#       6
#     4   4   4   4   4   4
#     4  10  24  42  66  94 132 179 221 271 339 397
#     4  11  25  39  69  98 135 170 224 285 324 393
#     4  11  22  44  68  89 129 182 220 260 340 406
#     4  11  22  44  69  88 128 182 220 263 334 409
#     4  10  23  43  62  96 126 177 219 266 338 399
#     4  11  24  42  64 103 132 168 230 279 329 390
#
# _framework density 22.675827000000002
#
# number of rings (size 3 to 8) (size 9 to 14) (size 15 to 20)
#    0.000    1.333    5.000    0.000    9.333    2.667 
#    0.000    0.000    0.000    0.000    0.000    0.000 
#    0.000    0.000    0.000    0.000    0.000    0.000 
#
# Total GULP energy -134362.259088 kJ/mol
# GULP energy per Si atom -5598.427462 kJ/mol
# Density = 2.262422 g / cm^3
# Si number density = 22.675827 Si / 1000 Ang^3
#
#
#
# Elastic Constant Matrix: (Units=GPa)
#
#
# Indices 1 2 3 4 5 6 
#
# 1 94.9397 23.5800 25.4575 0.0000 0.0000 0.0000
# 2 23.5800 58.6298 22.2609 0.0000 0.0000 0.0000
# 3 25.4575 22.2609 118.4644 0.0000 0.0000 0.0000
# 4 0.0000 0.0000 0.0000 42.2979 0.0000 0.0000
# 5 0.0000 0.0000 0.0000 0.0000 35.6664 0.0000
# 6 0.0000 0.0000 0.0000 0.0000 0.0000 31.2243
#
#
#
# Elastic Compliance Matrix: (Units=1/GPa)
#
#
# Indices 1 2 3 4 5 6 
#
# 1 0.012051 -0.004160 -0.001808 0.000000 0.000000 0.000000
# 2 -0.004160 0.019803 -0.002827 0.000000 0.000000 0.000000
# 3 -0.001808 -0.002827 0.009361 0.000000 0.000000 0.000000
# 4 0.000000 0.000000 0.000000 0.023642 0.000000 0.000000
# 5 0.000000 0.000000 0.000000 0.000000 0.028038 0.000000
# 6 0.000000 0.000000 0.000000 0.000000 0.000000 0.032026
#
#
# Mechanical properties :
#
#
# Convention : Reuss Voigt Hill
#
# Bulk Modulus (GPa) = 42.32948 46.07007 44.19977
# Shear Modulus (GPa) = 33.24772 35.22010 34.23391
#
# Velocity S-wave (km/s) = 3.83328 3.94534 3.88971
# Velocity P-wave (km/s) = 6.18868 6.41212 6.30139
#
# Compressibility (1/GPa) = 0.02362420
#
# Stress axis : x y z
#
# Youngs Moduli (GPa) = 82.98016 50.49790 106.82466
#
# Poissons Ratio (x) = 0.21009 0.19313
# Poissons Ratio (y) = 0.34522 0.30201
# Poissons Ratio (z) = 0.15002 0.14277
#
# Static dielectric constant tensor:
#      x y z
#    x 1.835600 0.000000 0.000000 
#    y 0.000000 1.841520 0.000000 
#    z 0.000000 0.000000 1.855600 
# 
# From -- ./inp_files/1708.got.cif
#   From: 2010.05.17/outbox.cif.g08.bks.cpg/sg29_1_cif.got.tgz:1708.got - 2010.06.04 01:19:37.
