data_PCOD9341652
_publ_section_title
;
Structure prediction by ZEFSAII (Michael W. Deem and Ramdas Pophale) SiO2 
 PCOD9341652
Probable space group: P C A 21
;
_chemical_formula_sum "Si O2"
_cell_formula_units_Z 32
_cell_length_a 14.555258
_cell_length_b 9.922375
_cell_length_c 8.396475
_cell_angle_alpha 90.000000
_cell_angle_beta 90.000000
_cell_angle_gamma 90.000000
_cell_volume 1212.641826
_symmetry_space_group_name_H-M "P C A 21"
_symmetry_group_IT_number 29
_symmetry_cell_setting 'orthorhombic'
loop_
_space_group_symop_operation_xyz
x,y,z
-x,-y,1/2+z
1/2-x,y,1/2+z
1/2+x,-y,z
loop_
_atom_site_type_symbol
_atom_site_label
_atom_site_fract_x
_atom_site_fract_y
_atom_site_fract_z
Si Si1 0.219194 0.699402 0.821880
Si Si2 0.466687 0.444293 0.152781
Si Si3 0.117955 0.774143 0.137576
Si Si4 0.405685 0.024551 0.839144
Si Si5 0.722634 0.579432 0.657626
Si Si6 0.591838 0.642257 0.007654
Si Si7 0.200286 0.142168 0.845177
Si Si8 0.416884 0.903852 0.181873
O O1 0.325161 0.730564 0.792725
O O2 0.212885 0.544459 0.776866
O O3 0.153008 0.781006 0.702656
O O4 0.185361 0.751992 0.990578
O O5 0.533203 0.322730 0.104476
O O6 0.370990 0.431744 0.057087
O O7 0.513345 0.588727 0.126103
O O8 0.445446 0.408989 0.337144
O O9 0.097062 0.926463 0.184477
O O10 0.303297 0.084158 0.874783
O O11 0.433024 0.941907 0.997958
O O12 0.491266 0.118543 0.787953
O O13 0.818292 0.566010 0.571446
O O14 0.718708 0.725261 0.738813
O O15 0.139132 0.030753 0.757804
O O16 0.134368 0.207781 0.982314
#
# Coordination Sequence:
#
# PCOD9341652 Si02
#       8
#     4   4   4   4   4   4   4   4
#     4  12  27  48  83 118 164 211 281 345 426 496
#     4  11  26  49  79 114 166 213 276 335 424 501
#     4  12  25  49  80 121 161 223 276 356 416 514
#     4  12  27  49  85 118 171 219 287 345 427 515
#     4  11  26  47  80 121 165 212 274 346 427 498
#     4  11  25  48  77 118 161 222 270 347 411 509
#     4  11  26  49  79 115 166 216 281 345 426 497
#     4  12  28  51  79 123 160 222 279 351 421 506
#
# _framework density 26.388666000000001
#
# number of rings (size 3 to 8) (size 9 to 14) (size 15 to 20)
#    0.000    0.500    2.500    5.250    0.000   11.000 
#    0.000    0.000    0.000    0.000    0.000    0.000 
#    0.000    0.000    0.000    0.000    0.000    0.000 
#
# Total GULP energy -179106.710267 kJ/mol
# GULP energy per Si atom -5597.084696 kJ/mol
# Density = 2.632860 g / cm^3
# Si number density = 26.388666 Si / 1000 Ang^3
#
#
#
# Elastic Constant Matrix: (Units=GPa)
#
#
# Indices 1 2 3 4 5 6 
#
# 1 127.5788 21.4905 29.0945 0.0000 0.0000 0.0000
# 2 21.4905 98.5301 31.8038 0.0000 0.0000 0.0000
# 3 29.0945 31.8038 102.7984 0.0000 0.0000 0.0000
# 4 0.0000 0.0000 0.0000 30.9074 0.0000 0.0000
# 5 0.0000 0.0000 0.0000 0.0000 50.5024 0.0000
# 6 0.0000 0.0000 0.0000 0.0000 0.0000 52.6419
#
#
#
# Elastic Compliance Matrix: (Units=1/GPa)
#
#
# Indices 1 2 3 4 5 6 
#
# 1 0.008504 -0.001198 -0.002036 0.000000 0.000000 0.000000
# 2 -0.001198 0.011444 -0.003202 0.000000 0.000000 0.000000
# 3 -0.002036 -0.003202 0.011295 0.000000 0.000000 0.000000
# 4 0.000000 0.000000 0.000000 0.032355 0.000000 0.000000
# 5 0.000000 0.000000 0.000000 0.000000 0.019801 0.000000
# 6 0.000000 0.000000 0.000000 0.000000 0.000000 0.018996
#
#
# Mechanical properties :
#
#
# Convention : Reuss Voigt Hill
#
# Bulk Modulus (GPa) = 54.43150 54.85387 54.64269
# Shear Modulus (GPa) = 41.18958 43.24492 42.21725
#
# Velocity S-wave (km/s) = 3.95509 4.05256 4.00412
# Velocity P-wave (km/s) = 6.44427 6.53680 6.49070
#
# Compressibility (1/GPa) = 0.01837172
#
# Stress axis : x y z
#
# Youngs Moduli (GPa) = 117.58568 87.38370 88.53763
#
# Poissons Ratio (x) = 0.10465 0.18030
# Poissons Ratio (y) = 0.14082 0.28346
# Poissons Ratio (z) = 0.23946 0.27976
#
# Static dielectric constant tensor:
#      x y z
#    x 2.155470 0.000000 0.000000 
#    y 0.000000 2.112700 0.000000 
#    z 0.000000 0.000000 2.143530 
# 
# From -- ./inp_files/1917.got.cif
#   From: 2010.05.17/outbox.cif.g08.bks.cpg/sg29_1_cif.got.tgz:1917.got - 2010.06.04 01:19:37.
