data_PCOD9341485
_publ_section_title
;
Structure prediction by ZEFSAII (Michael W. Deem and Ramdas Pophale) SiO2 
 PCOD9341485
Probable space group: P C A 21
;
_chemical_formula_sum "Si O2"
_cell_formula_units_Z 24
_cell_length_a 8.870137
_cell_length_b 8.992725
_cell_length_c 12.138507
_cell_angle_alpha 90.000000
_cell_angle_beta 90.000000
_cell_angle_gamma 90.000000
_cell_volume 968.248680
_symmetry_space_group_name_H-M "P C A 21"
_symmetry_group_IT_number 29
_symmetry_cell_setting 'orthorhombic'
loop_
_space_group_symop_operation_xyz
x,y,z
-x,-y,1/2+z
1/2-x,y,1/2+z
1/2+x,-y,z
loop_
_atom_site_type_symbol
_atom_site_label
_atom_site_fract_x
_atom_site_fract_y
_atom_site_fract_z
Si Si1 0.400185 0.818203 0.834220
Si Si2 0.512538 0.738666 0.202447
Si Si3 0.408541 0.933956 0.393136
Si Si4 0.214021 0.405301 0.033254
Si Si5 0.321985 0.742642 0.605169
Si Si6 0.543677 0.494635 0.384776
O O1 0.256572 0.923672 0.842475
O O2 0.429338 0.788943 0.706319
O O3 0.352795 0.652420 0.872774
O O4 0.529275 0.900329 0.902211
O O5 0.514492 0.857597 0.300758
O O6 0.650812 0.717652 0.117477
O O7 0.355860 0.769671 0.136847
O O8 0.511631 0.586322 0.274984
O O9 0.382427 0.839651 0.503579
O O10 0.184711 0.565545 0.089292
O O11 0.380535 0.406425 0.981339
O O12 0.108277 0.418052 0.926291
#
# Coordination Sequence:
#
# PCOD9341485 Si02
#       6
#     4   4   4   4   4   4
#     4  11  25  45  69 102 148 195 244 309 364 444
#     4  11  24  44  74 107 146 197 249 314 382 442
#     4  11  25  48  69 103 149 197 242 304 370 448
#     4  12  22  41  72 105 141 194 241 306 381 432
#     4  11  22  46  72 101 152 190 244 313 381 427
#     4  12  24  42  72 108 146 187 254 314 372 443
#
# _framework density 24.787019000000001
#
# number of rings (size 3 to 8) (size 9 to 14) (size 15 to 20)
#    0.000    0.667    6.667    1.000    0.000    5.333 
#    3.000    0.000    0.000    0.000    0.000    0.000 
#    0.000    0.000    0.000    0.000    0.000    0.000 
#
# Total GULP energy -133976.535509 kJ/mol
# GULP energy per Si atom -5582.355646 kJ/mol
# Density = 2.473060 g / cm^3
# Si number density = 24.787019 Si / 1000 Ang^3
#
#
#
# Elastic Constant Matrix: (Units=GPa)
#
#
# Indices 1 2 3 4 5 6 
#
# 1 65.6311 45.1961 19.1735 0.0000 0.0000 0.0000
# 2 45.1961 102.0718 50.6100 0.0000 0.0000 0.0000
# 3 19.1735 50.6100 124.4376 0.0000 0.0000 0.0000
# 4 0.0000 0.0000 0.0000 29.2743 0.0000 0.0000
# 5 0.0000 0.0000 0.0000 0.0000 13.6001 0.0000
# 6 0.0000 0.0000 0.0000 0.0000 0.0000 38.8913
#
#
#
# Elastic Compliance Matrix: (Units=1/GPa)
#
#
# Indices 1 2 3 4 5 6 
#
# 1 0.021972 -0.010084 0.000716 0.000000 0.000000 0.000000
# 2 -0.010084 0.016899 -0.005319 0.000000 0.000000 0.000000
# 3 0.000716 -0.005319 0.010089 0.000000 0.000000 0.000000
# 4 0.000000 0.000000 0.000000 0.034160 0.000000 0.000000
# 5 0.000000 0.000000 0.000000 0.000000 0.073529 0.000000
# 6 0.000000 0.000000 0.000000 0.000000 0.000000 0.025713
#
#
# Mechanical properties :
#
#
# Convention : Reuss Voigt Hill
#
# Bulk Modulus (GPa) = 51.05788 58.01108 54.53448
# Shear Modulus (GPa) = 22.90792 28.16385 25.53589
#
# Velocity S-wave (km/s) = 3.04335 3.37446 3.21317
# Velocity P-wave (km/s) = 5.74392 6.21589 5.98456
#
# Compressibility (1/GPa) = 0.01958562
#
# Stress axis : x y z
#
# Youngs Moduli (GPa) = 45.51342 59.17352 99.11415
#
# Poissons Ratio (x) = 0.59668 -0.07093
# Poissons Ratio (y) = 0.45894 0.52724
# Poissons Ratio (z) = -0.03257 0.31477
#
# Static dielectric constant tensor:
#      x y z
#    x 2.017200 0.000000 0.000000 
#    y 0.000000 1.969280 0.000000 
#    z 0.000000 0.000000 2.031370 
# 
# From -- ./inp_files/4218.got.cif
#   From: 2010.05.17/outbox.cif.g08.bks.cpg/sg29_3_cif.got.tgz:4218.got - 2010.06.04 01:19:37.
