data_PCOD9341441
_publ_section_title
;
Structure prediction by ZEFSAII (Michael W. Deem and Ramdas Pophale) SiO2 
 PCOD9341441
Probable space group: P C A 21
;
_chemical_formula_sum "Si O2"
_cell_formula_units_Z 32
_cell_length_a 16.199639
_cell_length_b 6.732730
_cell_length_c 15.008670
_cell_angle_alpha 90.000000
_cell_angle_beta 90.000000
_cell_angle_gamma 90.000000
_cell_volume 1636.962550
_symmetry_space_group_name_H-M "P C A 21"
_symmetry_group_IT_number 29
_symmetry_cell_setting 'orthorhombic'
loop_
_space_group_symop_operation_xyz
x,y,z
-x,-y,1/2+z
1/2-x,y,1/2+z
1/2+x,-y,z
loop_
_atom_site_type_symbol
_atom_site_label
_atom_site_fract_x
_atom_site_fract_y
_atom_site_fract_z
Si Si1 0.158913 0.294566 0.434590
Si Si2 0.045670 0.115242 0.704805
Si Si3 0.785665 0.024208 0.513858
Si Si4 0.535393 0.862213 0.049951
Si Si5 0.565556 0.057295 0.372717
Si Si6 0.690939 0.181135 0.678844
Si Si7 0.230749 0.686974 0.362393
Si Si8 0.563962 0.494554 0.594286
O O1 0.216340 0.136059 0.485733
O O2 0.214950 0.458983 0.387184
O O3 0.100181 0.402481 0.506012
O O4 0.103594 0.163797 0.367663
O O5 0.050955 0.337635 0.668068
O O6 0.004261 0.098366 0.800669
O O7 0.134562 0.008735 0.703309
O O8 0.989184 0.992823 0.635303
O O9 0.873403 0.917855 0.519529
O O10 0.760441 0.114343 0.609127
O O11 0.781022 0.197497 0.439680
O O12 0.517766 0.632524 0.072940
O O13 0.471997 0.916683 0.970951
O O14 0.640884 0.208969 0.360264
O O15 0.726715 0.277456 0.767896
O O16 0.631225 0.336271 0.628785
#
# Coordination Sequence:
#
# PCOD9341441 Si02
#       8
#     4   4   4   4   4   4   4   4
#     4  11  21  45  68  89 131 178 220 272 338 400
#     4  11  23  43  66  94 133 174 216 280 338 399
#     4  11  23  42  65  95 133 176 221 277 337 401
#     4  11  23  41  64  98 131 174 228 273 336 400
#     4  11  23  41  66  93 133 173 217 278 338 397
#     4  11  23  41  66  96 131 171 226 275 339 401
#     4  11  23  41  65  97 131 173 224 277 334 402
#     4  11  21  44  68  90 133 179 220 278 334 400
#
# _framework density 19.548401999999999
#
# number of rings (size 3 to 8) (size 9 to 14) (size 15 to 20)
#    0.000    1.000    5.000    3.000    0.000    6.000 
#    6.750    0.000    0.000    0.000    0.000    0.000 
#    0.000    0.000    0.000    0.000    0.000    0.000 
#
# Total GULP energy -178933.329296 kJ/mol
# GULP energy per Si atom -5591.666540 kJ/mol
# Density = 1.950391 g / cm^3
# Si number density = 19.548402 Si / 1000 Ang^3
#
#
#
# Elastic Constant Matrix: (Units=GPa)
#
#
# Indices 1 2 3 4 5 6 
#
# 1 52.4706 14.0592 6.8562 0.0000 0.0000 0.0000
# 2 14.0592 111.5461 22.1423 0.0000 0.0000 0.0000
# 3 6.8562 22.1423 82.7256 0.0000 0.0000 0.0000
# 4 0.0000 0.0000 0.0000 26.2538 0.0000 0.0000
# 5 0.0000 0.0000 0.0000 0.0000 39.2706 0.0000
# 6 0.0000 0.0000 0.0000 0.0000 0.0000 16.6902
#
#
#
# Elastic Compliance Matrix: (Units=1/GPa)
#
#
# Indices 1 2 3 4 5 6 
#
# 1 0.019807 -0.002292 -0.001028 0.000000 0.000000 0.000000
# 2 -0.002292 0.009733 -0.002415 0.000000 0.000000 0.000000
# 3 -0.001028 -0.002415 0.012820 0.000000 0.000000 0.000000
# 4 0.000000 0.000000 0.000000 0.038090 0.000000 0.000000
# 5 0.000000 0.000000 0.000000 0.000000 0.025464 0.000000
# 6 0.000000 0.000000 0.000000 0.000000 0.000000 0.059915
#
#
# Mechanical properties :
#
#
# Convention : Reuss Voigt Hill
#
# Bulk Modulus (GPa) = 32.37422 36.98418 34.67920
# Shear Modulus (GPa) = 26.65291 30.02191 28.33741
#
# Velocity S-wave (km/s) = 3.69647 3.92315 3.81149
# Velocity P-wave (km/s) = 5.90047 6.28345 6.09497
#
# Compressibility (1/GPa) = 0.03088877
#
# Stress axis : x y z
#
# Youngs Moduli (GPa) = 50.48757 102.74050 78.00426
#
# Poissons Ratio (x) = 0.23552 0.08019
# Poissons Ratio (y) = 0.11574 0.18840
# Poissons Ratio (z) = 0.05190 0.24814
#
# Static dielectric constant tensor:
#      x y z
#    x 1.662460 0.000000 0.000000 
#    y 0.000000 1.683070 0.000000 
#    z 0.000000 0.000000 1.654250 
# 
# From -- ./inp_files/4824.got.cif
#   From: 2010.05.17/outbox.cif.g08.bks.cpg/sg29_3_cif.got.tgz:4824.got - 2010.06.04 01:19:37.
