data_PCOD9341784
_publ_section_title
;
Structure prediction by ZEFSAII (Michael W. Deem and Ramdas Pophale) SiO2 
 PCOD9341784
Probable space group: P C A 21
;
_chemical_formula_sum "Si O2"
_cell_formula_units_Z 24
_cell_length_a 12.000000
_cell_length_b 9.000000
_cell_length_c 9.000000
_cell_angle_alpha 90.000000
_cell_angle_beta 90.000000
_cell_angle_gamma 90.000000
_cell_volume 972.000000
_symmetry_space_group_name_H-M "P C A 21"
_symmetry_group_IT_number 29
_symmetry_cell_setting 'orthorhombic'
loop_
_space_group_symop_operation_xyz
x,y,z
-x,-y,1/2+z
1/2-x,y,1/2+z
1/2+x,-y,z
loop_
_atom_site_type_symbol
_atom_site_label
_atom_site_fract_x
_atom_site_fract_y
_atom_site_fract_z
Si Si1 0.740619 0.977564 0.584060
Si Si2 0.685626 0.461916 0.281914
Si Si3 0.503802 0.251197 0.390537
Si Si4 0.011218 0.940738 0.941365
Si Si5 0.381902 0.756122 0.217428
Si Si6 0.215093 0.345229 0.013134
O O1 0.616632 0.954173 0.502877
O O2 0.763956 0.804207 0.606341
O O3 0.865846 0.032612 0.523953
O O4 0.704403 0.103776 0.700580
O O5 0.589956 0.342857 0.298669
O O6 0.804932 0.380348 0.264395
O O7 0.688498 0.572250 0.422525
O O8 0.665271 0.542679 0.129602
O O9 0.554412 0.254858 0.559592
O O10 0.379699 0.310538 0.393556
O O11 0.493115 0.083972 0.333610
O O12 0.030716 0.794949 0.845198
#
# Coordination Sequence:
#
# PCOD9341784 Si02
#       6
#     4   4   4   4   4   4
#     4  10  25  46  70 112 143 194 251 310 365 449
#     4  12  26  49  70 106 151 194 248 310 380 452
#     4  10  25  45  65 111 137 194 249 302 374 448
#     4  10  23  43  76 102 147 185 252 305 367 433
#     4  11  23  46  73 103 143 195 246 312 369 444
#     4  11  28  45  74 104 151 196 248 305 381 450
#
# _framework density 24.691358000000001
#
# number of rings (size 3 to 8) (size 9 to 14) (size 15 to 20)
#    0.000    1.333    1.667    2.000    9.333    6.667 
#    0.000    0.000    0.000    0.000    0.000    0.000 
#    0.000    0.000    0.000    0.000    0.000    0.000 
#
# Total GULP energy -133760.058724 kJ/mol
# GULP energy per Si atom -5573.335780 kJ/mol
# Density = 2.463516 g / cm^3
# Si number density = 24.691358 Si / 1000 Ang^3
#
#
#
# Elastic Constant Matrix: (Units=GPa)
#
#
# Indices 1 2 3 4 5 6 
#
# 1 108.9470 34.7043 9.3246 0.0000 0.0000 0.0000
# 2 34.7043 62.3884 1.2678 0.0000 0.0000 0.0000
# 3 9.3246 1.2678 35.2371 0.0000 0.0000 0.0000
# 4 0.0000 0.0000 0.0000 57.4070 0.0000 0.0000
# 5 0.0000 0.0000 0.0000 0.0000 365.2543 0.0000
# 6 0.0000 0.0000 0.0000 0.0000 0.0000 21.7480
#
#
#
# Elastic Compliance Matrix: (Units=1/GPa)
#
#
# Indices 1 2 3 4 5 6 
#
# 1 0.011424 -0.006298 -0.002797 0.000000 0.000000 0.000000
# 2 -0.006298 0.019512 0.000965 0.000000 0.000000 0.000000
# 3 -0.002797 0.000965 0.029085 0.000000 0.000000 0.000000
# 4 0.000000 0.000000 0.000000 0.017419 0.000000 0.000000
# 5 0.000000 0.000000 0.000000 0.000000 0.002738 0.000000
# 6 0.000000 0.000000 0.000000 0.000000 0.000000 0.045981
#
#
# Mechanical properties :
#
#
# Convention : Reuss Voigt Hill
#
# Bulk Modulus (GPa) = 22.85134 33.01844 27.93489
# Shear Modulus (GPa) = 31.84572 99.63358 65.73965
#
# Velocity S-wave (km/s) = 3.59521 6.35918 5.16550
# Velocity P-wave (km/s) = 5.14868 8.20490 6.84943
#
# Compressibility (1/GPa) = 0.04376112
#
# Stress axis : x y z
#
# Youngs Moduli (GPa) = 87.53234 51.24939 34.38256
#
# Poissons Ratio (x) = 0.32277 0.09615
# Poissons Ratio (y) = 0.55129 -0.03316
# Poissons Ratio (z) = 0.24479 -0.04943
#
# Static dielectric constant tensor:
#      x y z
#    x 1.876230 0.000000 0.000000 
#    y 0.000000 1.969370 0.000000 
#    z 0.000000 0.000000 1.963530 
# 
# From -- ./inp_files/1406.got.cif
#   From: 2010.05.17/outbox.ucp.g08.bks.cvg/sg29_1_cif.got.tgz:1406.got - 2010.06.11 15:24:14.
