data_PCOD9341590
_publ_section_title
;
Structure prediction by ZEFSAII (Michael W. Deem and Ramdas Pophale) SiO2 
 PCOD9341590
Probable space group: P C A 21
;
_chemical_formula_sum "Si O2"
_cell_formula_units_Z 20
_cell_length_a 12.872878
_cell_length_b 4.899167
_cell_length_c 11.500085
_cell_angle_alpha 90.000000
_cell_angle_beta 90.000000
_cell_angle_gamma 90.000000
_cell_volume 725.268720
_symmetry_space_group_name_H-M "P C A 21"
_symmetry_group_IT_number 29
_symmetry_cell_setting 'orthorhombic'
loop_
_space_group_symop_operation_xyz
x,y,z
-x,-y,1/2+z
1/2-x,y,1/2+z
1/2+x,-y,z
loop_
_atom_site_type_symbol
_atom_site_label
_atom_site_fract_x
_atom_site_fract_y
_atom_site_fract_z
Si Si1 0.203783 0.695473 0.494490
Si Si2 0.506567 0.015333 0.840132
Si Si3 0.601197 0.535691 0.718259
Si Si4 0.668615 0.642525 0.292715
Si Si5 0.351570 0.200532 0.541269
O O1 0.122296 0.587095 0.590675
O O2 0.162624 0.638690 0.363579
O O3 0.295374 0.470320 0.497431
O O4 0.263248 0.965098 0.537177
O O5 0.573888 0.278024 0.799147
O O6 0.395195 0.147292 0.871638
O O7 0.520461 0.781139 0.741123
O O8 0.558162 0.892354 0.955708
O O9 0.711424 0.670112 0.757530
O O10 0.613477 0.713833 0.170194
#
# Coordination Sequence:
#
# PCOD9341590 Si02
#       5
#     4   4   4   4   4
#     4  11  24  46  75  98 151 193 242 312 380 434
#     4  12  25  46  73 108 149 190 255 308 379 456
#     4  11  25  48  67 106 147 193 248 314 371 455
#     4  11  26  46  77 106 147 203 248 310 393 441
#     4  11  24  46  72 106 148 191 253 308 367 466
#
# _framework density 27.575983999999998
#
# number of rings (size 3 to 8) (size 9 to 14) (size 15 to 20)
#    0.000    0.800    4.000    2.400    2.800    6.400 
#    3.600    0.000    0.000    0.000    0.000    0.000 
#    0.000    0.000    0.000    0.000    0.000    0.000 
#
# Total GULP energy -111951.348513 kJ/mol
# GULP energy per Si atom -5597.567426 kJ/mol
# Density = 2.751322 g / cm^3
# Si number density = 27.575984 Si / 1000 Ang^3
#
#
#
# Elastic Constant Matrix: (Units=GPa)
#
#
# Indices 1 2 3 4 5 6 
#
# 1 118.6095 42.4740 42.3941 0.0000 0.0000 0.0000
# 2 42.4740 177.2016 49.7265 0.0000 0.0000 0.0000
# 3 42.3941 49.7265 115.2053 0.0000 0.0000 0.0000
# 4 0.0000 0.0000 0.0000 44.6713 0.0000 0.0000
# 5 0.0000 0.0000 0.0000 0.0000 44.2777 0.0000
# 6 0.0000 0.0000 0.0000 0.0000 0.0000 44.3742
#
#
#
# Elastic Compliance Matrix: (Units=1/GPa)
#
#
# Indices 1 2 3 4 5 6 
#
# 1 0.010075 -0.001564 -0.003032 0.000000 0.000000 0.000000
# 2 -0.001564 0.006664 -0.002301 0.000000 0.000000 0.000000
# 3 -0.003032 -0.002301 0.010789 0.000000 0.000000 0.000000
# 4 0.000000 0.000000 0.000000 0.022386 0.000000 0.000000
# 5 0.000000 0.000000 0.000000 0.000000 0.022585 0.000000
# 6 0.000000 0.000000 0.000000 0.000000 0.000000 0.022536
#
#
# Mechanical properties :
#
#
# Convention : Reuss Voigt Hill
#
# Bulk Modulus (GPa) = 72.81421 75.57841 74.19631
# Shear Modulus (GPa) = 44.08934 45.09278 44.59106
#
# Velocity S-wave (km/s) = 4.00288 4.04817 4.02559
# Velocity P-wave (km/s) = 6.91565 7.02261 6.96934
#
# Compressibility (1/GPa) = 0.01373358
#
# Stress axis : x y z
#
# Youngs Moduli (GPa) = 99.25628 150.06432 92.68572
#
# Poissons Ratio (x) = 0.23469 0.28106
# Poissons Ratio (y) = 0.15523 0.21325
# Poissons Ratio (z) = 0.30099 0.34527
#
# Static dielectric constant tensor:
#      x y z
#    x 2.505060 0.000000 0.000000 
#    y 0.000000 2.073100 0.000000 
#    z 0.000000 0.000000 2.394760 
# 
# From -- ./inp_files/3281.got.cif
#   From: 2010.05.17/outbox.cif.g08.bks.cpg/sg29_2_cif.got.tgz:3281.got - 2010.06.04 01:19:37.
