data_PCOD9341454
_publ_section_title
;
Structure prediction by ZEFSAII (Michael W. Deem and Ramdas Pophale) SiO2 
 PCOD9341454
Probable space group: P C A 21
;
_chemical_formula_sum "Si O2"
_cell_formula_units_Z 24
_cell_length_a 17.217189
_cell_length_b 9.773963
_cell_length_c 5.262446
_cell_angle_alpha 90.000000
_cell_angle_beta 90.000000
_cell_angle_gamma 90.000000
_cell_volume 885.565298
_symmetry_space_group_name_H-M "P C A 21"
_symmetry_group_IT_number 29
_symmetry_cell_setting 'orthorhombic'
loop_
_space_group_symop_operation_xyz
x,y,z
-x,-y,1/2+z
1/2-x,y,1/2+z
1/2+x,-y,z
loop_
_atom_site_type_symbol
_atom_site_label
_atom_site_fract_x
_atom_site_fract_y
_atom_site_fract_z
Si Si1 0.965072 0.941490 0.080880
Si Si2 0.676866 0.633969 0.862474
Si Si3 0.717638 0.907984 0.441765
Si Si4 0.440862 0.689917 0.595842
Si Si5 0.084338 0.423925 0.354361
Si Si6 0.712619 0.312513 0.836752
O O1 0.872788 0.923120 0.026068
O O2 0.003491 0.805088 0.199254
O O3 0.992041 0.043899 0.305575
O O4 0.870516 0.627073 0.101196
O O5 0.737629 0.759560 0.882143
O O6 0.879962 0.645000 0.604020
O O7 0.730446 0.972262 0.165186
O O8 0.494301 0.604902 0.400439
O O9 0.368081 0.741641 0.441419
O O10 0.409750 0.584948 0.804951
O O11 0.288063 0.519863 0.366953
O O12 0.773864 0.270230 0.050169
#
# Coordination Sequence:
#
# PCOD9341454 Si02
#       6
#     4   4   4   4   4   4
#     4  12  30  53  78 112 158 217 280 331 387 475
#     4  11  22  39  65 108 149 180 233 308 385 472
#     4  12  24  45  79 114 147 194 260 338 400 454
#     4  11  25  47  71 104 153 196 242 313 392 464
#     4  11  24  40  73 112 145 187 239 308 406 481
#     4  11  23  38  60  94 136 182 226 282 366 456
#
# _framework density 27.101333
#
# number of rings (size 3 to 8) (size 9 to 14) (size 15 to 20)
#    0.000    0.667    0.000    9.000    0.000   10.667 
#    0.000    5.000    0.000    0.000    0.000    0.000 
#    0.000    0.000    0.000    0.000    0.000    0.000 
#
# Total GULP energy -134363.088710 kJ/mol
# GULP energy per Si atom -5598.462030 kJ/mol
# Density = 2.703965 g / cm^3
# Si number density = 27.101333 Si / 1000 Ang^3
#
#
#
# Elastic Constant Matrix: (Units=GPa)
#
#
# Indices 1 2 3 4 5 6 
#
# 1 188.4147 25.7453 69.6404 0.0000 0.0000 0.0000
# 2 25.7453 77.4079 6.6327 0.0000 0.0000 0.0000
# 3 69.6404 6.6327 198.2514 0.0000 0.0000 0.0000
# 4 0.0000 0.0000 0.0000 15.1749 0.0000 0.0000
# 5 0.0000 0.0000 0.0000 0.0000 55.9870 0.0000
# 6 0.0000 0.0000 0.0000 0.0000 0.0000 41.7846
#
#
#
# Elastic Compliance Matrix: (Units=1/GPa)
#
#
# Indices 1 2 3 4 5 6 
#
# 1 0.006376 -0.001934 -0.002175 0.000000 0.000000 0.000000
# 2 -0.001934 0.013542 0.000226 0.000000 0.000000 0.000000
# 3 -0.002175 0.000226 0.005800 0.000000 0.000000 0.000000
# 4 0.000000 0.000000 0.000000 0.065898 0.000000 0.000000
# 5 0.000000 0.000000 0.000000 0.000000 0.017861 0.000000
# 6 0.000000 0.000000 0.000000 0.000000 0.000000 0.023932
#
#
# Mechanical properties :
#
#
# Convention : Reuss Voigt Hill
#
# Bulk Modulus (GPa) = 55.70028 74.23452 64.96740
# Shear Modulus (GPa) = 33.97658 46.72634 40.35146
#
# Velocity S-wave (km/s) = 3.54459 4.15677 3.86283
# Velocity P-wave (km/s) = 6.11141 7.10558 6.62716
#
# Compressibility (1/GPa) = 0.01795323
#
# Stress axis : x y z
#
# Youngs Moduli (GPa) = 156.84856 73.84187 172.39894
#
# Poissons Ratio (x) = 0.14282 0.37494
# Poissons Ratio (y) = 0.30336 -0.03902
# Poissons Ratio (z) = 0.34112 -0.01671
#
# Static dielectric constant tensor:
#      x y z
#    x 2.092440 0.000000 0.000000 
#    y 0.000000 2.280030 0.000000 
#    z 0.000000 0.000000 2.186150 
# 
# From -- ./inp_files/197.got.cif
#   From: 2010.05.17/outbox.cif.g08.bks.cpg/sg29_1_cif.got.tgz:197.got - 2010.06.04 01:19:37.
