data_PCOD9341269
_publ_section_title
;
Structure prediction by ZEFSAII (Michael W. Deem and Ramdas Pophale) SiO2 
 PCOD9341269
Probable space group: P C A 21
;
_chemical_formula_sum "Si O2"
_cell_formula_units_Z 20
_cell_length_a 18.490973
_cell_length_b 4.897763
_cell_length_c 8.588731
_cell_angle_alpha 90.000000
_cell_angle_beta 90.000000
_cell_angle_gamma 90.000000
_cell_volume 777.833299
_symmetry_space_group_name_H-M "P C A 21"
_symmetry_group_IT_number 29
_symmetry_cell_setting 'orthorhombic'
loop_
_space_group_symop_operation_xyz
x,y,z
-x,-y,1/2+z
1/2-x,y,1/2+z
1/2+x,-y,z
loop_
_atom_site_type_symbol
_atom_site_label
_atom_site_fract_x
_atom_site_fract_y
_atom_site_fract_z
Si Si1 0.978981 0.283361 0.074040
Si Si2 0.863233 0.334173 0.335292
Si Si3 0.590135 0.782342 0.442244
Si Si4 0.711214 0.825792 0.682777
Si Si5 0.625662 0.904944 0.107225
O O1 0.938714 0.348475 0.237734
O O2 0.064579 0.304719 0.044963
O O3 0.938718 0.476590 0.950912
O O4 0.961354 0.965742 0.049253
O O5 0.822646 0.622041 0.311516
O O6 0.869279 0.168192 0.496856
O O7 0.810410 0.128824 0.236588
O O8 0.667912 0.776564 0.523251
O O9 0.592710 0.936580 0.279739
O O10 0.795018 0.794595 0.646900
#
# Coordination Sequence:
#
# PCOD9341269 Si02
#       5
#     4   4   4   4   4
#     4  10  24  44  65  97 140 177 224 290 350 409
#     4  10  24  44  65  96 139 177 222 284 347 411
#     4  10  24  44  64  97 139 176 224 289 349 412
#     4  10  24  44  64  96 138 177 224 286 347 411
#     4  12  24  42  74 100 128 185 238 279 345 423
#
# _framework density 25.712454000000001
#
# number of rings (size 3 to 8) (size 9 to 14) (size 15 to 20)
#    0.000    1.600    0.000    2.400    0.000   19.200 
#    0.000    0.000    0.000    0.000    0.000    0.000 
#    0.000    0.000    0.000    0.000    0.000    0.000 
#
# Total GULP energy -111889.664032 kJ/mol
# GULP energy per Si atom -5594.483202 kJ/mol
# Density = 2.565393 g / cm^3
# Si number density = 25.712454 Si / 1000 Ang^3
#
#
#
# Elastic Constant Matrix: (Units=GPa)
#
#
# Indices 1 2 3 4 5 6 
#
# 1 170.4059 17.3386 19.4839 0.0000 0.0000 0.0000
# 2 17.3386 93.0966 9.0310 0.0000 0.0000 0.0000
# 3 19.4839 9.0310 131.8087 0.0000 0.0000 0.0000
# 4 0.0000 0.0000 0.0000 36.3150 0.0000 0.0000
# 5 0.0000 0.0000 0.0000 0.0000 35.2584 0.0000
# 6 0.0000 0.0000 0.0000 0.0000 0.0000 22.8978
#
#
#
# Elastic Compliance Matrix: (Units=1/GPa)
#
#
# Indices 1 2 3 4 5 6 
#
# 1 0.006070 -0.001050 -0.000825 0.000000 0.000000 0.000000
# 2 -0.001050 0.010995 -0.000598 0.000000 0.000000 0.000000
# 3 -0.000825 -0.000598 0.007750 0.000000 0.000000 0.000000
# 4 0.000000 0.000000 0.000000 0.027537 0.000000 0.000000
# 5 0.000000 0.000000 0.000000 0.000000 0.028362 0.000000
# 6 0.000000 0.000000 0.000000 0.000000 0.000000 0.043672
#
#
# Mechanical properties :
#
#
# Convention : Reuss Voigt Hill
#
# Bulk Modulus (GPa) = 50.33445 54.11312 52.22378
# Shear Modulus (GPa) = 36.77676 42.19141 39.48409
#
# Velocity S-wave (km/s) = 3.78605 4.05519 3.92293
# Velocity P-wave (km/s) = 6.22339 6.55875 6.39327
#
# Compressibility (1/GPa) = 0.01986711
#
# Stress axis : x y z
#
# Youngs Moduli (GPa) = 164.75627 90.94898 129.03700
#
# Poissons Ratio (x) = 0.09553 0.10649
# Poissons Ratio (y) = 0.17305 0.07717
# Poissons Ratio (z) = 0.13596 0.05439
#
# Static dielectric constant tensor:
#      x y z
#    x 2.001470 0.000000 0.000000 
#    y 0.000000 1.933820 0.000000 
#    z 0.000000 0.000000 2.139990 
# 
# From -- ./inp_files/3360.got.cif
#   From: 2010.05.17/outbox.cif.g08.bks.cpg/sg29_2_cif.got.tgz:3360.got - 2010.06.04 01:19:37.
