data_PCOD9341516
_publ_section_title
;
Structure prediction by ZEFSAII (Michael W. Deem and Ramdas Pophale) SiO2 
 PCOD9341516
Probable space group: P C A 21
;
_chemical_formula_sum "Si O2"
_cell_formula_units_Z 24
_cell_length_a 9.455388
_cell_length_b 12.246654
_cell_length_c 7.907039
_cell_angle_alpha 90.000000
_cell_angle_beta 90.000000
_cell_angle_gamma 90.000000
_cell_volume 915.610330
_symmetry_space_group_name_H-M "P C A 21"
_symmetry_group_IT_number 29
_symmetry_cell_setting 'orthorhombic'
loop_
_space_group_symop_operation_xyz
x,y,z
-x,-y,1/2+z
1/2-x,y,1/2+z
1/2+x,-y,z
loop_
_atom_site_type_symbol
_atom_site_label
_atom_site_fract_x
_atom_site_fract_y
_atom_site_fract_z
Si Si1 0.315612 0.725839 0.107860
Si Si2 0.700938 0.935750 0.114674
Si Si3 0.947601 0.583881 0.482305
Si Si4 0.718748 0.697863 0.277665
Si Si5 0.424631 0.941988 0.926670
Si Si6 0.046478 0.673672 0.959032
O O1 0.363970 0.829776 0.000941
O O2 0.381760 0.728885 0.293927
O O3 0.392924 0.623174 0.017463
O O4 0.147566 0.712857 0.108540
O O5 0.704255 0.817065 0.197919
O O6 0.592202 0.937622 0.955859
O O7 0.634876 0.022834 0.245785
O O8 0.853887 0.968899 0.050372
O O9 0.869628 0.652946 0.336046
O O10 0.859876 0.613820 0.651922
O O11 0.940471 0.456594 0.447385
O O12 0.617950 0.700932 0.445189
#
# Coordination Sequence:
#
# PCOD9341516 Si02
#       6
#     4   4   4   4   4   4
#     4  11  25  45  65 103 137 174 236 278 343 418
#     4  12  26  46  72 101 142 181 233 294 354 419
#     4  11  23  43  69  96 138 178 226 282 340 408
#     4  11  25  45  65 103 137 174 236 278 343 418
#     4  12  26  46  72 101 142 181 233 294 354 419
#     4  11  23  43  69  96 138 178 226 282 340 408
#
# _framework density 26.212022999999999
#
# number of rings (size 3 to 8) (size 9 to 14) (size 15 to 20)
#    0.000    0.667    3.333    5.000    4.667    4.000 
#    0.000    0.000    0.000    0.000    0.000    0.000 
#    0.000    0.000    0.000    0.000    0.000    0.000 
#
# Total GULP energy -134675.180820 kJ/mol
# GULP energy per Si atom -5611.465868 kJ/mol
# Density = 2.615236 g / cm^3
# Si number density = 26.212023 Si / 1000 Ang^3
#
#
#
# Elastic Constant Matrix: (Units=GPa)
#
#
# Indices 1 2 3 4 5 6 
#
# 1 122.2082 13.9005 0.2536 0.0000 0.0000 0.0000
# 2 13.9005 93.8948 2.1396 0.0000 0.0000 0.0000
# 3 0.2536 2.1396 74.6849 0.0000 0.0000 0.0000
# 4 0.0000 0.0000 0.0000 43.3692 0.0000 0.0000
# 5 0.0000 0.0000 0.0000 0.0000 51.2783 0.0000
# 6 0.0000 0.0000 0.0000 0.0000 0.0000 16.2464
#
#
#
# Elastic Compliance Matrix: (Units=1/GPa)
#
#
# Indices 1 2 3 4 5 6 
#
# 1 0.008323 -0.001232 0.000007 0.000000 0.000000 0.000000
# 2 -0.001232 0.010840 -0.000306 0.000000 0.000000 0.000000
# 3 0.000007 -0.000306 0.013398 0.000000 0.000000 0.000000
# 4 0.000000 0.000000 0.000000 0.023058 0.000000 0.000000
# 5 0.000000 0.000000 0.000000 0.000000 0.019501 0.000000
# 6 0.000000 0.000000 0.000000 0.000000 0.000000 0.061552
#
#
# Mechanical properties :
#
#
# Convention : Reuss Voigt Hill
#
# Bulk Modulus (GPa) = 33.90100 35.93058 34.91579
# Shear Modulus (GPa) = 33.42963 40.47840 36.95402
#
# Velocity S-wave (km/s) = 3.57509 3.93398 3.75882
# Velocity P-wave (km/s) = 5.47751 5.86280 5.67342
#
# Compressibility (1/GPa) = 0.02949765
#
# Stress axis : x y z
#
# Youngs Moduli (GPa) = 120.15032 92.25403 74.63608
#
# Poissons Ratio (x) = 0.11369 -0.00053
# Poissons Ratio (y) = 0.14806 0.02286
# Poissons Ratio (z) = -0.00085 0.02826
#
# Static dielectric constant tensor:
#      x y z
#    x 2.028700 0.000000 0.000000 
#    y 0.000000 1.974540 0.000000 
#    z 0.000000 0.000000 2.124420 
# 
# From -- ./inp_files/1121.got.cif
#   From: 2010.05.17/outbox.cif.g08.bks.cpg/sg29_1_cif.got.tgz:1121.got - 2010.06.04 01:19:37.
