data_PCOD9341225
_publ_section_title
;
Structure prediction by ZEFSAII (Michael W. Deem and Ramdas Pophale) SiO2 
 PCOD9341225
Probable space group: P C A 21
;
_chemical_formula_sum "Si O2"
_cell_formula_units_Z 28
_cell_length_a 8.548405
_cell_length_b 13.619898
_cell_length_c 10.538520
_cell_angle_alpha 90.000000
_cell_angle_beta 90.000000
_cell_angle_gamma 90.000000
_cell_volume 1226.983066
_symmetry_space_group_name_H-M "P C A 21"
_symmetry_group_IT_number 29
_symmetry_cell_setting 'orthorhombic'
loop_
_space_group_symop_operation_xyz
x,y,z
-x,-y,1/2+z
1/2-x,y,1/2+z
1/2+x,-y,z
loop_
_atom_site_type_symbol
_atom_site_label
_atom_site_fract_x
_atom_site_fract_y
_atom_site_fract_z
Si Si1 0.706639 0.897283 0.637730
Si Si2 0.970520 0.983223 0.798735
Si Si3 0.690305 0.692711 0.084366
Si Si4 0.325390 0.744371 0.113048
Si Si5 0.310317 0.632094 0.372495
Si Si6 0.674756 0.581674 0.345883
Si Si7 0.738162 0.070610 0.970455
O O1 0.837349 0.912574 0.745197
O O2 0.692978 0.784780 0.602211
O O3 0.558776 0.958237 0.687762
O O4 0.770311 0.959681 0.520675
O O5 0.087209 0.917963 0.882950
O O6 0.889966 0.067708 0.882153
O O7 0.512362 0.733685 0.090958
O O8 0.710407 0.621908 0.205264
O O9 0.724998 0.637497 0.953458
O O10 0.287431 0.704892 0.252903
O O11 0.242049 0.680451 0.003942
O O12 0.265685 0.854009 0.083543
O O13 0.492939 0.603161 0.374007
O O14 0.212101 0.533173 0.351623
#
# Coordination Sequence:
#
# PCOD9341225 Si02
#       7
#     4   4   4   4   4   4   4
#     4  11  24  43  65 102 141 185 237 282 346 410
#     4  10  24  40  67  92 150 186 233 290 340 406
#     4  11  26  44  73 103 139 183 232 285 351 418
#     4  11  26  44  73 103 139 183 232 286 350 418
#     4  11  26  48  71 103 137 178 231 292 352 421
#     4  11  26  47  72 102 139 177 232 290 353 419
#     4  11  24  42  65 101 141 186 235 283 346 408
#
# _framework density 22.820202999999999
#
# number of rings (size 3 to 8) (size 9 to 14) (size 15 to 20)
#    0.000    1.143    0.000    4.286   14.000    5.714 
#    0.000    0.000    0.000    0.000    0.000    0.000 
#    0.000    0.000    0.000    0.000    0.000    0.000 
#
# Total GULP energy -156838.216717 kJ/mol
# GULP energy per Si atom -5601.364883 kJ/mol
# Density = 2.276826 g / cm^3
# Si number density = 22.820203 Si / 1000 Ang^3
#
#
#
# Elastic Constant Matrix: (Units=GPa)
#
#
# Indices 1 2 3 4 5 6 
#
# 1 55.2306 8.4223 24.0330 0.0000 0.0000 0.0000
# 2 8.4223 78.8636 0.3883 0.0000 0.0000 0.0000
# 3 24.0330 0.3883 73.8800 0.0000 0.0000 0.0000
# 4 0.0000 0.0000 0.0000 39.7886 0.0000 0.0000
# 5 0.0000 0.0000 0.0000 0.0000 36.1090 0.0000
# 6 0.0000 0.0000 0.0000 0.0000 0.0000 20.8091
#
#
#
# Elastic Compliance Matrix: (Units=1/GPa)
#
#
# Indices 1 2 3 4 5 6 
#
# 1 0.021487 -0.002260 -0.006978 0.000000 0.000000 0.000000
# 2 -0.002260 0.012918 0.000667 0.000000 0.000000 0.000000
# 3 -0.006978 0.000667 0.015802 0.000000 0.000000 0.000000
# 4 0.000000 0.000000 0.000000 0.025133 0.000000 0.000000
# 5 0.000000 0.000000 0.000000 0.000000 0.027694 0.000000
# 6 0.000000 0.000000 0.000000 0.000000 0.000000 0.048056
#
#
# Mechanical properties :
#
#
# Convention : Reuss Voigt Hill
#
# Bulk Modulus (GPa) = 30.24304 30.40685 30.32494
# Shear Modulus (GPa) = 27.89356 31.01672 29.45514
#
# Velocity S-wave (km/s) = 3.49996 3.69070 3.59660
# Velocity P-wave (km/s) = 5.44192 5.61384 5.52855
#
# Compressibility (1/GPa) = 0.03306546
#
# Stress axis : x y z
#
# Youngs Moduli (GPa) = 46.53997 77.41000 63.28390
#
# Poissons Ratio (x) = 0.17497 0.44158
# Poissons Ratio (y) = 0.10520 -0.04223
# Poissons Ratio (z) = 0.32475 -0.05166
#
# Static dielectric constant tensor:
#      x y z
#    x 1.876230 0.000000 0.000000 
#    y 0.000000 1.831910 0.000000 
#    z 0.000000 0.000000 1.865940 
# 
# From -- ./inp_files/2864.got.cif
#   From: 2010.05.17/outbox.cif.g08.bks.cpg/sg29_2_cif.got.tgz:2864.got - 2010.06.04 01:19:37.
