data_PCOD9341505
_publ_section_title
;
Structure prediction by ZEFSAII (Michael W. Deem and Ramdas Pophale) SiO2 
 PCOD9341505
Probable space group: P C A 21
;
_chemical_formula_sum "Si O2"
_cell_formula_units_Z 32
_cell_length_a 9.025341
_cell_length_b 5.273616
_cell_length_c 29.741912
_cell_angle_alpha 90.000000
_cell_angle_beta 90.000000
_cell_angle_gamma 90.000000
_cell_volume 1415.601477
_symmetry_space_group_name_H-M "P C A 21"
_symmetry_group_IT_number 29
_symmetry_cell_setting 'orthorhombic'
loop_
_space_group_symop_operation_xyz
x,y,z
-x,-y,1/2+z
1/2-x,y,1/2+z
1/2+x,-y,z
loop_
_atom_site_type_symbol
_atom_site_label
_atom_site_fract_x
_atom_site_fract_y
_atom_site_fract_z
Si Si1 0.657892 0.732991 0.773830
Si Si2 0.580189 0.191243 0.138015
Si Si3 0.811092 0.925516 0.453985
Si Si4 0.325314 0.759453 0.806687
Si Si5 0.112080 0.510540 0.494264
Si Si6 0.750850 0.706403 0.669861
Si Si7 0.374388 0.796605 0.535560
Si Si8 0.063341 0.741602 0.407482
O O1 0.480180 0.755851 0.779053
O O2 0.717220 0.473927 0.795898
O O3 0.703893 0.703801 0.721970
O O4 0.739756 0.977243 0.796163
O O5 0.404639 0.242273 0.143906
O O6 0.670415 0.444841 0.153536
O O7 0.617129 0.120347 0.086379
O O8 0.637497 0.944036 0.164544
O O9 0.731602 0.697523 0.479226
O O10 0.906910 0.878754 0.409280
O O11 0.917914 0.023605 0.493747
O O12 0.688777 0.114497 0.435420
O O13 0.378278 0.711709 0.857959
O O14 0.210238 0.716771 0.520754
O O15 0.030886 0.529138 0.445196
O O16 0.990508 0.428335 0.529975
#
# Coordination Sequence:
#
# PCOD9341505 Si02
#       8
#     4   4   4   4   4   4   4   4
#     4  12  26  50  74 106 142 187 233 302 374 426
#     4  12  28  45  78 107 144 185 244 298 347 444
#     4  11  23  42  63  92 138 180 218 279 330 403
#     4  12  28  45  78 107 144 185 244 298 347 444
#     4  11  23  42  63  92 138 180 218 279 330 403
#     4  12  26  50  74 106 142 187 233 302 374 426
#     4  11  25  40  68  97 134 181 233 275 343 399
#     4  11  25  40  68  97 134 181 233 275 343 399
#
# _framework density 22.605232000000001
#
# number of rings (size 3 to 8) (size 9 to 14) (size 15 to 20)
#    0.000    0.500    2.500    5.250    7.000    0.000 
#    0.000    0.000    0.000    0.000    0.000    0.000 
#    0.000    0.000    0.000    0.000    0.000    0.000 
#
# Total GULP energy -178578.141490 kJ/mol
# GULP energy per Si atom -5580.566922 kJ/mol
# Density = 2.255378 g / cm^3
# Si number density = 22.605232 Si / 1000 Ang^3
#
#
#
# Elastic Constant Matrix: (Units=GPa)
#
#
# Indices 1 2 3 4 5 6 
#
# 1 80.2182 6.4920 -32.4918 0.0000 0.0000 0.0000
# 2 6.4920 69.8023 -11.1137 0.0000 0.0000 0.0000
# 3 -32.4918 -11.1137 63.1554 0.0000 0.0000 0.0000
# 4 0.0000 0.0000 0.0000 27.0307 0.0000 0.0000
# 5 0.0000 0.0000 0.0000 0.0000 39.5635 0.0000
# 6 0.0000 0.0000 0.0000 0.0000 0.0000 24.1495
#
#
#
# Elastic Compliance Matrix: (Units=1/GPa)
#
#
# Indices 1 2 3 4 5 6 
#
# 1 0.015750 -0.000180 0.008071 0.000000 0.000000 0.000000
# 2 -0.000180 0.014741 0.002502 0.000000 0.000000 0.000000
# 3 0.008071 0.002502 0.020427 0.000000 0.000000 0.000000
# 4 0.000000 0.000000 0.000000 0.036995 0.000000 0.000000
# 5 0.000000 0.000000 0.000000 0.000000 0.025276 0.000000
# 6 0.000000 0.000000 0.000000 0.000000 0.000000 0.041409
#
#
# Mechanical properties :
#
#
# Convention : Reuss Voigt Hill
#
# Bulk Modulus (GPa) = 13.94630 15.43876 14.69253
# Shear Modulus (GPa) = 31.70335 34.83471 33.26903
#
# Velocity S-wave (km/s) = 3.74903 3.92982 3.84049
# Velocity P-wave (km/s) = 4.99231 5.23793 5.11659
#
# Compressibility (1/GPa) = 0.07170360
#
# Stress axis : x y z
#
# Youngs Moduli (GPa) = 63.49317 67.83716 48.95579
#
# Poissons Ratio (x) = 0.01219 -0.39513
# Poissons Ratio (y) = 0.01141 -0.12247
# Poissons Ratio (z) = -0.51247 -0.16970
#
# Static dielectric constant tensor:
#      x y z
#    x 1.980640 0.000000 0.000000 
#    y 0.000000 2.259410 0.000000 
#    z 0.000000 0.000000 1.845170 
# 
# From -- ./inp_files/5819.got.cif
#   From: 2010.05.17/outbox.cif.g08.bks.cpg/sg29_3_cif.got.tgz:5819.got - 2010.06.04 01:19:37.
