data_PCOD9341873
_publ_section_title
;
Structure prediction by ZEFSAII (Michael W. Deem and Ramdas Pophale) SiO2 
 PCOD9341873
Probable space group: P N C 2
;
_chemical_formula_sum "Si O2"
_cell_formula_units_Z 26
_cell_length_a 5.255829
_cell_length_b 14.572537
_cell_length_c 14.350781
_cell_angle_alpha 90.000000
_cell_angle_beta 90.000000
_cell_angle_gamma 90.000000
_cell_volume 1099.137260
_symmetry_space_group_name_H-M "P N C 2"
_symmetry_group_IT_number 30
_symmetry_cell_setting 'orthorhombic'
loop_
_space_group_symop_operation_xyz
x,y,z
-x,-y,z
-x,1/2+y,1/2+z
x,1/2-y,1/2+z
loop_
_atom_site_type_symbol
_atom_site_label
_atom_site_fract_x
_atom_site_fract_y
_atom_site_fract_z
Si Si1 0.500000 0.000000 0.239170
Si Si2 0.902231 0.291167 0.379613
Si Si3 0.829876 0.411233 0.873029
Si Si4 0.350237 0.132578 0.108689
Si Si5 0.142541 0.735759 0.604189
Si Si6 0.250058 0.941300 0.593061
Si Si7 0.600001 0.602383 0.385863
O O1 0.414626 0.921226 0.309107
O O2 0.703084 0.957727 0.168263
O O3 0.954247 0.186401 0.351067
O O4 0.881189 0.279067 0.492147
O O5 0.625003 0.329594 0.354112
O O6 0.126056 0.361145 0.351468
O O7 0.000000 0.500000 0.852444
O O8 0.751586 0.422736 0.981030
O O9 0.629216 0.169939 0.133274
O O10 0.138058 0.206804 0.133945
O O11 0.363774 0.109323 0.998747
O O12 0.219240 0.838698 0.631400
O O13 0.500000 0.000000 0.617403
O O14 0.000000 0.000000 0.615200
O O15 0.500000 0.500000 0.363933
#
# Coordination Sequence:
#
# PCOD9341873 Si02
#       7
#     2   4   4   4   4   4   4
#     4  12  24  36  56  80 122 164 190 228 292 372
#     4   9  20  33  56  78 114 150 190 237 292 340
#     4  10  23  36  53  82 121 159 193 230 289 360
#     4  10  21  34  51  78 115 153 187 225 287 352
#     4   9  19  34  51  77 112 147 187 236 284 338
#     4  10  18  33  57  83 111 146 190 243 294 337
#     4  10  18  35  56  84 111 147 190 247 293 337
#
# _framework density 23.654916
#
# number of rings (size 3 to 8) (size 9 to 14) (size 15 to 20)
#    0.000    2.154    1.538    1.385    4.308    3.692 
#    0.000    0.000    0.000    0.000    0.000    5.385 
#    0.000    0.000    0.000    0.000    0.000    0.000 
#
# Total GULP energy -145215.973859 kJ/mol
# GULP energy per Si atom -5585.229764 kJ/mol
# Density = 2.360108 g / cm^3
# Si number density = 23.654916 Si / 1000 Ang^3
#
#
#
# Elastic Constant Matrix: (Units=GPa)
#
#
# Indices 1 2 3 4 5 6 
#
# 1 140.0789 51.7193 0.4943 0.0000 0.0000 0.0000
# 2 51.7193 144.4750 -2.5572 0.0000 0.0000 0.0000
# 3 0.4943 -2.5572 41.0742 0.0000 0.0000 0.0000
# 4 0.0000 0.0000 0.0000 33.2774 0.0000 0.0000
# 5 0.0000 0.0000 0.0000 0.0000 127.6015 0.0000
# 6 0.0000 0.0000 0.0000 0.0000 0.0000 43.4440
#
#
#
# Elastic Compliance Matrix: (Units=1/GPa)
#
#
# Indices 1 2 3 4 5 6 
#
# 1 0.008229 -0.002951 -0.000283 0.000000 0.000000 0.000000
# 2 -0.002951 0.007987 0.000533 0.000000 0.000000 0.000000
# 3 -0.000283 0.000533 0.024383 0.000000 0.000000 0.000000
# 4 0.000000 0.000000 0.000000 0.030050 0.000000 0.000000
# 5 0.000000 0.000000 0.000000 0.000000 0.007837 0.000000
# 6 0.000000 0.000000 0.000000 0.000000 0.000000 0.023018
#
#
# Mechanical properties :
#
#
# Convention : Reuss Voigt Hill
#
# Bulk Modulus (GPa) = 28.41094 47.21566 37.81330
# Shear Modulus (GPa) = 42.14450 59.26270 50.70360
#
# Velocity S-wave (km/s) = 4.22552 5.01073 4.63478
# Velocity P-wave (km/s) = 5.98694 7.31301 6.68294
#
# Compressibility (1/GPa) = 0.03519771
#
# Stress axis : x y z
#
# Youngs Moduli (GPa) = 121.51598 125.19668 41.01258
#
# Poissons Ratio (x) = 0.36945 0.01160
# Poissons Ratio (y) = 0.35859 -0.02185
# Poissons Ratio (z) = 0.03436 -0.06671
#
# Static dielectric constant tensor:
#      x y z
#    x 1.846460 0.000000 0.000000 
#    y 0.000000 1.902480 0.000000 
#    z 0.000000 0.000000 1.956080 
# 
# From -- ./inp_files/5990.got.cif
#   From: 2010.05.17/outbox.cif.g08.bks.cpg/sg30_3_cif.got.tgz:5990.got - 2010.06.03 17:03:02.
