data_PCOD9341875
_publ_section_title
;
Structure prediction by ZEFSAII (Michael W. Deem and Ramdas Pophale) SiO2 
 PCOD9341875
Probable space group: P N C 2
;
_chemical_formula_sum "Si O2"
_cell_formula_units_Z 30
_cell_length_a 13.838552
_cell_length_b 7.013140
_cell_length_c 15.065408
_cell_angle_alpha 90.000000
_cell_angle_beta 90.000000
_cell_angle_gamma 90.000000
_cell_volume 1462.123496
_symmetry_space_group_name_H-M "P N C 2"
_symmetry_group_IT_number 30
_symmetry_cell_setting 'orthorhombic'
loop_
_space_group_symop_operation_xyz
x,y,z
-x,-y,z
-x,1/2+y,1/2+z
x,1/2-y,1/2+z
loop_
_atom_site_type_symbol
_atom_site_label
_atom_site_fract_x
_atom_site_fract_y
_atom_site_fract_z
Si Si1 0.254818 0.232955 0.448160
Si Si2 0.872706 0.383498 0.990718
Si Si3 0.099875 0.580651 0.186789
Si Si4 0.000000 0.000000 0.337296
Si Si5 0.823959 0.726905 0.759699
Si Si6 0.399494 0.898883 0.388510
Si Si7 0.313577 0.865926 0.019673
Si Si8 0.274799 0.655145 0.721227
O O1 0.213495 0.307079 0.353784
O O2 0.296693 0.409876 0.502857
O O3 0.169268 0.100039 0.487495
O O4 0.334928 0.073635 0.425908
O O5 0.920800 0.352059 0.086494
O O6 0.783979 0.238385 0.985005
O O7 0.941120 0.366818 0.906040
O O8 0.165317 0.392129 0.189238
O O9 0.171571 0.735844 0.229353
O O10 0.000000 0.500000 0.227600
O O11 0.925097 0.880349 0.279297
O O12 0.750699 0.567082 0.728032
O O13 0.398550 0.733022 0.463056
O O14 0.347136 0.809289 0.302182
O O15 0.500000 0.000000 0.366607
O O16 0.317740 0.811808 0.123569
#
# Coordination Sequence:
#
# PCOD9341875 Si02
#       8
#     4   4   4   2   4   4   4   4
#     4   9  19  36  58  81 111 154 194 242 302 362
#     4   9  19  34  52  78 117 155 197 249 294 343
#     4  11  20  32  55  82 118 158 202 248 294 358
#     4  10  18  34  50  76 118 160 196 252 294 344
#     4  10  20  32  53  79 116 155 200 245 297 356
#     4  10  22  42  63  89 124 152 195 262 318 374
#     4  10  20  38  64  85 114 160 203 242 307 379
#     4  10  22  40  60  88 122 162 198 257 316 368
#
# _framework density 20.518103
#
# number of rings (size 3 to 8) (size 9 to 14) (size 15 to 20)
#    0.000    2.133    0.667    3.200    0.000    1.600 
#    2.400    2.000    0.000    0.000    0.000    0.000 
#    0.000    0.000    0.000    0.000    0.000    0.000 
#
# Total GULP energy -167246.385708 kJ/mol
# GULP energy per Si atom -5574.879524 kJ/mol
# Density = 2.047140 g / cm^3
# Si number density = 20.518103 Si / 1000 Ang^3
#
#
#
# Elastic Constant Matrix: (Units=GPa)
#
#
# Indices 1 2 3 4 5 6 
#
# 1 53.3690 6.6763 23.9966 0.0000 0.0000 0.0000
# 2 6.6763 62.8786 20.8056 0.0000 0.0000 0.0000
# 3 23.9966 20.8056 100.6656 0.0000 0.0000 0.0000
# 4 0.0000 0.0000 0.0000 19.9918 0.0000 0.0000
# 5 0.0000 0.0000 0.0000 0.0000 14.1872 0.0000
# 6 0.0000 0.0000 0.0000 0.0000 0.0000 18.5165
#
#
#
# Elastic Compliance Matrix: (Units=1/GPa)
#
#
# Indices 1 2 3 4 5 6 
#
# 1 0.021009 -0.000616 -0.004881 0.000000 0.000000 0.000000
# 2 -0.000616 0.017089 -0.003385 0.000000 0.000000 0.000000
# 3 -0.004881 -0.003385 0.011797 0.000000 0.000000 0.000000
# 4 0.000000 0.000000 0.000000 0.050021 0.000000 0.000000
# 5 0.000000 0.000000 0.000000 0.000000 0.070486 0.000000
# 6 0.000000 0.000000 0.000000 0.000000 0.000000 0.054006
#
#
# Mechanical properties :
#
#
# Convention : Reuss Voigt Hill
#
# Bulk Modulus (GPa) = 31.12191 35.54115 33.33153
# Shear Modulus (GPa) = 19.77204 21.56806 20.67005
#
# Velocity S-wave (km/s) = 3.10762 3.24570 3.17741
# Velocity P-wave (km/s) = 5.29881 5.60406 5.45357
#
# Compressibility (1/GPa) = 0.03213170
#
# Stress axis : x y z
#
# Youngs Moduli (GPa) = 47.59843 58.51664 84.76695
#
# Poissons Ratio (x) = 0.03603 0.41374
# Poissons Ratio (y) = 0.02930 0.28696
# Poissons Ratio (z) = 0.23232 0.19809
#
# Static dielectric constant tensor:
#      x y z
#    x 1.754540 0.000000 0.000000 
#    y 0.000000 1.741020 0.000000 
#    z 0.000000 0.000000 1.767740 
# 
# From -- ./inp_files/6600.got.cif
#   From: 2010.05.17/outbox.cif.g08.bks.cpg/sg30_4_cif.got.tgz:6600.got - 2010.06.03 17:03:02.
