data_PCOD9341848
_publ_section_title
;
Structure prediction by ZEFSAII (Michael W. Deem and Ramdas Pophale) SiO2 
 PCOD9341848
Probable space group: P N C 2
;
_chemical_formula_sum "Si O2"
_cell_formula_units_Z 24
_cell_length_a 5.690372
_cell_length_b 21.520242
_cell_length_c 7.242854
_cell_angle_alpha 90.000000
_cell_angle_beta 90.000000
_cell_angle_gamma 90.000000
_cell_volume 886.946737
_symmetry_space_group_name_H-M "P N C 2"
_symmetry_group_IT_number 30
_symmetry_cell_setting 'orthorhombic'
loop_
_space_group_symop_operation_xyz
x,y,z
-x,-y,z
-x,1/2+y,1/2+z
x,1/2-y,1/2+z
loop_
_atom_site_type_symbol
_atom_site_label
_atom_site_fract_x
_atom_site_fract_y
_atom_site_fract_z
Si Si1 0.250000 0.230603 0.228440
Si Si2 0.250000 0.400473 0.694730
Si Si3 0.750000 0.625092 0.131979
Si Si4 0.750000 0.260956 0.926604
Si Si5 0.000000 0.000000 0.982770
Si Si6 0.500000 0.500000 0.482770
Si Si7 0.250000 0.860089 0.761936
O O1 0.250000 0.168266 0.106391
O O2 0.250000 0.299886 0.151276
O O3 0.502132 0.225129 0.328219
O O4 0.997868 0.225129 0.328219
O O5 0.033579 0.440970 0.619444
O O6 0.466422 0.440970 0.619444
O O7 0.250000 0.394261 0.916663
O O8 0.501686 0.606597 0.228135
O O9 0.998314 0.606597 0.228136
O O10 0.750000 0.185484 0.940414
O O11 0.750000 0.307479 0.098622
O O12 0.750000 0.004848 0.884572
#
# Coordination Sequence:
#
# PCOD9341848 Si02
#       7
#     4   4   4   4   2   2   4
#     4  10  20  28  46  66  95 133 153 197 245 293
#     4  10  18  32  48  64 106 114 176 184 252 292
#     4  10  20  28  46  66  95 133 153 197 245 293
#     4  10  18  29  41  65  89 133 158 186 240 292
#     4   8  20  28  44  68  84 138 156 194 242 284
#     4   8  20  28  44  68  84 138 156 194 242 284
#     4  10  18  29  41  65  89 133 158 186 240 292
#
# _framework density 27.059121000000001
#
# number of rings (size 3 to 8) (size 9 to 14) (size 15 to 20)
#    1.000    1.333    3.333    0.000    4.667    0.000 
#    0.000    0.000    0.000    0.000    0.000    0.000 
#    0.000    2.667    0.000    2.667    0.000    0.000 
#
# Total GULP energy -133996.692161 kJ/mol
# GULP energy per Si atom -5583.195507 kJ/mol
# Density = 2.699753 g / cm^3
# Si number density = 27.059121 Si / 1000 Ang^3
#
#
#
# Elastic Constant Matrix: (Units=GPa)
#
#
# Indices 1 2 3 4 5 6 
#
# 1 322.0643 61.9238 57.8433 0.0000 0.0000 0.0000
# 2 61.9238 118.3841 35.2222 0.0000 0.0000 0.0000
# 3 57.8433 35.2222 96.0663 0.0000 0.0000 0.0000
# 4 0.0000 0.0000 0.0000 31.0557 0.0000 0.0000
# 5 0.0000 0.0000 0.0000 0.0000 63.8087 0.0000
# 6 0.0000 0.0000 0.0000 0.0000 0.0000 62.8653
#
#
#
# Elastic Compliance Matrix: (Units=1/GPa)
#
#
# Indices 1 2 3 4 5 6 
#
# 1 0.003683 -0.001422 -0.001696 0.000000 0.000000 0.000000
# 2 -0.001422 0.010030 -0.002821 0.000000 0.000000 0.000000
# 3 -0.001696 -0.002821 0.012465 0.000000 0.000000 0.000000
# 4 0.000000 0.000000 0.000000 0.032200 0.000000 0.000000
# 5 0.000000 0.000000 0.000000 0.000000 0.015672 0.000000
# 6 0.000000 0.000000 0.000000 0.000000 0.000000 0.015907
#
#
# Mechanical properties :
#
#
# Convention : Reuss Voigt Hill
#
# Bulk Modulus (GPa) = 69.93267 94.05480 81.99374
# Shear Modulus (GPa) = 46.90290 56.98098 51.94194
#
# Velocity S-wave (km/s) = 4.16787 4.59387 4.38605
# Velocity P-wave (km/s) = 7.00443 7.93553 7.48447
#
# Compressibility (1/GPa) = 0.01429947
#
# Stress axis : x y z
#
# Youngs Moduli (GPa) = 271.51778 99.69863 80.22255
#
# Poissons Ratio (x) = 0.14175 0.13608
# Poissons Ratio (y) = 0.38604 0.22634
# Poissons Ratio (z) = 0.46058 0.28129
#
# Static dielectric constant tensor:
#      x y z
#    x 2.103440 0.000000 0.000000 
#    y 0.000000 2.226340 0.000000 
#    z 0.000000 0.000000 2.313170 
# 
# From -- ./inp_files/3306.got.cif
#   From: 2010.05.17/outbox.cif.g08.bks.cpg/sg30_2_cif.got.tgz:3306.got - 2010.06.03 17:03:02.
