data_PCOD9341747
_publ_section_title
;
Structure prediction by ZEFSAII (Michael W. Deem and Ramdas Pophale) SiO2 
 PCOD9341747
Probable space group: P C A 21
;
_chemical_formula_sum "Si O2"
_cell_formula_units_Z 20
_cell_length_a 8.624416
_cell_length_b 8.916241
_cell_length_c 9.794800
_cell_angle_alpha 90.000000
_cell_angle_beta 90.000000
_cell_angle_gamma 90.000000
_cell_volume 753.194375
_symmetry_space_group_name_H-M "P C A 21"
_symmetry_group_IT_number 29
_symmetry_cell_setting 'orthorhombic'
loop_
_space_group_symop_operation_xyz
x,y,z
-x,-y,1/2+z
1/2-x,y,1/2+z
1/2+x,-y,z
loop_
_atom_site_type_symbol
_atom_site_label
_atom_site_fract_x
_atom_site_fract_y
_atom_site_fract_z
Si Si1 0.005254 0.671804 0.717950
Si Si2 0.605827 0.520421 0.495705
Si Si3 0.078193 0.052446 0.857922
Si Si4 0.235629 0.177605 0.604242
Si Si5 0.746467 0.228614 0.375896
O O1 0.982817 0.565669 0.588719
O O2 0.185144 0.718404 0.730160
O O3 0.956251 0.585898 0.853978
O O4 0.893721 0.810279 0.691106
O O5 0.660630 0.658705 0.588628
O O6 0.718455 0.383515 0.453121
O O7 0.128542 0.073455 0.699350
O O8 0.911470 0.131936 0.875968
O O9 0.110676 0.883422 0.913269
O O10 0.203578 0.137086 0.954142
#
# Coordination Sequence:
#
# PCOD9341747 Si02
#       5
#     4   4   4   4   4
#     4  12  26  51  80 121 158 211 273 332 409 485
#     4  12  26  50  88 120 161 212 278 342 407 494
#     4  12  29  53  80 116 170 208 278 332 431 493
#     4  12  26  53  77 120 159 217 268 341 407 493
#     4  12  29  51  81 123 160 222 265 347 412 501
#
# _framework density 26.553570000000001
#
# number of rings (size 3 to 8) (size 9 to 14) (size 15 to 20)
#    0.000    0.000    4.000    4.800    2.800    3.200 
#    0.000    0.000    0.000    0.000    0.000    0.000 
#    0.000    0.000    0.000    0.000    0.000    0.000 
#
# Total GULP energy -111812.416881 kJ/mol
# GULP energy per Si atom -5590.620844 kJ/mol
# Density = 2.649313 g / cm^3
# Si number density = 26.553570 Si / 1000 Ang^3
#
#
#
# Elastic Constant Matrix: (Units=GPa)
#
#
# Indices 1 2 3 4 5 6 
#
# 1 84.7202 52.4480 27.5833 0.0000 0.0000 0.0000
# 2 52.4480 156.8552 19.6648 0.0000 0.0000 0.0000
# 3 27.5833 19.6648 95.2004 0.0000 0.0000 0.0000
# 4 0.0000 0.0000 0.0000 38.5499 0.0000 0.0000
# 5 0.0000 0.0000 0.0000 0.0000 48.7506 0.0000
# 6 0.0000 0.0000 0.0000 0.0000 0.0000 54.1395
#
#
#
# Elastic Compliance Matrix: (Units=1/GPa)
#
#
# Indices 1 2 3 4 5 6 
#
# 1 0.016020 -0.004902 -0.003629 0.000000 0.000000 0.000000
# 2 -0.004902 0.008045 -0.000242 0.000000 0.000000 0.000000
# 3 -0.003629 -0.000242 0.011606 0.000000 0.000000 0.000000
# 4 0.000000 0.000000 0.000000 0.025940 0.000000 0.000000
# 5 0.000000 0.000000 0.000000 0.000000 0.020513 0.000000
# 6 0.000000 0.000000 0.000000 0.000000 0.000000 0.018471
#
#
# Mechanical properties :
#
#
# Convention : Reuss Voigt Hill
#
# Bulk Modulus (GPa) = 55.17113 59.57422 57.37268
# Shear Modulus (GPa) = 40.26437 44.09330 42.17883
#
# Velocity S-wave (km/s) = 3.89825 4.07939 3.98985
# Velocity P-wave (km/s) = 6.40970 6.68377 6.54817
#
# Compressibility (1/GPa) = 0.01812542
#
# Stress axis : x y z
#
# Youngs Moduli (GPa) = 62.42391 124.30834 86.16586
#
# Poissons Ratio (x) = 0.60930 0.31270
# Poissons Ratio (y) = 0.30597 0.02081
# Poissons Ratio (z) = 0.22654 0.03002
#
# Static dielectric constant tensor:
#      x y z
#    x 2.089860 0.000000 0.000000 
#    y 0.000000 2.162600 0.000000 
#    z 0.000000 0.000000 2.041840 
# 
# From -- ./inp_files/1053.got.cif
#   From: 2010.05.17/outbox.cif.g08.bks.cpg/sg29_1_cif.got.tgz:1053.got - 2010.06.04 01:19:37.
