data_PCOD9341079
_publ_section_title
;
Structure prediction by ZEFSAII (Michael W. Deem and Ramdas Pophale) SiO2 
 PCOD9341079
Probable space group: P C A 21
;
_chemical_formula_sum "Si O2"
_cell_formula_units_Z 24
_cell_length_a 20.246255
_cell_length_b 9.522392
_cell_length_c 5.680088
_cell_angle_alpha 90.000000
_cell_angle_beta 90.000000
_cell_angle_gamma 90.000000
_cell_volume 1095.079937
_symmetry_space_group_name_H-M "P C A 21"
_symmetry_group_IT_number 29
_symmetry_cell_setting 'orthorhombic'
loop_
_space_group_symop_operation_xyz
x,y,z
-x,-y,1/2+z
1/2-x,y,1/2+z
1/2+x,-y,z
loop_
_atom_site_type_symbol
_atom_site_label
_atom_site_fract_x
_atom_site_fract_y
_atom_site_fract_z
Si Si1 0.472808 0.838690 0.598880
Si Si2 0.078324 0.602738 0.788066
Si Si3 0.451403 0.316019 0.486133
Si Si4 0.905548 0.914255 0.788004
Si Si5 0.767999 0.967822 0.885014
Si Si6 0.277243 0.709719 0.289604
O O1 0.444298 0.690183 0.516353
O O2 0.517278 0.803578 0.822980
O O3 0.523700 0.900862 0.412305
O O4 0.413884 0.947900 0.628623
O O5 0.084368 0.439136 0.845454
O O6 0.147146 0.675519 0.718977
O O7 0.016375 0.620412 0.612965
O O8 0.402385 0.235543 0.660791
O O9 0.844924 0.952204 0.953169
O O10 0.766794 0.905860 0.617393
O O11 0.741088 0.125073 0.828781
O O12 0.263235 0.655169 0.558219
#
# Coordination Sequence:
#
# PCOD9341079 Si02
#       6
#     4   4   4   4   4   4
#     4  11  22  39  65 100 131 176 216 288 348 406
#     4  11  24  42  70  98 140 174 237 279 353 419
#     4  11  24  41  65 104 134 181 213 301 352 406
#     4  11  24  39  66  99 138 168 233 284 350 413
#     4  10  23  40  65  95 131 182 227 282 337 404
#     4  10  23  41  67 100 128 183 234 284 326 410
#
# _framework density 21.916208999999998
#
# number of rings (size 3 to 8) (size 9 to 14) (size 15 to 20)
#    0.000    1.333    3.333    2.000    9.333    0.000 
#    0.000    1.667    0.000    0.000    0.000    0.000 
#    0.000    0.000    0.000    0.000    0.000    0.000 
#
# Total GULP energy -133676.145588 kJ/mol
# GULP energy per Si atom -5569.839399 kJ/mol
# Density = 2.186633 g / cm^3
# Si number density = 21.916209 Si / 1000 Ang^3
#
#
#
# Elastic Constant Matrix: (Units=GPa)
#
#
# Indices 1 2 3 4 5 6 
#
# 1 59.1725 8.9822 -21.1459 0.0000 0.0000 0.0000
# 2 8.9822 82.4315 -0.4000 0.0000 0.0000 0.0000
# 3 -21.1459 -0.4000 73.3606 0.0000 0.0000 0.0000
# 4 0.0000 0.0000 0.0000 5.6058 0.0000 0.0000
# 5 0.0000 0.0000 0.0000 0.0000 22.1898 0.0000
# 6 0.0000 0.0000 0.0000 0.0000 0.0000 17.2354
#
#
#
# Elastic Compliance Matrix: (Units=1/GPa)
#
#
# Indices 1 2 3 4 5 6 
#
# 1 0.019185 -0.002064 0.005519 0.000000 0.000000 0.000000
# 2 -0.002064 0.012354 -0.000528 0.000000 0.000000 0.000000
# 3 0.005519 -0.000528 0.015219 0.000000 0.000000 0.000000
# 4 0.000000 0.000000 0.000000 0.178386 0.000000 0.000000
# 5 0.000000 0.000000 0.000000 0.000000 0.045066 0.000000
# 6 0.000000 0.000000 0.000000 0.000000 0.000000 0.058020
#
#
# Mechanical properties :
#
#
# Convention : Reuss Voigt Hill
#
# Bulk Modulus (GPa) = 19.00669 21.09304 20.04987
# Shear Modulus (GPa) = 14.70969 24.17477 19.44223
#
# Velocity S-wave (km/s) = 2.59352 3.32483 2.98168
# Velocity P-wave (km/s) = 4.20235 4.93808 4.58499
#
# Compressibility (1/GPa) = 0.05261305
#
# Stress axis : x y z
#
# Youngs Moduli (GPa) = 52.12353 80.94809 65.70655
#
# Poissons Ratio (x) = 0.16706 -0.36262
# Poissons Ratio (y) = 0.10757 0.03466
# Poissons Ratio (z) = -0.28766 0.04270
#
# Static dielectric constant tensor:
#      x y z
#    x 1.776830 0.000000 0.000000 
#    y 0.000000 1.803350 0.000000 
#    z 0.000000 0.000000 1.943900 
# 
# From -- ./inp_files/362.got.cif
#   From: 2010.05.17/outbox.cif.g08.bks.cpg/sg29_1_cif.got.tgz:362.got - 2010.06.04 01:19:37.
