data_PCOD9341998
_publ_section_title
;
Structure prediction by ZEFSAII (Michael W. Deem and Ramdas Pophale) SiO2 
 PCOD9341998
Probable space group: P N C 2
;
_chemical_formula_sum "Si O2"
_cell_formula_units_Z 20
_cell_length_a 10.749010
_cell_length_b 10.538775
_cell_length_c 8.981638
_cell_angle_alpha 90.000000
_cell_angle_beta 90.000000
_cell_angle_gamma 90.000000
_cell_volume 1017.452508
_symmetry_space_group_name_H-M "P N C 2"
_symmetry_group_IT_number 30
_symmetry_cell_setting 'orthorhombic'
loop_
_space_group_symop_operation_xyz
x,y,z
-x,-y,z
-x,1/2+y,1/2+z
x,1/2-y,1/2+z
loop_
_atom_site_type_symbol
_atom_site_label
_atom_site_fract_x
_atom_site_fract_y
_atom_site_fract_z
Si Si1 0.373730 0.078926 0.998810
Si Si2 0.193347 0.716218 0.791328
Si Si3 0.119166 0.918859 0.016738
Si Si4 0.331196 0.898151 0.556753
Si Si5 0.610275 0.837364 0.657477
O O1 0.391999 0.138194 0.834066
O O2 0.500000 0.000000 0.033873
O O3 0.353248 0.195697 0.111513
O O4 0.252672 0.988580 0.996335
O O5 0.115033 0.623435 0.688245
O O6 0.256365 0.813954 0.676147
O O7 0.117790 0.797366 0.909972
O O8 0.293833 0.641238 0.890563
O O9 0.000000 0.000000 0.978188
O O10 0.473301 0.861986 0.590483
O O11 0.310182 0.046924 0.588026
#
# Coordination Sequence:
#
# PCOD9341998 Si02
#       5
#     4   4   4   4   4
#     4  12  24  42  63  97 134 169 217 273 327 386
#     4  10  21  43  66  89 130 177 214 259 340 389
#     4  11  25  45  68  94 132 173 221 269 327 393
#     4  10  19  39  64  95 132 172 211 265 333 392
#     4  11  22  36  62  98 132 162 220 270 320 384
#
# _framework density 19.656935000000001
#
# number of rings (size 3 to 8) (size 9 to 14) (size 15 to 20)
#    0.000    1.200    4.000    3.600    2.800    1.600 
#    0.000    2.000    0.000    0.000    0.000    0.000 
#    0.000    0.000    0.000    0.000    0.000    0.000 
#
# Total GULP energy -111698.401371 kJ/mol
# GULP energy per Si atom -5584.920069 kJ/mol
# Density = 1.961220 g / cm^3
# Si number density = 19.656935 Si / 1000 Ang^3
#
#
#
# Elastic Constant Matrix: (Units=GPa)
#
#
# Indices 1 2 3 4 5 6 
#
# 1 58.2589 9.0594 3.6749 0.0000 0.0000 0.0000
# 2 9.0594 84.5657 25.2404 0.0000 0.0000 0.0000
# 3 3.6749 25.2404 88.3862 0.0000 0.0000 0.0000
# 4 0.0000 0.0000 0.0000 58.5982 0.0000 0.0000
# 5 0.0000 0.0000 0.0000 0.0000 9.2264 0.0000
# 6 0.0000 0.0000 0.0000 0.0000 0.0000 28.1990
#
#
#
# Elastic Compliance Matrix: (Units=1/GPa)
#
#
# Indices 1 2 3 4 5 6 
#
# 1 0.017459 -0.001808 -0.000210 0.000000 0.000000 0.000000
# 2 -0.001808 0.013114 -0.003670 0.000000 0.000000 0.000000
# 3 -0.000210 -0.003670 0.012371 0.000000 0.000000 0.000000
# 4 0.000000 0.000000 0.000000 0.017065 0.000000 0.000000
# 5 0.000000 0.000000 0.000000 0.000000 0.108385 0.000000
# 6 0.000000 0.000000 0.000000 0.000000 0.000000 0.035462
#
#
# Mechanical properties :
#
#
# Convention : Reuss Voigt Hill
#
# Bulk Modulus (GPa) = 31.67629 34.12890 32.90259
# Shear Modulus (GPa) = 22.14802 32.08714 27.11758
#
# Velocity S-wave (km/s) = 3.36032 4.04463 3.71825
# Velocity P-wave (km/s) = 5.58616 6.26195 5.93368
#
# Compressibility (1/GPa) = 0.03156936
#
# Stress axis : x y z
#
# Youngs Moduli (GPa) = 57.27675 76.25365 80.83628
#
# Poissons Ratio (x) = 0.13785 0.01695
# Poissons Ratio (y) = 0.10354 0.29665
# Poissons Ratio (z) = 0.01201 0.27984
#
# Static dielectric constant tensor:
#      x y z
#    x 1.678630 0.000000 0.000000 
#    y 0.000000 1.725750 0.000000 
#    z 0.000000 0.000000 1.693590 
# 
# From -- ./inp_files/1695.got.cif
#   From: 2010.05.17/outbox.cif.g08.bks.cpg/sg30_1_cif.got.tgz:1695.got - 2010.06.03 17:03:02.
