data_PCOD9341042
_publ_section_title
;
Structure prediction by ZEFSAII (Michael W. Deem and Ramdas Pophale) SiO2 
 PCOD9341042
Probable space group: P C A 21
;
_chemical_formula_sum "Si O2"
_cell_formula_units_Z 28
_cell_length_a 8.932074
_cell_length_b 11.589868
_cell_length_c 10.849356
_cell_angle_alpha 90.000000
_cell_angle_beta 90.000000
_cell_angle_gamma 90.000000
_cell_volume 1123.142243
_symmetry_space_group_name_H-M "P C A 21"
_symmetry_group_IT_number 29
_symmetry_cell_setting 'orthorhombic'
loop_
_space_group_symop_operation_xyz
x,y,z
-x,-y,1/2+z
1/2-x,y,1/2+z
1/2+x,-y,z
loop_
_atom_site_type_symbol
_atom_site_label
_atom_site_fract_x
_atom_site_fract_y
_atom_site_fract_z
Si Si1 0.716696 0.344980 0.647410
Si Si2 0.145636 0.371010 0.896353
Si Si3 0.119946 0.236981 0.508249
Si Si4 0.707340 0.988223 0.363704
Si Si5 0.429595 0.467952 0.752421
Si Si6 0.316638 0.771217 0.402519
Si Si7 0.950021 0.851219 0.262041
O O1 0.554732 0.402672 0.672011
O O2 0.850458 0.435752 0.666632
O O3 0.733596 0.258115 0.763865
O O4 0.727326 0.290705 0.512208
O O5 0.246982 0.331167 0.014213
O O6 0.284137 0.402122 0.805013
O O7 0.068528 0.250933 0.859758
O O8 0.023097 0.468899 0.864688
O O9 0.033606 0.212570 0.633768
O O10 0.987652 0.269747 0.414133
O O11 0.175836 0.112583 0.460549
O O12 0.805048 0.091740 0.420551
O O13 0.567159 0.054999 0.307623
O O14 0.794936 0.921621 0.256769
#
# Coordination Sequence:
#
# PCOD9341042 Si02
#       7
#     4   4   4   4   4   4   4
#     4  11  26  45  74 105 147 189 248 296 369 431
#     4  10  22  46  67 101 139 182 245 288 364 423
#     4  11  24  43  69 104 140 191 238 307 353 445
#     4  11  25  44  70 100 143 187 237 294 378 423
#     4  10  22  49  70 103 144 194 236 309 359 430
#     4  12  24  46  70 110 143 193 241 304 361 446
#     4  11  25  45  68 105 144 186 243 302 358 446
#
# _framework density 24.930057000000001
#
# number of rings (size 3 to 8) (size 9 to 14) (size 15 to 20)
#    0.000    1.143    2.857    2.571    4.000    1.143 
#   18.000    0.000    0.000    0.000    0.000    0.000 
#    0.000    0.000    0.000    0.000    0.000    0.000 
#
# Total GULP energy -156544.443936 kJ/mol
# GULP energy per Si atom -5590.872998 kJ/mol
# Density = 2.487331 g / cm^3
# Si number density = 24.930057 Si / 1000 Ang^3
#
#
#
# Elastic Constant Matrix: (Units=GPa)
#
#
# Indices 1 2 3 4 5 6 
#
# 1 104.2506 34.1419 16.7509 0.0000 0.0000 0.0000
# 2 34.1419 98.1162 11.8441 0.0000 0.0000 0.0000
# 3 16.7509 11.8441 77.8346 0.0000 0.0000 0.0000
# 4 0.0000 0.0000 0.0000 32.7636 0.0000 0.0000
# 5 0.0000 0.0000 0.0000 0.0000 32.7247 0.0000
# 6 0.0000 0.0000 0.0000 0.0000 0.0000 60.8151
#
#
#
# Elastic Compliance Matrix: (Units=1/GPa)
#
#
# Indices 1 2 3 4 5 6 
#
# 1 0.011076 -0.003633 -0.001831 0.000000 0.000000 0.000000
# 2 -0.003633 0.011575 -0.000979 0.000000 0.000000 0.000000
# 3 -0.001831 -0.000979 0.013391 0.000000 0.000000 0.000000
# 4 0.000000 0.000000 0.000000 0.030522 0.000000 0.000000
# 5 0.000000 0.000000 0.000000 0.000000 0.030558 0.000000
# 6 0.000000 0.000000 0.000000 0.000000 0.000000 0.016443
#
#
# Mechanical properties :
#
#
# Convention : Reuss Voigt Hill
#
# Bulk Modulus (GPa) = 43.18790 45.07500 44.13145
# Shear Modulus (GPa) = 37.26618 39.75831 38.51224
#
# Velocity S-wave (km/s) = 3.87050 3.99782 3.93467
# Velocity P-wave (km/s) = 6.11028 6.27932 6.19538
#
# Compressibility (1/GPa) = 0.02315463
#
# Stress axis : x y z
#
# Youngs Moduli (GPa) = 90.28247 86.39678 74.67807
#
# Poissons Ratio (x) = 0.31390 0.13673
# Poissons Ratio (y) = 0.32802 0.07314
# Poissons Ratio (z) = 0.16530 0.08461
#
# Static dielectric constant tensor:
#      x y z
#    x 2.023510 0.000000 0.000000 
#    y 0.000000 1.933100 0.000000 
#    z 0.000000 0.000000 2.011290 
# 
# From -- ./inp_files/2876.got.cif
#   From: 2010.05.17/outbox.cif.g08.bks.cpg/sg29_2_cif.got.tgz:2876.got - 2010.06.04 01:19:37.
