data_PCOD9341953
_publ_section_title
;
Structure prediction by ZEFSAII (Michael W. Deem and Ramdas Pophale) SiO2 
 PCOD9341953
Probable space group: P N C 2
;
_chemical_formula_sum "Si O2"
_cell_formula_units_Z 32
_cell_length_a 9.823853
_cell_length_b 28.394236
_cell_length_c 5.491571
_cell_angle_alpha 90.000000
_cell_angle_beta 90.000000
_cell_angle_gamma 90.000000
_cell_volume 1531.823211
_symmetry_space_group_name_H-M "P N C 2"
_symmetry_group_IT_number 30
_symmetry_cell_setting 'orthorhombic'
loop_
_space_group_symop_operation_xyz
x,y,z
-x,-y,z
-x,1/2+y,1/2+z
x,1/2-y,1/2+z
loop_
_atom_site_type_symbol
_atom_site_label
_atom_site_fract_x
_atom_site_fract_y
_atom_site_fract_z
Si Si1 0.388362 0.775229 0.332680
Si Si2 0.984939 0.447783 0.533103
Si Si3 0.765191 0.067611 0.405586
Si Si4 0.654390 0.514052 0.172105
Si Si5 0.710433 0.932647 0.167017
Si Si6 0.808087 0.366422 0.283921
Si Si7 0.083648 0.738310 0.337750
Si Si8 0.555209 0.376705 0.629216
O O1 0.433878 0.754930 0.594656
O O2 0.223499 0.769296 0.336276
O O3 0.430544 0.828733 0.282815
O O4 0.128821 0.427054 0.621793
O O5 0.000000 0.500000 0.413218
O O6 0.883556 0.456804 0.757272
O O7 0.907540 0.405495 0.398256
O O8 0.807182 0.118813 0.502274
O O9 0.629163 0.078296 0.254585
O O10 0.734150 0.034202 0.630046
O O11 0.500000 0.500000 0.139233
O O12 0.673768 0.532117 0.444750
O O13 0.691594 0.548244 0.943986
O O14 0.603151 0.890537 0.114112
O O15 0.866607 0.315303 0.332972
O O16 0.654069 0.368975 0.393814
O O17 0.008972 0.749804 0.587746
#
# Coordination Sequence:
#
# PCOD9341953 Si02
#       8
#     4   4   4   4   4   4   4   4
#     4  10  19  34  61  93 129 157 203 261 340 388
#     4  11  25  43  61  92 134 184 227 268 323 398
#     4  11  23  38  65  91 127 171 226 275 317 383
#     4  12  24  43  66  90 128 170 225 273 320 372
#     4  12  27  43  63  92 132 173 213 269 327 388
#     4  11  23  38  68  97 129 171 227 273 327 397
#     4  10  19  36  61  97 129 155 205 277 341 380
#     4  11  23  39  63 100 127 166 214 279 328 396
#
# _framework density 20.890139999999999
#
# number of rings (size 3 to 8) (size 9 to 14) (size 15 to 20)
#    0.000    1.000    5.000    3.375    5.250    0.500 
#    0.000    0.000    0.000    1.500    0.000    0.000 
#    0.000    0.000    0.000    0.000    0.000    0.000 
#
# Total GULP energy -178511.721122 kJ/mol
# GULP energy per Si atom -5578.491285 kJ/mol
# Density = 2.084259 g / cm^3
# Si number density = 20.890140 Si / 1000 Ang^3
#
#
#
# Elastic Constant Matrix: (Units=GPa)
#
#
# Indices 1 2 3 4 5 6 
#
# 1 95.9545 28.2500 -0.5640 0.0000 0.0000 0.0000
# 2 28.2500 102.1205 22.1415 0.0000 0.0000 0.0000
# 3 -0.5640 22.1415 90.7897 0.0000 0.0000 0.0000
# 4 0.0000 0.0000 0.0000 31.9651 0.0000 0.0000
# 5 0.0000 0.0000 0.0000 0.0000 12.0993 0.0000
# 6 0.0000 0.0000 0.0000 0.0000 0.0000 18.5096
#
#
#
# Elastic Compliance Matrix: (Units=1/GPa)
#
#
# Indices 1 2 3 4 5 6 
#
# 1 0.011413 -0.003350 0.000888 0.000000 0.000000 0.000000
# 2 -0.003350 0.011322 -0.002782 0.000000 0.000000 0.000000
# 3 0.000888 -0.002782 0.011698 0.000000 0.000000 0.000000
# 4 0.000000 0.000000 0.000000 0.031284 0.000000 0.000000
# 5 0.000000 0.000000 0.000000 0.000000 0.082649 0.000000
# 6 0.000000 0.000000 0.000000 0.000000 0.000000 0.054026
#
#
# Mechanical properties :
#
#
# Convention : Reuss Voigt Hill
#
# Bulk Modulus (GPa) = 41.76097 43.16885 42.46491
# Shear Modulus (GPa) = 22.63850 28.45063 25.54456
#
# Velocity S-wave (km/s) = 3.29552 3.69442 3.50066
# Velocity P-wave (km/s) = 5.87493 6.23762 6.05899
#
# Compressibility (1/GPa) = 0.02394580
#
# Stress axis : x y z
#
# Youngs Moduli (GPa) = 87.61925 88.32209 85.48135
#
# Poissons Ratio (x) = 0.29585 -0.07589
# Poissons Ratio (y) = 0.29350 0.23781
# Poissons Ratio (z) = -0.07779 0.24571
#
# Static dielectric constant tensor:
#      x y z
#    x 1.734060 0.000000 0.000000 
#    y 0.000000 1.771640 0.000000 
#    z 0.000000 0.000000 1.887130 
# 
# From -- ./inp_files/572.got.cif
#   From: 2010.05.17/outbox.cif.g08.bks.cpg/sg30_1_cif.got.tgz:572.got - 2010.06.03 17:03:02.
