data_PCOD9341794
_publ_section_title
;
Structure prediction by ZEFSAII (Michael W. Deem and Ramdas Pophale) SiO2 
 PCOD9341794
Probable space group: P C A 21
;
_chemical_formula_sum "Si O2"
_cell_formula_units_Z 24
_cell_length_a 9.000000
_cell_length_b 12.000000
_cell_length_c 9.000000
_cell_angle_alpha 90.000000
_cell_angle_beta 90.000000
_cell_angle_gamma 90.000000
_cell_volume 972.000000
_symmetry_space_group_name_H-M "P C A 21"
_symmetry_group_IT_number 29
_symmetry_cell_setting 'orthorhombic'
loop_
_space_group_symop_operation_xyz
x,y,z
-x,-y,1/2+z
1/2-x,y,1/2+z
1/2+x,-y,z
loop_
_atom_site_type_symbol
_atom_site_label
_atom_site_fract_x
_atom_site_fract_y
_atom_site_fract_z
Si Si1 0.423210 0.463099 0.242850
Si Si2 0.325959 0.816013 0.562988
Si Si3 0.395536 0.180386 0.887495
Si Si4 0.848282 0.582034 0.898721
Si Si5 0.339305 0.078990 0.567611
Si Si6 0.945494 0.238669 0.885031
O O1 0.283954 0.495396 0.344170
O O2 0.534631 0.562967 0.267287
O O3 0.493988 0.358022 0.331356
O O4 0.390408 0.437420 0.070533
O O5 0.447750 0.774598 0.444844
O O6 0.173959 0.757138 0.517686
O O7 0.366862 0.802155 0.734242
O O8 0.331235 0.948622 0.538078
O O9 0.299061 0.291478 0.872831
O O10 0.388148 0.111675 0.734893
O O11 0.327620 0.117535 0.029526
O O12 0.440738 0.145266 0.448660
#
# Coordination Sequence:
#
# PCOD9341794 Si02
#       6
#     4   4   4   4   4   4
#     4  12  28  50  81 106 150 187 248 301 375 434
#     4  12  25  45  70 108 148 193 246 295 358 437
#     4  12  25  45  75 105 149 187 242 304 361 434
#     4  12  27  51  78 112 142 196 239 308 368 440
#     4  12  24  44  74 105 146 197 242 296 365 432
#     4  12  27  47  70 108 149 192 245 306 361 433
#
# _framework density 24.691358000000001
#
# number of rings (size 3 to 8) (size 9 to 14) (size 15 to 20)
#    0.000    0.000    3.333    7.000    4.667    1.333 
#    0.000    0.000    0.000    0.000    0.000    0.000 
#    0.000    0.000    0.000    0.000    0.000    0.000 
#
# Total GULP energy -134100.185667 kJ/mol
# GULP energy per Si atom -5587.507736 kJ/mol
# Density = 2.463516 g / cm^3
# Si number density = 24.691358 Si / 1000 Ang^3
#
#
#
# Elastic Constant Matrix: (Units=GPa)
#
#
# Indices 1 2 3 4 5 6 
#
# 1 71.7914 -0.6269 16.8223 0.0000 0.0000 0.0000
# 2 -0.6269 23.6284 3.2789 0.0000 0.0000 0.0000
# 3 16.8223 3.2789 125.8414 0.0000 0.0000 0.0000
# 4 0.0000 0.0000 0.0000 39.2747 0.0000 0.0000
# 5 0.0000 0.0000 0.0000 0.0000 43.2120 0.0000
# 6 0.0000 0.0000 0.0000 0.0000 0.0000 28.4810
#
#
#
# Elastic Compliance Matrix: (Units=1/GPa)
#
#
# Indices 1 2 3 4 5 6 
#
# 1 0.014390 0.000651 -0.001941 0.000000 0.000000 0.000000
# 2 0.000651 0.042505 -0.001195 0.000000 0.000000 0.000000
# 3 -0.001941 -0.001195 0.008237 0.000000 0.000000 0.000000
# 4 0.000000 0.000000 0.000000 0.025462 0.000000 0.000000
# 5 0.000000 0.000000 0.000000 0.000000 0.023142 0.000000
# 6 0.000000 0.000000 0.000000 0.000000 0.000000 0.035111
#
#
# Mechanical properties :
#
#
# Convention : Reuss Voigt Hill
#
# Bulk Modulus (GPa) = 16.62133 28.91220 22.76676
# Shear Modulus (GPa) = 28.75730 35.64599 32.20165
#
# Velocity S-wave (km/s) = 3.41643 3.80368 3.61524
# Velocity P-wave (km/s) = 4.72323 5.57005 5.16403
#
# Compressibility (1/GPa) = 0.06016365
#
# Stress axis : x y z
#
# Youngs Moduli (GPa) = 69.49447 23.52664 121.40273
#
# Poissons Ratio (x) = -0.01532 0.23559
# Poissons Ratio (y) = -0.04524 0.14502
# Poissons Ratio (z) = 0.13486 0.02810
#
# Static dielectric constant tensor:
#      x y z
#    x 2.130520 0.000000 0.000000 
#    y 0.000000 2.224680 0.000000 
#    z 0.000000 0.000000 1.864210 
# 
# From -- ./inp_files/1124.got.cif
#   From: 2010.05.17/outbox.ucp.g08.bks.cvg/sg29_1_cif.got.tgz:1124.got - 2010.06.11 15:24:14.
