data_PCOD9341712
_publ_section_title
;
Structure prediction by ZEFSAII (Michael W. Deem and Ramdas Pophale) SiO2 
 PCOD9341712
Probable space group: P C A 21
;
_chemical_formula_sum "Si O2"
_cell_formula_units_Z 24
_cell_length_a 13.094066
_cell_length_b 8.018746
_cell_length_c 9.251255
_cell_angle_alpha 90.000000
_cell_angle_beta 90.000000
_cell_angle_gamma 90.000000
_cell_volume 971.363174
_symmetry_space_group_name_H-M "P C A 21"
_symmetry_group_IT_number 29
_symmetry_cell_setting 'orthorhombic'
loop_
_space_group_symop_operation_xyz
x,y,z
-x,-y,1/2+z
1/2-x,y,1/2+z
1/2+x,-y,z
loop_
_atom_site_type_symbol
_atom_site_label
_atom_site_fract_x
_atom_site_fract_y
_atom_site_fract_z
Si Si1 0.396582 0.274970 0.613710
Si Si2 0.616598 0.992846 0.886413
Si Si3 0.115421 0.559209 0.564296
Si Si4 0.385907 0.038904 0.840002
Si Si5 0.245662 0.723690 0.315801
Si Si6 0.175940 0.216004 0.615853
O O1 0.397183 0.094441 0.538649
O O2 0.500665 0.362929 0.570299
O O3 0.386254 0.228369 0.780264
O O4 0.279888 0.320213 0.576395
O O5 0.675651 0.869686 0.773827
O O6 0.503894 0.998402 0.825563
O O7 0.666408 0.173338 0.900755
O O8 0.173283 0.607432 0.414607
O O9 0.190138 0.636538 0.688546
O O10 0.096714 0.365295 0.601414
O O11 0.325945 0.881346 0.774583
O O12 0.345990 0.066227 0.004158
#
# Coordination Sequence:
#
# PCOD9341712 Si02
#       6
#     4   4   4   4   4   4
#     4  12  24  46  74 102 144 194 243 296 376 432
#     4  12  24  45  78 104 140 193 250 294 358 444
#     4  12  30  45  73 110 152 191 242 317 380 426
#     4  12  24  45  78 104 140 193 250 294 358 444
#     4  12  24  48  72 110 142 190 252 308 354 442
#     4  12  28  47  71 112 150 189 241 311 372 440
#
# _framework density 24.707546000000001
#
# number of rings (size 3 to 8) (size 9 to 14) (size 15 to 20)
#    0.000    0.000    6.667    3.000    4.667    4.000 
#    0.000    0.000    0.000    0.000    0.000    0.000 
#    0.000    0.000    0.000    0.000    0.000    0.000 
#
# Total GULP energy -133821.400561 kJ/mol
# GULP energy per Si atom -5575.891690 kJ/mol
# Density = 2.465131 g / cm^3
# Si number density = 24.707546 Si / 1000 Ang^3
#
#
#
# Elastic Constant Matrix: (Units=GPa)
#
#
# Indices 1 2 3 4 5 6 
#
# 1 129.8487 6.3979 -6.3939 0.0000 0.0000 0.0000
# 2 6.3979 90.3916 12.4422 0.0000 0.0000 0.0000
# 3 -6.3939 12.4422 61.9990 0.0000 0.0000 0.0000
# 4 0.0000 0.0000 0.0000 24.6494 0.0000 0.0000
# 5 0.0000 0.0000 0.0000 0.0000 28.7386 0.0000
# 6 0.0000 0.0000 0.0000 0.0000 0.0000 30.0894
#
#
#
# Elastic Compliance Matrix: (Units=1/GPa)
#
#
# Indices 1 2 3 4 5 6 
#
# 1 0.007781 -0.000680 0.000939 0.000000 0.000000 0.000000
# 2 -0.000680 0.011437 -0.002365 0.000000 0.000000 0.000000
# 3 0.000939 -0.002365 0.016701 0.000000 0.000000 0.000000
# 4 0.000000 0.000000 0.000000 0.040569 0.000000 0.000000
# 5 0.000000 0.000000 0.000000 0.000000 0.034796 0.000000
# 6 0.000000 0.000000 0.000000 0.000000 0.000000 0.033234
#
#
# Mechanical properties :
#
#
# Convention : Reuss Voigt Hill
#
# Bulk Modulus (GPa) = 31.53999 34.12575 32.83287
# Shear Modulus (GPa) = 31.38744 34.68169 33.03457
#
# Velocity S-wave (km/s) = 3.56808 3.75065 3.66050
# Velocity P-wave (km/s) = 5.45600 5.70949 5.58419
#
# Compressibility (1/GPa) = 0.03170578
#
# Stress axis : x y z
#
# Youngs Moduli (GPa) = 128.51809 87.43793 59.87737
#
# Poissons Ratio (x) = 0.05946 -0.05622
# Poissons Ratio (y) = 0.08739 0.14163
# Poissons Ratio (z) = -0.12067 0.20681
#
# Static dielectric constant tensor:
#      x y z
#    x 2.202430 0.000000 0.000000 
#    y 0.000000 1.983550 0.000000 
#    z 0.000000 0.000000 2.005830 
# 
# From -- ./inp_files/1403.got.cif
#   From: 2010.05.17/outbox.cif.g08.bks.cpg/sg29_1_cif.got.tgz:1403.got - 2010.06.04 01:19:37.
