data_PCOD9341358
_publ_section_title
;
Structure prediction by ZEFSAII (Michael W. Deem and Ramdas Pophale) SiO2 
 PCOD9341358
Probable space group: P C A 21
;
_chemical_formula_sum "Si O2"
_cell_formula_units_Z 28
_cell_length_a 9.184969
_cell_length_b 5.984305
_cell_length_c 21.877813
_cell_angle_alpha 90.000000
_cell_angle_beta 90.000000
_cell_angle_gamma 90.000000
_cell_volume 1202.528341
_symmetry_space_group_name_H-M "P C A 21"
_symmetry_group_IT_number 29
_symmetry_cell_setting 'orthorhombic'
loop_
_space_group_symop_operation_xyz
x,y,z
-x,-y,1/2+z
1/2-x,y,1/2+z
1/2+x,-y,z
loop_
_atom_site_type_symbol
_atom_site_label
_atom_site_fract_x
_atom_site_fract_y
_atom_site_fract_z
Si Si1 0.901044 0.162876 0.208560
Si Si2 0.099458 0.220558 0.799721
Si Si3 0.355572 0.949571 0.534516
Si Si4 0.638076 0.439626 0.519880
Si Si5 0.640154 0.726981 0.942952
Si Si6 0.873759 0.818581 0.101129
Si Si7 0.650477 0.492640 0.234186
O O1 0.754771 0.312467 0.199675
O O2 0.038271 0.331064 0.203105
O O3 0.900110 0.035938 0.274814
O O4 0.905692 0.948857 0.163042
O O5 0.113723 0.264356 0.871596
O O6 0.234817 0.350512 0.769136
O O7 0.952975 0.341099 0.776407
O O8 0.258929 0.733412 0.542293
O O9 0.522032 0.928182 0.550624
O O10 0.335156 0.020577 0.465176
O O11 0.289453 0.131705 0.580608
O O12 0.497995 0.354540 0.483079
O O13 0.722719 0.591973 0.469745
O O14 0.595437 0.564271 0.583345
#
# Coordination Sequence:
#
# PCOD9341358 Si02
#       7
#     4   4   4   4   4   4   4
#     4  11  26  50  73 105 144 192 243 301 366 434
#     4  11  24  45  72 108 148 190 242 299 361 429
#     4  11  24  45  68 105 136 189 234 295 366 420
#     4  11  23  46  71 105 141 192 242 292 368 422
#     4  11  24  43  72 103 147 188 243 300 351 432
#     4  11  26  46  71 101 144 179 243 301 361 437
#     4  10  25  47  71 109 138 192 243 290 375 424
#
# _framework density 23.284275000000001
#
# number of rings (size 3 to 8) (size 9 to 14) (size 15 to 20)
#    0.000    1.143    2.857    1.714    4.000    6.857 
#    2.571    0.000    0.000    0.000    0.000    0.000 
#    0.000    0.000    0.000    0.000    0.000    0.000 
#
# Total GULP energy -156301.800632 kJ/mol
# GULP energy per Si atom -5582.207165 kJ/mol
# Density = 2.323128 g / cm^3
# Si number density = 23.284275 Si / 1000 Ang^3
#
#
#
# Elastic Constant Matrix: (Units=GPa)
#
#
# Indices 1 2 3 4 5 6 
#
# 1 123.0743 39.8922 30.4291 0.0000 0.0000 0.0000
# 2 39.8922 92.5555 59.4018 0.0000 0.0000 0.0000
# 3 30.4291 59.4018 116.7672 0.0000 0.0000 0.0000
# 4 0.0000 0.0000 0.0000 27.8827 0.0000 0.0000
# 5 0.0000 0.0000 0.0000 0.0000 16.6193 0.0000
# 6 0.0000 0.0000 0.0000 0.0000 0.0000 35.8778
#
#
#
# Elastic Compliance Matrix: (Units=1/GPa)
#
#
# Indices 1 2 3 4 5 6 
#
# 1 0.009471 -0.003709 -0.000581 0.000000 0.000000 0.000000
# 2 -0.003709 0.017494 -0.007933 0.000000 0.000000 0.000000
# 3 -0.000581 -0.007933 0.012751 0.000000 0.000000 0.000000
# 4 0.000000 0.000000 0.000000 0.035865 0.000000 0.000000
# 5 0.000000 0.000000 0.000000 0.000000 0.060171 0.000000
# 6 0.000000 0.000000 0.000000 0.000000 0.000000 0.027872
#
#
# Mechanical properties :
#
#
# Convention : Reuss Voigt Hill
#
# Bulk Modulus (GPa) = 65.48876 65.76035 65.62455
# Shear Modulus (GPa) = 25.88502 29.58756 27.73629
#
# Velocity S-wave (km/s) = 3.33783 3.56857 3.45512
# Velocity P-wave (km/s) = 6.56061 6.72929 6.64548
#
# Compressibility (1/GPa) = 0.01526980
#
# Stress axis : x y z
#
# Youngs Moduli (GPa) = 105.58423 57.16085 78.42336
#
# Poissons Ratio (x) = 0.21201 0.04558
# Poissons Ratio (y) = 0.39162 0.62215
# Poissons Ratio (z) = 0.06137 0.45347
#
# Static dielectric constant tensor:
#      x y z
#    x 1.828650 0.000000 0.000000 
#    y 0.000000 2.016050 0.000000 
#    z 0.000000 0.000000 1.864840 
# 
# From -- ./inp_files/5659.got.cif
#   From: 2010.05.17/outbox.cif.g08.bks.cpg/sg29_3_cif.got.tgz:5659.got - 2010.06.04 01:19:37.
