data_PCOD9341760
_publ_section_title
;
Structure prediction by ZEFSAII (Michael W. Deem and Ramdas Pophale) SiO2 
 PCOD9341760
Probable space group: P C A 21
;
_chemical_formula_sum "Si O2"
_cell_formula_units_Z 24
_cell_length_a 9.846519
_cell_length_b 8.428809
_cell_length_c 12.794241
_cell_angle_alpha 90.000000
_cell_angle_beta 90.000000
_cell_angle_gamma 90.000000
_cell_volume 1061.850713
_symmetry_space_group_name_H-M "P C A 21"
_symmetry_group_IT_number 29
_symmetry_cell_setting 'orthorhombic'
loop_
_space_group_symop_operation_xyz
x,y,z
-x,-y,1/2+z
1/2-x,y,1/2+z
1/2+x,-y,z
loop_
_atom_site_type_symbol
_atom_site_label
_atom_site_fract_x
_atom_site_fract_y
_atom_site_fract_z
Si Si1 0.136590 0.363529 0.159570
Si Si2 0.253928 0.561372 0.351697
Si Si3 0.008754 0.443209 0.477649
Si Si4 0.136590 0.136471 0.550890
Si Si5 0.246073 0.938628 0.858763
Si Si6 0.491246 0.056791 0.732811
O O1 0.207259 0.473859 0.246544
O O2 0.250000 0.250000 0.105230
O O3 0.028509 0.242843 0.211375
O O4 0.055714 0.470464 0.077074
O O5 0.407091 0.519793 0.382813
O O6 0.240576 0.750000 0.355230
O O7 0.155978 0.502623 0.444385
O O8 0.028509 0.257157 0.499084
O O9 0.207259 0.026141 0.463915
O O10 0.055714 0.029536 0.633385
O O11 0.092909 0.980207 0.827646
O O12 0.344023 0.997377 0.766075
#
# Coordination Sequence:
#
# PCOD9341760 Si02
#       6
#     4   4   4   4   4   4
#     4  12  28  50  77 115 157 199 261 325 391 457
#     4  12  28  46  77 110 153 203 260 318 387 465
#     4  12  28  48  79 109 154 204 257 322 388 462
#     4  12  28  50  77 115 157 199 261 325 391 457
#     4  12  28  46  77 110 153 203 260 318 387 465
#     4  12  28  48  79 109 154 204 257 322 388 462
#
# _framework density 22.602048
#
# number of rings (size 3 to 8) (size 9 to 14) (size 15 to 20)
#    0.000    0.000    3.333    5.000   14.000    2.667 
#    0.000    0.000    0.000    0.000    0.000    0.000 
#    0.000    0.000    0.000    0.000    0.000    0.000 
#
# Total GULP energy -134465.090854 kJ/mol
# GULP energy per Si atom -5602.712119 kJ/mol
# Density = 2.255061 g / cm^3
# Si number density = 22.602048 Si / 1000 Ang^3
#
#
#
# Elastic Constant Matrix: (Units=GPa)
#
#
# Indices 1 2 3 4 5 6 
#
# 1 91.7642 18.7843 22.8676 0.0000 0.0000 0.0000
# 2 18.7843 81.7708 8.2804 0.0000 0.0000 0.0000
# 3 22.8676 8.2804 59.7953 0.0000 0.0000 0.0000
# 4 0.0000 0.0000 0.0000 58.4232 0.0000 0.0000
# 5 0.0000 0.0000 0.0000 0.0000 44.9301 0.0000
# 6 0.0000 0.0000 0.0000 0.0000 0.0000 40.8541
#
#
#
# Elastic Compliance Matrix: (Units=1/GPa)
#
#
# Indices 1 2 3 4 5 6 
#
# 1 0.012501 -0.002422 -0.004445 0.000000 0.000000 0.000000
# 2 -0.002422 0.012872 -0.000856 0.000000 0.000000 0.000000
# 3 -0.004445 -0.000856 0.018542 0.000000 0.000000 0.000000
# 4 0.000000 0.000000 0.000000 0.017116 0.000000 0.000000
# 5 0.000000 0.000000 0.000000 0.000000 0.022257 0.000000
# 6 0.000000 0.000000 0.000000 0.000000 0.000000 0.024477
#
#
# Mechanical properties :
#
#
# Convention : Reuss Voigt Hill
#
# Bulk Modulus (GPa) = 35.12618 37.02164 36.07391
# Shear Modulus (GPa) = 37.67819 41.06803 39.37311
#
# Velocity S-wave (km/s) = 4.08735 4.26726 4.17827
# Velocity P-wave (km/s) = 6.15225 6.37924 6.26677
#
# Compressibility (1/GPa) = 0.02846879
#
# Stress axis : x y z
#
# Youngs Moduli (GPa) = 79.99364 77.68615 53.93049
#
# Poissons Ratio (x) = 0.18812 0.23974
# Poissons Ratio (y) = 0.19371 0.04619
# Poissons Ratio (z) = 0.35561 0.06654
#
# Static dielectric constant tensor:
#      x y z
#    x 1.803600 0.000000 0.000000 
#    y 0.000000 1.884070 0.000000 
#    z 0.000000 0.000000 1.863010 
# 
# From -- ./inp_files/2808.got.cif
#   From: 2010.05.17/outbox.cif.g08.bks.cpg/sg29_2_cif.got.tgz:2808.got - 2010.06.04 01:19:37.
