data_PCOD9341711
_publ_section_title
;
Structure prediction by ZEFSAII (Michael W. Deem and Ramdas Pophale) SiO2 
 PCOD9341711
Probable space group: P C A 21
;
_chemical_formula_sum "Si O2"
_cell_formula_units_Z 32
_cell_length_a 19.405063
_cell_length_b 7.001506
_cell_length_c 10.917623
_cell_angle_alpha 90.000000
_cell_angle_beta 90.000000
_cell_angle_gamma 90.000000
_cell_volume 1483.319192
_symmetry_space_group_name_H-M "P C A 21"
_symmetry_group_IT_number 29
_symmetry_cell_setting 'orthorhombic'
loop_
_space_group_symop_operation_xyz
x,y,z
-x,-y,1/2+z
1/2-x,y,1/2+z
1/2+x,-y,z
loop_
_atom_site_type_symbol
_atom_site_label
_atom_site_fract_x
_atom_site_fract_y
_atom_site_fract_z
Si Si1 0.762073 0.364958 0.393040
Si Si2 0.145298 0.168362 0.648793
Si Si3 0.597519 0.993222 0.204021
Si Si4 0.645295 0.668370 0.381036
Si Si5 0.902477 0.506783 0.325805
Si Si6 0.454925 0.677547 0.882170
Si Si7 0.762077 0.135039 0.636783
Si Si8 0.954922 0.177556 0.147652
O O1 0.717587 0.558010 0.384216
O O2 0.842855 0.412667 0.406384
O O3 0.739525 0.249999 0.514913
O O4 0.749997 0.249998 0.264912
O O5 0.129569 0.249999 0.514916
O O6 0.138072 0.343460 0.740539
O O7 0.217591 0.058012 0.645607
O O8 0.089385 0.007609 0.681780
O O9 0.561954 0.156898 0.286082
O O10 0.657141 0.087329 0.123437
O O11 0.638069 0.843475 0.289294
O O12 0.534738 0.882030 0.141758
O O13 0.589380 0.507624 0.348047
O O14 0.938042 0.343119 0.243734
O O15 0.965259 0.617967 0.388073
O O16 0.432192 0.750001 0.014909
#
# Coordination Sequence:
#
# PCOD9341711 Si02
#       8
#     4   4   4   4   4   4   4   4
#     4  12  27  48  76 108 151 191 246 306 366 438
#     4  12  24  45  76 102 142 197 242 298 374 436
#     4  12  26  44  73 106 143 188 247 302 365 438
#     4  12  24  45  76 102 142 197 242 298 374 436
#     4  12  26  44  73 106 143 188 247 302 365 438
#     4  12  25  44  71 106 143 191 242 303 367 440
#     4  12  27  48  76 108 151 191 246 306 366 438
#     4  12  25  44  71 106 143 191 242 303 367 440
#
# _framework density 21.573239000000001
#
# number of rings (size 3 to 8) (size 9 to 14) (size 15 to 20)
#    0.000    0.000    7.500    3.000    0.000    6.000 
#    0.000    0.000    0.000    0.000    0.000    0.000 
#    0.000    0.000    0.000    0.000    0.000    0.000 
#
# Total GULP energy -179082.549320 kJ/mol
# GULP energy per Si atom -5596.329666 kJ/mol
# Density = 2.152414 g / cm^3
# Si number density = 21.573239 Si / 1000 Ang^3
#
#
#
# Elastic Constant Matrix: (Units=GPa)
#
#
# Indices 1 2 3 4 5 6 
#
# 1 138.3188 29.4060 3.3682 0.0000 0.0000 0.0000
# 2 29.4060 116.4636 33.5477 0.0000 0.0000 0.0000
# 3 3.3682 33.5477 64.6821 0.0000 0.0000 0.0000
# 4 0.0000 0.0000 0.0000 36.6190 0.0000 0.0000
# 5 0.0000 0.0000 0.0000 0.0000 15.2197 0.0000
# 6 0.0000 0.0000 0.0000 0.0000 0.0000 42.3908
#
#
#
# Elastic Compliance Matrix: (Units=1/GPa)
#
#
# Indices 1 2 3 4 5 6 
#
# 1 0.007667 -0.002141 0.000711 0.000000 0.000000 0.000000
# 2 -0.002141 0.010692 -0.005434 0.000000 0.000000 0.000000
# 3 0.000711 -0.005434 0.018242 0.000000 0.000000 0.000000
# 4 0.000000 0.000000 0.000000 0.027308 0.000000 0.000000
# 5 0.000000 0.000000 0.000000 0.000000 0.065704 0.000000
# 6 0.000000 0.000000 0.000000 0.000000 0.000000 0.023590
#
#
# Mechanical properties :
#
#
# Convention : Reuss Voigt Hill
#
# Bulk Modulus (GPa) = 43.71839 50.23426 46.97633
# Shear Modulus (GPa) = 28.64411 35.72207 32.18309
#
# Velocity S-wave (km/s) = 3.64780 4.07363 3.86658
# Velocity P-wave (km/s) = 6.16855 6.74255 6.46193
#
# Compressibility (1/GPa) = 0.02287367
#
# Stress axis : x y z
#
# Youngs Moduli (GPa) = 130.42082 93.52597 54.81970
#
# Poissons Ratio (x) = 0.20022 -0.03898
# Poissons Ratio (y) = 0.27920 0.29790
# Poissons Ratio (z) = -0.09274 0.50823
#
# Static dielectric constant tensor:
#      x y z
#    x 1.795990 0.000000 0.000000 
#    y 0.000000 1.803250 0.000000 
#    z 0.000000 0.000000 1.778320 
# 
# From -- ./inp_files/3877.got.cif
#   From: 2010.05.17/outbox.cif.g08.bks.cpg/sg29_2_cif.got.tgz:3877.got - 2010.06.04 01:19:37.
