data_PCOD9341227
_publ_section_title
;
Structure prediction by ZEFSAII (Michael W. Deem and Ramdas Pophale) SiO2 
 PCOD9341227
Probable space group: P C A 21
;
_chemical_formula_sum "Si O2"
_cell_formula_units_Z 20
_cell_length_a 9.303226
_cell_length_b 5.123702
_cell_length_c 17.419838
_cell_angle_alpha 90.000000
_cell_angle_beta 90.000000
_cell_angle_gamma 90.000000
_cell_volume 830.350680
_symmetry_space_group_name_H-M "P C A 21"
_symmetry_group_IT_number 29
_symmetry_cell_setting 'orthorhombic'
loop_
_space_group_symop_operation_xyz
x,y,z
-x,-y,1/2+z
1/2-x,y,1/2+z
1/2+x,-y,z
loop_
_atom_site_type_symbol
_atom_site_label
_atom_site_fract_x
_atom_site_fract_y
_atom_site_fract_z
Si Si1 0.320601 0.288678 0.987350
Si Si2 0.352607 0.532027 0.744931
Si Si3 0.601391 0.665631 0.660252
Si Si4 0.482801 0.975111 0.280932
Si Si5 0.350226 0.790209 0.432705
O O1 0.486120 0.255128 0.961138
O O2 0.238853 0.522354 0.942818
O O3 0.233777 0.020058 0.976359
O O4 0.330923 0.346479 0.077839
O O5 0.437487 0.572014 0.664022
O O6 0.187969 0.505577 0.722908
O O7 0.424166 0.760191 0.795160
O O8 0.403263 0.255299 0.775602
O O9 0.593055 0.951035 0.699918
O O10 0.373427 0.901762 0.347176
#
# Coordination Sequence:
#
# PCOD9341227 Si02
#       5
#     4   4   4   4   4
#     4  12  28  47  80 106 160 190 264 303 407 441
#     4  10  24  40  74  98 141 179 253 298 368 431
#     4  10  26  44  75 106 142 192 248 313 365 460
#     4  10  26  43  73 101 147 190 249 300 377 448
#     4  12  28  50  74 113 152 205 244 326 381 472
#
# _framework density 24.086209
#
# number of rings (size 3 to 8) (size 9 to 14) (size 15 to 20)
#    1.200    0.000    0.000    3.600   11.200    0.000 
#    0.000    0.000    0.000    0.000    0.000    0.000 
#    0.000    0.000    0.000    0.000    0.000    0.000 
#
# Total GULP energy -111787.152178 kJ/mol
# GULP energy per Si atom -5589.357609 kJ/mol
# Density = 2.403139 g / cm^3
# Si number density = 24.086209 Si / 1000 Ang^3
#
#
#
# Elastic Constant Matrix: (Units=GPa)
#
#
# Indices 1 2 3 4 5 6 
#
# 1 167.8458 61.6579 30.9460 0.0000 0.0000 0.0000
# 2 61.6579 176.7931 11.1080 0.0000 0.0000 0.0000
# 3 30.9460 11.1080 83.4651 0.0000 0.0000 0.0000
# 4 0.0000 0.0000 0.0000 35.8070 0.0000 0.0000
# 5 0.0000 0.0000 0.0000 0.0000 33.4691 0.0000
# 6 0.0000 0.0000 0.0000 0.0000 0.0000 36.5423
#
#
#
# Elastic Compliance Matrix: (Units=1/GPa)
#
#
# Indices 1 2 3 4 5 6 
#
# 1 0.007273 -0.002387 -0.002379 0.000000 0.000000 0.000000
# 2 -0.002387 0.006488 0.000022 0.000000 0.000000 0.000000
# 3 -0.002379 0.000022 0.012860 0.000000 0.000000 0.000000
# 4 0.000000 0.000000 0.000000 0.027927 0.000000 0.000000
# 5 0.000000 0.000000 0.000000 0.000000 0.029878 0.000000
# 6 0.000000 0.000000 0.000000 0.000000 0.000000 0.027366
#
#
# Mechanical properties :
#
#
# Convention : Reuss Voigt Hill
#
# Bulk Modulus (GPa) = 58.36994 70.61421 64.49207
# Shear Modulus (GPa) = 39.37249 42.78982 41.08116
#
# Velocity S-wave (km/s) = 4.04747 4.21946 4.13436
# Velocity P-wave (km/s) = 6.79183 7.28830 7.04444
#
# Compressibility (1/GPa) = 0.01713211
#
# Stress axis : x y z
#
# Youngs Moduli (GPa) = 137.48735 154.14234 77.75912
#
# Poissons Ratio (x) = 0.36796 0.18499
# Poissons Ratio (y) = 0.32821 -0.00169
# Poissons Ratio (z) = 0.32709 -0.00334
#
# Static dielectric constant tensor:
#      x y z
#    x 1.930530 0.000000 0.000000 
#    y 0.000000 1.952470 0.000000 
#    z 0.000000 0.000000 1.970510 
# 
# From -- ./inp_files/4924.got.cif
#   From: 2010.05.17/outbox.cif.g08.bks.cpg/sg29_3_cif.got.tgz:4924.got - 2010.06.04 01:19:37.
