data_PCOD9341025
_publ_section_title
;
Structure prediction by ZEFSAII (Michael W. Deem and Ramdas Pophale) SiO2 
 PCOD9341025
Probable space group: P C A 21
;
_chemical_formula_sum "Si O2"
_cell_formula_units_Z 32
_cell_length_a 14.008531
_cell_length_b 6.650252
_cell_length_c 16.660024
_cell_angle_alpha 90.000000
_cell_angle_beta 90.000000
_cell_angle_gamma 90.000000
_cell_volume 1552.052189
_symmetry_space_group_name_H-M "P C A 21"
_symmetry_group_IT_number 29
_symmetry_cell_setting 'orthorhombic'
loop_
_space_group_symop_operation_xyz
x,y,z
-x,-y,1/2+z
1/2-x,y,1/2+z
1/2+x,-y,z
loop_
_atom_site_type_symbol
_atom_site_label
_atom_site_fract_x
_atom_site_fract_y
_atom_site_fract_z
Si Si1 0.813955 0.092934 0.346230
Si Si2 0.477631 0.031914 0.621812
Si Si3 0.164727 0.233372 0.404047
Si Si4 0.664727 0.233372 0.021539
Si Si5 0.846989 0.614870 0.628356
Si Si6 0.813955 0.907066 0.079357
Si Si7 0.653011 0.385130 0.297231
Si Si8 0.522369 0.031914 0.303775
O O1 0.839596 0.219905 0.425971
O O2 0.742159 0.229857 0.294025
O O3 0.754867 0.899447 0.375847
O O4 0.910909 0.015249 0.307304
O O5 0.440434 0.256149 0.604358
O O6 0.424880 0.881235 0.561409
O O7 0.589091 0.984751 0.618283
O O8 0.442974 0.000000 0.712793
O O9 0.160404 0.219905 0.499615
O O10 0.171058 0.452396 0.366297
O O11 0.075120 0.118764 0.364178
O O12 0.671059 0.452396 0.059289
O O13 0.754867 0.100553 0.049740
O O14 0.757840 0.770143 0.631562
O O15 0.859026 0.500000 0.712793
O O16 0.559565 0.256149 0.321228
#
# Coordination Sequence:
#
# PCOD9341025 Si02
#       8
#     4   4   4   4   4   4   4   4
#     4  10  24  41  69  94 130 176 218 263 339 391
#     4  11  23  40  65  95 136 173 214 273 328 385
#     4  10  22  45  64  96 133 169 216 278 323 386
#     4  10  22  45  64  96 133 169 216 278 323 386
#     4  11  23  42  68  96 134 170 219 279 324 389
#     4  10  24  41  69  94 130 176 218 263 339 391
#     4  11  23  42  68  96 134 170 219 279 324 389
#     4  11  23  40  65  95 136 173 214 273 328 385
#
# _framework density 20.617863
#
# number of rings (size 3 to 8) (size 9 to 14) (size 15 to 20)
#    0.000    1.500    2.500    1.500    3.500    2.000 
#    0.000    7.500    0.000    0.000    0.000    0.000 
#    0.000    0.000    0.000    0.000    0.000    0.000 
#
# Total GULP energy -178824.654720 kJ/mol
# GULP energy per Si atom -5588.270460 kJ/mol
# Density = 2.057094 g / cm^3
# Si number density = 20.617863 Si / 1000 Ang^3
#
#
#
# Elastic Constant Matrix: (Units=GPa)
#
#
# Indices 1 2 3 4 5 6 
#
# 1 110.6057 45.5323 27.6895 0.0000 0.0000 0.0000
# 2 45.5323 120.6696 27.9810 0.0000 0.0000 0.0000
# 3 27.6895 27.9810 53.3589 0.0000 0.0000 0.0000
# 4 0.0000 0.0000 0.0000 40.2499 0.0000 0.0000
# 5 0.0000 0.0000 0.0000 0.0000 28.1321 0.0000
# 6 0.0000 0.0000 0.0000 0.0000 0.0000 -7.6539
#
#
#
# Elastic Compliance Matrix: (Units=1/GPa)
#
#
# Indices 1 2 3 4 5 6 
#
# 1 0.011473 -0.003357 -0.004193 0.000000 0.000000 0.000000
# 2 -0.003357 0.010416 -0.003720 0.000000 0.000000 0.000000
# 3 -0.004193 -0.003720 0.022868 0.000000 0.000000 0.000000
# 4 0.000000 0.000000 0.000000 0.024845 0.000000 0.000000
# 5 0.000000 0.000000 0.000000 0.000000 0.035547 0.000000
# 6 0.000000 0.000000 0.000000 0.000000 0.000000 -0.130653
#
#
# Mechanical properties :
#
#
# Convention : Reuss Voigt Hill
#
# Bulk Modulus (GPa) = 45.01194 54.11554 49.56374
# Shear Modulus (GPa) = 1125.67448 24.37437 575.02442
#
# Velocity S-wave (km/s) = 23.39136 3.44204 16.71830
# Velocity P-wave (km/s) = 27.41204 6.48851 19.91884
#
# Compressibility (1/GPa) = 0.02221633
#
# Stress axis : x y z
#
# Youngs Moduli (GPa) = 87.16332 96.00294 43.72918
#
# Poissons Ratio (x) = 0.32225 0.18337
# Poissons Ratio (y) = 0.29258 0.16269
# Poissons Ratio (z) = 0.36551 0.35717
#
# Static dielectric constant tensor:
#      x y z
#    x 1.727650 0.000000 0.000000 
#    y 0.000000 1.732050 0.000000 
#    z 0.000000 0.000000 1.733620 
# 
# From -- ./inp_files/5230.got.cif
#   From: 2010.05.17/outbox.cif.g08.bks.cpg/sg29_3_cif.got.tgz:5230.got - 2010.06.04 01:19:37.
