data_PCOD9341778
_publ_section_title
;
Structure prediction by ZEFSAII (Michael W. Deem and Ramdas Pophale) SiO2 
 PCOD9341778
Probable space group: P C A 21
;
_chemical_formula_sum "Si O2"
_cell_formula_units_Z 32
_cell_length_a 9.000000
_cell_length_b 15.000000
_cell_length_c 12.000000
_cell_angle_alpha 90.000000
_cell_angle_beta 90.000000
_cell_angle_gamma 90.000000
_cell_volume 1620.000000
_symmetry_space_group_name_H-M "P C A 21"
_symmetry_group_IT_number 29
_symmetry_cell_setting 'orthorhombic'
loop_
_space_group_symop_operation_xyz
x,y,z
-x,-y,1/2+z
1/2-x,y,1/2+z
1/2+x,-y,z
loop_
_atom_site_type_symbol
_atom_site_label
_atom_site_fract_x
_atom_site_fract_y
_atom_site_fract_z
Si Si1 0.385663 0.575072 0.694400
Si Si2 0.579568 0.639047 0.477275
Si Si3 0.462870 0.992366 0.938918
Si Si4 0.211612 0.914595 0.789463
Si Si5 0.389848 0.710133 0.258846
Si Si6 0.794176 0.582336 0.294285
Si Si7 0.275962 0.061380 0.599489
Si Si8 0.796886 0.737183 0.651557
O O1 0.469329 0.597888 0.575037
O O2 0.253583 0.647072 0.726830
O O3 0.294270 0.482136 0.707188
O O4 0.528129 0.566420 0.780214
O O5 0.471543 0.679554 0.377241
O O6 0.698992 0.576234 0.409421
O O7 0.695380 0.704230 0.545741
O O8 0.572491 0.948179 0.029066
O O9 0.356846 0.057911 0.009320
O O10 0.351762 0.926220 0.873429
O O11 0.568222 0.042523 0.850788
O O12 0.172617 0.811566 0.766062
O O13 0.250896 0.977574 0.682992
O O14 0.526502 0.711647 0.167326
O O15 0.775435 0.684170 0.254368
O O16 0.281041 0.156369 0.660324
#
# Coordination Sequence:
#
# PCOD9341778 Si02
#       8
#     4   4   4   4   4   4   4   4
#     4  11  25  44  68  99 130 168 216 265 323 393
#     4  10  24  44  68  94 135 173 210 273 324 384
#     4  10  23  37  59  88 121 169 218 257 325 383
#     4  11  23  41  61  89 129 167 213 273 317 375
#     4  11  24  42  66  99 130 170 222 267 328 395
#     4  10  23  43  66  97 129 168 215 262 327 390
#     4  11  22  39  60  88 127 168 213 268 317 378
#     4  10  22  40  64  92 125 169 217 263 325 388
#
# _framework density 19.753086
#
# number of rings (size 3 to 8) (size 9 to 14) (size 15 to 20)
#    0.000    1.500    0.000    4.500    0.000   16.000 
#    0.000    0.000    0.000    0.000    0.000    0.000 
#    0.000    0.000    0.000    0.000    0.000    0.000 
#
# Total GULP energy -178423.268554 kJ/mol
# GULP energy per Si atom -5575.727142 kJ/mol
# Density = 1.970813 g / cm^3
# Si number density = 19.753086 Si / 1000 Ang^3
#
#
#
# Elastic Constant Matrix: (Units=GPa)
#
#
# Indices 1 2 3 4 5 6 
#
# 1 172.1090 38.7147 45.2883 0.0000 0.0000 0.0000
# 2 38.7147 91.2334 26.7992 0.0000 0.0000 0.0000
# 3 45.2883 26.7992 103.4643 0.0000 0.0000 0.0000
# 4 0.0000 0.0000 0.0000 29.5373 0.0000 0.0000
# 5 0.0000 0.0000 0.0000 0.0000 56.5574 0.0000
# 6 0.0000 0.0000 0.0000 0.0000 0.0000 30.5208
#
#
#
# Elastic Compliance Matrix: (Units=1/GPa)
#
#
# Indices 1 2 3 4 5 6 
#
# 1 0.006962 -0.002229 -0.002470 0.000000 0.000000 0.000000
# 2 -0.002229 0.012577 -0.002282 0.000000 0.000000 0.000000
# 3 -0.002470 -0.002282 0.011337 0.000000 0.000000 0.000000
# 4 0.000000 0.000000 0.000000 0.033856 0.000000 0.000000
# 5 0.000000 0.000000 0.000000 0.000000 0.017681 0.000000
# 6 0.000000 0.000000 0.000000 0.000000 0.000000 0.032765
#
#
# Mechanical properties :
#
#
# Convention : Reuss Voigt Hill
#
# Bulk Modulus (GPa) = 59.12079 65.37898 62.24988
# Shear Modulus (GPa) = 37.09840 40.39006 38.74423
#
# Velocity S-wave (km/s) = 4.33841 4.52679 4.43360
# Velocity P-wave (km/s) = 7.42231 7.77769 7.60208
#
# Compressibility (1/GPa) = 0.01691452
#
# Stress axis : x y z
#
# Youngs Moduli (GPa) = 143.64708 79.51042 88.20332
#
# Poissons Ratio (x) = 0.17719 0.21786
# Poissons Ratio (y) = 0.32013 0.20130
# Poissons Ratio (z) = 0.35480 0.18146
#
# Static dielectric constant tensor:
#      x y z
#    x 1.712980 0.000000 0.000000 
#    y 0.000000 1.700160 0.000000 
#    z 0.000000 0.000000 1.736330 
# 
# From -- ./inp_files/2926.got.cif
#   From: 2010.05.17/outbox.ucp.g08.bks.cvg/sg29_2_cif.got.tgz:2926.got - 2010.06.11 15:24:14.
