data_PCOD9341854
_publ_section_title
;
Structure prediction by ZEFSAII (Michael W. Deem and Ramdas Pophale) SiO2 
 PCOD9341854
Probable space group: P N C 2
;
_chemical_formula_sum "Si O2"
_cell_formula_units_Z 24
_cell_length_a 7.907049
_cell_length_b 16.406591
_cell_length_c 8.702366
_cell_angle_alpha 90.000000
_cell_angle_beta 90.000000
_cell_angle_gamma 90.000000
_cell_volume 1128.938091
_symmetry_space_group_name_H-M "P N C 2"
_symmetry_group_IT_number 30
_symmetry_cell_setting 'orthorhombic'
loop_
_space_group_symop_operation_xyz
x,y,z
-x,-y,z
-x,1/2+y,1/2+z
x,1/2-y,1/2+z
loop_
_atom_site_type_symbol
_atom_site_label
_atom_site_fract_x
_atom_site_fract_y
_atom_site_fract_z
Si Si1 0.866136 0.568040 0.901210
Si Si2 0.633864 0.568040 0.607085
Si Si3 0.446016 0.715129 0.779070
Si Si4 0.631828 0.677992 0.070389
Si Si5 0.868172 0.822008 0.937906
Si Si6 0.946016 0.215129 0.229225
O O1 0.750000 0.542664 0.754148
O O2 0.000000 0.500000 0.946026
O O3 0.975032 0.645095 0.838571
O O4 0.738097 0.597118 0.034675
O O5 0.500000 0.500000 0.562269
O O6 0.524968 0.645095 0.669724
O O7 0.761903 0.597118 0.473620
O O8 0.556023 0.795299 0.733352
O O9 0.250000 0.729087 0.754148
O O10 0.476824 0.683118 0.950414
O O11 0.750000 0.750000 0.004148
O O12 0.023176 0.816882 0.057881
O O13 0.943977 0.795299 0.774944
#
# Coordination Sequence:
#
# PCOD9341854 Si02
#       6
#     4   4   4   4   4   4
#     4   9  17  29  46  71 103 134 169 214 261 304
#     4   9  17  29  46  71 103 134 169 214 261 304
#     4  10  18  30  50  78 105 133 170 215 258 301
#     4   9  18  31  48  75 105 133 168 215 257 299
#     4   9  18  31  48  75 105 133 168 215 257 299
#     4  10  18  30  50  78 105 133 170 215 258 301
#
# _framework density 21.258914999999998
#
# number of rings (size 3 to 8) (size 9 to 14) (size 15 to 20)
#    0.000    2.667    0.000    5.000    0.000    0.000 
#    0.000    0.000    0.000    0.000    0.000  242.667 
#    0.000    0.000    0.000    0.000    0.000    0.000 
#
# Total GULP energy -133801.444243 kJ/mol
# GULP energy per Si atom -5575.060177 kJ/mol
# Density = 2.121053 g / cm^3
# Si number density = 21.258915 Si / 1000 Ang^3
#
#
#
# Elastic Constant Matrix: (Units=GPa)
#
#
# Indices 1 2 3 4 5 6 
#
# 1 129.8467 26.5778 27.7306 0.0000 0.0000 0.0000
# 2 26.5778 56.4178 22.1049 0.0000 0.0000 0.0000
# 3 27.7306 22.1049 77.7681 0.0000 0.0000 0.0000
# 4 0.0000 0.0000 0.0000 10.0369 0.0000 0.0000
# 5 0.0000 0.0000 0.0000 0.0000 9.5402 0.0000
# 6 0.0000 0.0000 0.0000 0.0000 0.0000 40.4288
#
#
#
# Elastic Compliance Matrix: (Units=1/GPa)
#
#
# Indices 1 2 3 4 5 6 
#
# 1 0.008851 -0.003300 -0.002218 0.000000 0.000000 0.000000
# 2 -0.003300 0.021177 -0.004843 0.000000 0.000000 0.000000
# 3 -0.002218 -0.004843 0.015026 0.000000 0.000000 0.000000
# 4 0.000000 0.000000 0.000000 0.099632 0.000000 0.000000
# 5 0.000000 0.000000 0.000000 0.000000 0.104819 0.000000
# 6 0.000000 0.000000 0.000000 0.000000 0.000000 0.024735
#
#
# Mechanical properties :
#
#
# Convention : Reuss Voigt Hill
#
# Bulk Modulus (GPa) = 41.09803 46.31769 43.70786
# Shear Modulus (GPa) = 16.49773 24.50915 20.50344
#
# Velocity S-wave (km/s) = 2.78877 3.39910 3.10895
# Velocity P-wave (km/s) = 5.45378 6.10245 5.78721
#
# Compressibility (1/GPa) = 0.02433207
#
# Stress axis : x y z
#
# Youngs Moduli (GPa) = 112.98673 47.22097 66.55122
#
# Poissons Ratio (x) = 0.15585 0.14760
# Poissons Ratio (y) = 0.37291 0.32227
# Poissons Ratio (z) = 0.25059 0.22867
#
# Static dielectric constant tensor:
#      x y z
#    x 1.767990 0.000000 0.000000 
#    y 0.000000 1.794600 0.000000 
#    z 0.000000 0.000000 1.893460 
# 
# From -- ./inp_files/1928.got.cif
#   From: 2010.05.17/outbox.cif.g08.bks.cpg/sg30_1_cif.got.tgz:1928.got - 2010.06.03 17:03:02.
