data_PCOD9341209
_publ_section_title
;
Structure prediction by ZEFSAII (Michael W. Deem and Ramdas Pophale) SiO2 
 PCOD9341209
Probable space group: P C A 21
;
_chemical_formula_sum "Si O2"
_cell_formula_units_Z 20
_cell_length_a 14.507377
_cell_length_b 5.017540
_cell_length_c 8.979677
_cell_angle_alpha 90.000000
_cell_angle_beta 90.000000
_cell_angle_gamma 90.000000
_cell_volume 653.642761
_symmetry_space_group_name_H-M "P C A 21"
_symmetry_group_IT_number 29
_symmetry_cell_setting 'orthorhombic'
loop_
_space_group_symop_operation_xyz
x,y,z
-x,-y,1/2+z
1/2-x,y,1/2+z
1/2+x,-y,z
loop_
_atom_site_type_symbol
_atom_site_label
_atom_site_fract_x
_atom_site_fract_y
_atom_site_fract_z
Si Si1 0.214978 0.906787 0.314150
Si Si2 0.282161 0.406494 0.428094
Si Si3 0.413262 0.282133 0.978945
Si Si4 0.042606 0.646039 0.196090
Si Si5 0.970680 0.808355 0.500027
O O1 0.293366 0.697828 0.360554
O O2 0.147620 0.769184 0.195793
O O3 0.264658 0.187979 0.298407
O O4 0.141002 0.988386 0.444082
O O5 0.185163 0.426670 0.512088
O O6 0.366236 0.290798 0.521020
O O7 0.438511 0.382113 0.810371
O O8 0.503881 0.105247 0.055086
O O9 0.981090 0.796493 0.323077
O O10 0.980488 0.459864 0.072086
#
# Coordination Sequence:
#
# PCOD9341209 Si02
#       5
#     4   4   4   4   4
#     4   9  23  45  71 104 155 189 258 315 371 465
#     4  10  23  49  70 114 149 206 254 316 383 467
#     4   9  22  43  69 107 148 196 254 307 376 464
#     4  11  24  46  77 109 158 198 258 321 390 458
#     4  11  26  45  79 112 156 211 252 331 392 460
#
# _framework density 30.597753000000001
#
# number of rings (size 3 to 8) (size 9 to 14) (size 15 to 20)
#    1.200    0.800    0.000    2.400    5.600    3.200 
#    3.600    0.000    0.000    0.000    0.000    0.000 
#    0.000    0.000    0.000    0.000    0.000    0.000 
#
# Total GULP energy -111593.290575 kJ/mol
# GULP energy per Si atom -5579.664529 kJ/mol
# Density = 3.052811 g / cm^3
# Si number density = 30.597753 Si / 1000 Ang^3
#
#
#
# Elastic Constant Matrix: (Units=GPa)
#
#
# Indices 1 2 3 4 5 6 
#
# 1 128.9499 50.8510 26.1315 0.0000 0.0000 0.0000
# 2 50.8510 281.4377 57.3063 0.0000 0.0000 0.0000
# 3 26.1315 57.3063 177.8462 0.0000 0.0000 0.0000
# 4 0.0000 0.0000 0.0000 53.4258 0.0000 0.0000
# 5 0.0000 0.0000 0.0000 0.0000 50.6213 0.0000
# 6 0.0000 0.0000 0.0000 0.0000 0.0000 48.5155
#
#
#
# Elastic Compliance Matrix: (Units=1/GPa)
#
#
# Indices 1 2 3 4 5 6 
#
# 1 0.008456 -0.001364 -0.000803 0.000000 0.000000 0.000000
# 2 -0.001364 0.004023 -0.001096 0.000000 0.000000 0.000000
# 3 -0.000803 -0.001096 0.006094 0.000000 0.000000 0.000000
# 4 0.000000 0.000000 0.000000 0.018718 0.000000 0.000000
# 5 0.000000 0.000000 0.000000 0.000000 0.019755 0.000000
# 6 0.000000 0.000000 0.000000 0.000000 0.000000 0.020612
#
#
# Mechanical properties :
#
#
# Convention : Reuss Voigt Hill
#
# Bulk Modulus (GPa) = 83.01140 95.20127 89.10634
# Shear Modulus (GPa) = 56.69082 60.77554 58.73318
#
# Velocity S-wave (km/s) = 4.30906 4.46160 4.38599
# Velocity P-wave (km/s) = 7.20737 7.59753 7.40502
#
# Compressibility (1/GPa) = 0.01204654
#
# Stress axis : x y z
#
# Youngs Moduli (GPa) = 118.26404 248.58196 164.09907
#
# Poissons Ratio (x) = 0.33915 0.13174
# Poissons Ratio (y) = 0.16135 0.17982
# Poissons Ratio (z) = 0.09494 0.27239
#
# Static dielectric constant tensor:
#      x y z
#    x 2.593020 0.000000 0.000000 
#    y 0.000000 2.646690 0.000000 
#    z 0.000000 0.000000 2.492780 
# 
# From -- ./inp_files/3348.got.cif
#   From: 2010.05.17/outbox.cif.g08.bks.cpg/sg29_2_cif.got.tgz:3348.got - 2010.06.04 01:19:37.
