data_PCOD9341164
_publ_section_title
;
Structure prediction by ZEFSAII (Michael W. Deem and Ramdas Pophale) SiO2 
 PCOD9341164
Probable space group: P C A 21
;
_chemical_formula_sum "Si O2"
_cell_formula_units_Z 20
_cell_length_a 11.886636
_cell_length_b 5.061141
_cell_length_c 13.620537
_cell_angle_alpha 90.000000
_cell_angle_beta 90.000000
_cell_angle_gamma 90.000000
_cell_volume 819.410700
_symmetry_space_group_name_H-M "P C A 21"
_symmetry_group_IT_number 29
_symmetry_cell_setting 'orthorhombic'
loop_
_space_group_symop_operation_xyz
x,y,z
-x,-y,1/2+z
1/2-x,y,1/2+z
1/2+x,-y,z
loop_
_atom_site_type_symbol
_atom_site_label
_atom_site_fract_x
_atom_site_fract_y
_atom_site_fract_z
Si Si1 0.939082 0.057793 0.986020
Si Si2 0.926559 0.441089 0.481794
Si Si3 0.821851 0.047051 0.179899
Si Si4 0.254130 0.232387 0.866090
Si Si5 0.318581 0.432443 0.676222
O O1 0.825420 0.964283 0.933098
O O2 0.036035 0.852119 0.957368
O O3 0.973900 0.352635 0.960407
O O4 0.922771 0.034452 0.103696
O O5 0.817047 0.554803 0.426832
O O6 0.906681 0.462161 0.598909
O O7 0.778366 0.345421 0.180742
O O8 0.827170 0.923972 0.288815
O O9 0.727537 0.846971 0.136035
O O10 0.342380 0.368791 0.789506
#
# Coordination Sequence:
#
# PCOD9341164 Si02
#       5
#     4   4   4   4   4
#     4  12  27  43  71 105 137 181 234 285 349 414
#     4  12  27  43  71 105 137 181 234 285 349 414
#     4  10  23  44  71  92 140 183 223 279 352 400
#     4  10  26  46  70 100 140 184 224 298 336 416
#     4  10  23  44  71  92 140 183 223 279 352 400
#
# _framework density 24.407785000000001
#
# number of rings (size 3 to 8) (size 9 to 14) (size 15 to 20)
#    1.200    0.000    2.000    2.400    5.600    3.200 
#    0.000    0.000    0.000    0.000    0.000    0.000 
#    0.000    0.000    0.000    0.000    0.000    0.000 
#
# Total GULP energy -111708.446231 kJ/mol
# GULP energy per Si atom -5585.422312 kJ/mol
# Density = 2.435223 g / cm^3
# Si number density = 24.407785 Si / 1000 Ang^3
#
#
#
# Elastic Constant Matrix: (Units=GPa)
#
#
# Indices 1 2 3 4 5 6 
#
# 1 35.3148 13.3947 38.5587 0.0000 0.0000 0.0000
# 2 13.3947 68.4886 39.1578 0.0000 0.0000 0.0000
# 3 38.5587 39.1578 138.6740 0.0000 0.0000 0.0000
# 4 0.0000 0.0000 0.0000 24.6971 0.0000 0.0000
# 5 0.0000 0.0000 0.0000 0.0000 35.6708 0.0000
# 6 0.0000 0.0000 0.0000 0.0000 0.0000 45.5672
#
#
#
# Elastic Compliance Matrix: (Units=1/GPa)
#
#
# Indices 1 2 3 4 5 6 
#
# 1 0.040843 -0.001783 -0.010853 0.000000 0.000000 0.000000
# 2 -0.001783 0.017490 -0.004443 0.000000 0.000000 0.000000
# 3 -0.010853 -0.004443 0.011483 0.000000 0.000000 0.000000
# 4 0.000000 0.000000 0.000000 0.040491 0.000000 0.000000
# 5 0.000000 0.000000 0.000000 0.000000 0.028034 0.000000
# 6 0.000000 0.000000 0.000000 0.000000 0.000000 0.021946
#
#
# Mechanical properties :
#
#
# Convention : Reuss Voigt Hill
#
# Bulk Modulus (GPa) = 28.04367 47.18888 37.61628
# Shear Modulus (GPa) = 24.23299 31.27810 27.75555
#
# Velocity S-wave (km/s) = 3.15435 3.58366 3.37584
# Velocity P-wave (km/s) = 4.97807 6.04144 5.53535
#
# Compressibility (1/GPa) = 0.03565867
#
# Stress axis : x y z
#
# Youngs Moduli (GPa) = 24.48409 57.17598 87.08173
#
# Poissons Ratio (x) = 0.10193 0.94511
# Poissons Ratio (y) = 0.04365 0.38690
# Poissons Ratio (z) = 0.26573 0.25403
#
# Static dielectric constant tensor:
#      x y z
#    x 1.932190 0.000000 0.000000 
#    y 0.000000 1.872530 0.000000 
#    z 0.000000 0.000000 1.949020 
# 
# From -- ./inp_files/3316.got.cif
#   From: 2010.05.17/outbox.cif.g08.bks.cpg/sg29_2_cif.got.tgz:3316.got - 2010.06.04 01:19:37.
