data_PCOD9341982
_publ_section_title
;
Structure prediction by ZEFSAII (Michael W. Deem and Ramdas Pophale) SiO2 
 PCOD9341982
Probable space group: P N C 2
;
_chemical_formula_sum "Si O2"
_cell_formula_units_Z 32
_cell_length_a 10.743254
_cell_length_b 9.862603
_cell_length_c 14.435500
_cell_angle_alpha 90.000000
_cell_angle_beta 90.000000
_cell_angle_gamma 90.000000
_cell_volume 1529.534321
_symmetry_space_group_name_H-M "P N C 2"
_symmetry_group_IT_number 30
_symmetry_cell_setting 'orthorhombic'
loop_
_space_group_symop_operation_xyz
x,y,z
-x,-y,z
-x,1/2+y,1/2+z
x,1/2-y,1/2+z
loop_
_atom_site_type_symbol
_atom_site_label
_atom_site_fract_x
_atom_site_fract_y
_atom_site_fract_z
Si Si1 0.492685 0.152153 0.647730
Si Si2 0.291181 0.650100 0.622728
Si Si3 0.870272 0.579108 0.817809
Si Si4 0.757872 0.194605 0.336823
Si Si5 0.237104 0.317240 0.425664
Si Si6 0.127295 0.584492 0.445268
Si Si7 0.490554 0.845305 0.869671
Si Si8 0.732409 0.649827 0.633703
O O1 0.596137 0.248662 0.601802
O O2 0.513538 0.144817 0.758234
O O3 0.360618 0.225910 0.643303
O O4 0.500000 0.000000 0.610203
O O5 0.242994 0.697616 0.724114
O O6 0.186501 0.634755 0.543059
O O7 0.338874 0.494976 0.632597
O O8 0.775354 0.464219 0.855631
O O9 0.853604 0.710092 0.880343
O O10 0.829426 0.629195 0.716020
O O11 0.000000 0.500000 0.814499
O O12 0.868398 0.285680 0.378595
O O13 0.633757 0.257097 0.384012
O O14 0.215880 0.472523 0.394529
O O15 0.380214 0.279224 0.403788
O O16 0.208720 0.328007 0.533982
O O17 0.000000 0.500000 0.456522
O O18 0.500000 0.000000 0.907583
#
# Coordination Sequence:
#
# PCOD9341982 Si02
#       8
#     4   4   4   4   4   4   4   4
#     4  10  20  36  61  95 133 168 211 277 336 392
#     4   9  22  38  62  92 132 173 217 271 328 397
#     4  11  24  45  65  94 138 174 217 278 329 393
#     4  10  22  39  64  96 129 178 216 272 343 384
#     4  11  23  39  67  95 128 178 222 276 331 394
#     4  11  23  42  67  96 128 177 232 268 320 404
#     4  10  19  37  63  94 134 166 221 276 328 398
#     4  10  22  39  63  94 126 176 223 261 337 394
#
# _framework density 20.921400999999999
#
# number of rings (size 3 to 8) (size 9 to 14) (size 15 to 20)
#    0.000    1.750    2.500    1.125    1.750    6.000 
#    0.000    0.000    0.000    1.500    0.000    0.000 
#    0.000    0.000    0.000    0.000    0.000    0.000 
#
# Total GULP energy -178430.067211 kJ/mol
# GULP energy per Si atom -5575.939600 kJ/mol
# Density = 2.087378 g / cm^3
# Si number density = 20.921401 Si / 1000 Ang^3
#
#
#
# Elastic Constant Matrix: (Units=GPa)
#
#
# Indices 1 2 3 4 5 6 
#
# 1 122.9265 47.3951 38.3594 0.0000 0.0000 0.0000
# 2 47.3951 121.8669 59.6585 0.0000 0.0000 0.0000
# 3 38.3594 59.6585 95.6973 0.0000 0.0000 0.0000
# 4 0.0000 0.0000 0.0000 19.5018 0.0000 0.0000
# 5 0.0000 0.0000 0.0000 0.0000 18.2050 0.0000
# 6 0.0000 0.0000 0.0000 0.0000 0.0000 28.5972
#
#
#
# Elastic Compliance Matrix: (Units=1/GPa)
#
#
# Indices 1 2 3 4 5 6 
#
# 1 0.009897 -0.002745 -0.002256 0.000000 0.000000 0.000000
# 2 -0.002745 0.012571 -0.006737 0.000000 0.000000 0.000000
# 3 -0.002256 -0.006737 0.015554 0.000000 0.000000 0.000000
# 4 0.000000 0.000000 0.000000 0.051277 0.000000 0.000000
# 5 0.000000 0.000000 0.000000 0.000000 0.054930 0.000000
# 6 0.000000 0.000000 0.000000 0.000000 0.000000 0.034968
#
#
# Mechanical properties :
#
#
# Convention : Reuss Voigt Hill
#
# Bulk Modulus (GPa) = 68.74332 70.14631 69.44481
# Shear Modulus (GPa) = 24.09390 26.26598 25.17994
#
# Velocity S-wave (km/s) = 3.39726 3.54709 3.47298
# Velocity P-wave (km/s) = 6.95110 7.09768 7.02477
#
# Compressibility (1/GPa) = 0.01454687
#
# Stress axis : x y z
#
# Youngs Moduli (GPa) = 101.03872 79.54853 64.29344
#
# Poissons Ratio (x) = 0.21833 0.14506
# Poissons Ratio (y) = 0.27731 0.43312
# Poissons Ratio (z) = 0.22796 0.53589
#
# Static dielectric constant tensor:
#      x y z
#    x 1.853880 0.000000 0.000000 
#    y 0.000000 1.781890 0.000000 
#    z 0.000000 0.000000 1.774200 
# 
# From -- ./inp_files/5531.got.cif
#   From: 2010.05.17/outbox.cif.g08.bks.cpg/sg30_3_cif.got.tgz:5531.got - 2010.06.03 17:03:02.
