data_PCOD9341017
_publ_section_title
;
Structure prediction by ZEFSAII (Michael W. Deem and Ramdas Pophale) SiO2 
 PCOD9341017
Probable space group: P C A 21
;
_chemical_formula_sum "Si O2"
_cell_formula_units_Z 32
_cell_length_a 18.112063
_cell_length_b 5.250525
_cell_length_c 14.326336
_cell_angle_alpha 90.000000
_cell_angle_beta 90.000000
_cell_angle_gamma 90.000000
_cell_volume 1362.403603
_symmetry_space_group_name_H-M "P C A 21"
_symmetry_group_IT_number 29
_symmetry_cell_setting 'orthorhombic'
loop_
_space_group_symop_operation_xyz
x,y,z
-x,-y,1/2+z
1/2-x,y,1/2+z
1/2+x,-y,z
loop_
_atom_site_type_symbol
_atom_site_label
_atom_site_fract_x
_atom_site_fract_y
_atom_site_fract_z
Si Si1 0.074838 0.094700 0.857490
Si Si2 0.314653 0.550258 0.636535
Si Si3 0.734516 0.748459 0.901558
Si Si4 0.216087 0.767739 0.491544
Si Si5 0.942225 0.275073 0.511255
Si Si6 0.952726 0.326853 0.000175
Si Si7 0.159713 0.061841 0.242746
Si Si8 0.994450 0.920850 0.679178
O O1 0.151833 0.241146 0.862601
O O2 0.010940 0.211005 0.924878
O O3 0.088167 0.833308 0.914676
O O4 0.048849 0.056117 0.751625
O O5 0.240237 0.655470 0.591288
O O6 0.379745 0.545135 0.557552
O O7 0.306171 0.265428 0.671144
O O8 0.335757 0.765149 0.713586
O O9 0.756171 0.459877 0.923975
O O10 0.794210 0.876973 0.833535
O O11 0.743107 0.960442 0.983240
O O12 0.128273 0.771761 0.480528
O O13 0.024115 0.380138 0.490543
O O14 0.955851 0.083948 0.596939
O O15 0.967602 0.282245 0.111299
O O16 0.074470 0.153886 0.244468
#
# Coordination Sequence:
#
# PCOD9341017 Si02
#       8
#     4   4   4   4   4   4   4   4
#     4  11  25  45  73 100 147 188 251 300 365 435
#     4  11  22  45  69  96 138 188 223 292 357 434
#     4  12  27  47  70 106 140 192 238 300 360 431
#     4  12  27  44  73 101 144 183 242 288 365 431
#     4  10  22  44  69  98 139 190 233 293 363 427
#     4  11  25  44  72 103 142 192 238 302 364 427
#     4  11  24  43  69 100 144 178 236 289 366 419
#     4  10  24  42  69 104 138 187 235 300 358 434
#
# _framework density 23.487901999999998
#
# number of rings (size 3 to 8) (size 9 to 14) (size 15 to 20)
#    0.000    1.000    2.500    3.000    8.750    3.000 
#    0.000    0.000    0.000    0.000    0.000    0.000 
#    0.000    0.000    0.000    0.000    0.000    0.000 
#
# Total GULP energy -178486.976613 kJ/mol
# GULP energy per Si atom -5577.718019 kJ/mol
# Density = 2.343444 g / cm^3
# Si number density = 23.487902 Si / 1000 Ang^3
#
#
#
# Elastic Constant Matrix: (Units=GPa)
#
#
# Indices 1 2 3 4 5 6 
#
# 1 101.9115 4.8250 12.6399 0.0000 0.0000 0.0000
# 2 4.8250 57.4974 15.4629 0.0000 0.0000 0.0000
# 3 12.6399 15.4629 65.1045 0.0000 0.0000 0.0000
# 4 0.0000 0.0000 0.0000 16.0427 0.0000 0.0000
# 5 0.0000 0.0000 0.0000 0.0000 31.3329 0.0000
# 6 0.0000 0.0000 0.0000 0.0000 0.0000 26.7494
#
#
#
# Elastic Compliance Matrix: (Units=1/GPa)
#
#
# Indices 1 2 3 4 5 6 
#
# 1 0.010061 -0.000341 -0.001872 0.000000 0.000000 0.000000
# 2 -0.000341 0.018590 -0.004349 0.000000 0.000000 0.000000
# 3 -0.001872 -0.004349 0.016756 0.000000 0.000000 0.000000
# 4 0.000000 0.000000 0.000000 0.062334 0.000000 0.000000
# 5 0.000000 0.000000 0.000000 0.000000 0.031915 0.000000
# 6 0.000000 0.000000 0.000000 0.000000 0.000000 0.037384
#
#
# Mechanical properties :
#
#
# Convention : Reuss Voigt Hill
#
# Bulk Modulus (GPa) = 30.97613 32.26322 31.61967
# Shear Modulus (GPa) = 24.88476 27.59739 26.24108
#
# Velocity S-wave (km/s) = 3.25848 3.43149 3.34611
# Velocity P-wave (km/s) = 5.23199 5.42827 5.33103
#
# Compressibility (1/GPa) = 0.03228292
#
# Stress axis : x y z
#
# Youngs Moduli (GPa) = 99.39581 53.79142 59.67865
#
# Poissons Ratio (x) = 0.01833 0.11174
# Poissons Ratio (y) = 0.03387 0.25956
# Poissons Ratio (z) = 0.18610 0.23395
#
# Static dielectric constant tensor:
#      x y z
#    x 1.945040 0.000000 0.000000 
#    y 0.000000 2.046940 0.000000 
#    z 0.000000 0.000000 1.962360 
# 
# From -- ./inp_files/4820.got.cif
#   From: 2010.05.17/outbox.cif.g08.bks.cpg/sg29_3_cif.got.tgz:4820.got - 2010.06.04 01:19:37.
