data_PCOD9341181
_publ_section_title
;
Structure prediction by ZEFSAII (Michael W. Deem and Ramdas Pophale) SiO2 
 PCOD9341181
Probable space group: P C A 21
;
_chemical_formula_sum "Si O2"
_cell_formula_units_Z 32
_cell_length_a 16.030831
_cell_length_b 5.576594
_cell_length_c 14.135707
_cell_angle_alpha 90.000000
_cell_angle_beta 90.000000
_cell_angle_gamma 90.000000
_cell_volume 1263.695961
_symmetry_space_group_name_H-M "P C A 21"
_symmetry_group_IT_number 29
_symmetry_cell_setting 'orthorhombic'
loop_
_space_group_symop_operation_xyz
x,y,z
-x,-y,1/2+z
1/2-x,y,1/2+z
1/2+x,-y,z
loop_
_atom_site_type_symbol
_atom_site_label
_atom_site_fract_x
_atom_site_fract_y
_atom_site_fract_z
Si Si1 0.492926 0.932275 0.906800
Si Si2 0.209271 0.151087 0.167349
Si Si3 0.228831 0.540987 0.947054
Si Si4 0.298749 0.671820 0.120024
Si Si5 0.115111 0.733348 0.803642
Si Si6 0.342782 0.209447 0.867247
Si Si7 0.539490 0.418274 0.260500
Si Si8 0.430712 0.400642 0.561413
O O1 0.456405 0.839751 0.806371
O O2 0.577193 0.059465 0.869790
O O3 0.417903 0.111675 0.931898
O O4 0.510607 0.735464 0.986843
O O5 0.239525 0.901918 0.125431
O O6 0.263174 0.402838 0.150931
O O7 0.200734 0.089473 0.277451
O O8 0.120106 0.202471 0.120455
O O9 0.202172 0.651198 0.848166
O O10 0.263886 0.276986 0.930752
O O11 0.304964 0.650447 0.006661
O O12 0.142184 0.537058 0.004164
O O13 0.370856 0.757677 0.191129
O O14 0.045173 0.527447 0.804328
O O15 0.386002 0.432238 0.809498
O O16 0.535247 0.436292 0.147211
#
# Coordination Sequence:
#
# PCOD9341181 Si02
#       8
#     4   4   4   4   4   4   4   4
#     4  11  24  45  78 106 152 206 258 324 400 476
#     4  10  23  45  71 107 147 200 247 319 382 459
#     4  11  23  47  75 107 149 201 263 322 389 471
#     4  11  25  43  73 111 150 192 255 322 384 453
#     4  11  24  45  73 107 145 205 257 319 385 479
#     4  10  24  43  73 109 145 198 255 329 383 460
#     4  10  24  48  67 105 153 195 251 317 392 468
#     4  10  23  46  74 106 147 205 254 314 387 470
#
# _framework density 25.322545999999999
#
# number of rings (size 3 to 8) (size 9 to 14) (size 15 to 20)
#    0.000    1.500    2.500    0.750    8.750    1.000 
#   11.250    0.000    0.000    0.000    0.000    0.000 
#    0.000    0.000    0.000    0.000    0.000    0.000 
#
# Total GULP energy -178363.706265 kJ/mol
# GULP energy per Si atom -5573.865821 kJ/mol
# Density = 2.526491 g / cm^3
# Si number density = 25.322546 Si / 1000 Ang^3
#
#
#
# Elastic Constant Matrix: (Units=GPa)
#
#
# Indices 1 2 3 4 5 6 
#
# 1 49.4417 22.6552 15.1919 0.0000 0.0000 0.0000
# 2 22.6552 61.2881 14.8294 0.0000 0.0000 0.0000
# 3 15.1919 14.8294 100.4575 0.0000 0.0000 0.0000
# 4 0.0000 0.0000 0.0000 21.5244 0.0000 0.0000
# 5 0.0000 0.0000 0.0000 0.0000 44.7012 0.0000
# 6 0.0000 0.0000 0.0000 0.0000 0.0000 32.0048
#
#
#
# Elastic Compliance Matrix: (Units=1/GPa)
#
#
# Indices 1 2 3 4 5 6 
#
# 1 0.024941 -0.008615 -0.002500 0.000000 0.000000 0.000000
# 2 -0.008615 0.019896 -0.001634 0.000000 0.000000 0.000000
# 3 -0.002500 -0.001634 0.010574 0.000000 0.000000 0.000000
# 4 0.000000 0.000000 0.000000 0.046459 0.000000 0.000000
# 5 0.000000 0.000000 0.000000 0.000000 0.022371 0.000000
# 6 0.000000 0.000000 0.000000 0.000000 0.000000 0.031245
#
#
# Mechanical properties :
#
#
# Convention : Reuss Voigt Hill
#
# Bulk Modulus (GPa) = 33.42996 35.17114 34.30055
# Shear Modulus (GPa) = 26.18407 30.21348 28.19877
#
# Velocity S-wave (km/s) = 3.21911 3.45794 3.34066
# Velocity P-wave (km/s) = 5.20069 5.46466 5.33431
#
# Compressibility (1/GPa) = 0.02991329
#
# Stress axis : x y z
#
# Youngs Moduli (GPa) = 40.09387 50.26074 94.57346
#
# Poissons Ratio (x) = 0.43298 0.23645
# Poissons Ratio (y) = 0.34540 0.15456
# Poissons Ratio (z) = 0.10024 0.08214
#
# Static dielectric constant tensor:
#      x y z
#    x 2.097400 0.000000 0.000000 
#    y 0.000000 2.074500 0.000000 
#    z 0.000000 0.000000 2.074750 
# 
# From -- ./inp_files/4812.got.cif
#   From: 2010.05.17/outbox.cif.g08.bks.cpg/sg29_3_cif.got.tgz:4812.got - 2010.06.04 01:19:37.
