data_PCOD9341182
_publ_section_title
;
Structure prediction by ZEFSAII (Michael W. Deem and Ramdas Pophale) SiO2 
 PCOD9341182
Probable space group: P C A 21
;
_chemical_formula_sum "Si O2"
_cell_formula_units_Z 24
_cell_length_a 13.631940
_cell_length_b 8.678826
_cell_length_c 8.087406
_cell_angle_alpha 90.000000
_cell_angle_beta 90.000000
_cell_angle_gamma 90.000000
_cell_volume 956.814819
_symmetry_space_group_name_H-M "P C A 21"
_symmetry_group_IT_number 29
_symmetry_cell_setting 'orthorhombic'
loop_
_space_group_symop_operation_xyz
x,y,z
-x,-y,1/2+z
1/2-x,y,1/2+z
1/2+x,-y,z
loop_
_atom_site_type_symbol
_atom_site_label
_atom_site_fract_x
_atom_site_fract_y
_atom_site_fract_z
Si Si1 0.680063 0.703175 0.970130
Si Si2 0.414779 0.559159 0.619889
Si Si3 0.333160 0.749124 0.320031
Si Si4 0.363286 0.447882 0.117998
Si Si5 0.888825 0.169452 0.822509
Si Si6 0.059535 0.999727 0.984440
O O1 0.645032 0.643056 0.792543
O O2 0.649080 0.878851 0.981310
O O3 0.620601 0.614842 0.114845
O O4 0.789654 0.643039 0.999189
O O5 0.347444 0.644721 0.484285
O O6 0.525702 0.566786 0.562113
O O7 0.405635 0.648175 0.792028
O O8 0.340384 0.626045 0.170388
O O9 0.228845 0.836710 0.329171
O O10 0.418370 0.875346 0.340113
O O11 0.957187 0.089374 0.958110
O O12 0.930198 0.092440 0.654627
#
# Coordination Sequence:
#
# PCOD9341182 Si02
#       6
#     4   4   4   4   4   4
#     4  11  25  44  71 108 140 193 245 321 367 461
#     4  10  23  45  72 104 142 197 250 311 380 459
#     4  10  25  46  72 107 152 204 245 319 391 456
#     4  11  24  46  75 105 148 189 260 311 384 450
#     4  11  24  49  71 106 153 200 253 314 397 458
#     4  11  27  44  73 108 149 203 251 318 387 470
#
# _framework density 25.083224999999999
#
# number of rings (size 3 to 8) (size 9 to 14) (size 15 to 20)
#    0.000    1.333    3.333    0.000    4.667   10.667 
#    0.000    0.000    0.000    0.000    0.000    0.000 
#    0.000    0.000    0.000    0.000    0.000    0.000 
#
# Total GULP energy -134277.213661 kJ/mol
# GULP energy per Si atom -5594.883903 kJ/mol
# Density = 2.502613 g / cm^3
# Si number density = 25.083225 Si / 1000 Ang^3
#
#
#
# Elastic Constant Matrix: (Units=GPa)
#
#
# Indices 1 2 3 4 5 6 
#
# 1 99.4367 -22.8979 15.6355 0.0000 0.0000 0.0000
# 2 -22.8979 86.2069 18.5338 0.0000 0.0000 0.0000
# 3 15.6355 18.5338 98.3414 0.0000 0.0000 0.0000
# 4 0.0000 0.0000 0.0000 28.1895 0.0000 0.0000
# 5 0.0000 0.0000 0.0000 0.0000 32.7994 0.0000
# 6 0.0000 0.0000 0.0000 0.0000 0.0000 45.0813
#
#
#
# Elastic Compliance Matrix: (Units=1/GPa)
#
#
# Indices 1 2 3 4 5 6 
#
# 1 0.011252 0.003516 -0.002452 0.000000 0.000000 0.000000
# 2 0.003516 0.013188 -0.003044 0.000000 0.000000 0.000000
# 3 -0.002452 -0.003044 0.011132 0.000000 0.000000 0.000000
# 4 0.000000 0.000000 0.000000 0.035474 0.000000 0.000000
# 5 0.000000 0.000000 0.000000 0.000000 0.030488 0.000000
# 6 0.000000 0.000000 0.000000 0.000000 0.000000 0.022182
#
#
# Mechanical properties :
#
#
# Convention : Reuss Voigt Hill
#
# Bulk Modulus (GPa) = 31.63394 34.05865 32.84629
# Shear Modulus (GPa) = 36.17557 39.39494 37.78526
#
# Velocity S-wave (km/s) = 3.80178 3.96734 3.88544
# Velocity P-wave (km/s) = 5.64892 5.88168 5.76647
#
# Compressibility (1/GPa) = 0.03161161
#
# Stress axis : x y z
#
# Youngs Moduli (GPa) = 88.87547 75.82450 89.82949
#
# Poissons Ratio (x) = -0.26657 0.22022
# Poissons Ratio (y) = -0.31246 0.27348
# Poissons Ratio (z) = 0.21788 0.23085
#
# Static dielectric constant tensor:
#      x y z
#    x 1.969080 0.000000 0.000000 
#    y 0.000000 1.985780 0.000000 
#    z 0.000000 0.000000 2.052120 
# 
# From -- ./inp_files/1723.got.cif
#   From: 2010.05.17/outbox.cif.g08.bks.cpg/sg29_1_cif.got.tgz:1723.got - 2010.06.04 01:19:37.
