data_PCOD9341745
_publ_section_title
;
Structure prediction by ZEFSAII (Michael W. Deem and Ramdas Pophale) SiO2 
 PCOD9341745
Probable space group: P C A 21
;
_chemical_formula_sum "Si O2"
_cell_formula_units_Z 32
_cell_length_a 17.047277
_cell_length_b 4.903299
_cell_length_c 15.696750
_cell_angle_alpha 90.000000
_cell_angle_beta 90.000000
_cell_angle_gamma 90.000000
_cell_volume 1312.058311
_symmetry_space_group_name_H-M "P C A 21"
_symmetry_group_IT_number 29
_symmetry_cell_setting 'orthorhombic'
loop_
_space_group_symop_operation_xyz
x,y,z
-x,-y,1/2+z
1/2-x,y,1/2+z
1/2+x,-y,z
loop_
_atom_site_type_symbol
_atom_site_label
_atom_site_fract_x
_atom_site_fract_y
_atom_site_fract_z
Si Si1 0.963555 0.395190 0.762000
Si Si2 0.613528 0.900435 0.332479
Si Si3 0.722015 0.137134 0.880616
Si Si4 0.735786 0.399149 0.063217
Si Si5 0.863336 0.665162 0.314286
Si Si6 0.322486 0.081608 0.131191
Si Si7 0.034416 0.940443 0.510638
Si Si8 0.946787 0.444284 0.568501
O O1 0.931525 0.088442 0.764452
O O2 0.045690 0.411184 0.810619
O O3 0.975714 0.481520 0.665018
O O4 0.900039 0.589267 0.806927
O O5 0.702896 0.992723 0.339013
O O6 0.572509 0.969655 0.422102
O O7 0.686344 0.393338 0.830390
O O8 0.657854 0.895182 0.883938
O O9 0.746756 0.257084 0.971761
O O10 0.789309 0.662155 0.078061
O O11 0.645807 0.489090 0.068780
O O12 0.759874 0.164324 0.130264
O O13 0.842963 0.807391 0.224294
O O14 0.398938 0.968880 0.083008
O O15 0.998482 0.641255 0.510407
O O16 0.964862 0.141720 0.537259
#
# Coordination Sequence:
#
# PCOD9341745 Si02
#       8
#     4   4   4   4   4   4   4   4
#     4  12  28  48  73 110 151 194 245 301 372 443
#     4  12  28  47  75 107 150 197 244 304 372 441
#     4  12  28  48  75 110 151 195 246 304 371 442
#     4  12  28  48  77 109 148 192 253 307 363 435
#     4  12  28  47  76 109 150 196 244 304 373 442
#     4  12  26  50  78 104 144 200 249 299 365 442
#     4  12  26  50  75 104 144 201 246 297 367 441
#     4  12  28  48  75 109 150 191 249 308 363 436
#
# _framework density 24.38916
#
# number of rings (size 3 to 8) (size 9 to 14) (size 15 to 20)
#    0.000    0.000    2.500    6.000   14.000    0.000 
#    0.000    0.000    0.000    0.000    0.000    0.000 
#    0.000    0.000    0.000    0.000    0.000    0.000 
#
# Total GULP energy -179633.325807 kJ/mol
# GULP energy per Si atom -5613.541431 kJ/mol
# Density = 2.433365 g / cm^3
# Si number density = 24.389160 Si / 1000 Ang^3
#
#
#
# Elastic Constant Matrix: (Units=GPa)
#
#
# Indices 1 2 3 4 5 6 
#
# 1 100.5996 38.7407 15.3906 0.0000 0.0000 0.0000
# 2 38.7407 98.3043 14.8427 0.0000 0.0000 0.0000
# 3 15.3906 14.8427 70.0094 0.0000 0.0000 0.0000
# 4 0.0000 0.0000 0.0000 35.4738 0.0000 0.0000
# 5 0.0000 0.0000 0.0000 0.0000 30.6597 0.0000
# 6 0.0000 0.0000 0.0000 0.0000 0.0000 43.8605
#
#
#
# Elastic Compliance Matrix: (Units=1/GPa)
#
#
# Indices 1 2 3 4 5 6 
#
# 1 0.011906 -0.004439 -0.001676 0.000000 0.000000 0.000000
# 2 -0.004439 0.012164 -0.001603 0.000000 0.000000 0.000000
# 3 -0.001676 -0.001603 0.014992 0.000000 0.000000 0.000000
# 4 0.000000 0.000000 0.000000 0.028190 0.000000 0.000000
# 5 0.000000 0.000000 0.000000 0.000000 0.032616 0.000000
# 6 0.000000 0.000000 0.000000 0.000000 0.000000 0.022800
#
#
# Mechanical properties :
#
#
# Convention : Reuss Voigt Hill
#
# Bulk Modulus (GPa) = 42.32688 45.20680 43.76684
# Shear Modulus (GPa) = 34.25131 35.32810 34.78970
#
# Velocity S-wave (km/s) = 3.75155 3.81007 3.78092
# Velocity P-wave (km/s) = 6.01315 6.15884 6.08643
#
# Compressibility (1/GPa) = 0.02362565
#
# Stress axis : x y z
#
# Youngs Moduli (GPa) = 83.98900 82.21045 66.70157
#
# Poissons Ratio (x) = 0.36494 0.11181
# Poissons Ratio (y) = 0.37283 0.10692
# Poissons Ratio (z) = 0.14079 0.13178
#
# Static dielectric constant tensor:
#      x y z
#    x 1.909120 0.000000 0.000000 
#    y 0.000000 1.863310 0.000000 
#    z 0.000000 0.000000 1.942610 
# 
# From -- ./inp_files/5226.got.cif
#   From: 2010.05.17/outbox.cif.g08.bks.cpg/sg29_3_cif.got.tgz:5226.got - 2010.06.04 01:19:37.
