data_PCOD9341250
_publ_section_title
;
Structure prediction by ZEFSAII (Michael W. Deem and Ramdas Pophale) SiO2 
 PCOD9341250
Probable space group: P C A 21
;
_chemical_formula_sum "Si O2"
_cell_formula_units_Z 20
_cell_length_a 17.082438
_cell_length_b 4.787597
_cell_length_c 8.966476
_cell_angle_alpha 90.000000
_cell_angle_beta 90.000000
_cell_angle_gamma 90.000000
_cell_volume 733.312739
_symmetry_space_group_name_H-M "P C A 21"
_symmetry_group_IT_number 29
_symmetry_cell_setting 'orthorhombic'
loop_
_space_group_symop_operation_xyz
x,y,z
-x,-y,1/2+z
1/2-x,y,1/2+z
1/2+x,-y,z
loop_
_atom_site_type_symbol
_atom_site_label
_atom_site_fract_x
_atom_site_fract_y
_atom_site_fract_z
Si Si1 0.831195 0.264042 0.028430
Si Si2 0.781278 0.550653 0.302154
Si Si3 0.462844 0.109728 0.635373
Si Si4 0.520760 0.608916 0.455869
Si Si5 0.298633 0.124841 0.565193
O O1 0.837680 0.384481 0.194953
O O2 0.794416 0.959542 0.055071
O O3 0.756420 0.369709 0.933087
O O4 0.904150 0.402768 0.948130
O O5 0.711082 0.646442 0.195414
O O6 0.817084 0.800611 0.395375
O O7 0.461021 0.379842 0.524488
O O8 0.485638 0.235566 0.796410
O O9 0.375812 0.971769 0.627317
O O10 0.520801 0.869596 0.572892
#
# Coordination Sequence:
#
# PCOD9341250 Si02
#       5
#     4   4   4   4   4
#     4  11  25  46  78 109 158 206 271 330 400 481
#     4  10  24  42  72 112 142 200 266 328 396 460
#     4  12  30  52  82 121 168 220 273 337 419 497
#     4  12  30  52  82 121 168 220 273 337 419 497
#     4  11  25  46  78 109 158 206 271 330 400 481
#
# _framework density 27.273492000000001
#
# number of rings (size 3 to 8) (size 9 to 14) (size 15 to 20)
#    0.000    0.800    2.000    2.400   16.800    3.200 
#    0.000    0.000    0.000    0.000    0.000    0.000 
#    0.000    0.000    0.000    0.000    0.000    0.000 
#
# Total GULP energy -111430.161298 kJ/mol
# GULP energy per Si atom -5571.508065 kJ/mol
# Density = 2.721142 g / cm^3
# Si number density = 27.273492 Si / 1000 Ang^3
#
#
#
# Elastic Constant Matrix: (Units=GPa)
#
#
# Indices 1 2 3 4 5 6 
#
# 1 72.0452 19.9997 32.7846 0.0000 0.0000 0.0000
# 2 19.9997 117.0387 38.0702 0.0000 0.0000 0.0000
# 3 32.7846 38.0702 154.6301 0.0000 0.0000 0.0000
# 4 0.0000 0.0000 0.0000 31.1231 0.0000 0.0000
# 5 0.0000 0.0000 0.0000 0.0000 18.5776 0.0000
# 6 0.0000 0.0000 0.0000 0.0000 0.0000 27.0682
#
#
#
# Elastic Compliance Matrix: (Units=1/GPa)
#
#
# Indices 1 2 3 4 5 6 
#
# 1 0.015681 -0.001737 -0.002897 0.000000 0.000000 0.000000
# 2 -0.001737 0.009480 -0.001966 0.000000 0.000000 0.000000
# 3 -0.002897 -0.001966 0.007565 0.000000 0.000000 0.000000
# 4 0.000000 0.000000 0.000000 0.032131 0.000000 0.000000
# 5 0.000000 0.000000 0.000000 0.000000 0.053828 0.000000
# 6 0.000000 0.000000 0.000000 0.000000 0.000000 0.036944
#
#
# Mechanical properties :
#
#
# Convention : Reuss Voigt Hill
#
# Bulk Modulus (GPa) = 51.21232 58.38034 54.79633
# Shear Modulus (GPa) = 28.51640 32.21106 30.36373
#
# Velocity S-wave (km/s) = 3.23704 3.44035 3.34024
# Velocity P-wave (km/s) = 5.72620 6.10191 5.91704
#
# Compressibility (1/GPa) = 0.01952655
#
# Stress axis : x y z
#
# Youngs Moduli (GPa) = 63.77270 105.47993 132.18381
#
# Poissons Ratio (x) = 0.18324 0.38292
# Poissons Ratio (y) = 0.11079 0.25984
# Poissons Ratio (z) = 0.18474 0.20735
#
# Static dielectric constant tensor:
#      x y z
#    x 2.427470 0.000000 0.000000 
#    y 0.000000 2.365480 0.000000 
#    z 0.000000 0.000000 2.041320 
# 
# From -- ./inp_files/1967.got.cif
#   From: 2010.05.17/outbox.cif.g08.bks.cpg/sg29_1_cif.got.tgz:1967.got - 2010.06.04 01:19:37.
