data_PCOD9341734
_publ_section_title
;
Structure prediction by ZEFSAII (Michael W. Deem and Ramdas Pophale) SiO2 
 PCOD9341734
Probable space group: P C A 21
;
_chemical_formula_sum "Si O2"
_cell_formula_units_Z 24
_cell_length_a 13.920428
_cell_length_b 6.555108
_cell_length_c 11.772762
_cell_angle_alpha 90.000000
_cell_angle_beta 90.000000
_cell_angle_gamma 90.000000
_cell_volume 1074.263461
_symmetry_space_group_name_H-M "P C A 21"
_symmetry_group_IT_number 29
_symmetry_cell_setting 'orthorhombic'
loop_
_space_group_symop_operation_xyz
x,y,z
-x,-y,1/2+z
1/2-x,y,1/2+z
1/2+x,-y,z
loop_
_atom_site_type_symbol
_atom_site_label
_atom_site_fract_x
_atom_site_fract_y
_atom_site_fract_z
Si Si1 0.657873 0.106273 0.742420
Si Si2 0.273098 0.567834 0.425914
Si Si3 0.923400 0.351412 0.033781
Si Si4 0.903066 0.416358 0.644623
Si Si5 0.294277 0.233218 0.787451
Si Si6 0.958924 0.075632 0.829345
O O1 0.707486 0.259290 0.832216
O O2 0.629775 0.224829 0.630220
O O3 0.730349 0.923301 0.715295
O O4 0.557900 0.028047 0.793801
O O5 0.162327 0.550765 0.462545
O O6 0.337145 0.620476 0.534484
O O7 0.283898 0.347638 0.366996
O O8 0.996639 0.502106 0.094459
O O9 0.974515 0.203400 0.943977
O O10 0.849528 0.596373 0.714189
O O11 0.923824 0.227492 0.728233
O O12 0.375856 0.094133 0.846403
#
# Coordination Sequence:
#
# PCOD9341734 Si02
#       6
#     4   4   4   4   4   4
#     4  12  29  48  79 112 152 201 255 313 385 460
#     4  12  28  49  78 112 155 197 257 315 388 458
#     4  12  27  49  76 111 156 198 249 324 378 457
#     4  12  29  49  77 113 152 204 255 319 385 459
#     4  12  25  51  75 112 150 195 257 315 378 460
#     4  12  28  50  75 116 153 197 265 312 386 466
#
# _framework density 22.340889000000001
#
# number of rings (size 3 to 8) (size 9 to 14) (size 15 to 20)
#    0.000    0.000    5.000    3.000   14.000    2.667 
#    0.000    0.000    0.000    0.000    0.000    0.000 
#    0.000    0.000    0.000    0.000    0.000    0.000 
#
# Total GULP energy -134348.667943 kJ/mol
# GULP energy per Si atom -5597.861164 kJ/mol
# Density = 2.229004 g / cm^3
# Si number density = 22.340889 Si / 1000 Ang^3
#
#
#
# Elastic Constant Matrix: (Units=GPa)
#
#
# Indices 1 2 3 4 5 6 
#
# 1 102.8394 38.6668 20.9413 0.0000 0.0000 0.0000
# 2 38.6668 103.7124 46.1936 0.0000 0.0000 0.0000
# 3 20.9413 46.1936 118.1997 0.0000 0.0000 0.0000
# 4 0.0000 0.0000 0.0000 17.4478 0.0000 0.0000
# 5 0.0000 0.0000 0.0000 0.0000 43.7170 0.0000
# 6 0.0000 0.0000 0.0000 0.0000 0.0000 314.1523
#
#
#
# Elastic Compliance Matrix: (Units=1/GPa)
#
#
# Indices 1 2 3 4 5 6 
#
# 1 0.011327 -0.004031 -0.000432 0.000000 0.000000 0.000000
# 2 -0.004031 0.013109 -0.004409 0.000000 0.000000 0.000000
# 3 -0.000432 -0.004409 0.010260 0.000000 0.000000 0.000000
# 4 0.000000 0.000000 0.000000 0.057314 0.000000 0.000000
# 5 0.000000 0.000000 0.000000 0.000000 0.022874 0.000000
# 6 0.000000 0.000000 0.000000 0.000000 0.000000 0.003183
#
#
# Mechanical properties :
#
#
# Convention : Reuss Voigt Hill
#
# Bulk Modulus (GPa) = 58.98620 59.59498 59.29059
# Shear Modulus (GPa) = 35.34553 89.66009 62.50281
#
# Velocity S-wave (km/s) = 3.98188 6.34191 5.29505
# Velocity P-wave (km/s) = 6.89932 8.96436 7.99876
#
# Compressibility (1/GPa) = 0.01695312
#
# Stress axis : x y z
#
# Youngs Moduli (GPa) = 88.28173 76.28597 97.46863
#
# Poissons Ratio (x) = 0.30750 0.04206
# Poissons Ratio (y) = 0.35586 0.42972
# Poissons Ratio (z) = 0.03810 0.33633
#
# Static dielectric constant tensor:
#      x y z
#    x 1.789970 0.000000 0.000000 
#    y 0.000000 1.840420 0.000000 
#    z 0.000000 0.000000 1.785360 
# 
# From -- ./inp_files/3337.got.cif
#   From: 2010.05.17/outbox.cif.g08.bks.cpg/sg29_2_cif.got.tgz:3337.got - 2010.06.04 01:19:37.
