data_PCOD9341827
_publ_section_title
;
Structure prediction by ZEFSAII (Michael W. Deem and Ramdas Pophale) SiO2 
 PCOD9341827
Probable space group: P N C 2
;
_chemical_formula_sum "Si O2"
_cell_formula_units_Z 32
_cell_length_a 7.051394
_cell_length_b 32.727073
_cell_length_c 5.352604
_cell_angle_alpha 90.000000
_cell_angle_beta 90.000000
_cell_angle_gamma 90.000000
_cell_volume 1235.228380
_symmetry_space_group_name_H-M "P N C 2"
_symmetry_group_IT_number 30
_symmetry_cell_setting 'orthorhombic'
loop_
_space_group_symop_operation_xyz
x,y,z
-x,-y,z
-x,1/2+y,1/2+z
x,1/2-y,1/2+z
loop_
_atom_site_type_symbol
_atom_site_label
_atom_site_fract_x
_atom_site_fract_y
_atom_site_fract_z
Si Si1 0.866312 0.633031 0.278720
Si Si2 0.398253 0.731417 0.371891
Si Si3 0.568486 0.141096 0.893737
Si Si4 0.160995 0.098192 0.276052
Si Si5 0.688794 0.471784 0.132596
Si Si6 0.944162 0.728312 0.308102
Si Si7 0.585742 0.385771 0.904897
Si Si8 0.269045 0.005763 0.141234
O O1 0.641504 0.625172 0.327507
O O2 0.943605 0.620490 0.550129
O O3 0.897168 0.681259 0.243128
O O4 0.935173 0.604737 0.047741
O O5 0.466380 0.762082 0.588385
O O6 0.447115 0.687308 0.483014
O O7 0.171069 0.732858 0.339299
O O8 0.662695 0.144653 0.617469
O O9 0.658994 0.115670 0.120695
O O10 0.363233 0.119706 0.338649
O O11 0.214788 0.052994 0.177454
O O12 0.500000 0.500000 0.144307
O O13 0.790746 0.482258 0.390904
O O14 0.615571 0.427330 0.059951
O O15 0.804228 0.484156 0.889142
O O16 0.875837 0.742768 0.581703
O O17 0.500000 0.000000 0.146136
#
# Coordination Sequence:
#
# PCOD9341827 Si02
#       8
#     4   4   4   4   4   4   4   4
#     4  10  21  32  50  75 107 140 162 213 261 317
#     4  10  21  38  58  77  99 132 178 222 257 306
#     4  10  21  32  50  75 107 140 162 213 261 317
#     4  10  18  30  43  69 108 142 167 202 261 304
#     4  10  17  24  41  63  95 144 169 203 236 302
#     4  10  21  38  58  77  99 132 178 222 257 306
#     4  10  18  30  43  69 108 142 167 202 261 304
#     4  10  17  24  41  63  95 144 169 203 236 302
#
# _framework density 25.906139
#
# number of rings (size 3 to 8) (size 9 to 14) (size 15 to 20)
#    0.000    2.000    2.500    3.000    7.000    1.000 
#    0.000    0.000    0.000    0.000    0.000    0.000 
#    0.000   15.000    0.000    0.000    0.000    0.000 
#
# Total GULP energy -178559.870820 kJ/mol
# GULP energy per Si atom -5579.995963 kJ/mol
# Density = 2.584718 g / cm^3
# Si number density = 25.906139 Si / 1000 Ang^3
#
#
#
# Elastic Constant Matrix: (Units=GPa)
#
#
# Indices 1 2 3 4 5 6 
#
# 1 103.6271 -18.5292 2.1339 0.0000 0.0000 0.0000
# 2 -18.5292 92.4274 35.8457 0.0000 0.0000 0.0000
# 3 2.1339 35.8457 265.1286 0.0000 0.0000 0.0000
# 4 0.0000 0.0000 0.0000 48.6780 0.0000 0.0000
# 5 0.0000 0.0000 0.0000 0.0000 -19.4869 0.0000
# 6 0.0000 0.0000 0.0000 0.0000 0.0000 -9.0065
#
#
#
# Elastic Compliance Matrix: (Units=1/GPa)
#
#
# Indices 1 2 3 4 5 6 
#
# 1 0.010044 0.002158 -0.000373 0.000000 0.000000 0.000000
# 2 0.002158 0.011882 -0.001624 0.000000 0.000000 0.000000
# 3 -0.000373 -0.001624 0.003994 0.000000 0.000000 0.000000
# 4 0.000000 0.000000 0.000000 0.020543 0.000000 0.000000
# 5 0.000000 0.000000 0.000000 0.000000 -0.051317 0.000000
# 6 0.000000 0.000000 0.000000 0.000000 0.000000 -0.111030
#
#
# Mechanical properties :
#
#
# Convention : Reuss Voigt Hill
#
# Bulk Modulus (GPa) = 38.10593 55.56486 46.83539
# Shear Modulus (GPa) = -46.52892 33.48576 -6.52158
#
# Velocity S-wave (km/s) = -4.24259 3.59915 -1.58835
# Velocity P-wave (km/s) = 3.04274 6.22631 3.84114
#
# Compressibility (1/GPa) = 0.02624264
#
# Stress axis : x y z
#
# Youngs Moduli (GPa) = 99.56669 84.16330 250.35731
#
# Poissons Ratio (x) = -0.18162 0.09328
# Poissons Ratio (y) = -0.21486 0.40653
# Poissons Ratio (z) = 0.03710 0.13666
#
# Static dielectric constant tensor:
#      x y z
#    x 2.055100 0.000000 0.000000 
#    y 0.000000 2.075860 0.000000 
#    z 0.000000 0.000000 2.151790 
# 
# From -- ./inp_files/586.got.cif
#   From: 2010.05.17/outbox.cif.g08.bks.cpg/sg30_1_cif.got.tgz:586.got - 2010.06.03 17:03:02.
