data_PCOD9341318
_publ_section_title
;
Structure prediction by ZEFSAII (Michael W. Deem and Ramdas Pophale) SiO2 
 PCOD9341318
Probable space group: P C A 21
;
_chemical_formula_sum "Si O2"
_cell_formula_units_Z 32
_cell_length_a 8.835432
_cell_length_b 13.752980
_cell_length_c 10.474750
_cell_angle_alpha 90.000000
_cell_angle_beta 90.000000
_cell_angle_gamma 90.000000
_cell_volume 1272.823739
_symmetry_space_group_name_H-M "P C A 21"
_symmetry_group_IT_number 29
_symmetry_cell_setting 'orthorhombic'
loop_
_space_group_symop_operation_xyz
x,y,z
-x,-y,1/2+z
1/2-x,y,1/2+z
1/2+x,-y,z
loop_
_atom_site_type_symbol
_atom_site_label
_atom_site_fract_x
_atom_site_fract_y
_atom_site_fract_z
Si Si1 0.586281 0.576570 0.170940
Si Si2 0.741557 0.868734 0.701244
Si Si3 0.104977 0.502046 0.913981
Si Si4 0.804929 0.324417 0.858907
Si Si5 0.952629 0.223550 0.233194
Si Si6 0.100147 0.342081 0.733308
Si Si7 0.128899 0.029343 0.948293
Si Si8 0.673612 0.135061 0.503727
O O1 0.507740 0.539841 0.302214
O O2 0.519104 0.684243 0.155186
O O3 0.768430 0.591265 0.167883
O O4 0.544773 0.504620 0.056723
O O5 0.904300 0.841412 0.762279
O O6 0.648926 0.767612 0.701607
O O7 0.779851 0.911635 0.561052
O O8 0.666283 0.939805 0.803787
O O9 0.252468 0.571340 0.912197
O O10 0.129878 0.388505 0.875238
O O11 0.640670 0.276063 0.840676
O O12 0.875961 0.234767 0.935328
O O13 0.915524 0.340841 0.737492
O O14 0.833372 0.162373 0.151629
O O15 0.956206 0.057159 0.973169
O O16 0.171832 0.917213 0.967333
#
# Coordination Sequence:
#
# PCOD9341318 Si02
#       8
#     4   4   4   4   4   4   4   4
#     4  10  24  47  73 108 151 199 250 308 380 453
#     4  10  24  47  71 105 145 188 246 301 384 438
#     4  11  25  46  75 110 149 201 256 311 379 462
#     4  11  24  45  70 108 150 197 255 308 378 453
#     4   9  23  46  69  99 148 191 241 309 361 447
#     4  11  23  42  72 103 150 196 244 307 375 456
#     4  11  26  45  74 107 143 195 244 311 378 451
#     4  11  25  44  70 104 148 191 246 317 373 448
#
# _framework density 25.14095
#
# number of rings (size 3 to 8) (size 9 to 14) (size 15 to 20)
#    0.000    1.500    1.250    1.500    7.000    7.000 
#    4.500    3.750    0.000    0.000    0.000    0.000 
#    0.000    0.000    0.000    0.000    0.000    0.000 
#
# Total GULP energy -178413.554589 kJ/mol
# GULP energy per Si atom -5575.423581 kJ/mol
# Density = 2.508373 g / cm^3
# Si number density = 25.140950 Si / 1000 Ang^3
#
#
#
# Elastic Constant Matrix: (Units=GPa)
#
#
# Indices 1 2 3 4 5 6 
#
# 1 71.5400 34.0787 8.6480 0.0000 0.0000 0.0000
# 2 34.0787 99.3033 12.8988 0.0000 0.0000 0.0000
# 3 8.6480 12.8988 59.7662 0.0000 0.0000 0.0000
# 4 0.0000 0.0000 0.0000 32.3995 0.0000 0.0000
# 5 0.0000 0.0000 0.0000 0.0000 6.1173 0.0000
# 6 0.0000 0.0000 0.0000 0.0000 0.0000 44.6221
#
#
#
# Elastic Compliance Matrix: (Units=1/GPa)
#
#
# Indices 1 2 3 4 5 6 
#
# 1 0.016796 -0.005605 -0.001221 0.000000 0.000000 0.000000
# 2 -0.005605 0.012231 -0.001829 0.000000 0.000000 0.000000
# 3 -0.001221 -0.001829 0.017303 0.000000 0.000000 0.000000
# 4 0.000000 0.000000 0.000000 0.030865 0.000000 0.000000
# 5 0.000000 0.000000 0.000000 0.000000 0.163470 0.000000
# 6 0.000000 0.000000 0.000000 0.000000 0.000000 0.022410
#
#
# Mechanical properties :
#
#
# Convention : Reuss Voigt Hill
#
# Bulk Modulus (GPa) = 34.45773 37.98451 36.22112
# Shear Modulus (GPa) = 17.23790 28.29340 22.76565
#
# Velocity S-wave (km/s) = 2.62133 3.35832 3.01245
# Velocity P-wave (km/s) = 4.78513 5.49356 5.15154
#
# Compressibility (1/GPa) = 0.02902106
#
# Stress axis : x y z
#
# Youngs Moduli (GPa) = 59.53812 81.75703 57.79295
#
# Poissons Ratio (x) = 0.45829 0.07054
# Poissons Ratio (y) = 0.33374 0.10569
# Poissons Ratio (z) = 0.07267 0.14951
#
# Static dielectric constant tensor:
#      x y z
#    x 2.060620 0.000000 0.000000 
#    y 0.000000 2.050310 0.000000 
#    z 0.000000 0.000000 2.056220 
# 
# From -- ./inp_files/2972.got.cif
#   From: 2010.05.17/outbox.cif.g08.bks.cpg/sg29_2_cif.got.tgz:2972.got - 2010.06.04 01:19:37.
