data_PCOD9341473
_publ_section_title
;
Structure prediction by ZEFSAII (Michael W. Deem and Ramdas Pophale) SiO2 
 PCOD9341473
Probable space group: P C A 21
;
_chemical_formula_sum "Si O2"
_cell_formula_units_Z 32
_cell_length_a 14.893189
_cell_length_b 8.517633
_cell_length_c 11.587421
_cell_angle_alpha 90.000000
_cell_angle_beta 90.000000
_cell_angle_gamma 90.000000
_cell_volume 1469.919024
_symmetry_space_group_name_H-M "P C A 21"
_symmetry_group_IT_number 29
_symmetry_cell_setting 'orthorhombic'
loop_
_space_group_symop_operation_xyz
x,y,z
-x,-y,1/2+z
1/2-x,y,1/2+z
1/2+x,-y,z
loop_
_atom_site_type_symbol
_atom_site_label
_atom_site_fract_x
_atom_site_fract_y
_atom_site_fract_z
Si Si1 0.926694 0.563418 0.730720
Si Si2 0.302064 0.827642 0.729445
Si Si3 0.573166 0.696462 0.797597
Si Si4 0.364268 0.992161 0.184967
Si Si5 0.755307 0.476732 0.341071
Si Si6 0.866440 0.373044 0.532805
Si Si7 0.976850 0.192745 0.356422
Si Si8 0.434928 0.889433 0.942597
O O1 0.844002 0.542120 0.819584
O O2 0.889238 0.526906 0.604985
O O3 0.003008 0.432006 0.750589
O O4 0.967945 0.731225 0.752834
O O5 0.243002 0.975549 0.692479
O O6 0.241528 0.671263 0.753154
O O7 0.361643 0.771038 0.621958
O O8 0.360083 0.853242 0.844476
O O9 0.666227 0.605098 0.824211
O O10 0.519538 0.779651 0.904630
O O11 0.596515 0.833514 0.704625
O O12 0.396397 0.903041 0.300212
O O13 0.397501 0.896376 0.072503
O O14 0.773935 0.402130 0.465885
O O15 0.939881 0.329355 0.437740
O O16 0.035550 0.068642 0.423499
#
# Coordination Sequence:
#
# PCOD9341473 Si02
#       8
#     4   4   4   4   4   4   4   4
#     4  11  24  45  69  97 142 179 230 291 347 412
#     4  11  23  45  70 101 144 180 235 279 363 415
#     4  11  23  46  67 103 138 176 245 282 343 421
#     4  11  25  43  73  99 139 188 227 291 349 415
#     4  11  23  44  66 103 134 182 231 288 345 416
#     4  11  22  44  70 100 140 182 227 299 337 429
#     4  11  25  44  70 100 133 184 233 275 361 418
#     4  11  25  45  67 103 142 185 226 289 351 420
#
# _framework density 21.769905999999999
#
# number of rings (size 3 to 8) (size 9 to 14) (size 15 to 20)
#    0.000    1.000    5.000    1.500    5.250    0.000 
#    9.000    0.000    0.000    0.000    0.000    0.000 
#    0.000    0.000    0.000    0.000    0.000    0.000 
#
# Total GULP energy -178550.295198 kJ/mol
# GULP energy per Si atom -5579.696725 kJ/mol
# Density = 2.172036 g / cm^3
# Si number density = 21.769906 Si / 1000 Ang^3
#
#
#
# Elastic Constant Matrix: (Units=GPa)
#
#
# Indices 1 2 3 4 5 6 
#
# 1 91.3682 22.8046 16.5896 0.0000 0.0000 0.0000
# 2 22.8046 33.6257 -4.2881 0.0000 0.0000 0.0000
# 3 16.5896 -4.2881 88.8345 0.0000 0.0000 0.0000
# 4 0.0000 0.0000 0.0000 30.3115 0.0000 0.0000
# 5 0.0000 0.0000 0.0000 0.0000 32.0102 0.0000
# 6 0.0000 0.0000 0.0000 0.0000 0.0000 23.6990
#
#
#
# Elastic Compliance Matrix: (Units=1/GPa)
#
#
# Indices 1 2 3 4 5 6 
#
# 1 0.013967 -0.009866 -0.003085 0.000000 0.000000 0.000000
# 2 -0.009866 0.036892 0.003623 0.000000 0.000000 0.000000
# 3 -0.003085 0.003623 0.012008 0.000000 0.000000 0.000000
# 4 0.000000 0.000000 0.000000 0.032991 0.000000 0.000000
# 5 0.000000 0.000000 0.000000 0.000000 0.031240 0.000000
# 6 0.000000 0.000000 0.000000 0.000000 0.000000 0.042196
#
#
# Mechanical properties :
#
#
# Convention : Reuss Voigt Hill
#
# Bulk Modulus (GPa) = 22.61786 31.56008 27.08897
# Shear Modulus (GPa) = 24.66873 29.11895 26.89384
#
# Velocity S-wave (km/s) = 3.36989 3.66126 3.51859
# Velocity P-wave (km/s) = 5.05506 5.69225 5.38309
#
# Compressibility (1/GPa) = 0.04421285
#
# Stress axis : x y z
#
# Youngs Moduli (GPa) = 71.59632 27.10607 83.27907
#
# Poissons Ratio (x) = 0.26742 0.25688
# Poissons Ratio (y) = 0.70635 -0.30174
# Poissons Ratio (z) = 0.22084 -0.09821
#
# Static dielectric constant tensor:
#      x y z
#    x 1.848580 0.000000 0.000000 
#    y 0.000000 1.823050 0.000000 
#    z 0.000000 0.000000 1.808860 
# 
# From -- ./inp_files/3519.got.cif
#   From: 2010.05.17/outbox.cif.g08.bks.cpg/sg29_2_cif.got.tgz:3519.got - 2010.06.04 01:19:37.
