data_PCOD9341749
_publ_section_title
;
Structure prediction by ZEFSAII (Michael W. Deem and Ramdas Pophale) SiO2 
 PCOD9341749
Probable space group: P C A 21
;
_chemical_formula_sum "Si O2"
_cell_formula_units_Z 20
_cell_length_a 27.043830
_cell_length_b 5.074496
_cell_length_c 5.242119
_cell_angle_alpha 90.000000
_cell_angle_beta 90.000000
_cell_angle_gamma 90.000000
_cell_volume 719.395948
_symmetry_space_group_name_H-M "P C A 21"
_symmetry_group_IT_number 29
_symmetry_cell_setting 'orthorhombic'
loop_
_space_group_symop_operation_xyz
x,y,z
-x,-y,1/2+z
1/2-x,y,1/2+z
1/2+x,-y,z
loop_
_atom_site_type_symbol
_atom_site_label
_atom_site_fract_x
_atom_site_fract_y
_atom_site_fract_z
Si Si1 0.736877 0.416450 0.649460
Si Si2 0.855068 0.136595 0.151942
Si Si3 0.506692 0.840345 0.675109
Si Si4 0.831758 0.794011 0.649941
Si Si5 0.421210 0.522426 0.451885
O O1 0.750998 0.259699 0.401330
O O2 0.678118 0.407998 0.637281
O O3 0.776905 0.655510 0.665942
O O4 0.906695 0.249106 0.251913
O O5 0.836220 0.959649 0.388775
O O6 0.847230 0.975139 0.891196
O O7 0.464045 0.622511 0.637161
O O8 0.555963 0.709451 0.784040
O O9 0.512376 0.965985 0.396537
O O10 0.873591 0.568953 0.612138
#
# Coordination Sequence:
#
# PCOD9341749 Si02
#       5
#     4   4   4   4   4
#     4  12  26  54  78 122 166 212 276 330 400 496
#     4  12  30  53  83 121 166 220 272 338 413 482
#     4  12  30  56  88 122 162 222 270 350 432 490
#     4  12  30  53  83 121 166 220 272 338 413 482
#     4  12  30  58  82 126 166 210 288 348 402 520
#
# _framework density 27.801103000000001
#
# number of rings (size 3 to 8) (size 9 to 14) (size 15 to 20)
#    0.000    0.000    2.000    4.800    0.000   20.800 
#    0.000    0.000    0.000    0.000    0.000    0.000 
#    0.000    0.000    0.000    0.000    0.000    0.000 
#
# Total GULP energy -112042.070691 kJ/mol
# GULP energy per Si atom -5602.103535 kJ/mol
# Density = 2.773783 g / cm^3
# Si number density = 27.801103 Si / 1000 Ang^3
#
#
#
# Elastic Constant Matrix: (Units=GPa)
#
#
# Indices 1 2 3 4 5 6 
#
# 1 120.2368 58.5908 34.7701 0.0000 0.0000 0.0000
# 2 58.5908 139.3105 54.0766 0.0000 0.0000 0.0000
# 3 34.7701 54.0766 221.3695 0.0000 0.0000 0.0000
# 4 0.0000 0.0000 0.0000 21.1465 0.0000 0.0000
# 5 0.0000 0.0000 0.0000 0.0000 45.0945 0.0000
# 6 0.0000 0.0000 0.0000 0.0000 0.0000 52.7925
#
#
#
# Elastic Compliance Matrix: (Units=1/GPa)
#
#
# Indices 1 2 3 4 5 6 
#
# 1 0.010540 -0.004187 -0.000633 0.000000 0.000000 0.000000
# 2 -0.004187 0.009594 -0.001686 0.000000 0.000000 0.000000
# 3 -0.000633 -0.001686 0.005029 0.000000 0.000000 0.000000
# 4 0.000000 0.000000 0.000000 0.047289 0.000000 0.000000
# 5 0.000000 0.000000 0.000000 0.000000 0.022176 0.000000
# 6 0.000000 0.000000 0.000000 0.000000 0.000000 0.018942
#
#
# Mechanical properties :
#
#
# Convention : Reuss Voigt Hill
#
# Bulk Modulus (GPa) = 82.29950 86.19910 84.24930
# Shear Modulus (GPa) = 38.27549 46.03863 42.15706
#
# Velocity S-wave (km/s) = 3.71450 4.07381 3.89830
# Velocity P-wave (km/s) = 6.93281 7.29389 7.11564
#
# Compressibility (1/GPa) = 0.01215074
#
# Stress axis : x y z
#
# Youngs Moduli (GPa) = 94.87296 104.23421 198.86529
#
# Poissons Ratio (x) = 0.43648 0.12581
# Poissons Ratio (y) = 0.39728 0.33526
# Poissons Ratio (z) = 0.06002 0.17573
#
# Static dielectric constant tensor:
#      x y z
#    x 2.191120 0.000000 0.000000 
#    y 0.000000 2.161840 0.000000 
#    z 0.000000 0.000000 2.195670 
# 
# From -- ./inp_files/731.got.cif
#   From: 2010.05.17/outbox.cif.g08.bks.cpg/sg29_1_cif.got.tgz:731.got - 2010.06.04 01:19:37.
