data_PCOD9341392
_publ_section_title
;
Structure prediction by ZEFSAII (Michael W. Deem and Ramdas Pophale) SiO2 
 PCOD9341392
Probable space group: P C A 21
;
_chemical_formula_sum "Si O2"
_cell_formula_units_Z 20
_cell_length_a 10.698526
_cell_length_b 8.427473
_cell_length_c 7.685838
_cell_angle_alpha 90.000000
_cell_angle_beta 90.000000
_cell_angle_gamma 90.000000
_cell_volume 692.966983
_symmetry_space_group_name_H-M "P C A 21"
_symmetry_group_IT_number 29
_symmetry_cell_setting 'orthorhombic'
loop_
_space_group_symop_operation_xyz
x,y,z
-x,-y,1/2+z
1/2-x,y,1/2+z
1/2+x,-y,z
loop_
_atom_site_type_symbol
_atom_site_label
_atom_site_fract_x
_atom_site_fract_y
_atom_site_fract_z
Si Si1 0.166166 0.929364 0.371590
Si Si2 0.478489 0.770182 0.160690
Si Si3 0.249787 0.256883 0.495981
Si Si4 0.520576 0.225737 0.071533
Si Si5 0.747032 0.397263 0.501295
O O1 0.990184 0.195003 0.364343
O O2 0.241246 0.090760 0.391015
O O3 0.082642 0.909565 0.544100
O O4 0.243573 0.765549 0.388113
O O5 0.589599 0.099663 0.196286
O O6 0.261627 0.432308 0.911970
O O7 0.379942 0.628985 0.114170
O O8 0.383718 0.258698 0.587588
O O9 0.124113 0.254404 0.617301
O O10 0.616021 0.375632 0.087990
#
# Coordination Sequence:
#
# PCOD9341392 Si02
#       5
#     4   4   4   4   4
#     4  10  29  53  85 122 182 233 295 378 444 539
#     4  10  28  54  85 132 177 235 303 377 458 541
#     4  12  28  52  94 128 178 243 306 373 466 548
#     4  12  27  54  91 125 183 236 299 374 457 542
#     4  10  26  55  87 125 182 239 297 382 457 544
#
# _framework density 28.861401000000001
#
# number of rings (size 3 to 8) (size 9 to 14) (size 15 to 20)
#    1.200    0.000    0.000    2.400    8.400    4.800 
#    0.000    0.000    4.400    0.000    0.000    0.000 
#    0.000    0.000    0.000    0.000    0.000    0.000 
#
# Total GULP energy -111869.157387 kJ/mol
# GULP energy per Si atom -5593.457869 kJ/mol
# Density = 2.879571 g / cm^3
# Si number density = 28.861401 Si / 1000 Ang^3
#
#
#
# Elastic Constant Matrix: (Units=GPa)
#
#
# Indices 1 2 3 4 5 6 
#
# 1 243.5508 88.9150 63.9132 0.0000 0.0000 0.0000
# 2 88.9150 281.6129 89.4087 0.0000 0.0000 0.0000
# 3 63.9132 89.4087 147.5426 0.0000 0.0000 0.0000
# 4 0.0000 0.0000 0.0000 48.6953 0.0000 0.0000
# 5 0.0000 0.0000 0.0000 0.0000 63.5961 0.0000
# 6 0.0000 0.0000 0.0000 0.0000 0.0000 53.4687
#
#
#
# Elastic Compliance Matrix: (Units=1/GPa)
#
#
# Indices 1 2 3 4 5 6 
#
# 1 0.004883 -0.001077 -0.001462 0.000000 0.000000 0.000000
# 2 -0.001077 0.004635 -0.002342 0.000000 0.000000 0.000000
# 3 -0.001462 -0.002342 0.008830 0.000000 0.000000 0.000000
# 4 0.000000 0.000000 0.000000 0.020536 0.000000 0.000000
# 5 0.000000 0.000000 0.000000 0.000000 0.015724 0.000000
# 6 0.000000 0.000000 0.000000 0.000000 0.000000 0.018703
#
#
# Mechanical properties :
#
#
# Convention : Reuss Voigt Hill
#
# Bulk Modulus (GPa) = 116.48537 128.57556 122.53046
# Shear Modulus (GPa) = 58.18327 61.84997 60.01662
#
# Velocity S-wave (km/s) = 4.49481 4.63428 4.56508
# Velocity P-wave (km/s) = 8.20887 8.56045 8.38651
#
# Compressibility (1/GPa) = 0.00858477
#
# Stress axis : x y z
#
# Youngs Moduli (GPa) = 204.79106 215.76557 113.24704
#
# Poissons Ratio (x) = 0.23248 0.16560
# Poissons Ratio (y) = 0.22066 0.26520
# Poissons Ratio (z) = 0.29947 0.50528
#
# Static dielectric constant tensor:
#      x y z
#    x 2.328780 0.000000 0.000000 
#    y 0.000000 2.248310 0.000000 
#    z 0.000000 0.000000 2.280220 
# 
# From -- ./inp_files/3047.got.cif
#   From: 2010.05.17/outbox.cif.g08.bks.cpg/sg29_2_cif.got.tgz:3047.got - 2010.06.04 01:19:37.
