data_PCOD9341566
_publ_section_title
;
Structure prediction by ZEFSAII (Michael W. Deem and Ramdas Pophale) SiO2 
 PCOD9341566
Probable space group: P C A 21
;
_chemical_formula_sum "Si O2"
_cell_formula_units_Z 24
_cell_length_a 9.759568
_cell_length_b 4.984075
_cell_length_c 17.897355
_cell_angle_alpha 90.000000
_cell_angle_beta 90.000000
_cell_angle_gamma 90.000000
_cell_volume 870.570639
_symmetry_space_group_name_H-M "P C A 21"
_symmetry_group_IT_number 29
_symmetry_cell_setting 'orthorhombic'
loop_
_space_group_symop_operation_xyz
x,y,z
-x,-y,1/2+z
1/2-x,y,1/2+z
1/2+x,-y,z
loop_
_atom_site_type_symbol
_atom_site_label
_atom_site_fract_x
_atom_site_fract_y
_atom_site_fract_z
Si Si1 0.271822 0.537739 0.296120
Si Si2 0.395622 0.145504 0.416847
Si Si3 0.906854 0.952622 0.789837
Si Si4 0.838753 0.820008 0.015584
Si Si5 0.087910 0.522519 0.032249
Si Si6 0.437486 0.255890 0.166392
O O1 0.345134 0.413707 0.369356
O O2 0.354714 0.444301 0.222977
O O3 0.223725 0.845525 0.297037
O O4 0.135980 0.354387 0.291620
O O5 0.489614 0.005565 0.356936
O O6 0.255026 0.033272 0.454677
O O7 0.471922 0.264726 0.489547
O O8 0.980663 0.041771 0.714578
O O9 0.748103 0.540477 0.024395
O O10 0.846189 0.896850 0.103141
O O11 0.994330 0.750063 0.993836
O O12 0.042994 0.568804 0.116943
#
# Coordination Sequence:
#
# PCOD9341566 Si02
#       6
#     4   4   4   4   4   4
#     4  11  24  43  70 102 141 188 242 299 362 435
#     4   9  20  38  70 100 145 181 246 295 363 432
#     4  11  24  43  70 100 143 190 242 297 372 429
#     4   8  16  34  64 104 140 186 236 294 358 428
#     4   8  16  34  66 100 144 182 238 290 366 420
#     4   9  20  38  70 100 145 181 246 295 363 432
#
# _framework density 27.568125999999999
#
# number of rings (size 3 to 8) (size 9 to 14) (size 15 to 20)
#    2.000    0.667    0.000    2.000    0.000    5.333 
#    0.000    1.667    7.333    0.000    0.000    0.000 
#    0.000    0.000    0.000    0.000    0.000    0.000 
#
# Total GULP energy -134024.059833 kJ/mol
# GULP energy per Si atom -5584.335826 kJ/mol
# Density = 2.750538 g / cm^3
# Si number density = 27.568126 Si / 1000 Ang^3
#
#
#
# Elastic Constant Matrix: (Units=GPa)
#
#
# Indices 1 2 3 4 5 6 
#
# 1 109.7224 12.0275 23.0746 0.0000 0.0000 0.0000
# 2 12.0275 83.2850 12.9175 0.0000 0.0000 0.0000
# 3 23.0746 12.9175 156.5189 0.0000 0.0000 0.0000
# 4 0.0000 0.0000 0.0000 37.6881 0.0000 0.0000
# 5 0.0000 0.0000 0.0000 0.0000 43.8160 0.0000
# 6 0.0000 0.0000 0.0000 0.0000 0.0000 40.6841
#
#
#
# Elastic Compliance Matrix: (Units=1/GPa)
#
#
# Indices 1 2 3 4 5 6 
#
# 1 0.009517 -0.001172 -0.001306 0.000000 0.000000 0.000000
# 2 -0.001172 0.012307 -0.000843 0.000000 0.000000 0.000000
# 3 -0.001306 -0.000843 0.006651 0.000000 0.000000 0.000000
# 4 0.000000 0.000000 0.000000 0.026534 0.000000 0.000000
# 5 0.000000 0.000000 0.000000 0.000000 0.022823 0.000000
# 6 0.000000 0.000000 0.000000 0.000000 0.000000 0.024580
#
#
# Mechanical properties :
#
#
# Convention : Reuss Voigt Hill
#
# Bulk Modulus (GPa) = 45.80215 49.50728 47.65472
# Shear Modulus (GPa) = 42.98087 44.53810 43.75949
#
# Velocity S-wave (km/s) = 3.95280 4.02377 3.98844
# Velocity P-wave (km/s) = 6.12234 6.29164 6.20757
#
# Compressibility (1/GPa) = 0.02183304
#
# Stress axis : x y z
#
# Youngs Moduli (GPa) = 105.07424 81.25507 150.34980
#
# Poissons Ratio (x) = 0.09521 0.19641
# Poissons Ratio (y) = 0.12312 0.12674
# Poissons Ratio (z) = 0.13726 0.06849
#
# Static dielectric constant tensor:
#      x y z
#    x 2.221390 0.000000 0.000000 
#    y 0.000000 2.252590 0.000000 
#    z 0.000000 0.000000 2.114250 
# 
# From -- ./inp_files/5450.got.cif
#   From: 2010.05.17/outbox.cif.g08.bks.cpg/sg29_3_cif.got.tgz:5450.got - 2010.06.04 01:19:37.
