data_PCOD9341855
_publ_section_title
;
Structure prediction by ZEFSAII (Michael W. Deem and Ramdas Pophale) SiO2 
 PCOD9341855
Probable space group: P N C 2
;
_chemical_formula_sum "Si O2"
_cell_formula_units_Z 32
_cell_length_a 8.240116
_cell_length_b 8.898091
_cell_length_c 23.125878
_cell_angle_alpha 90.000000
_cell_angle_beta 90.000000
_cell_angle_gamma 90.000000
_cell_volume 1695.619485
_symmetry_space_group_name_H-M "P N C 2"
_symmetry_group_IT_number 30
_symmetry_cell_setting 'orthorhombic'
loop_
_space_group_symop_operation_xyz
x,y,z
-x,-y,z
-x,1/2+y,1/2+z
x,1/2-y,1/2+z
loop_
_atom_site_type_symbol
_atom_site_label
_atom_site_fract_x
_atom_site_fract_y
_atom_site_fract_z
Si Si1 0.057901 0.838864 0.175440
Si Si2 0.747298 0.671398 0.193944
Si Si3 0.764783 0.390335 0.108678
Si Si4 0.669268 0.091188 0.268368
Si Si5 0.679153 0.578770 0.877725
Si Si6 0.674305 0.586653 0.007319
Si Si7 0.450078 0.323698 0.593626
Si Si8 0.449958 0.341940 0.311542
O O1 0.096384 0.727060 0.123255
O O2 0.213853 0.874135 0.215284
O O3 0.917479 0.749766 0.209414
O O4 0.000000 0.000000 0.154369
O O5 0.756696 0.512878 0.160193
O O6 0.661435 0.787812 0.149426
O O7 0.646652 0.645408 0.251661
O O8 0.779923 0.488640 0.051451
O O9 0.604622 0.286198 0.104173
O O10 0.608044 0.246678 0.294770
O O11 0.500000 0.000000 0.253634
O O12 0.754978 0.002243 0.321325
O O13 0.500000 0.500000 0.880516
O O14 0.650710 0.747560 0.857335
O O15 0.743741 0.580583 0.942609
O O16 0.500000 0.500000 0.005847
O O17 0.638226 0.748665 0.037373
O O18 0.500000 0.500000 0.588970
O O19 0.500000 0.500000 0.335474
#
# Coordination Sequence:
#
# PCOD9341855 Si02
#       8
#     4   4   4   4   4   4   4   4
#     4  12  22  32  51  78 107 136 175 225 265 316
#     4  11  21  33  49  73 110 143 173 212 267 332
#     4  10  21  35  52  75 106 145 174 210 270 327
#     4   9  19  34  51  75 107 141 172 213 270 322
#     4   8  16  31  51  75 101 133 175 217 256 309
#     4   8  16  33  53  74 102 138 178 215 258 312
#     4  10  19  32  53  78 104 136 176 222 263 308
#     4  10  18  30  51  76 104 136 173 218 265 314
#
# _framework density 18.872157999999999
#
# number of rings (size 3 to 8) (size 9 to 14) (size 15 to 20)
#    0.000    2.500    0.000    6.000    0.000    3.000 
#    0.000    0.000    0.000    9.000    0.000    1.750 
#    0.000    0.000    0.000    0.000    0.000    0.000 
#
# Total GULP energy -178342.932131 kJ/mol
# GULP energy per Si atom -5573.216629 kJ/mol
# Density = 1.882920 g / cm^3
# Si number density = 18.872158 Si / 1000 Ang^3
#
#
#
# Elastic Constant Matrix: (Units=GPa)
#
#
# Indices 1 2 3 4 5 6 
#
# 1 29.2481 21.5721 12.0675 0.0000 0.0000 0.0000
# 2 21.5721 150.5305 39.6247 0.0000 0.0000 0.0000
# 3 12.0675 39.6247 108.1916 0.0000 0.0000 0.0000
# 4 0.0000 0.0000 0.0000 14.2041 0.0000 0.0000
# 5 0.0000 0.0000 0.0000 0.0000 -1.5732 0.0000
# 6 0.0000 0.0000 0.0000 0.0000 0.0000 24.8926
#
#
#
# Elastic Compliance Matrix: (Units=1/GPa)
#
#
# Indices 1 2 3 4 5 6 
#
# 1 0.038851 -0.004899 -0.002539 0.000000 0.000000 0.000000
# 2 -0.004899 0.007970 -0.002372 0.000000 0.000000 0.000000
# 3 -0.002539 -0.002372 0.010395 0.000000 0.000000 0.000000
# 4 0.000000 0.000000 0.000000 0.070402 0.000000 0.000000
# 5 0.000000 0.000000 0.000000 0.000000 -0.635653 0.000000
# 6 0.000000 0.000000 0.000000 0.000000 0.000000 0.040173
#
#
# Mechanical properties :
#
#
# Convention : Reuss Voigt Hill
#
# Bulk Modulus (GPa) = 26.59966 48.27764 37.43865
# Shear Modulus (GPa) = -11.47555 21.81843 5.17144
#
# Velocity S-wave (km/s) = -2.46858 3.40386 1.65717
# Velocity P-wave (km/s) = 2.44951 6.40978 4.85208
#
# Compressibility (1/GPa) = 0.03759447
#
# Stress axis : x y z
#
# Youngs Moduli (GPa) = 25.73913 125.47388 96.20051
#
# Poissons Ratio (x) = 0.61474 0.24426
# Poissons Ratio (y) = 0.12610 0.22823
# Poissons Ratio (z) = 0.06535 0.29768
#
# Static dielectric constant tensor:
#      x y z
#    x 1.727890 0.000000 0.000000 
#    y 0.000000 1.674950 0.000000 
#    z 0.000000 0.000000 1.666490 
# 
# From -- ./inp_files/7370.got.cif
#   From: 2010.05.17/outbox.cif.g08.bks.cpg/sg30_4_cif.got.tgz:7370.got - 2010.06.03 17:03:02.
