data_PCOD9341693
_publ_section_title
;
Structure prediction by ZEFSAII (Michael W. Deem and Ramdas Pophale) SiO2 
 PCOD9341693
Probable space group: P C A 21
;
_chemical_formula_sum "Si O2"
_cell_formula_units_Z 32
_cell_length_a 10.149750
_cell_length_b 6.686774
_cell_length_c 21.513797
_cell_angle_alpha 90.000000
_cell_angle_beta 90.000000
_cell_angle_gamma 90.000000
_cell_volume 1460.121704
_symmetry_space_group_name_H-M "P C A 21"
_symmetry_group_IT_number 29
_symmetry_cell_setting 'orthorhombic'
loop_
_space_group_symop_operation_xyz
x,y,z
-x,-y,1/2+z
1/2-x,y,1/2+z
1/2+x,-y,z
loop_
_atom_site_type_symbol
_atom_site_label
_atom_site_fract_x
_atom_site_fract_y
_atom_site_fract_z
Si Si1 0.282357 0.124989 0.090640
Si Si2 0.644087 0.384693 0.761339
Si Si3 0.494142 0.315799 0.408833
Si Si4 0.494141 0.184201 0.546130
Si Si5 0.717643 0.624988 0.364322
Si Si6 0.644088 0.115307 0.193623
Si Si7 0.967929 0.555617 0.136585
Si Si8 0.532072 0.944384 0.318377
O O1 0.157831 0.112170 0.044744
O O2 0.341311 0.343808 0.103620
O O3 0.400338 0.977905 0.070222
O O4 0.220835 0.052051 0.155620
O O5 0.720834 0.552050 0.799342
O O6 0.749999 0.250000 0.727481
O O7 0.556509 0.478791 0.706806
O O8 0.568102 0.239425 0.808811
O O9 0.533935 0.250000 0.477481
O O10 0.599663 0.477905 0.384740
O O11 0.342169 0.387831 0.410218
O O12 0.491863 0.129978 0.360860
O O13 0.491863 0.370022 0.594102
O O14 0.658690 0.843808 0.351343
O O15 0.568103 0.260575 0.146151
O O16 0.556510 0.021211 0.248157
#
# Coordination Sequence:
#
# PCOD9341693 Si02
#       8
#     4   4   4   4   4   4   4   4
#     4  12  26  51  71 111 147 192 250 302 375 434
#     4  12  22  43  75 108 149 188 236 302 377 436
#     4  12  30  48  76 106 146 203 251 302 359 437
#     4  12  30  48  76 106 146 203 251 302 359 437
#     4  12  26  51  71 111 147 192 250 302 375 434
#     4  12  22  43  75 108 149 188 236 302 377 436
#     4  12  25  46  74 111 149 192 244 304 372 439
#     4  12  25  46  74 111 149 192 244 304 372 439
#
# _framework density 21.915980000000001
#
# number of rings (size 3 to 8) (size 9 to 14) (size 15 to 20)
#    0.000    0.000    5.000    5.250    3.500    0.000 
#    0.000    0.000    0.000    0.000    0.000    0.000 
#    0.000    0.000    0.000    0.000    0.000    0.000 
#
# Total GULP energy -179038.944442 kJ/mol
# GULP energy per Si atom -5594.967014 kJ/mol
# Density = 2.186610 g / cm^3
# Si number density = 21.915980 Si / 1000 Ang^3
#
#
#
# Elastic Constant Matrix: (Units=GPa)
#
#
# Indices 1 2 3 4 5 6 
#
# 1 110.7543 52.2342 19.1110 0.0000 0.0000 0.0000
# 2 52.2342 90.0294 22.8030 0.0000 0.0000 0.0000
# 3 19.1110 22.8030 92.0265 0.0000 0.0000 0.0000
# 4 0.0000 0.0000 0.0000 18.3608 0.0000 0.0000
# 5 0.0000 0.0000 0.0000 0.0000 26.6831 0.0000
# 6 0.0000 0.0000 0.0000 0.0000 0.0000 37.8279
#
#
#
# Elastic Compliance Matrix: (Units=1/GPa)
#
#
# Indices 1 2 3 4 5 6 
#
# 1 0.012493 -0.007032 -0.000852 0.000000 0.000000 0.000000
# 2 -0.007032 0.015810 -0.002457 0.000000 0.000000 0.000000
# 3 -0.000852 -0.002457 0.011652 0.000000 0.000000 0.000000
# 4 0.000000 0.000000 0.000000 0.054464 0.000000 0.000000
# 5 0.000000 0.000000 0.000000 0.000000 0.037477 0.000000
# 6 0.000000 0.000000 0.000000 0.000000 0.000000 0.026435
#
#
# Mechanical properties :
#
#
# Convention : Reuss Voigt Hill
#
# Bulk Modulus (GPa) = 51.88817 53.45627 52.67222
# Shear Modulus (GPa) = 26.96328 29.81850 28.39089
#
# Velocity S-wave (km/s) = 3.51137 3.69261 3.60313
# Velocity P-wave (km/s) = 6.33774 6.52877 6.43397
#
# Compressibility (1/GPa) = 0.01927222
#
# Stress axis : x y z
#
# Youngs Moduli (GPa) = 80.04751 63.25143 85.82100
#
# Poissons Ratio (x) = 0.44480 0.07310
# Poissons Ratio (y) = 0.56292 0.21087
# Poissons Ratio (z) = 0.06818 0.15541
#
# Static dielectric constant tensor:
#      x y z
#    x 1.927120 0.000000 0.000000 
#    y 0.000000 1.835520 0.000000 
#    z 0.000000 0.000000 1.870070 
# 
# From -- ./inp_files/5542.got.cif
#   From: 2010.05.17/outbox.cif.g08.bks.cpg/sg29_3_cif.got.tgz:5542.got - 2010.06.04 01:19:37.
