data_PCOD9341844
_publ_section_title
;
Structure prediction by ZEFSAII (Michael W. Deem and Ramdas Pophale) SiO2 
 PCOD9341844
Probable space group: P N C 2
;
_chemical_formula_sum "Si O2"
_cell_formula_units_Z 24
_cell_length_a 5.601713
_cell_length_b 24.226014
_cell_length_c 6.784726
_cell_angle_alpha 90.000000
_cell_angle_beta 90.000000
_cell_angle_gamma 90.000000
_cell_volume 920.736016
_symmetry_space_group_name_H-M "P N C 2"
_symmetry_group_IT_number 30
_symmetry_cell_setting 'orthorhombic'
loop_
_space_group_symop_operation_xyz
x,y,z
-x,-y,z
-x,1/2+y,1/2+z
x,1/2-y,1/2+z
loop_
_atom_site_type_symbol
_atom_site_label
_atom_site_fract_x
_atom_site_fract_y
_atom_site_fract_z
Si Si1 0.749375 0.000000 0.358620
Si Si2 0.000000 0.115436 0.037008
Si Si3 0.000001 0.202075 0.712060
Si Si4 0.000002 0.083115 0.607749
Si Si5 0.499999 0.758288 0.815559
Si Si6 0.500000 0.851132 0.161515
O O1 0.780330 0.051687 0.507445
O O2 0.500000 0.000000 0.253393
O O3 0.780327 0.948314 0.507447
O O4 0.000000 0.000000 0.239626
O O5 0.000000 0.175547 0.930683
O O6 0.000001 0.077103 0.843336
O O7 0.253988 0.114323 0.146909
O O8 0.746011 0.114323 0.146908
O O9 0.000002 0.148484 0.573027
O O10 0.248856 0.233525 0.698738
O O11 0.751144 0.233525 0.698737
O O12 0.500000 0.809632 0.969186
O O13 0.499999 0.691755 0.843310
#
# Coordination Sequence:
#
# PCOD9341844 Si02
#       6
#     4   4   4   4   4   4
#     4   8  16  20  36  56  80 100 128 162 192 244
#     4   8  16  25  41  52  76 106 137 153 199 244
#     4   8  16  25  41  52  76 106 137 153 199 244
#     4   7  16  24  38  54  80 106 136 150 204 247
#     4  10  18  28  40  58  76 106 142 172 196 230
#     4  10  18  28  40  58  76 106 142 172 196 230
#
# _framework density 26.066103999999999
#
# number of rings (size 3 to 8) (size 9 to 14) (size 15 to 20)
#    2.000    1.333    0.000    1.000    4.667    0.000 
#    0.000    0.000    0.000    0.000    0.000    0.000 
#    0.000    0.000    0.000   36.000    0.000    0.000 
#
# Total GULP energy -133692.708411 kJ/mol
# GULP energy per Si atom -5570.529517 kJ/mol
# Density = 2.600678 g / cm^3
# Si number density = 26.066104 Si / 1000 Ang^3
#
#
#
# Elastic Constant Matrix: (Units=GPa)
#
#
# Indices 1 2 3 4 5 6 
#
# 1 257.1500 45.0225 35.9256 0.0000 0.0000 0.0000
# 2 45.0225 71.2737 30.8407 0.0000 0.0000 0.0000
# 3 35.9256 30.8407 97.8695 0.0000 0.0000 0.0000
# 4 0.0000 0.0000 0.0000 22.3698 0.0000 0.0000
# 5 0.0000 0.0000 0.0000 0.0000 27.2582 0.0000
# 6 0.0000 0.0000 0.0000 0.0000 0.0000 24.9919
#
#
#
# Elastic Compliance Matrix: (Units=1/GPa)
#
#
# Indices 1 2 3 4 5 6 
#
# 1 0.004434 -0.002428 -0.000863 0.000000 0.000000 0.000000
# 2 -0.002428 0.017575 -0.004647 0.000000 0.000000 0.000000
# 3 -0.000863 -0.004647 0.011999 0.000000 0.000000 0.000000
# 4 0.000000 0.000000 0.000000 0.044703 0.000000 0.000000
# 5 0.000000 0.000000 0.000000 0.000000 0.036686 0.000000
# 6 0.000000 0.000000 0.000000 0.000000 0.000000 0.040013
#
#
# Mechanical properties :
#
#
# Convention : Reuss Voigt Hill
#
# Bulk Modulus (GPa) = 55.14840 72.20788 63.67814
# Shear Modulus (GPa) = 28.19608 35.89092 32.04350
#
# Velocity S-wave (km/s) = 3.29251 3.71471 3.50997
# Velocity P-wave (km/s) = 5.97137 6.79417 6.39601
#
# Compressibility (1/GPa) = 0.01813289
#
# Stress axis : x y z
#
# Youngs Moduli (GPa) = 225.51076 56.89949 83.34214
#
# Poissons Ratio (x) = 0.13814 0.07190
# Poissons Ratio (y) = 0.54750 0.38729
# Poissons Ratio (z) = 0.19455 0.26441
#
# Static dielectric constant tensor:
#      x y z
#    x 2.009690 0.000000 0.000000 
#    y 0.000000 2.044530 0.000000 
#    z 0.000000 0.000000 2.069980 
# 
# From -- ./inp_files/3264.got.cif
#   From: 2010.05.17/outbox.cif.g08.bks.cpg/sg30_2_cif.got.tgz:3264.got - 2010.06.03 17:03:02.
