data_PCOD9341186
_publ_section_title
;
Structure prediction by ZEFSAII (Michael W. Deem and Ramdas Pophale) SiO2 
 PCOD9341186
Probable space group: P C A 21
;
_chemical_formula_sum "Si O2"
_cell_formula_units_Z 32
_cell_length_a 11.276408
_cell_length_b 12.919852
_cell_length_c 10.813297
_cell_angle_alpha 90.000000
_cell_angle_beta 90.000000
_cell_angle_gamma 90.000000
_cell_volume 1575.384076
_symmetry_space_group_name_H-M "P C A 21"
_symmetry_group_IT_number 29
_symmetry_cell_setting 'orthorhombic'
loop_
_space_group_symop_operation_xyz
x,y,z
-x,-y,1/2+z
1/2-x,y,1/2+z
1/2+x,-y,z
loop_
_atom_site_type_symbol
_atom_site_label
_atom_site_fract_x
_atom_site_fract_y
_atom_site_fract_z
Si Si1 0.888348 0.125485 0.921800
Si Si2 0.464177 0.795536 0.171822
Si Si3 0.650583 0.408417 0.046568
Si Si4 0.614868 0.799763 0.812346
Si Si5 0.247027 0.687549 0.801853
Si Si6 0.847538 0.651753 0.529912
Si Si7 0.865601 0.897337 0.842475
Si Si8 0.580000 0.728616 0.548971
O O1 0.826319 0.213709 0.840025
O O2 0.028375 0.128073 0.891348
O O3 0.844062 0.011610 0.892718
O O4 0.880743 0.160202 0.063713
O O5 0.381258 0.731959 0.263988
O O6 0.563512 0.718550 0.115147
O O7 0.535066 0.888241 0.237124
O O8 0.702968 0.370753 0.179616
O O9 0.631662 0.531053 0.046811
O O10 0.525383 0.351096 0.025102
O O11 0.733038 0.379247 0.928030
O O12 0.742156 0.850928 0.795138
O O13 0.557477 0.778683 0.681547
O O14 0.628708 0.694319 0.891335
O O15 0.709784 0.676087 0.556510
O O16 0.909743 0.819182 0.948737
#
# Coordination Sequence:
#
# PCOD9341186 Si02
#       8
#     4   4   4   4   4   4   4   4
#     4  11  26  43  70  99 139 185 222 289 351 407
#     4  11  24  48  65  98 149 170 233 291 336 413
#     4  12  27  43  75 100 141 186 229 287 350 410
#     4  10  23  46  64  99 139 169 238 283 329 423
#     4  12  26  47  66 105 144 176 233 288 339 418
#     4  10  26  44  69 101 136 182 222 289 348 401
#     4  11  25  42  72  99 134 186 226 287 349 404
#     4  11  23  45  67  99 134 176 237 276 334 424
#
# _framework density 20.312505999999999
#
# number of rings (size 3 to 8) (size 9 to 14) (size 15 to 20)
#    0.000    1.000    5.000    0.000    7.000    0.000 
#    0.000    0.000    0.000    0.000    0.000    0.000 
#    0.000    0.000    0.000    0.000    0.000    0.000 
#
# Total GULP energy -178798.769688 kJ/mol
# GULP energy per Si atom -5587.461553 kJ/mol
# Density = 2.026627 g / cm^3
# Si number density = 20.312506 Si / 1000 Ang^3
#
#
#
# Elastic Constant Matrix: (Units=GPa)
#
#
# Indices 1 2 3 4 5 6 
#
# 1 58.6159 17.8061 22.3136 0.0000 0.0000 0.0000
# 2 17.8061 126.7233 34.3750 0.0000 0.0000 0.0000
# 3 22.3136 34.3750 90.1176 0.0000 0.0000 0.0000
# 4 0.0000 0.0000 0.0000 5.8626 0.0000 0.0000
# 5 0.0000 0.0000 0.0000 0.0000 27.9894 0.0000
# 6 0.0000 0.0000 0.0000 0.0000 0.0000 15.6322
#
#
#
# Elastic Compliance Matrix: (Units=1/GPa)
#
#
# Indices 1 2 3 4 5 6 
#
# 1 0.019109 -0.001563 -0.004135 0.000000 0.000000 0.000000
# 2 -0.001563 0.008930 -0.003019 0.000000 0.000000 0.000000
# 3 -0.004135 -0.003019 0.013272 0.000000 0.000000 0.000000
# 4 0.000000 0.000000 0.000000 0.170571 0.000000 0.000000
# 5 0.000000 0.000000 0.000000 0.000000 0.035728 0.000000
# 6 0.000000 0.000000 0.000000 0.000000 0.000000 0.063970
#
#
# Mechanical properties :
#
#
# Convention : Reuss Voigt Hill
#
# Bulk Modulus (GPa) = 41.88338 47.16069 44.52203
# Shear Modulus (GPa) = 14.83789 23.29432 19.06611
#
# Velocity S-wave (km/s) = 2.70567 3.39011 3.06705
# Velocity P-wave (km/s) = 5.51590 6.21223 5.87439
#
# Compressibility (1/GPa) = 0.02387582
#
# Stress axis : x y z
#
# Youngs Moduli (GPa) = 52.33058 111.98386 75.34564
#
# Poissons Ratio (x) = 0.17507 0.31157
# Poissons Ratio (y) = 0.08181 0.22748
# Poissons Ratio (z) = 0.21640 0.33810
#
# Static dielectric constant tensor:
#      x y z
#    x 1.725850 0.000000 0.000000 
#    y 0.000000 1.668320 0.000000 
#    z 0.000000 0.000000 1.753020 
# 
# From -- ./inp_files/3209.got.cif
#   From: 2010.05.17/outbox.cif.g08.bks.cpg/sg29_2_cif.got.tgz:3209.got - 2010.06.04 01:19:37.
