data_PCOD9341739
_publ_section_title
;
Structure prediction by ZEFSAII (Michael W. Deem and Ramdas Pophale) SiO2 
 PCOD9341739
Probable space group: P C A 21
;
_chemical_formula_sum "Si O2"
_cell_formula_units_Z 16
_cell_length_a 22.511154
_cell_length_b 5.984641
_cell_length_c 4.754162
_cell_angle_alpha 90.000000
_cell_angle_beta 90.000000
_cell_angle_gamma 90.000000
_cell_volume 640.486292
_symmetry_space_group_name_H-M "P C A 21"
_symmetry_group_IT_number 29
_symmetry_cell_setting 'orthorhombic'
loop_
_space_group_symop_operation_xyz
x,y,z
-x,-y,1/2+z
1/2-x,y,1/2+z
1/2+x,-y,z
loop_
_atom_site_type_symbol
_atom_site_label
_atom_site_fract_x
_atom_site_fract_y
_atom_site_fract_z
Si Si1 0.882270 0.092799 0.564940
Si Si2 0.539312 0.448992 0.777653
Si Si3 0.634077 0.793505 0.549677
Si Si4 0.210565 0.580546 0.369598
O O1 0.935383 0.228584 0.422864
O O2 0.839347 0.263751 0.732749
O O3 0.851673 0.954788 0.310719
O O4 0.901822 0.925250 0.811061
O O5 0.498087 0.415777 0.508467
O O6 0.595211 0.593438 0.675360
O O7 0.687925 0.675228 0.382794
O O8 0.230406 0.619776 0.687982
#
# Coordination Sequence:
#
# PCOD9341739 Si02
#       4
#     4   4   4   4
#     4  12  26  47  73 104 142 184 234 291 349 416
#     4  12  26  48  74 104 144 186 234 292 350 416
#     4  12  26  47  73 104 142 184 234 291 349 416
#     4  12  26  46  72 104 142 184 234 290 348 416
#
# _framework density 24.981017000000001
#
# number of rings (size 3 to 8) (size 9 to 14) (size 15 to 20)
#    0.000    0.000    0.000   12.000    0.000   10.000 
#    0.000    5.000    0.000    0.000    0.000    0.000 
#    0.000    0.000    0.000    0.000    0.000    0.000 
#
# Total GULP energy -89653.290436 kJ/mol
# GULP energy per Si atom -5603.330652 kJ/mol
# Density = 2.492416 g / cm^3
# Si number density = 24.981017 Si / 1000 Ang^3
#
#
#
# Elastic Constant Matrix: (Units=GPa)
#
#
# Indices 1 2 3 4 5 6 
#
# 1 51.6082 0.9220 22.7893 0.0000 0.0000 0.0000
# 2 0.9220 59.8197 48.8436 0.0000 0.0000 0.0000
# 3 22.7893 48.8436 166.6166 0.0000 0.0000 0.0000
# 4 0.0000 0.0000 0.0000 64.0707 0.0000 0.0000
# 5 0.0000 0.0000 0.0000 0.0000 49.9206 0.0000
# 6 0.0000 0.0000 0.0000 0.0000 0.0000 20.0128
#
#
#
# Elastic Compliance Matrix: (Units=1/GPa)
#
#
# Indices 1 2 3 4 5 6 
#
# 1 0.020937 0.002650 -0.003640 0.000000 0.000000 0.000000
# 2 0.002650 0.022313 -0.006903 0.000000 0.000000 0.000000
# 3 -0.003640 -0.006903 0.008523 0.000000 0.000000 0.000000
# 4 0.000000 0.000000 0.000000 0.015608 0.000000 0.000000
# 5 0.000000 0.000000 0.000000 0.000000 0.020032 0.000000
# 6 0.000000 0.000000 0.000000 0.000000 0.000000 0.049968
#
#
# Mechanical properties :
#
#
# Convention : Reuss Voigt Hill
#
# Bulk Modulus (GPa) = 27.78927 47.01715 37.40321
# Shear Modulus (GPa) = 30.27292 40.50013 35.38653
#
# Velocity S-wave (km/s) = 3.48492 4.03083 3.76777
# Velocity P-wave (km/s) = 5.22888 6.36596 5.82523
#
# Compressibility (1/GPa) = 0.03598511
#
# Stress axis : x y z
#
# Youngs Moduli (GPa) = 47.76232 44.81727 117.32298
#
# Poissons Ratio (x) = -0.11876 0.42711
# Poissons Ratio (y) = -0.12656 0.80993
# Poissons Ratio (z) = 0.17388 0.30939
#
# Static dielectric constant tensor:
#      x y z
#    x 1.953550 0.000000 0.000000 
#    y 0.000000 1.989360 0.000000 
#    z 0.000000 0.000000 1.905490 
# 
# From -- ./inp_files/615.got.cif
#   From: 2010.05.17/outbox.cif.g08.bks.cpg/sg29_1_cif.got.tgz:615.got - 2010.06.04 01:19:37.
