data_PCOD9341332
_publ_section_title
;
Structure prediction by ZEFSAII (Michael W. Deem and Ramdas Pophale) SiO2 
 PCOD9341332
Probable space group: P C A 21
;
_chemical_formula_sum "Si O2"
_cell_formula_units_Z 28
_cell_length_a 19.591015
_cell_length_b 6.964153
_cell_length_c 6.730335
_cell_angle_alpha 90.000000
_cell_angle_beta 90.000000
_cell_angle_gamma 90.000000
_cell_volume 918.252084
_symmetry_space_group_name_H-M "P C A 21"
_symmetry_group_IT_number 29
_symmetry_cell_setting 'orthorhombic'
loop_
_space_group_symop_operation_xyz
x,y,z
-x,-y,1/2+z
1/2-x,y,1/2+z
1/2+x,-y,z
loop_
_atom_site_type_symbol
_atom_site_label
_atom_site_fract_x
_atom_site_fract_y
_atom_site_fract_z
Si Si1 0.101101 0.473068 0.690590
Si Si2 0.786729 0.144466 0.848114
Si Si3 0.364816 0.200418 0.733470
Si Si4 0.530896 0.298472 0.337200
Si Si5 0.011511 0.865346 0.893851
Si Si6 0.642528 0.947463 0.779874
Si Si7 0.305843 0.573369 0.553460
O O1 0.126441 0.251893 0.664857
O O2 0.081858 0.896626 0.771949
O O3 0.033553 0.443366 0.824023
O O4 0.988331 0.088200 0.922726
O O5 0.832312 0.957992 0.881551
O O6 0.832759 0.254364 0.687448
O O7 0.764653 0.322220 0.988363
O O8 0.717153 0.044667 0.764462
O O9 0.316757 0.386967 0.692056
O O10 0.361026 0.115786 0.511411
O O11 0.555703 0.773062 0.289454
O O12 0.581940 0.409237 0.491235
O O13 0.530523 0.237119 0.101068
O O14 0.657157 0.453942 0.846125
#
# Coordination Sequence:
#
# PCOD9341332 Si02
#       7
#     4   4   4   4   4   4   4
#     4  10  27  53  85 133 191 239 326 399 493 604
#     4  12  27  55  91 127 188 257 335 399 491 604
#     4  11  26  56  87 134 197 251 326 408 500 593
#     4  11  26  53  89 136 189 251 318 404 502 594
#     4  11  25  54  93 136 190 249 326 415 500 590
#     4  10  24  55  88 135 189 257 318 406 500 590
#     4  11  29  54  85 133 182 256 321 401 496 595
#
# _framework density 30.492719000000001
#
# number of rings (size 3 to 8) (size 9 to 14) (size 15 to 20)
#    0.000    1.143    2.857    0.000    4.000   10.286 
#    7.714    0.000    0.000    0.000    0.000    0.000 
#    0.000    0.000    0.000    0.000    0.000    0.000 
#
# Total GULP energy -156559.284645 kJ/mol
# GULP energy per Si atom -5591.403023 kJ/mol
# Density = 3.042332 g / cm^3
# Si number density = 30.492719 Si / 1000 Ang^3
#
#
#
# Elastic Constant Matrix: (Units=GPa)
#
#
# Indices 1 2 3 4 5 6 
#
# 1 187.6791 80.2814 60.7010 0.0000 0.0000 0.0000
# 2 80.2814 164.7979 109.6682 0.0000 0.0000 0.0000
# 3 60.7010 109.6682 131.2565 0.0000 0.0000 0.0000
# 4 0.0000 0.0000 0.0000 61.7766 0.0000 0.0000
# 5 0.0000 0.0000 0.0000 0.0000 24.9526 0.0000
# 6 0.0000 0.0000 0.0000 0.0000 0.0000 52.4289
#
#
#
# Elastic Compliance Matrix: (Units=1/GPa)
#
#
# Indices 1 2 3 4 5 6 
#
# 1 0.006772 -0.002736 -0.000846 0.000000 0.000000 0.000000
# 2 -0.002736 0.014773 -0.011078 0.000000 0.000000 0.000000
# 3 -0.000846 -0.011078 0.017265 0.000000 0.000000 0.000000
# 4 0.000000 0.000000 0.000000 0.016187 0.000000 0.000000
# 5 0.000000 0.000000 0.000000 0.000000 0.040076 0.000000
# 6 0.000000 0.000000 0.000000 0.000000 0.000000 0.019073
#
#
# Mechanical properties :
#
#
# Convention : Reuss Voigt Hill
#
# Bulk Modulus (GPa) = 105.35992 109.44830 107.40411
# Shear Modulus (GPa) = 34.09928 43.37047 38.73487
#
# Velocity S-wave (km/s) = 3.34769 3.77546 3.56799
# Velocity P-wave (km/s) = 7.04061 7.41462 7.23004
#
# Compressibility (1/GPa) = 0.00949128
#
# Stress axis : x y z
#
# Youngs Moduli (GPa) = 147.66151 67.69116 57.91918
#
# Poissons Ratio (x) = 0.18523 0.04897
# Poissons Ratio (y) = 0.40406 0.64161
# Poissons Ratio (z) = 0.12486 0.74986
#
# Static dielectric constant tensor:
#      x y z
#    x 2.429220 0.000000 0.000000 
#    y 0.000000 2.355850 0.000000 
#    z 0.000000 0.000000 2.551040 
# 
# From -- ./inp_files/2553.got.cif
#   From: 2010.05.17/outbox.cif.g08.bks.cpg/sg29_2_cif.got.tgz:2553.got - 2010.06.04 01:19:37.
