data_PCOD9341908
_publ_section_title
;
Structure prediction by ZEFSAII (Michael W. Deem and Ramdas Pophale) SiO2 
 PCOD9341908
Probable space group: P N C 2
;
_chemical_formula_sum "Si O2"
_cell_formula_units_Z 30
_cell_length_a 11.806814
_cell_length_b 15.045082
_cell_length_c 7.983943
_cell_angle_alpha 90.000000
_cell_angle_beta 90.000000
_cell_angle_gamma 90.000000
_cell_volume 1418.223601
_symmetry_space_group_name_H-M "P N C 2"
_symmetry_group_IT_number 30
_symmetry_cell_setting 'orthorhombic'
loop_
_space_group_symop_operation_xyz
x,y,z
-x,-y,z
-x,1/2+y,1/2+z
x,1/2-y,1/2+z
loop_
_atom_site_type_symbol
_atom_site_label
_atom_site_fract_x
_atom_site_fract_y
_atom_site_fract_z
Si Si1 0.059078 0.143646 0.789790
Si Si2 0.680546 0.030351 0.524957
Si Si3 0.417128 0.323548 0.553670
Si Si4 0.835563 0.449175 0.315164
Si Si5 0.242627 0.989201 0.183755
Si Si6 0.454117 0.365704 0.945031
Si Si7 0.836537 0.683209 0.617168
Si Si8 0.500000 0.500000 0.540152
O O1 0.123796 0.227109 0.707815
O O2 0.928447 0.121801 0.753770
O O3 0.121528 0.048881 0.768230
O O4 0.065773 0.162960 0.986443
O O5 0.648702 0.925354 0.516509
O O6 0.724004 0.059890 0.704654
O O7 0.765013 0.051170 0.369331
O O8 0.566199 0.079903 0.479167
O O9 0.433513 0.348574 0.748283
O O10 0.471996 0.229916 0.523588
O O11 0.284049 0.306391 0.521120
O O12 0.470085 0.406395 0.452063
O O13 0.814514 0.449607 0.515738
O O14 0.190923 0.089024 0.206183
O O15 0.378530 0.986825 0.136703
#
# Coordination Sequence:
#
# PCOD9341908 Si02
#       8
#     4   4   4   4   4   4   4   2
#     4  10  22  43  58  98 123 157 227 288 315 391
#     4  11  21  44  64  93 136 179 211 267 323 407
#     4  11  20  36  62  99 128 171 209 273 321 393
#     4  10  24  41  64  89 129 170 220 266 335 386
#     4  10  20  40  67  95 128 173 209 265 335 391
#     4  11  22  37  61 100 136 169 225 254 324 411
#     4  10  20  36  69  89 125 159 215 282 326 362
#     4  10  18  38  64  90 138 168 208 264 318 400
#
# _framework density 21.153222
#
# number of rings (size 3 to 8) (size 9 to 14) (size 15 to 20)
#    0.000    1.600    4.000    1.600    1.867    4.267 
#    2.400    4.000    0.000    0.000    0.000    0.000 
#    0.000    0.000    0.000    0.000    0.000    0.000 
#
# Total GULP energy -167020.557563 kJ/mol
# GULP energy per Si atom -5567.351919 kJ/mol
# Density = 2.110508 g / cm^3
# Si number density = 21.153222 Si / 1000 Ang^3
#
#
#
# Elastic Constant Matrix: (Units=GPa)
#
#
# Indices 1 2 3 4 5 6 
#
# 1 72.1145 46.9342 26.8032 0.0000 0.0000 0.0000
# 2 46.9342 96.5297 32.6721 0.0000 0.0000 0.0000
# 3 26.8032 32.6721 53.5500 0.0000 0.0000 0.0000
# 4 0.0000 0.0000 0.0000 12.8621 0.0000 0.0000
# 5 0.0000 0.0000 0.0000 0.0000 9.9600 0.0000
# 6 0.0000 0.0000 0.0000 0.0000 0.0000 24.7203
#
#
#
# Elastic Compliance Matrix: (Units=1/GPa)
#
#
# Indices 1 2 3 4 5 6 
#
# 1 0.021510 -0.008588 -0.005527 0.000000 0.000000 0.000000
# 2 -0.008588 0.016484 -0.005759 0.000000 0.000000 0.000000
# 3 -0.005527 -0.005759 0.024954 0.000000 0.000000 0.000000
# 4 0.000000 0.000000 0.000000 0.077748 0.000000 0.000000
# 5 0.000000 0.000000 0.000000 0.000000 0.100402 0.000000
# 6 0.000000 0.000000 0.000000 0.000000 0.000000 0.040453
#
#
# Mechanical properties :
#
#
# Convention : Reuss Voigt Hill
#
# Bulk Modulus (GPa) = 43.10097 48.33478 45.71788
# Shear Modulus (GPa) = 15.19610 17.22747 16.21178
#
# Velocity S-wave (km/s) = 2.68317 2.85689 2.77139
# Velocity P-wave (km/s) = 5.47897 5.81222 5.64805
#
# Compressibility (1/GPa) = 0.02320133
#
# Stress axis : x y z
#
# Youngs Moduli (GPa) = 46.48931 60.66364 40.07363
#
# Poissons Ratio (x) = 0.52098 0.22148
# Poissons Ratio (y) = 0.39925 0.23078
# Poissons Ratio (z) = 0.25693 0.34936
#
# Static dielectric constant tensor:
#      x y z
#    x 1.794480 0.000000 0.000000 
#    y 0.000000 1.836490 0.000000 
#    z 0.000000 0.000000 1.814770 
# 
# From -- ./inp_files/2456.got.cif
#   From: 2010.05.17/outbox.cif.g08.bks.cpg/sg30_2_cif.got.tgz:2456.got - 2010.06.03 17:03:02.
