data_PCOD9341623
_publ_section_title
;
Structure prediction by ZEFSAII (Michael W. Deem and Ramdas Pophale) SiO2 
 PCOD9341623
Probable space group: P C A 21
;
_chemical_formula_sum "Si O2"
_cell_formula_units_Z 24
_cell_length_a 11.812606
_cell_length_b 10.129603
_cell_length_c 8.097938
_cell_angle_alpha 90.000000
_cell_angle_beta 90.000000
_cell_angle_gamma 90.000000
_cell_volume 968.975042
_symmetry_space_group_name_H-M "P C A 21"
_symmetry_group_IT_number 29
_symmetry_cell_setting 'orthorhombic'
loop_
_space_group_symop_operation_xyz
x,y,z
-x,-y,1/2+z
1/2-x,y,1/2+z
1/2+x,-y,z
loop_
_atom_site_type_symbol
_atom_site_label
_atom_site_fract_x
_atom_site_fract_y
_atom_site_fract_z
Si Si1 0.989923 0.824976 0.598650
Si Si2 0.341204 0.644400 0.938147
Si Si3 0.075223 0.115609 0.592812
Si Si4 0.906091 0.292238 0.436249
Si Si5 0.309899 0.484406 0.253284
Si Si6 0.787069 0.805077 0.393950
O O1 0.272563 0.733940 0.468250
O O2 0.046893 0.778162 0.769621
O O3 0.859354 0.796106 0.563572
O O4 0.010429 0.979122 0.573402
O O5 0.445223 0.739343 0.959894
O O6 0.307532 0.567269 0.773571
O O7 0.349366 0.525944 0.072625
O O8 0.987824 0.237717 0.576734
O O9 0.142621 0.108425 0.764430
O O10 0.166966 0.138738 0.448280
O O11 0.896661 0.445921 0.382434
O O12 0.288100 0.337821 0.308393
#
# Coordination Sequence:
#
# PCOD9341623 Si02
#       6
#     4   4   4   4   4   4
#     4  11  25  43  71  96 138 183 230 279 348 415
#     4   9  21  42  70  98 131 176 220 282 337 419
#     4  12  27  43  66  98 145 174 237 280 349 410
#     4   9  23  45  65 101 132 180 222 284 339 412
#     4   9  21  42  69  99 132 168 231 267 354 398
#     4  12  27  43  69 102 134 187 224 298 341 410
#
# _framework density 24.768439999999998
#
# number of rings (size 3 to 8) (size 9 to 14) (size 15 to 20)
#    1.000    0.667    0.000    3.000    7.000    4.000 
#    0.000    0.000    0.000    0.000    0.000    0.000 
#    0.000    0.000    0.000    0.000    0.000    0.000 
#
# Total GULP energy -134109.203500 kJ/mol
# GULP energy per Si atom -5587.883479 kJ/mol
# Density = 2.471207 g / cm^3
# Si number density = 24.768440 Si / 1000 Ang^3
#
#
#
# Elastic Constant Matrix: (Units=GPa)
#
#
# Indices 1 2 3 4 5 6 
#
# 1 94.9826 26.7548 7.9591 0.0000 0.0000 0.0000
# 2 26.7548 91.9974 26.0170 0.0000 0.0000 0.0000
# 3 7.9591 26.0170 87.6790 0.0000 0.0000 0.0000
# 4 0.0000 0.0000 0.0000 21.2965 0.0000 0.0000
# 5 0.0000 0.0000 0.0000 0.0000 40.3194 0.0000
# 6 0.0000 0.0000 0.0000 0.0000 0.0000 16.6257
#
#
#
# Elastic Compliance Matrix: (Units=1/GPa)
#
#
# Indices 1 2 3 4 5 6 
#
# 1 0.011468 -0.003319 -0.000056 0.000000 0.000000 0.000000
# 2 -0.003319 0.012826 -0.003505 0.000000 0.000000 0.000000
# 3 -0.000056 -0.003505 0.012450 0.000000 0.000000 0.000000
# 4 0.000000 0.000000 0.000000 0.046956 0.000000 0.000000
# 5 0.000000 0.000000 0.000000 0.000000 0.024802 0.000000
# 6 0.000000 0.000000 0.000000 0.000000 0.000000 0.060148
#
#
# Mechanical properties :
#
#
# Convention : Reuss Voigt Hill
#
# Bulk Modulus (GPa) = 43.50756 44.01344 43.76050
# Shear Modulus (GPa) = 26.30586 29.91020 28.10803
#
# Velocity S-wave (km/s) = 3.26248 3.47881 3.37238
# Velocity P-wave (km/s) = 5.63875 5.82621 5.73325
#
# Compressibility (1/GPa) = 0.02298451
#
# Stress axis : x y z
#
# Youngs Moduli (GPa) = 87.19987 77.96485 80.31960
#
# Poissons Ratio (x) = 0.25878 0.00450
# Poissons Ratio (y) = 0.28944 0.28149
# Poissons Ratio (z) = 0.00489 0.27324
#
# Static dielectric constant tensor:
#      x y z
#    x 1.988080 0.000000 0.000000 
#    y 0.000000 1.903960 0.000000 
#    z 0.000000 0.000000 2.034740 
# 
# From -- ./inp_files/1444.got.cif
#   From: 2010.05.17/outbox.cif.g08.bks.cpg/sg29_1_cif.got.tgz:1444.got - 2010.06.04 01:19:37.
