data_PCOD9341297
_publ_section_title
;
Structure prediction by ZEFSAII (Michael W. Deem and Ramdas Pophale) SiO2 
 PCOD9341297
Probable space group: P C A 21
;
_chemical_formula_sum "Si O2"
_cell_formula_units_Z 16
_cell_length_a 10.828038
_cell_length_b 11.450539
_cell_length_c 4.788256
_cell_angle_alpha 90.000000
_cell_angle_beta 90.000000
_cell_angle_gamma 90.000000
_cell_volume 593.680881
_symmetry_space_group_name_H-M "P C A 21"
_symmetry_group_IT_number 29
_symmetry_cell_setting 'orthorhombic'
loop_
_space_group_symop_operation_xyz
x,y,z
-x,-y,1/2+z
1/2-x,y,1/2+z
1/2+x,-y,z
loop_
_atom_site_type_symbol
_atom_site_label
_atom_site_fract_x
_atom_site_fract_y
_atom_site_fract_z
Si Si1 0.167320 0.113133 0.949950
Si Si2 0.835513 0.146272 0.582009
Si Si3 0.665326 0.479553 0.437646
Si Si4 0.017878 0.309456 0.259408
O O1 0.415705 0.216634 0.560038
O O2 0.295028 0.119370 0.128055
O O3 0.116680 0.984554 0.022729
O O4 0.709938 0.158670 0.397791
O O5 0.930743 0.239251 0.469777
O O6 0.713384 0.460521 0.125536
O O7 0.560717 0.397569 0.565313
O O8 0.614186 0.611164 0.431856
#
# Coordination Sequence:
#
# PCOD9341297 Si02
#       4
#     4   4   4   4
#     4  10  24  45  71 106 144 182 234 297 358 431
#     4  10  24  45  71 106 144 182 234 297 358 431
#     4  12  28  48  72 108 148 192 250 308 358 428
#     4  12  26  48  78 104 146 198 242 294 370 436
#
# _framework density 26.950505
#
# number of rings (size 3 to 8) (size 9 to 14) (size 15 to 20)
#    0.000    1.000    0.000    4.500    0.000   16.000 
#    0.000    0.000    0.000    0.000    0.000    0.000 
#    0.000    0.000    0.000    0.000    0.000    0.000 
#
# Total GULP energy -89980.063973 kJ/mol
# GULP energy per Si atom -5623.753998 kJ/mol
# Density = 2.688916 g / cm^3
# Si number density = 26.950505 Si / 1000 Ang^3
#
#
#
# Elastic Constant Matrix: (Units=GPa)
#
#
# Indices 1 2 3 4 5 6 
#
# 1 79.3599 50.9236 21.9420 0.0000 0.0000 0.0000
# 2 50.9236 155.2952 46.8775 0.0000 0.0000 0.0000
# 3 21.9420 46.8775 104.0889 0.0000 0.0000 0.0000
# 4 0.0000 0.0000 0.0000 49.7365 0.0000 0.0000
# 5 0.0000 0.0000 0.0000 0.0000 30.5467 0.0000
# 6 0.0000 0.0000 0.0000 0.0000 0.0000 52.0966
#
#
#
# Elastic Compliance Matrix: (Units=1/GPa)
#
#
# Indices 1 2 3 4 5 6 
#
# 1 0.016082 -0.004919 -0.001175 0.000000 0.000000 0.000000
# 2 -0.004919 0.008957 -0.002997 0.000000 0.000000 0.000000
# 3 -0.001175 -0.002997 0.011205 0.000000 0.000000 0.000000
# 4 0.000000 0.000000 0.000000 0.020106 0.000000 0.000000
# 5 0.000000 0.000000 0.000000 0.000000 0.032737 0.000000
# 6 0.000000 0.000000 0.000000 0.000000 0.000000 0.019195
#
#
# Mechanical properties :
#
#
# Convention : Reuss Voigt Hill
#
# Bulk Modulus (GPa) = 55.36432 64.24780 59.80606
# Shear Modulus (GPa) = 37.74055 41.07602 39.40828
#
# Velocity S-wave (km/s) = 3.74621 3.90824 3.82808
# Velocity P-wave (km/s) = 6.26894 6.65258 6.46361
#
# Compressibility (1/GPa) = 0.01806217
#
# Stress axis : x y z
#
# Youngs Moduli (GPa) = 62.18130 111.64449 89.24951
#
# Poissons Ratio (x) = 0.54917 0.10485
# Poissons Ratio (y) = 0.30586 0.26748
# Poissons Ratio (z) = 0.07305 0.33460
#
# Static dielectric constant tensor:
#      x y z
#    x 2.055370 0.000000 0.000000 
#    y 0.000000 2.063250 0.000000 
#    z 0.000000 0.000000 2.000990 
# 
# From -- ./inp_files/31.got.cif
#   From: 2010.05.17/outbox.cif.g08.bks.cpg/sg29_1_cif.got.tgz:31.got - 2010.06.04 01:19:37.
