data_PCOD9341409
_publ_section_title
;
Structure prediction by ZEFSAII (Michael W. Deem and Ramdas Pophale) SiO2 
 PCOD9341409
Probable space group: P C A 21
;
_chemical_formula_sum "Si O2"
_cell_formula_units_Z 32
_cell_length_a 9.054149
_cell_length_b 11.656456
_cell_length_c 13.700919
_cell_angle_alpha 90.000000
_cell_angle_beta 90.000000
_cell_angle_gamma 90.000000
_cell_volume 1445.985256
_symmetry_space_group_name_H-M "P C A 21"
_symmetry_group_IT_number 29
_symmetry_cell_setting 'orthorhombic'
loop_
_space_group_symop_operation_xyz
x,y,z
-x,-y,1/2+z
1/2-x,y,1/2+z
1/2+x,-y,z
loop_
_atom_site_type_symbol
_atom_site_label
_atom_site_fract_x
_atom_site_fract_y
_atom_site_fract_z
Si Si1 0.528721 0.038791 0.512090
Si Si2 0.290866 0.928097 0.652336
Si Si3 0.383768 0.635568 0.488483
Si Si4 0.648759 0.750372 0.008735
Si Si5 0.434408 0.570029 0.912820
Si Si6 0.059296 0.703406 0.211685
Si Si7 0.564163 0.813271 0.411199
Si Si8 0.265572 0.184344 0.717203
O O1 0.662273 0.093121 0.573057
O O2 0.426789 0.135489 0.465659
O O3 0.434566 0.965170 0.590147
O O4 0.575629 0.947841 0.431922
O O5 0.331877 0.814752 0.712612
O O6 0.247512 0.046060 0.707612
O O7 0.500638 0.556069 0.430155
O O8 0.221053 0.588760 0.466718
O O9 0.415515 0.646448 0.604517
O O10 0.407252 0.760514 0.439130
O O11 0.646046 0.769501 0.123586
O O12 0.558464 0.646744 0.966257
O O13 0.820123 0.754043 0.984389
O O14 0.418291 0.615540 0.801576
O O15 0.892868 0.753794 0.221372
O O16 0.629599 0.788557 0.306834
#
# Coordination Sequence:
#
# PCOD9341409 Si02
#       8
#     4   4   4   4   4   4   4   4
#     4  11  21  39  68 102 153 192 231 296 367 443
#     4  11  20  42  66 105 147 192 233 288 374 434
#     4  12  28  53  74 106 147 188 247 326 362 437
#     4  11  23  44  67 108 146 188 245 302 363 435
#     4  12  30  48  80 108 138 198 253 304 384 440
#     4  12  25  49  78 107 151 192 252 307 370 451
#     4  12  23  43  71 104 146 197 242 296 374 435
#     4  11  24  40  76 106 148 199 233 301 364 445
#
# _framework density 22.130237999999999
#
# number of rings (size 3 to 8) (size 9 to 14) (size 15 to 20)
#    0.000    0.500    7.500    1.500    1.750    5.000 
#    0.000    0.000    0.000    0.000    0.000    0.000 
#    0.000    0.000    0.000    0.000    0.000    0.000 
#
# Total GULP energy -178901.326600 kJ/mol
# GULP energy per Si atom -5590.666456 kJ/mol
# Density = 2.207987 g / cm^3
# Si number density = 22.130238 Si / 1000 Ang^3
#
#
#
# Elastic Constant Matrix: (Units=GPa)
#
#
# Indices 1 2 3 4 5 6 
#
# 1 67.1457 -1.9260 0.9738 0.0000 0.0000 0.0000
# 2 -1.9260 65.4217 28.2023 0.0000 0.0000 0.0000
# 3 0.9738 28.2023 113.0318 0.0000 0.0000 0.0000
# 4 0.0000 0.0000 0.0000 28.8166 0.0000 0.0000
# 5 0.0000 0.0000 0.0000 0.0000 20.5421 0.0000
# 6 0.0000 0.0000 0.0000 0.0000 0.0000 34.5374
#
#
#
# Elastic Compliance Matrix: (Units=1/GPa)
#
#
# Indices 1 2 3 4 5 6 
#
# 1 0.014913 0.000554 -0.000267 0.000000 0.000000 0.000000
# 2 0.000554 0.017148 -0.004283 0.000000 0.000000 0.000000
# 3 -0.000267 -0.004283 0.009918 0.000000 0.000000 0.000000
# 4 0.000000 0.000000 0.000000 0.034702 0.000000 0.000000
# 5 0.000000 0.000000 0.000000 0.000000 0.048680 0.000000
# 6 0.000000 0.000000 0.000000 0.000000 0.000000 0.028954
#
#
# Mechanical properties :
#
#
# Convention : Reuss Voigt Hill
#
# Bulk Modulus (GPa) = 29.42310 33.34440 31.38375
# Shear Modulus (GPa) = 28.79570 31.33584 30.06577
#
# Velocity S-wave (km/s) = 3.61112 3.76703 3.68990
# Velocity P-wave (km/s) = 5.54177 5.83273 5.68911
#
# Compressibility (1/GPa) = 0.03398690
#
# Stress axis : x y z
#
# Youngs Moduli (GPa) = 67.05674 58.31496 100.82575
#
# Poissons Ratio (x) = -0.03231 0.02689
# Poissons Ratio (y) = -0.03715 0.43188
# Poissons Ratio (z) = 0.01788 0.24979
#
# Static dielectric constant tensor:
#      x y z
#    x 1.823700 0.000000 0.000000 
#    y 0.000000 1.907920 0.000000 
#    z 0.000000 0.000000 1.837920 
# 
# From -- ./inp_files/4304.got.cif
#   From: 2010.05.17/outbox.cif.g08.bks.cpg/sg29_3_cif.got.tgz:4304.got - 2010.06.04 01:19:37.
