data_PCOD9341345
_publ_section_title
;
Structure prediction by ZEFSAII (Michael W. Deem and Ramdas Pophale) SiO2 
 PCOD9341345
Probable space group: P C A 21
;
_chemical_formula_sum "Si O2"
_cell_formula_units_Z 32
_cell_length_a 14.810344
_cell_length_b 7.539387
_cell_length_c 12.575674
_cell_angle_alpha 90.000000
_cell_angle_beta 90.000000
_cell_angle_gamma 90.000000
_cell_volume 1404.211266
_symmetry_space_group_name_H-M "P C A 21"
_symmetry_group_IT_number 29
_symmetry_cell_setting 'orthorhombic'
loop_
_space_group_symop_operation_xyz
x,y,z
-x,-y,1/2+z
1/2-x,y,1/2+z
1/2+x,-y,z
loop_
_atom_site_type_symbol
_atom_site_label
_atom_site_fract_x
_atom_site_fract_y
_atom_site_fract_z
Si Si1 0.162518 0.920614 0.591370
Si Si2 0.280368 0.196419 0.921025
Si Si3 0.832888 0.959124 0.713940
Si Si4 0.428974 0.280224 0.388736
Si Si5 0.895601 0.398456 0.528918
Si Si6 0.690637 0.430316 0.480931
Si Si7 0.088413 0.659036 0.264084
Si Si8 0.031126 0.994600 0.042510
O O1 0.157170 0.709993 0.568646
O O2 0.061882 0.991039 0.605831
O O3 0.203124 0.015201 0.485257
O O4 0.231874 0.980118 0.682043
O O5 0.332605 0.178389 0.809651
O O6 0.176874 0.235770 0.888313
O O7 0.312676 0.357629 0.996398
O O8 0.888218 0.910211 0.608166
O O9 0.882033 0.138486 0.748314
O O10 0.444565 0.441698 0.470720
O O11 0.480940 0.341672 0.283685
O O12 0.477975 0.106238 0.434911
O O13 0.797130 0.384917 0.475820
O O14 0.885312 0.435926 0.654557
O O15 0.943346 0.208141 0.520677
O O16 0.640251 0.402475 0.369325
#
# Coordination Sequence:
#
# PCOD9341345 Si02
#       8
#     4   4   4   4   4   4   4   4
#     4  12  23  45  69  98 139 186 224 292 354 413
#     4  11  25  41  70  97 135 182 236 285 349 422
#     4  11  24  44  68 103 142 180 231 288 347 425
#     4  11  23  44  68 100 137 180 235 289 349 418
#     4  10  25  45  65  99 144 180 228 297 343 420
#     4  11  22  43  67  97 137 183 224 293 349 408
#     4  11  23  43  69 100 141 179 233 287 354 422
#     4  11  23  41  68  96 137 184 223 281 351 408
#
# _framework density 22.788595000000001
#
# number of rings (size 3 to 8) (size 9 to 14) (size 15 to 20)
#    0.000    1.000    6.250    0.000    7.000    0.000 
#    0.000    5.000    0.000    0.000    0.000    0.000 
#    0.000    0.000    0.000    0.000    0.000    0.000 
#
# Total GULP energy -178814.448935 kJ/mol
# GULP energy per Si atom -5587.951529 kJ/mol
# Density = 2.273673 g / cm^3
# Si number density = 22.788595 Si / 1000 Ang^3
#
#
#
# Elastic Constant Matrix: (Units=GPa)
#
#
# Indices 1 2 3 4 5 6 
#
# 1 81.3254 6.4870 10.8401 0.0000 0.0000 0.0000
# 2 6.4870 77.4385 15.7525 0.0000 0.0000 0.0000
# 3 10.8401 15.7525 47.2818 0.0000 0.0000 0.0000
# 4 0.0000 0.0000 0.0000 26.2724 0.0000 0.0000
# 5 0.0000 0.0000 0.0000 0.0000 34.3407 0.0000
# 6 0.0000 0.0000 0.0000 0.0000 0.0000 17.6390
#
#
#
# Elastic Compliance Matrix: (Units=1/GPa)
#
#
# Indices 1 2 3 4 5 6 
#
# 1 0.012702 -0.000506 -0.002744 0.000000 0.000000 0.000000
# 2 -0.000506 0.013872 -0.004506 0.000000 0.000000 0.000000
# 3 -0.002744 -0.004506 0.023280 0.000000 0.000000 0.000000
# 4 0.000000 0.000000 0.000000 0.038063 0.000000 0.000000
# 5 0.000000 0.000000 0.000000 0.000000 0.029120 0.000000
# 6 0.000000 0.000000 0.000000 0.000000 0.000000 0.056693
#
#
# Mechanical properties :
#
#
# Convention : Reuss Voigt Hill
#
# Bulk Modulus (GPa) = 29.11719 30.24500 29.68109
# Shear Modulus (GPa) = 24.91418 27.18149 26.04784
#
# Velocity S-wave (km/s) = 3.31006 3.45739 3.38453
# Velocity P-wave (km/s) = 5.23579 5.40730 5.32223
#
# Compressibility (1/GPa) = 0.03434398
#
# Stress axis : x y z
#
# Youngs Moduli (GPa) = 78.72554 72.08550 42.95537
#
# Poissons Ratio (x) = 0.03647 0.11785
# Poissons Ratio (y) = 0.03983 0.19355
# Poissons Ratio (z) = 0.21600 0.32480
#
# Static dielectric constant tensor:
#      x y z
#    x 1.871320 0.000000 0.000000 
#    y 0.000000 1.833050 0.000000 
#    z 0.000000 0.000000 1.867820 
# 
# From -- ./inp_files/3458.got.cif
#   From: 2010.05.17/outbox.cif.g08.bks.cpg/sg29_2_cif.got.tgz:3458.got - 2010.06.04 01:19:37.
