data_PCOD9341266
_publ_section_title
;
Structure prediction by ZEFSAII (Michael W. Deem and Ramdas Pophale) SiO2 
 PCOD9341266
Probable space group: P C A 21
;
_chemical_formula_sum "Si O2"
_cell_formula_units_Z 32
_cell_length_a 11.392293
_cell_length_b 12.909891
_cell_length_c 9.455372
_cell_angle_alpha 90.000000
_cell_angle_beta 90.000000
_cell_angle_gamma 90.000000
_cell_volume 1390.632393
_symmetry_space_group_name_H-M "P C A 21"
_symmetry_group_IT_number 29
_symmetry_cell_setting 'orthorhombic'
loop_
_space_group_symop_operation_xyz
x,y,z
-x,-y,1/2+z
1/2-x,y,1/2+z
1/2+x,-y,z
loop_
_atom_site_type_symbol
_atom_site_label
_atom_site_fract_x
_atom_site_fract_y
_atom_site_fract_z
Si Si1 0.291771 0.978783 0.238020
Si Si2 0.467276 0.552264 0.394181
Si Si3 0.287966 0.112907 0.511555
Si Si4 0.907857 0.743877 0.014895
Si Si5 0.524230 0.395294 0.595074
Si Si6 0.761473 0.321125 0.955799
Si Si7 0.510918 0.832241 0.215827
Si Si8 0.626637 0.200457 0.197847
O O1 0.393599 0.894551 0.248976
O O2 0.170167 0.913607 0.242054
O O3 0.304648 0.067833 0.355780
O O4 0.300074 0.032585 0.086424
O O5 0.557873 0.625121 0.481556
O O6 0.450088 0.443388 0.469018
O O7 0.506985 0.540252 0.234104
O O8 0.348878 0.619467 0.390759
O O9 0.227430 0.224788 0.534416
O O10 0.403390 0.109408 0.608207
O O11 0.936273 0.804554 0.868545
O O12 0.994976 0.783345 0.139366
O O13 0.658417 0.400236 0.543247
O O14 0.510447 0.276383 0.637148
O O15 0.840120 0.271157 0.832471
O O16 0.707413 0.237206 0.064570
#
# Coordination Sequence:
#
# PCOD9341266 Si02
#       8
#     4   4   4   4   4   4   4   4
#     4  12  25  43  70 102 135 191 247 293 361 437
#     4  10  24  43  71 103 143 189 244 305 366 451
#     4  12  27  44  70 104 146 192 238 302 376 439
#     4  10  24  47  67 102 149 187 237 307 376 437
#     4  11  24  44  72 102 141 190 243 304 373 434
#     4  11  21  43  67 107 138 188 250 301 367 432
#     4  11  25  49  67 103 152 186 250 309 363 455
#     4  11  22  43  74  99 142 189 245 311 350 437
#
# _framework density 23.011115
#
# number of rings (size 3 to 8) (size 9 to 14) (size 15 to 20)
#    0.000    1.000    3.750    3.000    7.000    2.000 
#    0.000    2.500    0.000    0.000    0.000    0.000 
#    0.000    0.000    0.000    0.000    0.000    0.000 
#
# Total GULP energy -178848.446058 kJ/mol
# GULP energy per Si atom -5589.013939 kJ/mol
# Density = 2.295874 g / cm^3
# Si number density = 23.011115 Si / 1000 Ang^3
#
#
#
# Elastic Constant Matrix: (Units=GPa)
#
#
# Indices 1 2 3 4 5 6 
#
# 1 52.9313 22.8869 22.9675 0.0000 0.0000 0.0000
# 2 22.8869 61.5218 29.3733 0.0000 0.0000 0.0000
# 3 22.9675 29.3733 81.9176 0.0000 0.0000 0.0000
# 4 0.0000 0.0000 0.0000 34.8222 0.0000 0.0000
# 5 0.0000 0.0000 0.0000 0.0000 29.6530 0.0000
# 6 0.0000 0.0000 0.0000 0.0000 0.0000 8.7790
#
#
#
# Elastic Compliance Matrix: (Units=1/GPa)
#
#
# Indices 1 2 3 4 5 6 
#
# 1 0.023651 -0.006796 -0.004194 0.000000 0.000000 0.000000
# 2 -0.006796 0.021565 -0.005827 0.000000 0.000000 0.000000
# 3 -0.004194 -0.005827 0.015473 0.000000 0.000000 0.000000
# 4 0.000000 0.000000 0.000000 0.028717 0.000000 0.000000
# 5 0.000000 0.000000 0.000000 0.000000 0.033723 0.000000
# 6 0.000000 0.000000 0.000000 0.000000 0.000000 0.113908
#
#
# Mechanical properties :
#
#
# Convention : Reuss Voigt Hill
#
# Bulk Modulus (GPa) = 36.96337 38.53624 37.74981
# Shear Modulus (GPa) = 17.87699 22.72704 20.30202
#
# Velocity S-wave (km/s) = 2.79029 3.14611 2.97353
# Velocity P-wave (km/s) = 5.14578 5.47544 5.31317
#
# Compressibility (1/GPa) = 0.02705381
#
# Stress axis : x y z
#
# Youngs Moduli (GPa) = 42.28185 46.37216 64.62976
#
# Poissons Ratio (x) = 0.31514 0.27107
# Poissons Ratio (y) = 0.28734 0.37660
# Poissons Ratio (z) = 0.17734 0.27021
#
# Static dielectric constant tensor:
#      x y z
#    x 1.918230 0.000000 0.000000 
#    y 0.000000 1.889590 0.000000 
#    z 0.000000 0.000000 1.847140 
# 
# From -- ./inp_files/1545.got.cif
#   From: 2010.05.17/outbox.cif.g08.bks.cpg/sg29_1_cif.got.tgz:1545.got - 2010.06.04 01:19:37.
