data_PCOD9341465
_publ_section_title
;
Structure prediction by ZEFSAII (Michael W. Deem and Ramdas Pophale) SiO2 
 PCOD9341465
Probable space group: P C A 21
;
_chemical_formula_sum "Si O2"
_cell_formula_units_Z 32
_cell_length_a 8.610297
_cell_length_b 10.353096
_cell_length_c 14.959028
_cell_angle_alpha 90.000000
_cell_angle_beta 90.000000
_cell_angle_gamma 90.000000
_cell_volume 1333.496095
_symmetry_space_group_name_H-M "P C A 21"
_symmetry_group_IT_number 29
_symmetry_cell_setting 'orthorhombic'
loop_
_space_group_symop_operation_xyz
x,y,z
-x,-y,1/2+z
1/2-x,y,1/2+z
1/2+x,-y,z
loop_
_atom_site_type_symbol
_atom_site_label
_atom_site_fract_x
_atom_site_fract_y
_atom_site_fract_z
Si Si1 0.679437 0.141027 0.047360
Si Si2 0.764463 0.901181 0.674740
Si Si3 0.646696 0.358731 0.800368
Si Si4 0.631777 0.372367 0.590491
Si Si5 0.355438 0.458807 0.916448
Si Si6 0.874372 0.965171 0.955298
Si Si7 0.677647 0.748946 0.018848
Si Si8 0.565158 0.073678 0.779151
O O1 0.711180 0.287651 0.075308
O O2 0.733933 0.038756 0.122277
O O3 0.507134 0.097850 0.019294
O O4 0.806880 0.106710 0.971655
O O5 0.728461 0.778600 0.612246
O O6 0.940668 0.886476 0.704699
O O7 0.649301 0.940751 0.753119
O O8 0.624175 0.403895 0.696498
O O9 0.497822 0.391231 0.864138
O O10 0.785611 0.433051 0.850448
O O11 0.664817 0.203221 0.795293
O O12 0.617531 0.484731 0.516472
O O13 0.488073 0.285255 0.557899
O O14 0.228157 0.352806 0.944343
O O15 0.954846 0.951516 0.862061
O O16 0.716724 0.882249 0.968905
#
# Coordination Sequence:
#
# PCOD9341465 Si02
#       8
#     4   4   4   4   4   4   4   4
#     4  11  22  43  67 106 138 196 240 301 389 463
#     4  11  22  41  71 100 149 185 246 303 385 460
#     4  12  27  51  75 112 153 203 266 324 388 479
#     4  12  26  48  78 103 156 201 262 320 391 468
#     4  12  28  50  76 109 152 200 268 325 388 464
#     4  11  23  40  72  99 153 191 244 314 390 457
#     4  11  23  46  71 104 142 206 249 318 390 461
#     4  12  23  43  66 109 147 190 249 317 379 476
#
# _framework density 23.997070999999998
#
# number of rings (size 3 to 8) (size 9 to 14) (size 15 to 20)
#    0.000    0.500    5.000    4.500    1.750    0.000 
#    0.000    2.500    0.000    0.000    0.000    0.000 
#    0.000    0.000    0.000    0.000    0.000    0.000 
#
# Total GULP energy -178439.625226 kJ/mol
# GULP energy per Si atom -5576.238288 kJ/mol
# Density = 2.394245 g / cm^3
# Si number density = 23.997071 Si / 1000 Ang^3
#
#
#
# Elastic Constant Matrix: (Units=GPa)
#
#
# Indices 1 2 3 4 5 6 
#
# 1 56.9099 -6.4081 9.2123 0.0000 0.0000 0.0000
# 2 -6.4081 42.3757 22.4615 0.0000 0.0000 0.0000
# 3 9.2123 22.4615 111.7439 0.0000 0.0000 0.0000
# 4 0.0000 0.0000 0.0000 49.5404 0.0000 0.0000
# 5 0.0000 0.0000 0.0000 0.0000 31.1657 0.0000
# 6 0.0000 0.0000 0.0000 0.0000 0.0000 18.1437
#
#
#
# Elastic Compliance Matrix: (Units=1/GPa)
#
#
# Indices 1 2 3 4 5 6 
#
# 1 0.018400 0.004014 -0.002324 0.000000 0.000000 0.000000
# 2 0.004014 0.027288 -0.005816 0.000000 0.000000 0.000000
# 3 -0.002324 -0.005816 0.010310 0.000000 0.000000 0.000000
# 4 0.000000 0.000000 0.000000 0.020186 0.000000 0.000000
# 5 0.000000 0.000000 0.000000 0.000000 0.032087 0.000000
# 6 0.000000 0.000000 0.000000 0.000000 0.000000 0.055116
#
#
# Mechanical properties :
#
#
# Convention : Reuss Voigt Hill
#
# Bulk Modulus (GPa) = 20.94400 29.06233 25.00317
# Shear Modulus (GPa) = 26.65922 32.15421 29.40672
#
# Velocity S-wave (km/s) = 3.33669 3.66447 3.50441
# Velocity P-wave (km/s) = 4.85709 5.48101 5.17846
#
# Compressibility (1/GPa) = 0.04774637
#
# Stress axis : x y z
#
# Youngs Moduli (GPa) = 54.34837 36.64572 96.99601
#
# Poissons Ratio (x) = -0.14710 0.22540
# Poissons Ratio (y) = -0.21817 0.56414
# Poissons Ratio (z) = 0.12629 0.21314
#
# Static dielectric constant tensor:
#      x y z
#    x 1.957730 0.000000 0.000000 
#    y 0.000000 1.972820 0.000000 
#    z 0.000000 0.000000 2.073980 
# 
# From -- ./inp_files/4301.got.cif
#   From: 2010.05.17/outbox.cif.g08.bks.cpg/sg29_3_cif.got.tgz:4301.got - 2010.06.04 01:19:37.
