data_PCOD9341384
_publ_section_title
;
Structure prediction by ZEFSAII (Michael W. Deem and Ramdas Pophale) SiO2 
 PCOD9341384
Probable space group: P C A 21
;
_chemical_formula_sum "Si O2"
_cell_formula_units_Z 16
_cell_length_a 9.894279
_cell_length_b 6.384828
_cell_length_c 10.215208
_cell_angle_alpha 90.000000
_cell_angle_beta 90.000000
_cell_angle_gamma 90.000000
_cell_volume 645.328089
_symmetry_space_group_name_H-M "P C A 21"
_symmetry_group_IT_number 29
_symmetry_cell_setting 'orthorhombic'
loop_
_space_group_symop_operation_xyz
x,y,z
-x,-y,1/2+z
1/2-x,y,1/2+z
1/2+x,-y,z
loop_
_atom_site_type_symbol
_atom_site_label
_atom_site_fract_x
_atom_site_fract_y
_atom_site_fract_z
Si Si1 0.722219 0.020172 0.172710
Si Si2 0.443656 0.356837 0.602134
Si Si3 0.320358 0.409473 0.245906
Si Si4 0.676043 0.297846 0.427305
O O1 0.591962 0.885213 0.128791
O O2 0.826272 0.840909 0.227043
O O3 0.685005 0.157506 0.297497
O O4 0.774633 0.149104 0.047286
O O5 0.550113 0.462708 0.700931
O O6 0.300808 0.457264 0.641097
O O7 0.524795 0.367247 0.466781
O O8 0.260025 0.497253 0.380808
#
# Coordination Sequence:
#
# PCOD9341384 Si02
#       4
#     4   4   4   4
#     4  10  28  45  81 113 159 210 269 330 411 480
#     4  10  26  48  76 116 154 208 259 332 403 477
#     4  10  26  48  77 117 156 208 259 334 398 480
#     4  12  24  51  76 118 159 208 267 342 398 493
#
# _framework density 24.793589000000001
#
# number of rings (size 3 to 8) (size 9 to 14) (size 15 to 20)
#    1.500    0.000    2.500    0.000    7.000    6.000 
#    0.000    0.000    0.000    0.000    0.000    0.000 
#    0.000    0.000    0.000    0.000    0.000    0.000 
#
# Total GULP energy -89288.284271 kJ/mol
# GULP energy per Si atom -5580.517767 kJ/mol
# Density = 2.473716 g / cm^3
# Si number density = 24.793589 Si / 1000 Ang^3
#
#
#
# Elastic Constant Matrix: (Units=GPa)
#
#
# Indices 1 2 3 4 5 6 
#
# 1 76.6598 27.3971 6.9955 0.0000 0.0000 0.0000
# 2 27.3971 117.2651 57.4167 0.0000 0.0000 0.0000
# 3 6.9955 57.4167 176.4701 0.0000 0.0000 0.0000
# 4 0.0000 0.0000 0.0000 45.8132 0.0000 0.0000
# 5 0.0000 0.0000 0.0000 0.0000 43.9294 0.0000
# 6 0.0000 0.0000 0.0000 0.0000 0.0000 58.4433
#
#
#
# Elastic Compliance Matrix: (Units=1/GPa)
#
#
# Indices 1 2 3 4 5 6 
#
# 1 0.014290 -0.003641 0.000618 0.000000 0.000000 0.000000
# 2 -0.003641 0.011072 -0.003458 0.000000 0.000000 0.000000
# 3 0.000618 -0.003458 0.006767 0.000000 0.000000 0.000000
# 4 0.000000 0.000000 0.000000 0.021828 0.000000 0.000000
# 5 0.000000 0.000000 0.000000 0.000000 0.022764 0.000000
# 6 0.000000 0.000000 0.000000 0.000000 0.000000 0.017111
#
#
# Mechanical properties :
#
#
# Convention : Reuss Voigt Hill
#
# Bulk Modulus (GPa) = 52.17425 61.55704 56.86564
# Shear Modulus (GPa) = 44.17698 48.20955 46.19327
#
# Velocity S-wave (km/s) = 4.22571 4.41436 4.32106
# Velocity P-wave (km/s) = 6.70059 7.13189 6.91960
#
# Compressibility (1/GPa) = 0.01916654
#
# Stress axis : x y z
#
# Youngs Moduli (GPa) = 69.98118 90.32195 147.77059
#
# Poissons Ratio (x) = 0.32888 -0.09136
# Poissons Ratio (y) = 0.25482 0.51098
# Poissons Ratio (z) = -0.04327 0.31232
#
# Static dielectric constant tensor:
#      x y z
#    x 2.038050 0.000000 0.000000 
#    y 0.000000 2.010980 0.000000 
#    z 0.000000 0.000000 2.018990 
# 
# From -- ./inp_files/1310.got.cif
#   From: 2010.05.17/outbox.cif.g08.bks.cpg/sg29_1_cif.got.tgz:1310.got - 2010.06.04 01:19:37.
