data_PCOD9341128
_publ_section_title
;
Structure prediction by ZEFSAII (Michael W. Deem and Ramdas Pophale) SiO2 
 PCOD9341128
Probable space group: P C A 21
;
_chemical_formula_sum "Si O2"
_cell_formula_units_Z 32
_cell_length_a 16.478494
_cell_length_b 8.133682
_cell_length_c 9.625381
_cell_angle_alpha 90.000000
_cell_angle_beta 90.000000
_cell_angle_gamma 90.000000
_cell_volume 1290.097805
_symmetry_space_group_name_H-M "P C A 21"
_symmetry_group_IT_number 29
_symmetry_cell_setting 'orthorhombic'
loop_
_space_group_symop_operation_xyz
x,y,z
-x,-y,1/2+z
1/2-x,y,1/2+z
1/2+x,-y,z
loop_
_atom_site_type_symbol
_atom_site_label
_atom_site_fract_x
_atom_site_fract_y
_atom_site_fract_z
Si Si1 0.432872 0.969801 0.115020
Si Si2 0.247716 0.903673 0.026237
Si Si3 0.010145 0.651875 0.786533
Si Si4 0.508805 0.161086 0.345991
Si Si5 0.311604 0.737896 0.776710
Si Si6 0.937381 0.541949 0.519857
Si Si7 0.830207 0.629801 0.889893
Si Si8 0.781437 0.745842 0.613751
O O1 0.340202 0.944448 0.071326
O O2 0.462510 0.811220 0.202667
O O3 0.449671 0.115327 0.221528
O O4 0.483813 0.971703 0.971466
O O5 0.217389 0.752694 0.119783
O O6 0.251792 0.850649 0.867618
O O7 0.200407 0.070436 0.061269
O O8 0.990141 0.521535 0.660767
O O9 0.923765 0.670961 0.863642
O O10 0.071105 0.604107 0.909809
O O11 0.598863 0.185875 0.286524
O O12 0.483863 0.325431 0.425314
O O13 0.315181 0.558718 0.845763
O O14 0.854300 0.625361 0.568247
O O15 0.779269 0.738395 0.779671
O O16 0.798421 0.675449 0.040666
#
# Coordination Sequence:
#
# PCOD9341128 Si02
#       8
#     4   4   4   4   4   4   4   4
#     4  10  25  41  67  99 133 177 229 279 345 409
#     4  11  26  44  68 100 137 182 229 284 345 417
#     4  10  23  44  67  96 136 172 227 283 344 411
#     4  10  23  43  64  96 132 173 223 280 338 403
#     4  11  24  44  67  96 137 176 225 282 345 411
#     4  10  23  43  66  97 132 175 224 284 342 411
#     4  11  24  45  67  99 132 182 225 286 344 416
#     4  11  26  42  70  97 137 179 232 282 351 412
#
# _framework density 24.804320000000001
#
# number of rings (size 3 to 8) (size 9 to 14) (size 15 to 20)
#    0.000    1.500    1.250    1.500   14.000    2.000 
#    0.000    0.000    0.000    0.000    0.000    0.000 
#    0.000    0.000    0.000    0.000    0.000    0.000 
#
# Total GULP energy -179204.746992 kJ/mol
# GULP energy per Si atom -5600.148344 kJ/mol
# Density = 2.474786 g / cm^3
# Si number density = 24.804320 Si / 1000 Ang^3
#
#
#
# Elastic Constant Matrix: (Units=GPa)
#
#
# Indices 1 2 3 4 5 6 
#
# 1 43.4432 0.1209 27.9942 0.0000 0.0000 0.0000
# 2 0.1209 73.7206 5.6656 0.0000 0.0000 0.0000
# 3 27.9942 5.6656 88.3702 0.0000 0.0000 0.0000
# 4 0.0000 0.0000 0.0000 39.0027 0.0000 0.0000
# 5 0.0000 0.0000 0.0000 0.0000 42.7422 0.0000
# 6 0.0000 0.0000 0.0000 0.0000 0.0000 29.2076
#
#
#
# Elastic Compliance Matrix: (Units=1/GPa)
#
#
# Indices 1 2 3 4 5 6 
#
# 1 0.028955 0.000661 -0.009215 0.000000 0.000000 0.000000
# 2 0.000661 0.013647 -0.001084 0.000000 0.000000 0.000000
# 3 -0.009215 -0.001084 0.014305 0.000000 0.000000 0.000000
# 4 0.000000 0.000000 0.000000 0.025639 0.000000 0.000000
# 5 0.000000 0.000000 0.000000 0.000000 0.023396 0.000000
# 6 0.000000 0.000000 0.000000 0.000000 0.000000 0.034238
#
#
# Mechanical properties :
#
#
# Convention : Reuss Voigt Hill
#
# Bulk Modulus (GPa) = 26.57477 30.34394 28.45936
# Shear Modulus (GPa) = 29.06997 33.64073 31.35535
#
# Velocity S-wave (km/s) = 3.42712 3.68672 3.55929
# Velocity P-wave (km/s) = 5.13782 5.51202 5.32821
#
# Compressibility (1/GPa) = 0.03762967
#
# Stress axis : x y z
#
# Youngs Moduli (GPa) = 34.53686 73.27631 69.90756
#
# Poissons Ratio (x) = -0.04841 0.64418
# Poissons Ratio (y) = -0.02282 0.07580
# Poissons Ratio (z) = 0.31825 0.07945
#
# Static dielectric constant tensor:
#      x y z
#    x 1.931360 0.000000 0.000000 
#    y 0.000000 2.011930 0.000000 
#    z 0.000000 0.000000 1.943310 
# 
# From -- ./inp_files/2334.got.cif
#   From: 2010.05.17/outbox.cif.g08.bks.cpg/sg29_2_cif.got.tgz:2334.got - 2010.06.04 01:19:37.
