data_PCOD9341192
_publ_section_title
;
Structure prediction by ZEFSAII (Michael W. Deem and Ramdas Pophale) SiO2 
 PCOD9341192
Probable space group: P C A 21
;
_chemical_formula_sum "Si O2"
_cell_formula_units_Z 28
_cell_length_a 17.605021
_cell_length_b 5.341395
_cell_length_c 12.061784
_cell_angle_alpha 90.000000
_cell_angle_beta 90.000000
_cell_angle_gamma 90.000000
_cell_volume 1134.234335
_symmetry_space_group_name_H-M "P C A 21"
_symmetry_group_IT_number 29
_symmetry_cell_setting 'orthorhombic'
loop_
_space_group_symop_operation_xyz
x,y,z
-x,-y,1/2+z
1/2-x,y,1/2+z
1/2+x,-y,z
loop_
_atom_site_type_symbol
_atom_site_label
_atom_site_fract_x
_atom_site_fract_y
_atom_site_fract_z
Si Si1 0.220091 0.258115 0.416980
Si Si2 0.204662 0.875692 0.587934
Si Si3 0.000994 0.184775 0.720945
Si Si4 0.021752 0.322839 0.085580
Si Si5 0.598931 0.368022 0.400934
Si Si6 0.159127 0.603881 0.005321
Si Si7 0.354463 0.949626 0.319398
O O1 0.141347 0.371137 0.372446
O O2 0.281192 0.478381 0.422401
O O3 0.208711 0.162289 0.544381
O O4 0.270928 0.054186 0.353232
O O5 0.155752 0.761476 0.487473
O O6 0.288700 0.761167 0.588897
O O7 0.162442 0.822827 0.701560
O O8 0.006115 0.458841 0.667755
O O9 0.925832 0.203233 0.796943
O O10 0.991853 0.953892 0.634566
O O11 0.077962 0.138974 0.789656
O O12 0.108994 0.392914 0.061683
O O13 0.977253 0.383587 0.972686
O O14 0.115537 0.792427 0.924068
#
# Coordination Sequence:
#
# PCOD9341192 Si02
#       7
#     4   4   4   4   4   4   4
#     4  10  24  44  73 106 147 203 252 328 380 474
#     4  10  23  46  72 106 151 201 257 320 397 466
#     4  12  30  46  80 114 156 212 260 327 408 473
#     4  12  29  49  78 113 159 204 264 330 401 473
#     4  11  26  47  73 110 156 201 267 323 399 478
#     4  10  26  46  72 107 148 198 257 323 382 475
#     4  11  24  46  78 108 151 207 259 319 407 471
#
# _framework density 24.686257000000001
#
# number of rings (size 3 to 8) (size 9 to 14) (size 15 to 20)
#    0.000    1.143    1.429    1.714   12.000    6.857 
#    0.000    0.000    0.000    0.000    0.000    0.000 
#    0.000    0.000    0.000    0.000    0.000    0.000 
#
# Total GULP energy -156444.494178 kJ/mol
# GULP energy per Si atom -5587.303364 kJ/mol
# Density = 2.463007 g / cm^3
# Si number density = 24.686257 Si / 1000 Ang^3
#
#
#
# Elastic Constant Matrix: (Units=GPa)
#
#
# Indices 1 2 3 4 5 6 
#
# 1 103.6642 22.4043 32.5034 0.0000 0.0000 0.0000
# 2 22.4043 73.3940 19.6373 0.0000 0.0000 0.0000
# 3 32.5034 19.6373 58.3711 0.0000 0.0000 0.0000
# 4 0.0000 0.0000 0.0000 29.8445 0.0000 0.0000
# 5 0.0000 0.0000 0.0000 0.0000 37.4236 0.0000
# 6 0.0000 0.0000 0.0000 0.0000 0.0000 42.4728
#
#
#
# Elastic Compliance Matrix: (Units=1/GPa)
#
#
# Indices 1 2 3 4 5 6 
#
# 1 0.011962 -0.002054 -0.005970 0.000000 0.000000 0.000000
# 2 -0.002054 0.015326 -0.004012 0.000000 0.000000 0.000000
# 3 -0.005970 -0.004012 0.021806 0.000000 0.000000 0.000000
# 4 0.000000 0.000000 0.000000 0.033507 0.000000 0.000000
# 5 0.000000 0.000000 0.000000 0.000000 0.026721 0.000000
# 6 0.000000 0.000000 0.000000 0.000000 0.000000 0.023545
#
#
# Mechanical properties :
#
#
# Convention : Reuss Voigt Hill
#
# Bulk Modulus (GPa) = 39.96599 42.72436 41.34517
# Shear Modulus (GPa) = 30.25180 32.67380 31.46280
#
# Velocity S-wave (km/s) = 3.50444 3.64203 3.57390
# Velocity P-wave (km/s) = 5.70960 5.91864 5.81506
#
# Compressibility (1/GPa) = 0.02502127
#
# Stress axis : x y z
#
# Youngs Moduli (GPa) = 83.59533 65.25025 45.85933
#
# Poissons Ratio (x) = 0.13404 0.27378
# Poissons Ratio (y) = 0.17173 0.18398
# Poissons Ratio (z) = 0.49907 0.26178
#
# Static dielectric constant tensor:
#      x y z
#    x 1.965570 0.000000 0.000000 
#    y 0.000000 2.098430 0.000000 
#    z 0.000000 0.000000 1.987110 
# 
# From -- ./inp_files/3617.got.cif
#   From: 2010.05.17/outbox.cif.g08.bks.cpg/sg29_2_cif.got.tgz:3617.got - 2010.06.04 01:19:37.
