data_PCOD9341208
_publ_section_title
;
Structure prediction by ZEFSAII (Michael W. Deem and Ramdas Pophale) SiO2 
 PCOD9341208
Probable space group: P C A 21
;
_chemical_formula_sum "Si O2"
_cell_formula_units_Z 28
_cell_length_a 9.185010
_cell_length_b 10.839521
_cell_length_c 11.568464
_cell_angle_alpha 90.000000
_cell_angle_beta 90.000000
_cell_angle_gamma 90.000000
_cell_volume 1151.769103
_symmetry_space_group_name_H-M "P C A 21"
_symmetry_group_IT_number 29
_symmetry_cell_setting 'orthorhombic'
loop_
_space_group_symop_operation_xyz
x,y,z
-x,-y,1/2+z
1/2-x,y,1/2+z
1/2+x,-y,z
loop_
_atom_site_type_symbol
_atom_site_label
_atom_site_fract_x
_atom_site_fract_y
_atom_site_fract_z
Si Si1 0.134963 0.148523 0.889220
Si Si2 0.448122 0.375966 0.551709
Si Si3 0.785335 0.439360 0.902709
Si Si4 0.325641 0.361593 0.218788
Si Si5 0.658717 0.253636 0.725408
Si Si6 0.531873 0.896801 0.396731
Si Si7 0.907880 0.297678 0.577202
O O1 0.155000 0.223415 0.769019
O O2 0.296080 0.097039 0.905154
O O3 0.081412 0.249150 0.981037
O O4 0.028190 0.034230 0.900881
O O5 0.554287 0.446465 0.457193
O O6 0.292639 0.385179 0.619075
O O7 0.559424 0.351597 0.657911
O O8 0.731433 0.556044 0.827472
O O9 0.757498 0.322347 0.820406
O O10 0.675982 0.402816 0.005514
O O11 0.485231 0.374178 0.161528
O O12 0.547378 0.159550 0.782913
O O13 0.782995 0.213798 0.636356
O O14 0.491464 0.795325 0.493957
#
# Coordination Sequence:
#
# PCOD9341208 Si02
#       7
#     4   4   4   4   4   4   4
#     4  12  28  46  77 117 162 203 273 329 397 484
#     4  11  25  49  74 112 155 210 256 329 400 472
#     4  10  26  49  77 112 157 199 262 329 396 478
#     4  12  26  50  77 118 154 205 268 320 397 482
#     4  10  23  48  74 108 151 209 262 316 409 469
#     4  11  26  48  74 114 161 207 268 339 386 482
#     4  10  24  50  77 111 154 209 261 324 405 471
#
# _framework density 24.310428000000002
#
# number of rings (size 3 to 8) (size 9 to 14) (size 15 to 20)
#    0.000    1.143    2.857    0.857    8.000    8.000 
#    2.571    2.857    0.000    0.000    0.000    0.000 
#    0.000    0.000    0.000    0.000    0.000    0.000 
#
# Total GULP energy -156392.537697 kJ/mol
# GULP energy per Si atom -5585.447775 kJ/mol
# Density = 2.425510 g / cm^3
# Si number density = 24.310428 Si / 1000 Ang^3
#
#
#
# Elastic Constant Matrix: (Units=GPa)
#
#
# Indices 1 2 3 4 5 6 
#
# 1 164.0595 36.1624 44.5029 0.0000 0.0000 0.0000
# 2 36.1624 99.7636 31.5650 0.0000 0.0000 0.0000
# 3 44.5029 31.5650 58.5948 0.0000 0.0000 0.0000
# 4 0.0000 0.0000 0.0000 14.9280 0.0000 0.0000
# 5 0.0000 0.0000 0.0000 0.0000 40.6748 0.0000
# 6 0.0000 0.0000 0.0000 0.0000 0.0000 28.5404
#
#
#
# Elastic Compliance Matrix: (Units=1/GPa)
#
#
# Indices 1 2 3 4 5 6 
#
# 1 0.007784 -0.001146 -0.005295 0.000000 0.000000 0.000000
# 2 -0.001146 0.012252 -0.005729 0.000000 0.000000 0.000000
# 3 -0.005295 -0.005729 0.024174 0.000000 0.000000 0.000000
# 4 0.000000 0.000000 0.000000 0.066988 0.000000 0.000000
# 5 0.000000 0.000000 0.000000 0.000000 0.024585 0.000000
# 6 0.000000 0.000000 0.000000 0.000000 0.000000 0.035038
#
#
# Mechanical properties :
#
#
# Convention : Reuss Voigt Hill
#
# Bulk Modulus (GPa) = 50.32859 60.76428 55.54644
# Shear Modulus (GPa) = 24.77872 30.84116 27.80994
#
# Velocity S-wave (km/s) = 3.19605 3.56566 3.38590
# Velocity P-wave (km/s) = 5.86235 6.48084 6.17934
#
# Compressibility (1/GPa) = 0.01986942
#
# Stress axis : x y z
#
# Youngs Moduli (GPa) = 128.46434 81.61902 41.36669
#
# Poissons Ratio (x) = 0.09357 0.21902
# Poissons Ratio (y) = 0.14728 0.23701
# Poissons Ratio (z) = 0.68016 0.46763
#
# Static dielectric constant tensor:
#      x y z
#    x 2.024290 0.000000 0.000000 
#    y 0.000000 1.979040 0.000000 
#    z 0.000000 0.000000 2.110650 
# 
# From -- ./inp_files/2890.got.cif
#   From: 2010.05.17/outbox.cif.g08.bks.cpg/sg29_2_cif.got.tgz:2890.got - 2010.06.04 01:19:37.
