data_PCOD9341906
_publ_section_title
;
Structure prediction by ZEFSAII (Michael W. Deem and Ramdas Pophale) SiO2 
 PCOD9341906
Probable space group: P N C 2
;
_chemical_formula_sum "Si O2"
_cell_formula_units_Z 18
_cell_length_a 10.382298
_cell_length_b 8.028040
_cell_length_c 9.429148
_cell_angle_alpha 90.000000
_cell_angle_beta 90.000000
_cell_angle_gamma 90.000000
_cell_volume 785.914806
_symmetry_space_group_name_H-M "P N C 2"
_symmetry_group_IT_number 30
_symmetry_cell_setting 'orthorhombic'
loop_
_space_group_symop_operation_xyz
x,y,z
-x,-y,z
-x,1/2+y,1/2+z
x,1/2-y,1/2+z
loop_
_atom_site_type_symbol
_atom_site_label
_atom_site_fract_x
_atom_site_fract_y
_atom_site_fract_z
Si Si1 0.367114 0.413317 0.176520
Si Si2 0.753481 0.697929 0.909227
Si Si3 0.000000 0.500000 0.021408
Si Si4 0.143522 0.544791 0.533360
Si Si5 0.161125 0.696685 0.235016
O O1 0.500000 0.500000 0.221042
O O2 0.312327 0.253123 0.261879
O O3 0.263832 0.556955 0.200830
O O4 0.357807 0.372562 0.010780
O O5 0.795336 0.877123 0.973791
O O6 0.881080 0.578753 0.929485
O O7 0.040834 0.642127 0.136749
O O8 0.136934 0.676157 0.401323
O O9 0.208288 0.630575 0.668798
O O10 0.000000 0.500000 0.576782
#
# Coordination Sequence:
#
# PCOD9341906 Si02
#       5
#     4   4   2   4   4
#     4  10  24  46  65  93 137 180 236 282 330 416
#     4  10  23  41  69  99 133 182 224 291 345 408
#     4  10  18  38  64 100 136 162 228 280 360 400
#     4  11  21  38  60  98 132 167 213 270 350 412
#     4  10  22  37  61  93 133 168 212 284 334 407
#
# _framework density 22.903248999999999
#
# number of rings (size 3 to 8) (size 9 to 14) (size 15 to 20)
#    0.000    1.778    3.333    0.000    0.000    7.111 
#    4.000    1.111    0.000    0.000    0.000    0.000 
#    0.000    0.000    0.000    0.000    0.000    0.000 
#
# Total GULP energy -100404.397264 kJ/mol
# GULP energy per Si atom -5578.022070 kJ/mol
# Density = 2.285112 g / cm^3
# Si number density = 22.903249 Si / 1000 Ang^3
#
#
#
# Elastic Constant Matrix: (Units=GPa)
#
#
# Indices 1 2 3 4 5 6 
#
# 1 44.0637 8.4743 29.6940 0.0000 0.0000 0.0000
# 2 8.4743 97.8557 40.7900 0.0000 0.0000 0.0000
# 3 29.6940 40.7900 109.7353 0.0000 0.0000 0.0000
# 4 0.0000 0.0000 0.0000 49.1813 0.0000 0.0000
# 5 0.0000 0.0000 0.0000 0.0000 6.6244 0.0000
# 6 0.0000 0.0000 0.0000 0.0000 0.0000 26.7600
#
#
#
# Elastic Compliance Matrix: (Units=1/GPa)
#
#
# Indices 1 2 3 4 5 6 
#
# 1 0.027817 0.000862 -0.007848 0.000000 0.000000 0.000000
# 2 0.000862 0.012120 -0.004738 0.000000 0.000000 0.000000
# 3 -0.007848 -0.004738 0.012998 0.000000 0.000000 0.000000
# 4 0.000000 0.000000 0.000000 0.020333 0.000000 0.000000
# 5 0.000000 0.000000 0.000000 0.000000 0.150957 0.000000
# 6 0.000000 0.000000 0.000000 0.000000 0.000000 0.037369
#
#
# Mechanical properties :
#
#
# Convention : Reuss Voigt Hill
#
# Bulk Modulus (GPa) = 33.91351 45.50794 39.71072
# Shear Modulus (GPa) = 16.95663 28.02623 22.49143
#
# Velocity S-wave (km/s) = 2.72391 3.50191 3.13712
# Velocity P-wave (km/s) = 4.97316 6.02195 5.52251
#
# Compressibility (1/GPa) = 0.02948678
#
# Stress axis : x y z
#
# Youngs Moduli (GPa) = 35.94916 82.51113 76.93667
#
# Poissons Ratio (x) = -0.07115 0.60378
# Poissons Ratio (y) = -0.03100 0.36455
# Poissons Ratio (z) = 0.28212 0.39097
#
# Static dielectric constant tensor:
#      x y z
#    x 1.859580 0.000000 0.000000 
#    y 0.000000 2.005430 0.000000 
#    z 0.000000 0.000000 1.911890 
# 
# From -- ./inp_files/2243.got.cif
#   From: 2010.05.17/outbox.cif.g08.bks.cpg/sg30_2_cif.got.tgz:2243.got - 2010.06.03 17:03:02.
