data_PCOD9341653
_publ_section_title
;
Structure prediction by ZEFSAII (Michael W. Deem and Ramdas Pophale) SiO2 
 PCOD9341653
Probable space group: P C A 21
;
_chemical_formula_sum "Si O2"
_cell_formula_units_Z 32
_cell_length_a 12.522228
_cell_length_b 6.742330
_cell_length_c 18.200020
_cell_angle_alpha 90.000000
_cell_angle_beta 90.000000
_cell_angle_gamma 90.000000
_cell_volume 1536.609370
_symmetry_space_group_name_H-M "P C A 21"
_symmetry_group_IT_number 29
_symmetry_cell_setting 'orthorhombic'
loop_
_space_group_symop_operation_xyz
x,y,z
-x,-y,1/2+z
1/2-x,y,1/2+z
1/2+x,-y,z
loop_
_atom_site_type_symbol
_atom_site_label
_atom_site_fract_x
_atom_site_fract_y
_atom_site_fract_z
Si Si1 0.938508 0.582841 0.328940
Si Si2 0.522241 0.177844 0.643493
Si Si3 0.068280 0.904054 0.027254
Si Si4 0.364665 0.514790 0.606586
Si Si5 0.925884 0.754230 0.896421
Si Si6 0.921055 0.077662 0.770593
Si Si7 0.279834 0.667263 0.228172
Si Si8 0.805806 0.738883 0.466400
O O1 0.849360 0.453442 0.287156
O O2 0.888395 0.675921 0.402620
O O3 0.034476 0.436361 0.351447
O O4 0.987394 0.755635 0.278715
O O5 0.469929 0.391726 0.627975
O O6 0.637600 0.208121 0.678394
O O7 0.514031 0.049640 0.569364
O O8 0.448543 0.063171 0.702252
O O9 0.108939 0.738864 0.083737
O O10 0.011058 0.794757 0.960368
O O11 0.161588 0.044221 0.996069
O O12 0.284233 0.519644 0.674657
O O13 0.315916 0.406828 0.535712
O O14 0.810877 0.727886 0.932255
O O15 0.923118 0.941348 0.842416
O O16 0.807972 0.187156 0.762734
#
# Coordination Sequence:
#
# PCOD9341653 Si02
#       8
#     4   4   4   4   4   4   4   4
#     4  12  26  48  69 109 144 187 238 305 352 434
#     4  11  27  46  71 105 140 189 233 299 351 423
#     4  11  25  49  69 104 144 183 242 299 347 432
#     4  11  26  49  70 107 142 186 248 291 358 425
#     4  12  27  44  74 103 144 193 234 297 363 424
#     4  12  27  47  70 107 143 184 246 286 361 438
#     4  12  27  45  76 101 146 191 234 298 365 423
#     4  11  27  44  75 102 141 189 241 293 363 421
#
# _framework density 20.825071999999999
#
# number of rings (size 3 to 8) (size 9 to 14) (size 15 to 20)
#    0.000    0.500    5.000    1.500    8.750    1.000 
#    0.000    0.000    0.000    0.000    0.000    0.000 
#    0.000    0.000    0.000    0.000    0.000    0.000 
#
# Total GULP energy -179161.787549 kJ/mol
# GULP energy per Si atom -5598.805861 kJ/mol
# Density = 2.077767 g / cm^3
# Si number density = 20.825072 Si / 1000 Ang^3
#
#
#
# Elastic Constant Matrix: (Units=GPa)
#
#
# Indices 1 2 3 4 5 6 
#
# 1 47.4344 20.7468 -2.5256 0.0000 0.0000 0.0000
# 2 20.7468 83.8450 7.2787 0.0000 0.0000 0.0000
# 3 -2.5256 7.2787 55.5508 0.0000 0.0000 0.0000
# 4 0.0000 0.0000 0.0000 43.1613 0.0000 0.0000
# 5 0.0000 0.0000 0.0000 0.0000 18.1986 0.0000
# 6 0.0000 0.0000 0.0000 0.0000 0.0000 9.1270
#
#
#
# Elastic Compliance Matrix: (Units=1/GPa)
#
#
# Indices 1 2 3 4 5 6 
#
# 1 0.023832 -0.006060 0.001878 0.000000 0.000000 0.000000
# 2 -0.006060 0.013605 -0.002058 0.000000 0.000000 0.000000
# 3 0.001878 -0.002058 0.018357 0.000000 0.000000 0.000000
# 4 0.000000 0.000000 0.000000 0.023169 0.000000 0.000000
# 5 0.000000 0.000000 0.000000 0.000000 0.054949 0.000000
# 6 0.000000 0.000000 0.000000 0.000000 0.000000 0.109565
#
#
# Mechanical properties :
#
#
# Convention : Reuss Voigt Hill
#
# Bulk Modulus (GPa) = 23.08803 26.42555 24.75679
# Shear Modulus (GPa) = 18.49137 24.85272 21.67205
#
# Velocity S-wave (km/s) = 2.98306 3.45832 3.22944
# Velocity P-wave (km/s) = 4.79329 5.35382 5.08129
#
# Compressibility (1/GPa) = 0.04331248
#
# Stress axis : x y z
#
# Youngs Moduli (GPa) = 41.95986 73.50253 54.47633
#
# Poissons Ratio (x) = 0.44543 -0.10228
# Poissons Ratio (y) = 0.25428 0.11212
# Poissons Ratio (z) = -0.07878 0.15128
#
# Static dielectric constant tensor:
#      x y z
#    x 1.705650 0.000000 0.000000 
#    y 0.000000 1.728070 0.000000 
#    z 0.000000 0.000000 1.751130 
# 
# From -- ./inp_files/5518.got.cif
#   From: 2010.05.17/outbox.cif.g08.bks.cpg/sg29_3_cif.got.tgz:5518.got - 2010.06.04 01:19:37.
