data_PCOD9341286
_publ_section_title
;
Structure prediction by ZEFSAII (Michael W. Deem and Ramdas Pophale) SiO2 
 PCOD9341286
Probable space group: P C A 21
;
_chemical_formula_sum "Si O2"
_cell_formula_units_Z 12
_cell_length_a 15.115622
_cell_length_b 4.678437
_cell_length_c 5.388781
_cell_angle_alpha 90.000000
_cell_angle_beta 90.000000
_cell_angle_gamma 90.000000
_cell_volume 381.081041
_symmetry_space_group_name_H-M "P C A 21"
_symmetry_group_IT_number 29
_symmetry_cell_setting 'orthorhombic'
loop_
_space_group_symop_operation_xyz
x,y,z
-x,-y,1/2+z
1/2-x,y,1/2+z
1/2+x,-y,z
loop_
_atom_site_type_symbol
_atom_site_label
_atom_site_fract_x
_atom_site_fract_y
_atom_site_fract_z
Si Si1 0.463666 0.179191 0.818190
Si Si2 0.613485 0.300529 0.604859
Si Si3 0.224782 0.125962 0.136723
O O1 0.556736 0.374484 0.847002
O O2 0.374517 0.035042 0.685204
O O3 0.400472 0.444725 0.920594
O O4 0.467327 0.946076 0.058151
O O5 0.705747 0.140791 0.615304
O O6 0.269832 0.279954 0.371826
#
# Coordination Sequence:
#
# PCOD9341286 Si02
#       3
#     4   4   4
#     4  11  24  44  73 108 150 198 251 310 374 447
#     4  11  24  44  73 108 150 198 251 310 374 447
#     4  10  24  44  72 108 148 190 244 306 370 436
#
# _framework density 31.489366
#
# number of rings (size 3 to 8) (size 9 to 14) (size 15 to 20)
#    0.000    1.333    0.000    4.000    0.000   16.000 
#    0.000    6.667    0.000    0.000    0.000    0.000 
#    0.000    0.000    0.000    0.000    0.000    0.000 
#
# Total GULP energy -66870.897455 kJ/mol
# GULP energy per Si atom -5572.574788 kJ/mol
# Density = 3.141769 g / cm^3
# Si number density = 31.489366 Si / 1000 Ang^3
#
#
#
# Elastic Constant Matrix: (Units=GPa)
#
#
# Indices 1 2 3 4 5 6 
#
# 1 286.4780 63.0403 19.9123 0.0000 0.0000 0.0000
# 2 63.0403 145.0430 -7.2690 0.0000 0.0000 0.0000
# 3 19.9123 -7.2690 155.9511 0.0000 0.0000 0.0000
# 4 0.0000 0.0000 0.0000 -55.0052 0.0000 0.0000
# 5 0.0000 0.0000 0.0000 0.0000 55.0702 0.0000
# 6 0.0000 0.0000 0.0000 0.0000 0.0000 37.2900
#
#
#
# Elastic Compliance Matrix: (Units=1/GPa)
#
#
# Indices 1 2 3 4 5 6 
#
# 1 0.003911 -0.001729 -0.000580 0.000000 0.000000 0.000000
# 2 -0.001729 0.007675 0.000579 0.000000 0.000000 0.000000
# 3 -0.000580 0.000579 0.006513 0.000000 0.000000 0.000000
# 4 0.000000 0.000000 0.000000 -0.018180 0.000000 0.000000
# 5 0.000000 0.000000 0.000000 0.000000 0.018159 0.000000
# 6 0.000000 0.000000 0.000000 0.000000 0.000000 0.026817
#
#
# Mechanical properties :
#
#
# Convention : Reuss Voigt Hill
#
# Bulk Modulus (GPa) = 68.31277 82.09324 75.20300
# Shear Modulus (GPa) = 93.92148 41.59025 67.75586
#
# Velocity S-wave (km/s) = 5.46728 3.63818 4.64368
# Velocity P-wave (km/s) = 7.84831 6.61629 7.25848
#
# Compressibility (1/GPa) = 0.01463855
#
# Stress axis : x y z
#
# Youngs Moduli (GPa) = 255.65744 130.29261 153.53217
#
# Poissons Ratio (x) = 0.22529 0.08905
# Poissons Ratio (y) = 0.44206 -0.08882
# Poissons Ratio (z) = 0.14829 -0.07538
#
# Static dielectric constant tensor:
#      x y z
#    x 2.465050 0.000000 0.000000 
#    y 0.000000 2.615980 0.000000 
#    z 0.000000 0.000000 3.685180 
# 
# From -- ./inp_files/299.got.cif
#   From: 2010.05.17/outbox.cif.g08.bks.cpg/sg29_1_cif.got.tgz:299.got - 2010.06.04 01:19:37.
