data_PCOD9341292
_publ_section_title
;
Structure prediction by ZEFSAII (Michael W. Deem and Ramdas Pophale) SiO2 
 PCOD9341292
Probable space group: P C A 21
;
_chemical_formula_sum "Si O2"
_cell_formula_units_Z 24
_cell_length_a 18.448427
_cell_length_b 5.793529
_cell_length_c 9.065233
_cell_angle_alpha 90.000000
_cell_angle_beta 90.000000
_cell_angle_gamma 90.000000
_cell_volume 968.905672
_symmetry_space_group_name_H-M "P C A 21"
_symmetry_group_IT_number 29
_symmetry_cell_setting 'orthorhombic'
loop_
_space_group_symop_operation_xyz
x,y,z
-x,-y,1/2+z
1/2-x,y,1/2+z
1/2+x,-y,z
loop_
_atom_site_type_symbol
_atom_site_label
_atom_site_fract_x
_atom_site_fract_y
_atom_site_fract_z
Si Si1 0.201317 0.740101 0.957040
Si Si2 0.032125 0.229937 0.376915
Si Si3 0.068912 0.506442 0.097749
Si Si4 0.208634 0.364123 0.713161
Si Si5 0.806387 0.879909 0.932721
Si Si6 0.084133 0.117988 0.861500
O O1 0.214310 0.595661 0.807256
O O2 0.273764 0.882146 0.995841
O O3 0.145650 0.943522 0.916215
O O4 0.151905 0.596719 0.074214
O O5 0.048617 0.438677 0.263497
O O6 0.108330 0.115723 0.415028
O O7 0.986869 0.321232 0.517197
O O8 0.981185 0.036124 0.303636
O O9 0.062820 0.275121 0.999649
O O10 0.214478 0.335371 0.539160
O O11 0.267332 0.186391 0.780593
O O12 0.126832 0.278508 0.747776
#
# Coordination Sequence:
#
# PCOD9341292 Si02
#       6
#     4   4   4   4   4   4
#     4   9  22  47  72  94 153 191 237 310 366 435
#     4  11  26  43  76 107 142 193 249 304 376 451
#     4  10  24  46  71 107 149 190 243 311 378 446
#     4  10  24  45  68 103 146 189 250 306 371 439
#     4  11  26  44  71 106 140 199 252 298 377 447
#     4   9  22  43  70  97 144 184 235 301 368 430
#
# _framework density 24.770215
#
# number of rings (size 3 to 8) (size 9 to 14) (size 15 to 20)
#    0.000    2.000    0.000    0.000   16.333    5.333 
#    0.000    0.000    0.000    0.000    0.000    0.000 
#    0.000    0.000    0.000    0.000    0.000    0.000 
#
# Total GULP energy -134269.383448 kJ/mol
# GULP energy per Si atom -5594.557644 kJ/mol
# Density = 2.471384 g / cm^3
# Si number density = 24.770215 Si / 1000 Ang^3
#
#
#
# Elastic Constant Matrix: (Units=GPa)
#
#
# Indices 1 2 3 4 5 6 
#
# 1 173.5561 46.5603 33.9711 0.0000 0.0000 0.0000
# 2 46.5603 99.0530 16.6696 0.0000 0.0000 0.0000
# 3 33.9711 16.6696 85.7333 0.0000 0.0000 0.0000
# 4 0.0000 0.0000 0.0000 24.7009 0.0000 0.0000
# 5 0.0000 0.0000 0.0000 0.0000 19.4347 0.0000
# 6 0.0000 0.0000 0.0000 0.0000 0.0000 54.1798
#
#
#
# Elastic Compliance Matrix: (Units=1/GPa)
#
#
# Indices 1 2 3 4 5 6 
#
# 1 0.006972 -0.002907 -0.002197 0.000000 0.000000 0.000000
# 2 -0.002907 0.011650 -0.001113 0.000000 0.000000 0.000000
# 3 -0.002197 -0.001113 0.012751 0.000000 0.000000 0.000000
# 4 0.000000 0.000000 0.000000 0.040484 0.000000 0.000000
# 5 0.000000 0.000000 0.000000 0.000000 0.051454 0.000000
# 6 0.000000 0.000000 0.000000 0.000000 0.000000 0.018457
#
#
# Mechanical properties :
#
#
# Convention : Reuss Voigt Hill
#
# Bulk Modulus (GPa) = 52.80616 61.41605 57.11110
# Shear Modulus (GPa) = 31.14952 37.07251 34.11102
#
# Velocity S-wave (km/s) = 3.55003 3.87286 3.71495
# Velocity P-wave (km/s) = 6.17805 6.69678 6.44264
#
# Compressibility (1/GPa) = 0.01893719
#
# Stress axis : x y z
#
# Youngs Moduli (GPa) = 143.43332 85.84019 78.42433
#
# Poissons Ratio (x) = 0.24957 0.17232
# Poissons Ratio (y) = 0.41702 0.08729
# Poissons Ratio (z) = 0.31516 0.09554
#
# Static dielectric constant tensor:
#      x y z
#    x 1.948470 0.000000 0.000000 
#    y 0.000000 1.993320 0.000000 
#    z 0.000000 0.000000 1.951970 
# 
# From -- ./inp_files/2008.got.cif
#   From: 2010.05.17/outbox.cif.g08.bks.cpg/sg29_2_cif.got.tgz:2008.got - 2010.06.04 01:19:37.
