data_PCOD9341041
_publ_section_title
;
Structure prediction by ZEFSAII (Michael W. Deem and Ramdas Pophale) SiO2 
 PCOD9341041
Probable space group: P C A 21
;
_chemical_formula_sum "Si O2"
_cell_formula_units_Z 16
_cell_length_a 9.192217
_cell_length_b 6.987936
_cell_length_c 11.629276
_cell_angle_alpha 90.000000
_cell_angle_beta 90.000000
_cell_angle_gamma 90.000000
_cell_volume 747.002172
_symmetry_space_group_name_H-M "P C A 21"
_symmetry_group_IT_number 29
_symmetry_cell_setting 'orthorhombic'
loop_
_space_group_symop_operation_xyz
x,y,z
-x,-y,1/2+z
1/2-x,y,1/2+z
1/2+x,-y,z
loop_
_atom_site_type_symbol
_atom_site_label
_atom_site_fract_x
_atom_site_fract_y
_atom_site_fract_z
Si Si1 0.468296 0.813463 0.479580
Si Si2 0.275928 0.098369 0.593774
Si Si3 0.032382 0.384179 0.240375
Si Si4 0.220125 0.685165 0.171132
O O1 0.618915 0.844876 0.547042
O O2 0.500361 0.734052 0.354986
O O3 0.364453 0.667258 0.549843
O O4 0.376972 0.010939 0.491666
O O5 0.359869 0.263509 0.659728
O O6 0.261958 0.914327 0.679044
O O7 0.113455 0.584856 0.261750
O O8 0.877770 0.406632 0.178426
#
# Coordination Sequence:
#
# PCOD9341041 Si02
#       4
#     4   4   4   4
#     4  10  24  44  69  99 133 182 221 288 340 398
#     4  10  22  46  64  98 137 170 235 279 329 412
#     4  12  24  44  72  95 139 185 218 286 350 394
#     4  10  24  44  63 104 137 171 236 277 325 424
#
# _framework density 21.418945999999998
#
# number of rings (size 3 to 8) (size 9 to 14) (size 15 to 20)
#    1.500    0.000    2.500    1.500    3.500    4.000 
#    4.500    0.000    0.000    0.000    0.000    0.000 
#    0.000    0.000    0.000    0.000    0.000    0.000 
#
# Total GULP energy -89230.977061 kJ/mol
# GULP energy per Si atom -5576.936066 kJ/mol
# Density = 2.137020 g / cm^3
# Si number density = 21.418946 Si / 1000 Ang^3
#
#
#
# Elastic Constant Matrix: (Units=GPa)
#
#
# Indices 1 2 3 4 5 6 
#
# 1 196.0929 53.5093 41.9481 0.0000 0.0000 0.0000
# 2 53.5093 77.3392 39.5506 0.0000 0.0000 0.0000
# 3 41.9481 39.5506 47.7466 0.0000 0.0000 0.0000
# 4 0.0000 0.0000 0.0000 20.3405 0.0000 0.0000
# 5 0.0000 0.0000 0.0000 0.0000 15.2550 0.0000
# 6 0.0000 0.0000 0.0000 0.0000 0.0000 19.4808
#
#
#
# Elastic Compliance Matrix: (Units=1/GPa)
#
#
# Indices 1 2 3 4 5 6 
#
# 1 0.006608 -0.002781 -0.003501 0.000000 0.000000 0.000000
# 2 -0.002781 0.023603 -0.017108 0.000000 0.000000 0.000000
# 3 -0.003501 -0.017108 0.038192 0.000000 0.000000 0.000000
# 4 0.000000 0.000000 0.000000 0.049163 0.000000 0.000000
# 5 0.000000 0.000000 0.000000 0.000000 0.065552 0.000000
# 6 0.000000 0.000000 0.000000 0.000000 0.000000 0.051333
#
#
# Mechanical properties :
#
#
# Convention : Reuss Voigt Hill
#
# Bulk Modulus (GPa) = 46.25157 65.68831 55.96994
# Shear Modulus (GPa) = 17.33470 23.42664 20.38067
#
# Velocity S-wave (km/s) = 2.84793 3.31075 3.08803
# Velocity P-wave (km/s) = 5.69693 6.73422 6.23717
#
# Compressibility (1/GPa) = 0.02162089
#
# Stress axis : x y z
#
# Youngs Moduli (GPa) = 151.34263 42.36717 26.18371
#
# Poissons Ratio (x) = 0.11782 0.09168
# Poissons Ratio (y) = 0.42088 0.44796
# Poissons Ratio (z) = 0.52992 0.72483
#
# Static dielectric constant tensor:
#      x y z
#    x 1.744320 0.000000 0.000000 
#    y 0.000000 1.823220 0.000000 
#    z 0.000000 0.000000 1.758520 
# 
# From -- ./inp_files/2725.got.cif
#   From: 2010.05.17/outbox.cif.g08.bks.cpg/sg29_2_cif.got.tgz:2725.got - 2010.06.04 01:19:37.
