data_PCOD9341450
_publ_section_title
;
Structure prediction by ZEFSAII (Michael W. Deem and Ramdas Pophale) SiO2 
 PCOD9341450
Probable space group: P C A 21
;
_chemical_formula_sum "Si O2"
_cell_formula_units_Z 32
_cell_length_a 10.865362
_cell_length_b 8.405871
_cell_length_c 15.744833
_cell_angle_alpha 90.000000
_cell_angle_beta 90.000000
_cell_angle_gamma 90.000000
_cell_volume 1438.020177
_symmetry_space_group_name_H-M "P C A 21"
_symmetry_group_IT_number 29
_symmetry_cell_setting 'orthorhombic'
loop_
_space_group_symop_operation_xyz
x,y,z
-x,-y,1/2+z
1/2-x,y,1/2+z
1/2+x,-y,z
loop_
_atom_site_type_symbol
_atom_site_label
_atom_site_fract_x
_atom_site_fract_y
_atom_site_fract_z
Si Si1 0.417364 0.161563 0.480590
Si Si2 0.121328 0.798743 0.727905
Si Si3 0.417364 0.838438 0.570460
Si Si4 0.337668 0.313586 0.014617
Si Si5 0.627890 0.840355 0.785266
Si Si6 0.121327 0.201259 0.323146
Si Si7 0.872112 0.159643 0.765783
Si Si8 0.662331 0.313587 0.536434
O O1 0.297092 0.234058 0.527735
O O2 0.372215 0.122323 0.385766
O O3 0.543562 0.262351 0.481003
O O4 0.453191 0.999999 0.525524
O O5 0.244580 0.751939 0.779429
O O6 0.125726 0.734729 0.632823
O O7 0.000001 0.745214 0.775526
O O8 0.122398 0.993850 0.733246
O O9 0.543563 0.737651 0.570048
O O10 0.372217 0.877682 0.665284
O O11 0.297092 0.765941 0.523316
O O12 0.374274 0.265274 0.918228
O O13 0.320691 0.500000 0.025526
O O14 0.755423 0.751937 0.771621
O O15 0.500000 0.749378 0.775524
O O16 0.122397 0.006152 0.317805
#
# Coordination Sequence:
#
# PCOD9341450 Si02
#       8
#     4   4   4   4   4   4   4   4
#     4  11  22  38  65  94 123 166 217 264 306 367
#     4   9  18  34  58  85 119 157 198 249 303 363
#     4  11  22  38  65  94 123 166 217 264 306 367
#     4  11  24  41  61  92 133 170 205 255 323 383
#     4   9  18  33  56  89 117 148 203 259 304 352
#     4   9  18  34  58  85 119 157 198 249 303 363
#     4   9  18  33  56  89 117 148 203 259 304 352
#     4  11  24  41  61  92 133 170 205 255 323 383
#
# _framework density 22.252814999999998
#
# number of rings (size 3 to 8) (size 9 to 14) (size 15 to 20)
#    0.000    2.000    0.000    4.500    0.000    8.000 
#    0.000    1.250    0.000   15.000    0.000    0.000 
#    0.000    0.000    0.000    0.000    0.000    0.000 
#
# Total GULP energy -178552.546853 kJ/mol
# GULP energy per Si atom -5579.767089 kJ/mol
# Density = 2.220217 g / cm^3
# Si number density = 22.252815 Si / 1000 Ang^3
#
#
#
# Elastic Constant Matrix: (Units=GPa)
#
#
# Indices 1 2 3 4 5 6 
#
# 1 184.7246 12.3526 0.0970 0.0000 0.0000 0.0000
# 2 12.3526 58.6475 13.1098 0.0000 0.0000 0.0000
# 3 0.0970 13.1098 58.9245 0.0000 0.0000 0.0000
# 4 0.0000 0.0000 0.0000 9.7047 0.0000 0.0000
# 5 0.0000 0.0000 0.0000 0.0000 37.9635 0.0000
# 6 0.0000 0.0000 0.0000 0.0000 0.0000 20.4675
#
#
#
# Elastic Compliance Matrix: (Units=1/GPa)
#
#
# Indices 1 2 3 4 5 6 
#
# 1 0.005495 -0.001216 0.000261 0.000000 0.000000 0.000000
# 2 -0.001216 0.018212 -0.004050 0.000000 0.000000 0.000000
# 3 0.000261 -0.004050 0.017872 0.000000 0.000000 0.000000
# 4 0.000000 0.000000 0.000000 0.103043 0.000000 0.000000
# 5 0.000000 0.000000 0.000000 0.000000 0.026341 0.000000
# 6 0.000000 0.000000 0.000000 0.000000 0.000000 0.048858
#
#
# Mechanical properties :
#
#
# Convention : Reuss Voigt Hill
#
# Bulk Modulus (GPa) = 31.67569 39.26839 35.47204
# Shear Modulus (GPa) = 20.80279 32.07628 26.43953
#
# Velocity S-wave (km/s) = 3.06083 3.80076 3.45068
# Velocity P-wave (km/s) = 5.17271 6.07831 5.64370
#
# Compressibility (1/GPa) = 0.03156995
#
# Stress axis : x y z
#
# Youngs Moduli (GPa) = 181.99601 54.90759 55.95497
#
# Poissons Ratio (x) = 0.06675 -0.01463
# Poissons Ratio (y) = 0.22126 0.22662
# Poissons Ratio (z) = -0.04758 0.22238
#
# Static dielectric constant tensor:
#      x y z
#    x 1.976140 0.000000 0.000000 
#    y 0.000000 1.762730 0.000000 
#    z 0.000000 0.000000 1.841000 
# 
# From -- ./inp_files/4598.got.cif
#   From: 2010.05.17/outbox.cif.g08.bks.cpg/sg29_3_cif.got.tgz:4598.got - 2010.06.04 01:19:37.
