data_PCOD9341750
_publ_section_title
;
Structure prediction by ZEFSAII (Michael W. Deem and Ramdas Pophale) SiO2 
 PCOD9341750
Probable space group: P C A 21
;
_chemical_formula_sum "Si O2"
_cell_formula_units_Z 16
_cell_length_a 5.774367
_cell_length_b 11.921751
_cell_length_c 8.911202
_cell_angle_alpha 90.000000
_cell_angle_beta 90.000000
_cell_angle_gamma 90.000000
_cell_volume 613.452185
_symmetry_space_group_name_H-M "P C A 21"
_symmetry_group_IT_number 29
_symmetry_cell_setting 'orthorhombic'
loop_
_space_group_symop_operation_xyz
x,y,z
-x,-y,1/2+z
1/2-x,y,1/2+z
1/2+x,-y,z
loop_
_atom_site_type_symbol
_atom_site_label
_atom_site_fract_x
_atom_site_fract_y
_atom_site_fract_z
Si Si1 0.943199 0.435781 0.010380
Si Si2 0.466455 0.911544 0.240988
Si Si3 0.325310 0.709491 0.727111
Si Si4 0.646867 0.863643 0.558540
O O1 0.700225 0.509144 0.010839
O O2 0.884334 0.362763 0.158319
O O3 0.937099 0.361361 0.859475
O O4 0.260112 0.829414 0.287363
O O5 0.613796 0.909257 0.392657
O O6 0.590316 0.846412 0.104521
O O7 0.411703 0.030423 0.167097
O O8 0.502189 0.752436 0.597731
#
# Coordination Sequence:
#
# PCOD9341750 Si02
#       4
#     4   4   4   4
#     4  12  30  54  80 112 152 208 280 340 398 466
#     4  12  27  45  74 113 159 204 258 316 397 492
#     4  12  28  48  78 110 154 206 256 332 408 464
#     4  12  27  45  74 113 159 204 258 316 397 492
#
# _framework density 26.081900000000001
#
# number of rings (size 3 to 8) (size 9 to 14) (size 15 to 20)
#    0.000    0.000    5.000    3.000   14.000    0.000 
#    0.000    0.000    0.000    0.000    0.000    0.000 
#    0.000    0.000    0.000    0.000    0.000    0.000 
#
# Total GULP energy -89405.151095 kJ/mol
# GULP energy per Si atom -5587.821943 kJ/mol
# Density = 2.602254 g / cm^3
# Si number density = 26.081900 Si / 1000 Ang^3
#
#
#
# Elastic Constant Matrix: (Units=GPa)
#
#
# Indices 1 2 3 4 5 6 
#
# 1 84.6961 42.5012 2.2691 0.0000 0.0000 0.0000
# 2 42.5012 94.5305 15.9602 0.0000 0.0000 0.0000
# 3 2.2691 15.9602 109.0515 0.0000 0.0000 0.0000
# 4 0.0000 0.0000 0.0000 40.4199 0.0000 0.0000
# 5 0.0000 0.0000 0.0000 0.0000 36.9163 0.0000
# 6 0.0000 0.0000 0.0000 0.0000 0.0000 58.0577
#
#
#
# Elastic Compliance Matrix: (Units=1/GPa)
#
#
# Indices 1 2 3 4 5 6 
#
# 1 0.015300 -0.006998 0.000706 0.000000 0.000000 0.000000
# 2 -0.006998 0.014047 -0.001910 0.000000 0.000000 0.000000
# 3 0.000706 -0.001910 0.009435 0.000000 0.000000 0.000000
# 4 0.000000 0.000000 0.000000 0.024740 0.000000 0.000000
# 5 0.000000 0.000000 0.000000 0.000000 0.027088 0.000000
# 6 0.000000 0.000000 0.000000 0.000000 0.000000 0.017224
#
#
# Mechanical properties :
#
#
# Convention : Reuss Voigt Hill
#
# Bulk Modulus (GPa) = 44.68848 45.52657 45.10752
# Shear Modulus (GPa) = 37.96546 42.24862 40.10704
#
# Velocity S-wave (km/s) = 3.81940 4.02910 3.92565
# Velocity P-wave (km/s) = 6.05158 6.25603 6.15465
#
# Compressibility (1/GPa) = 0.02237713
#
# Stress axis : x y z
#
# Youngs Moduli (GPa) = 65.36099 71.18738 105.98975
#
# Poissons Ratio (x) = 0.49817 -0.07481
# Poissons Ratio (y) = 0.45739 0.20247
# Poissons Ratio (z) = -0.04613 0.13599
#
# Static dielectric constant tensor:
#      x y z
#    x 2.410280 0.000000 0.000000 
#    y 0.000000 2.106460 0.000000 
#    z 0.000000 0.000000 1.972900 
# 
# From -- ./inp_files/962.got.cif
#   From: 2010.05.17/outbox.cif.g08.bks.cpg/sg29_1_cif.got.tgz:962.got - 2010.06.04 01:19:37.
