data_PCOD9341793
_publ_section_title
;
Structure prediction by ZEFSAII (Michael W. Deem and Ramdas Pophale) SiO2 
 PCOD9341793
Probable space group: P C A 21
;
_chemical_formula_sum "Si O2"
_cell_formula_units_Z 24
_cell_length_a 9.000000
_cell_length_b 12.000000
_cell_length_c 9.000000
_cell_angle_alpha 90.000000
_cell_angle_beta 90.000000
_cell_angle_gamma 90.000000
_cell_volume 972.000000
_symmetry_space_group_name_H-M "P C A 21"
_symmetry_group_IT_number 29
_symmetry_cell_setting 'orthorhombic'
loop_
_space_group_symop_operation_xyz
x,y,z
-x,-y,1/2+z
1/2-x,y,1/2+z
1/2+x,-y,z
loop_
_atom_site_type_symbol
_atom_site_label
_atom_site_fract_x
_atom_site_fract_y
_atom_site_fract_z
Si Si1 0.607511 0.936969 0.222290
Si Si2 0.729776 0.634255 0.813048
Si Si3 0.459410 0.643234 0.634252
Si Si4 0.548889 0.727992 0.070821
Si Si5 0.077231 0.114171 0.572278
Si Si6 0.705520 0.406567 0.423855
O O1 0.506178 0.849457 0.128496
O O2 0.772434 0.913461 0.161565
O O3 0.589916 0.921464 0.399125
O O4 0.554364 0.054611 0.162035
O O5 0.593819 0.580456 0.718973
O O6 0.849960 0.681921 0.702498
O O7 0.809184 0.538129 0.904283
O O8 0.651834 0.722907 0.922699
O O9 0.538670 0.756628 0.586108
O O10 0.335370 0.649154 0.765735
O O11 0.368579 0.604428 0.492207
O O12 0.412179 0.650134 0.032729
#
# Coordination Sequence:
#
# PCOD9341793 Si02
#       6
#     4   4   4   4   4   4
#     4  12  28  52  83 118 154 208 259 331 402 483
#     4  11  25  49  73 106 156 210 263 312 400 463
#     4  11  28  50  75 112 160 201 264 329 396 467
#     4  11  26  48  77 111 160 199 262 325 395 468
#     4  12  29  51  85 115 158 205 264 327 410 477
#     4  11  28  46  75 112 154 207 270 322 385 474
#
# _framework density 24.691358000000001
#
# number of rings (size 3 to 8) (size 9 to 14) (size 15 to 20)
#    0.000    0.667    1.667    3.000   11.667   10.667 
#    0.000    0.000    0.000    0.000    0.000    0.000 
#    0.000    0.000    0.000    0.000    0.000    0.000 
#
# Total GULP energy -134369.609068 kJ/mol
# GULP energy per Si atom -5598.733711 kJ/mol
# Density = 2.463516 g / cm^3
# Si number density = 24.691358 Si / 1000 Ang^3
#
#
#
# Elastic Constant Matrix: (Units=GPa)
#
#
# Indices 1 2 3 4 5 6 
#
# 1 73.6244 16.9089 23.8565 0.0000 0.0000 0.0000
# 2 16.9089 46.2397 3.2054 0.0000 0.0000 0.0000
# 3 23.8565 3.2054 132.3470 0.0000 0.0000 0.0000
# 4 0.0000 0.0000 0.0000 41.0702 0.0000 0.0000
# 5 0.0000 0.0000 0.0000 0.0000 43.8036 0.0000
# 6 0.0000 0.0000 0.0000 0.0000 0.0000 39.7430
#
#
#
# Elastic Compliance Matrix: (Units=1/GPa)
#
#
# Indices 1 2 3 4 5 6 
#
# 1 0.015737 -0.005567 -0.002702 0.000000 0.000000 0.000000
# 2 -0.005567 0.023632 0.000431 0.000000 0.000000 0.000000
# 3 -0.002702 0.000431 0.008032 0.000000 0.000000 0.000000
# 4 0.000000 0.000000 0.000000 0.024349 0.000000 0.000000
# 5 0.000000 0.000000 0.000000 0.000000 0.022829 0.000000
# 6 0.000000 0.000000 0.000000 0.000000 0.000000 0.025162
#
#
# Mechanical properties :
#
#
# Convention : Reuss Voigt Hill
#
# Bulk Modulus (GPa) = 31.52021 37.79474 34.65748
# Shear Modulus (GPa) = 34.24854 38.80605 36.52730
#
# Velocity S-wave (km/s) = 3.72837 3.96870 3.85041
# Velocity P-wave (km/s) = 5.59712 6.02834 5.81673
#
# Compressibility (1/GPa) = 0.03172567
#
# Stress axis : x y z
#
# Youngs Moduli (GPa) = 63.54651 42.31484 124.49477
#
# Poissons Ratio (x) = 0.23558 0.33636
# Poissons Ratio (y) = 0.35378 -0.05368
# Poissons Ratio (z) = 0.17169 -0.01824
#
# Static dielectric constant tensor:
#      x y z
#    x 1.950180 0.000000 0.000000 
#    y 0.000000 2.041960 0.000000 
#    z 0.000000 0.000000 1.973060 
# 
# From -- ./inp_files/1137.got.cif
#   From: 2010.05.17/outbox.ucp.g08.bks.cvg/sg29_1_cif.got.tgz:1137.got - 2010.06.11 15:24:14.
