data_PCOD9341941
_publ_section_title
;
Structure prediction by ZEFSAII (Michael W. Deem and Ramdas Pophale) SiO2 
 PCOD9341941
Probable space group: P N C 2
;
_chemical_formula_sum "Si O2"
_cell_formula_units_Z 28
_cell_length_a 8.393283
_cell_length_b 17.716841
_cell_length_c 9.399560
_cell_angle_alpha 90.000000
_cell_angle_beta 90.000000
_cell_angle_gamma 90.000000
_cell_volume 1397.737698
_symmetry_space_group_name_H-M "P N C 2"
_symmetry_group_IT_number 30
_symmetry_cell_setting 'orthorhombic'
loop_
_space_group_symop_operation_xyz
x,y,z
-x,-y,z
-x,1/2+y,1/2+z
x,1/2-y,1/2+z
loop_
_atom_site_type_symbol
_atom_site_label
_atom_site_fract_x
_atom_site_fract_y
_atom_site_fract_z
Si Si1 0.445031 0.132345 0.589150
Si Si2 0.732414 0.227193 0.461065
Si Si3 0.395072 0.090518 0.302376
Si Si4 0.707823 0.045370 0.142576
Si Si5 0.523514 0.129815 0.902463
Si Si6 0.920087 0.178606 0.192184
Si Si7 0.283786 0.291145 0.619399
O O1 0.608132 0.165705 0.520632
O O2 0.375625 0.076937 0.468854
O O3 0.474356 0.102450 0.746957
O O4 0.328541 0.204287 0.602635
O O5 0.634446 0.295684 0.387201
O O6 0.866634 0.195779 0.354014
O O7 0.810533 0.267661 0.595989
O O8 0.575341 0.076067 0.253746
O O9 0.361195 0.176928 0.264765
O O10 0.285824 0.040184 0.197164
O O11 0.866729 0.093137 0.157749
O O12 0.623163 0.067701 0.993456
O O13 0.373741 0.160825 0.995723
O O14 0.098206 0.195183 0.143049
#
# Coordination Sequence:
#
# PCOD9341941 Si02
#       7
#     4   4   4   4   4   4   4
#     4  11  19  35  59  89 118 151 195 258 299 349
#     4  10  19  33  55  86 116 154 193 244 299 347
#     4  10  20  38  59  83 113 157 205 243 291 366
#     4   9  20  39  59  80 112 160 207 235 293 366
#     4   9  19  36  55  83 119 156 191 248 300 357
#     4  11  21  34  56  88 122 154 198 245 297 358
#     4  10  22  33  56  86 125 158 189 243 306 361
#
# _framework density 20.032368999999999
#
# number of rings (size 3 to 8) (size 9 to 14) (size 15 to 20)
#    0.000    2.000    2.857    2.571    4.000    0.571 
#    0.000    5.714    0.000    0.000    0.000    6.000 
#    0.000    0.000    0.000    0.000    0.000    0.000 
#
# Total GULP energy -156112.939932 kJ/mol
# GULP energy per Si atom -5575.462140 kJ/mol
# Density = 1.998677 g / cm^3
# Si number density = 20.032369 Si / 1000 Ang^3
#
#
#
# Elastic Constant Matrix: (Units=GPa)
#
#
# Indices 1 2 3 4 5 6 
#
# 1 76.4857 11.1245 9.8019 0.0000 0.0000 0.0000
# 2 11.1245 54.0768 30.1343 0.0000 0.0000 0.0000
# 3 9.8019 30.1343 146.6115 0.0000 0.0000 0.0000
# 4 0.0000 0.0000 0.0000 11.5199 0.0000 0.0000
# 5 0.0000 0.0000 0.0000 0.0000 14.5563 0.0000
# 6 0.0000 0.0000 0.0000 0.0000 0.0000 13.3326
#
#
#
# Elastic Compliance Matrix: (Units=1/GPa)
#
#
# Indices 1 2 3 4 5 6 
#
# 1 0.013496 -0.002568 -0.000375 0.000000 0.000000 0.000000
# 2 -0.002568 0.021373 -0.004221 0.000000 0.000000 0.000000
# 3 -0.000375 -0.004221 0.007713 0.000000 0.000000 0.000000
# 4 0.000000 0.000000 0.000000 0.086806 0.000000 0.000000
# 5 0.000000 0.000000 0.000000 0.000000 0.068699 0.000000
# 6 0.000000 0.000000 0.000000 0.000000 0.000000 0.075004
#
#
# Mechanical properties :
#
#
# Convention : Reuss Voigt Hill
#
# Bulk Modulus (GPa) = 35.39180 42.14393 38.76786
# Shear Modulus (GPa) = 16.84430 22.95599 19.90015
#
# Velocity S-wave (km/s) = 2.90289 3.38885 3.15524
# Velocity P-wave (km/s) = 5.37972 6.03291 5.71565
#
# Compressibility (1/GPa) = 0.02825514
#
# Stress axis : x y z
#
# Youngs Moduli (GPa) = 74.09720 46.78867 129.64425
#
# Poissons Ratio (x) = 0.12013 0.04856
# Poissons Ratio (y) = 0.19025 0.54726
# Poissons Ratio (z) = 0.02775 0.19751
#
# Static dielectric constant tensor:
#      x y z
#    x 1.720640 0.000000 0.000000 
#    y 0.000000 1.813060 0.000000 
#    z 0.000000 0.000000 1.739720 
# 
# From -- ./inp_files/2075.got.cif
#   From: 2010.05.17/outbox.cif.g08.bks.cpg/sg30_2_cif.got.tgz:2075.got - 2010.06.03 17:03:02.
