data_PCOD9341028
_publ_section_title
;
Structure prediction by ZEFSAII (Michael W. Deem and Ramdas Pophale) SiO2 
 PCOD9341028
Probable space group: P C A 21
;
_chemical_formula_sum "Si O2"
_cell_formula_units_Z 32
_cell_length_a 13.490214
_cell_length_b 5.045913
_cell_length_c 19.115194
_cell_angle_alpha 90.000000
_cell_angle_beta 90.000000
_cell_angle_gamma 90.000000
_cell_volume 1301.179785
_symmetry_space_group_name_H-M "P C A 21"
_symmetry_group_IT_number 29
_symmetry_cell_setting 'orthorhombic'
loop_
_space_group_symop_operation_xyz
x,y,z
-x,-y,1/2+z
1/2-x,y,1/2+z
1/2+x,-y,z
loop_
_atom_site_type_symbol
_atom_site_label
_atom_site_fract_x
_atom_site_fract_y
_atom_site_fract_z
Si Si1 0.712005 0.783361 0.616480
Si Si2 0.846361 0.134370 0.994516
Si Si3 0.220182 0.864725 0.220688
Si Si4 0.103904 0.516137 0.109661
Si Si5 0.930057 0.433118 0.195411
Si Si6 0.415407 0.365537 0.347025
Si Si7 0.474250 0.368725 0.977244
Si Si8 0.286080 0.854716 0.364079
O O1 0.687851 0.035495 0.570074
O O2 0.797499 0.619672 0.579316
O O3 0.612113 0.651434 0.641990
O O4 0.766854 0.845469 0.689458
O O5 0.931432 0.926388 0.970014
O O6 0.885680 0.431486 0.997596
O O7 0.758833 0.103094 0.939576
O O8 0.144338 0.714898 0.169937
O O9 0.332971 0.746239 0.210981
O O10 0.204239 0.886937 0.302942
O O11 0.024340 0.330365 0.151539
O O12 0.052018 0.634078 0.040885
O O13 0.956883 0.565791 0.269808
O O14 0.483687 0.487567 0.407978
O O15 0.319180 0.551685 0.356217
O O16 0.376470 0.063379 0.352441
#
# Coordination Sequence:
#
# PCOD9341028 Si02
#       8
#     4   4   4   4   4   4   4   4
#     4  11  23  43  70  97 137 191 231 292 355 418
#     4  12  27  44  73  99 148 185 237 302 353 428
#     4  10  24  41  71  99 138 184 237 283 360 420
#     4  11  25  41  71 103 137 185 239 288 350 429
#     4  10  22  45  66  99 141 178 231 296 347 420
#     4  11  24  45  71  99 141 186 232 294 356 425
#     4  12  27  45  68 108 142 186 240 294 361 416
#     4  11  24  46  70 100 140 187 235 289 358 428
#
# _framework density 24.593067999999999
#
# number of rings (size 3 to 8) (size 9 to 14) (size 15 to 20)
#    0.000    1.000    2.500    3.000    7.000    2.000 
#    0.000    0.000    0.000    0.000    0.000    0.000 
#    0.000    0.000    0.000    0.000    0.000    0.000 
#
# Total GULP energy -178852.315235 kJ/mol
# GULP energy per Si atom -5589.134851 kJ/mol
# Density = 2.453709 g / cm^3
# Si number density = 24.593068 Si / 1000 Ang^3
#
#
#
# Elastic Constant Matrix: (Units=GPa)
#
#
# Indices 1 2 3 4 5 6 
#
# 1 68.7044 2.3012 33.9796 0.0000 0.0000 0.0000
# 2 2.3012 52.5970 -5.3712 0.0000 0.0000 0.0000
# 3 33.9796 -5.3712 129.2625 0.0000 0.0000 0.0000
# 4 0.0000 0.0000 0.0000 31.4907 0.0000 0.0000
# 5 0.0000 0.0000 0.0000 0.0000 41.0175 0.0000
# 6 0.0000 0.0000 0.0000 0.0000 0.0000 30.7120
#
#
#
# Elastic Compliance Matrix: (Units=1/GPa)
#
#
# Indices 1 2 3 4 5 6 
#
# 1 0.016804 -0.001191 -0.004467 0.000000 0.000000 0.000000
# 2 -0.001191 0.019178 0.001110 0.000000 0.000000 0.000000
# 3 -0.004467 0.001110 0.008957 0.000000 0.000000 0.000000
# 4 0.000000 0.000000 0.000000 0.031755 0.000000 0.000000
# 5 0.000000 0.000000 0.000000 0.000000 0.024380 0.000000
# 6 0.000000 0.000000 0.000000 0.000000 0.000000 0.032561
#
#
# Mechanical properties :
#
#
# Convention : Reuss Voigt Hill
#
# Bulk Modulus (GPa) = 27.89991 34.70923 31.30457
# Shear Modulus (GPa) = 32.32515 35.28767 33.80641
#
# Velocity S-wave (km/s) = 3.62940 3.79207 3.71162
# Velocity P-wave (km/s) = 5.37891 5.77210 5.57897
#
# Compressibility (1/GPa) = 0.03584241
#
# Stress axis : x y z
#
# Youngs Moduli (GPa) = 59.50881 52.14314 111.65026
#
# Poissons Ratio (x) = 0.06212 0.49873
# Poissons Ratio (y) = 0.07090 -0.12394
# Poissons Ratio (z) = 0.26582 -0.05788
#
# Static dielectric constant tensor:
#      x y z
#    x 2.007860 0.000000 0.000000 
#    y 0.000000 1.974650 0.000000 
#    z 0.000000 0.000000 1.951600 
# 
# From -- ./inp_files/5232.got.cif
#   From: 2010.05.17/outbox.cif.g08.bks.cpg/sg29_3_cif.got.tgz:5232.got - 2010.06.04 01:19:37.
