data_PCOD9341060
_publ_section_title
;
Structure prediction by ZEFSAII (Michael W. Deem and Ramdas Pophale) SiO2 
 PCOD9341060
Probable space group: P C A 21
;
_chemical_formula_sum "Si O2"
_cell_formula_units_Z 28
_cell_length_a 22.181890
_cell_length_b 5.991801
_cell_length_c 8.823355
_cell_angle_alpha 90.000000
_cell_angle_beta 90.000000
_cell_angle_gamma 90.000000
_cell_volume 1172.707443
_symmetry_space_group_name_H-M "P C A 21"
_symmetry_group_IT_number 29
_symmetry_cell_setting 'orthorhombic'
loop_
_space_group_symop_operation_xyz
x,y,z
-x,-y,1/2+z
1/2-x,y,1/2+z
1/2+x,-y,z
loop_
_atom_site_type_symbol
_atom_site_label
_atom_site_fract_x
_atom_site_fract_y
_atom_site_fract_z
Si Si1 0.886273 0.005341 0.340940
Si Si2 0.106381 0.327051 0.118364
Si Si3 0.286024 0.094457 0.787767
Si Si4 0.495289 0.661276 0.327014
Si Si5 0.079097 0.347804 0.621471
Si Si6 0.791174 0.650415 0.074655
Si Si7 0.310642 0.713039 0.548940
O O1 0.828887 0.153599 0.395520
O O2 0.946560 0.150078 0.359464
O O3 0.885477 0.810334 0.465398
O O4 0.896681 0.894148 0.176690
O O5 0.154395 0.227717 0.235281
O O6 0.041337 0.290952 0.189917
O O7 0.128083 0.579739 0.092801
O O8 0.230175 0.245143 0.732426
O O9 0.292306 0.868061 0.691897
O O10 0.287322 0.131528 0.966116
O O11 0.456960 0.453808 0.262085
O O12 0.536221 0.635862 0.476164
O O13 0.143274 0.460857 0.583605
O O14 0.741924 0.467133 0.026011
#
# Coordination Sequence:
#
# PCOD9341060 Si02
#       7
#     4   4   4   4   4   4   4
#     4  11  24  44  75 103 145 192 245 306 371 438
#     4  10  22  48  72 104 147 188 247 301 358 450
#     4  10  24  45  72 104 146 187 240 302 370 439
#     4  12  25  47  73 105 144 201 243 311 370 429
#     4  12  27  46  72 110 148 189 256 307 369 451
#     4  11  26  47  72 110 148 187 252 305 370 461
#     4  10  24  47  78 102 148 196 239 306 382 436
#
# _framework density 23.876370000000001
#
# number of rings (size 3 to 8) (size 9 to 14) (size 15 to 20)
#    0.000    1.143    1.429    3.429    8.000    4.571 
#    2.571    0.000    0.000    0.000    0.000    0.000 
#    0.000    0.000    0.000    0.000    0.000    0.000 
#
# Total GULP energy -156492.416296 kJ/mol
# GULP energy per Si atom -5589.014868 kJ/mol
# Density = 2.382203 g / cm^3
# Si number density = 23.876370 Si / 1000 Ang^3
#
#
#
# Elastic Constant Matrix: (Units=GPa)
#
#
# Indices 1 2 3 4 5 6 
#
# 1 143.0580 33.6693 43.4901 0.0000 0.0000 0.0000
# 2 33.6693 86.9302 39.7036 0.0000 0.0000 0.0000
# 3 43.4901 39.7036 103.6135 0.0000 0.0000 0.0000
# 4 0.0000 0.0000 0.0000 31.8328 0.0000 0.0000
# 5 0.0000 0.0000 0.0000 0.0000 49.9463 0.0000
# 6 0.0000 0.0000 0.0000 0.0000 0.0000 27.4072
#
#
#
# Elastic Compliance Matrix: (Units=1/GPa)
#
#
# Indices 1 2 3 4 5 6 
#
# 1 0.008280 -0.001963 -0.002723 0.000000 0.000000 0.000000
# 2 -0.001963 0.014409 -0.004697 0.000000 0.000000 0.000000
# 3 -0.002723 -0.004697 0.012594 0.000000 0.000000 0.000000
# 4 0.000000 0.000000 0.000000 0.031414 0.000000 0.000000
# 5 0.000000 0.000000 0.000000 0.000000 0.020022 0.000000
# 6 0.000000 0.000000 0.000000 0.000000 0.000000 0.036487
#
#
# Mechanical properties :
#
#
# Convention : Reuss Voigt Hill
#
# Bulk Modulus (GPa) = 60.54741 63.03642 61.79192
# Shear Modulus (GPa) = 33.90310 36.28650 35.09480
#
# Velocity S-wave (km/s) = 3.77230 3.90265 3.83803
# Velocity P-wave (km/s) = 6.66239 6.83857 6.75105
#
# Compressibility (1/GPa) = 0.01651598
#
# Stress axis : x y z
#
# Youngs Moduli (GPa) = 120.77189 69.39933 79.40119
#
# Poissons Ratio (x) = 0.13625 0.21622
# Poissons Ratio (y) = 0.23711 0.37299
# Poissons Ratio (z) = 0.32888 0.32600
#
# Static dielectric constant tensor:
#      x y z
#    x 1.966060 0.000000 0.000000 
#    y 0.000000 1.936940 0.000000 
#    z 0.000000 0.000000 1.926420 
# 
# From -- ./inp_files/2439.got.cif
#   From: 2010.05.17/outbox.cif.g08.bks.cpg/sg29_2_cif.got.tgz:2439.got - 2010.06.04 01:19:37.
