data_PCOD9341978
_publ_section_title
;
Structure prediction by ZEFSAII (Michael W. Deem and Ramdas Pophale) SiO2 
 PCOD9341978
Probable space group: P N C 2
;
_chemical_formula_sum "Si O2"
_cell_formula_units_Z 32
_cell_length_a 7.898808
_cell_length_b 24.441688
_cell_length_c 9.576189
_cell_angle_alpha 90.000000
_cell_angle_beta 90.000000
_cell_angle_gamma 90.000000
_cell_volume 1848.780970
_symmetry_space_group_name_H-M "P N C 2"
_symmetry_group_IT_number 30
_symmetry_cell_setting 'orthorhombic'
loop_
_space_group_symop_operation_xyz
x,y,z
-x,-y,z
-x,1/2+y,1/2+z
x,1/2-y,1/2+z
loop_
_atom_site_type_symbol
_atom_site_label
_atom_site_fract_x
_atom_site_fract_y
_atom_site_fract_z
Si Si1 0.000000 0.692345 0.154150
Si Si2 0.701305 1.000000 0.165440
Si Si3 0.705660 0.500000 0.982375
Si Si4 0.695132 0.391676 0.151649
Si Si5 0.190795 0.405777 0.457657
Si Si6 0.304868 0.391676 0.151649
Si Si7 1.000000 0.196429 0.984829
Si Si8 0.809205 0.094223 0.957657
O O1 0.832061 0.656028 0.127154
O O2 0.000000 0.747883 0.067488
O O3 0.000000 0.705904 0.318914
O O4 0.167939 0.656028 0.127154
O O5 0.753223 0.053050 0.076682
O O6 0.500000 0.000000 0.175124
O O7 0.769863 1.000000 0.323261
O O8 0.753222 0.946950 0.076682
O O9 0.500000 0.500000 0.979132
O O10 0.751360 0.445173 0.065586
O O11 0.751360 0.554828 0.065587
O O12 0.500000 0.377857 0.114586
O O13 0.701184 0.405609 0.317161
O O14 0.298816 0.405609 0.317161
O O15 0.160232 0.343908 0.512909
O O16 0.000000 0.422258 0.412002
O O17 0.839767 0.156092 0.012909
#
# Coordination Sequence:
#
# PCOD9341978 Si02
#       8
#     4   4   4   4   4   4   4   4
#     4  10  20  39  54  83 103 144 186 226 273 320
#     4  11  20  33  52  82 119 142 178 229 273 326
#     4   9  21  34  49  81 115 142 176 223 275 326
#     4  10  19  37  59  79 109 145 183 224 268 325
#     4   9  19  36  54  81 104 146 187 217 266 335
#     4  10  19  37  59  79 109 145 183 224 268 325
#     4   8  20  35  56  71 111 134 182 234 257 324
#     4   9  19  36  54  81 104 146 187 217 266 335
#
# _framework density 17.308702
#
# number of rings (size 3 to 8) (size 9 to 14) (size 15 to 20)
#    0.750    1.750    1.250    1.875    0.000    3.500 
#    4.500    6.250    0.000    0.000    0.000    0.000 
#    0.000    0.000    0.000    0.000    0.000    0.000 
#
# Total GULP energy -178169.217996 kJ/mol
# GULP energy per Si atom -5567.788062 kJ/mol
# Density = 1.726931 g / cm^3
# Si number density = 17.308702 Si / 1000 Ang^3
#
#
#
# Elastic Constant Matrix: (Units=GPa)
#
#
# Indices 1 2 3 4 5 6 
#
# 1 78.3625 48.0873 29.0370 0.0000 0.0000 0.0000
# 2 48.0873 178.9468 108.6561 0.0000 0.0000 0.0000
# 3 29.0370 108.6561 96.9875 0.0000 0.0000 0.0000
# 4 0.0000 0.0000 0.0000 38.5022 0.0000 0.0000
# 5 0.0000 0.0000 0.0000 0.0000 17.3276 0.0000
# 6 0.0000 0.0000 0.0000 0.0000 0.0000 4.2869
#
#
#
# Elastic Compliance Matrix: (Units=1/GPa)
#
#
# Indices 1 2 3 4 5 6 
#
# 1 0.015281 -0.004155 0.000080 0.000000 0.000000 0.000000
# 2 -0.004155 0.018607 -0.019601 0.000000 0.000000 0.000000
# 3 0.000080 -0.019601 0.032246 0.000000 0.000000 0.000000
# 4 0.000000 0.000000 0.000000 0.025973 0.000000 0.000000
# 5 0.000000 0.000000 0.000000 0.000000 0.057711 0.000000
# 6 0.000000 0.000000 0.000000 0.000000 0.000000 0.233269
#
#
# Mechanical properties :
#
#
# Convention : Reuss Voigt Hill
#
# Bulk Modulus (GPa) = 53.24456 80.65086 66.94771
# Shear Modulus (GPa) = 11.44949 23.25777 17.35363
#
# Velocity S-wave (km/s) = 2.57473 3.66963 3.16981
# Velocity P-wave (km/s) = 6.29821 8.04063 7.22216
#
# Compressibility (1/GPa) = 0.01878126
#
# Stress axis : x y z
#
# Youngs Moduli (GPa) = 65.43942 53.74438 31.01129
#
# Poissons Ratio (x) = 0.22330 -0.00247
# Poissons Ratio (y) = 0.27189 0.60786
# Poissons Ratio (z) = -0.00521 1.05346
#
# Static dielectric constant tensor:
#      x y z
#    x 1.609610 0.000000 0.000000 
#    y 0.000000 1.597300 0.000000 
#    z 0.000000 0.000000 1.582300 
# 
# From -- ./inp_files/2163.got.cif
#   From: 2010.05.17/outbox.cif.g08.bks.cpg/sg30_2_cif.got.tgz:2163.got - 2010.06.03 17:03:02.
