data_PCOD9341876
_publ_section_title
;
Structure prediction by ZEFSAII (Michael W. Deem and Ramdas Pophale) SiO2 
 PCOD9341876
Probable space group: P N C 2
;
_chemical_formula_sum "Si O2"
_cell_formula_units_Z 22
_cell_length_a 11.374773
_cell_length_b 17.411841
_cell_length_c 5.317622
_cell_angle_alpha 90.000000
_cell_angle_beta 90.000000
_cell_angle_gamma 90.000000
_cell_volume 1053.185554
_symmetry_space_group_name_H-M "P N C 2"
_symmetry_group_IT_number 30
_symmetry_cell_setting 'orthorhombic'
loop_
_space_group_symop_operation_xyz
x,y,z
-x,-y,z
-x,1/2+y,1/2+z
x,1/2-y,1/2+z
loop_
_atom_site_type_symbol
_atom_site_label
_atom_site_fract_x
_atom_site_fract_y
_atom_site_fract_z
Si Si1 0.869652 0.130917 0.254940
Si Si2 0.641733 0.844269 0.170425
Si Si3 0.994446 0.844931 0.770801
Si Si4 0.000000 0.500000 0.516788
Si Si5 0.613427 0.197394 0.244195
Si Si6 0.262103 0.172619 0.669110
O O1 0.732980 0.149136 0.249041
O O2 0.926565 0.151281 0.522508
O O3 0.932628 0.176639 0.022031
O O4 0.903837 0.043335 0.186106
O O5 0.505086 0.852935 0.231056
O O6 0.721927 0.869297 0.403795
O O7 0.665504 0.752082 0.144099
O O8 0.683692 0.873897 0.901429
O O9 0.871611 0.803566 0.724277
O O10 0.953798 0.931925 0.840847
O O11 0.611937 0.249579 0.494677
#
# Coordination Sequence:
#
# PCOD9341876 Si02
#       6
#     4   4   4   2   4   4
#     4  10  22  38  59  87 112 154 188 244 291 339
#     4  10  19  35  54  81 114 156 183 216 280 344
#     4  10  20  38  57  85 109 144 194 243 290 329
#     4   8  22  40  58  86 106 152 202 236 300 330
#     4  12  21  39  57  85 125 152 189 228 288 357
#     4  10  18  34  55  79 112 152 181 226 276 339
#
# _framework density 20.889005999999998
#
# number of rings (size 3 to 8) (size 9 to 14) (size 15 to 20)
#    1.091    0.727    3.636    2.727    0.000    0.000 
#   19.636    0.000    0.000    1.091    0.000    0.000 
#    0.000    0.000    0.000    0.000    0.000    0.000 
#
# Total GULP energy -122651.467421 kJ/mol
# GULP energy per Si atom -5575.066701 kJ/mol
# Density = 2.084146 g / cm^3
# Si number density = 20.889006 Si / 1000 Ang^3
#
#
#
# Elastic Constant Matrix: (Units=GPa)
#
#
# Indices 1 2 3 4 5 6 
#
# 1 93.8094 -3.9586 -24.1764 0.0000 0.0000 0.0000
# 2 -3.9586 32.3083 1.1082 0.0000 0.0000 0.0000
# 3 -24.1764 1.1082 120.0242 0.0000 0.0000 0.0000
# 4 0.0000 0.0000 0.0000 103.3510 0.0000 0.0000
# 5 0.0000 0.0000 0.0000 0.0000 32.9066 0.0000
# 6 0.0000 0.0000 0.0000 0.0000 0.0000 4.0375
#
#
#
# Elastic Compliance Matrix: (Units=1/GPa)
#
#
# Indices 1 2 3 4 5 6 
#
# 1 0.011298 0.001307 0.002264 0.000000 0.000000 0.000000
# 2 0.001307 0.031113 -0.000024 0.000000 0.000000 0.000000
# 3 0.002264 -0.000024 0.008788 0.000000 0.000000 0.000000
# 4 0.000000 0.000000 0.000000 0.009676 0.000000 0.000000
# 5 0.000000 0.000000 0.000000 0.000000 0.030389 0.000000
# 6 0.000000 0.000000 0.000000 0.000000 0.000000 0.247678
#
#
# Mechanical properties :
#
#
# Convention : Reuss Voigt Hill
#
# Bulk Modulus (GPa) = 17.15505 21.34315 19.24910
# Shear Modulus (GPa) = 14.23366 46.27025 30.25195
#
# Velocity S-wave (km/s) = 2.61319 4.71154 3.80968
# Velocity P-wave (km/s) = 4.16357 6.31171 5.34664
#
# Compressibility (1/GPa) = 0.05829188
#
# Stress axis : x y z
#
# Youngs Moduli (GPa) = 88.50753 32.14122 113.79325
#
# Poissons Ratio (x) = -0.04200 -0.25760
# Poissons Ratio (y) = -0.11565 0.00274
# Poissons Ratio (z) = -0.20036 0.00077
#
# Static dielectric constant tensor:
#      x y z
#    x 1.755740 0.000000 0.000000 
#    y 0.000000 1.429210 0.000000 
#    z 0.000000 0.000000 1.852490 
# 
# From -- ./inp_files/471.got.cif
#   From: 2010.05.17/outbox.cif.g08.bks.cpg/sg30_1_cif.got.tgz:471.got - 2010.06.03 17:03:02.
