data_PCOD9341278
_publ_section_title
;
Structure prediction by ZEFSAII (Michael W. Deem and Ramdas Pophale) SiO2 
 PCOD9341278
Probable space group: P C A 21
;
_chemical_formula_sum "Si O2"
_cell_formula_units_Z 32
_cell_length_a 8.655190
_cell_length_b 13.922050
_cell_length_c 12.787914
_cell_angle_alpha 90.000000
_cell_angle_beta 90.000000
_cell_angle_gamma 90.000000
_cell_volume 1540.917907
_symmetry_space_group_name_H-M "P C A 21"
_symmetry_group_IT_number 29
_symmetry_cell_setting 'orthorhombic'
loop_
_space_group_symop_operation_xyz
x,y,z
-x,-y,1/2+z
1/2-x,y,1/2+z
1/2+x,-y,z
loop_
_atom_site_type_symbol
_atom_site_label
_atom_site_fract_x
_atom_site_fract_y
_atom_site_fract_z
Si Si1 0.216258 0.453184 0.054210
Si Si2 0.569964 0.409956 0.687984
Si Si3 0.273198 0.793629 0.192152
Si Si4 0.492090 0.601915 0.423417
Si Si5 0.447178 0.059597 0.686517
Si Si6 0.694729 0.065852 0.359786
Si Si7 0.079174 0.813798 0.979115
Si Si8 0.656727 0.942853 0.554085
O O1 0.324838 0.505613 0.139958
O O2 0.078788 0.394976 0.112005
O O3 0.339266 0.401645 0.977875
O O4 0.123998 0.533796 0.988045
O O5 0.680620 0.317201 0.696855
O O6 0.506311 0.431535 0.803513
O O7 0.436059 0.851674 0.195791
O O8 0.167774 0.840325 0.285105
O O9 0.186730 0.811301 0.082159
O O10 0.425730 0.709865 0.428051
O O11 0.330170 0.069154 0.590515
O O12 0.344413 0.023216 0.783915
O O13 0.559188 0.972468 0.655326
O O14 0.860070 0.101440 0.404070
O O15 0.628385 0.027648 0.469777
O O16 0.908842 0.844321 0.011199
#
# Coordination Sequence:
#
# PCOD9341278 Si02
#       8
#     4   4   4   4   4   4   4   4
#     4  10  24  44  70 100 136 170 222 274 348 398
#     4  11  23  43  71  98 133 176 217 277 335 407
#     4  12  24  42  64  97 130 172 223 271 325 392
#     4  11  23  43  71  98 133 176 217 277 335 407
#     4  12  24  40  61  88 127 169 218 265 317 382
#     4  12  22  40  66  88 128 174 216 262 328 376
#     4  12  24  42  64  97 130 172 223 271 325 392
#     4  12  24  40  61  88 127 169 218 265 317 382
#
# _framework density 20.766843999999999
#
# number of rings (size 3 to 8) (size 9 to 14) (size 15 to 20)
#    0.000    0.500    7.500    1.500    1.750    0.000 
#    0.000    0.000    2.750    0.000    0.000    0.000 
#    0.000    0.000    0.000    0.000    0.000    0.000 
#
# Total GULP energy -178218.157658 kJ/mol
# GULP energy per Si atom -5569.317427 kJ/mol
# Density = 2.071958 g / cm^3
# Si number density = 20.766844 Si / 1000 Ang^3
#
#
#
# Elastic Constant Matrix: (Units=GPa)
#
#
# Indices 1 2 3 4 5 6 
#
# 1 96.2420 11.5245 40.5535 0.0000 0.0000 0.0000
# 2 11.5245 48.8841 1.0335 0.0000 0.0000 0.0000
# 3 40.5535 1.0335 93.6021 0.0000 0.0000 0.0000
# 4 0.0000 0.0000 0.0000 26.5783 0.0000 0.0000
# 5 0.0000 0.0000 0.0000 0.0000 34.4324 0.0000
# 6 0.0000 0.0000 0.0000 0.0000 0.0000 30.4328
#
#
#
# Elastic Compliance Matrix: (Units=1/GPa)
#
#
# Indices 1 2 3 4 5 6 
#
# 1 0.013130 -0.002976 -0.005656 0.000000 0.000000 0.000000
# 2 -0.002976 0.021136 0.001056 0.000000 0.000000 0.000000
# 3 -0.005656 0.001056 0.013122 0.000000 0.000000 0.000000
# 4 0.000000 0.000000 0.000000 0.037625 0.000000 0.000000
# 5 0.000000 0.000000 0.000000 0.000000 0.029042 0.000000
# 6 0.000000 0.000000 0.000000 0.000000 0.000000 0.032859
#
#
# Mechanical properties :
#
#
# Convention : Reuss Voigt Hill
#
# Bulk Modulus (GPa) = 31.02059 38.32792 34.67426
# Shear Modulus (GPa) = 28.93331 30.66316 29.79823
#
# Velocity S-wave (km/s) = 3.73667 3.84675 3.79211
# Velocity P-wave (km/s) = 5.79542 6.18275 5.99222
#
# Compressibility (1/GPa) = 0.03223665
#
# Stress axis : x y z
#
# Youngs Moduli (GPa) = 76.16155 47.31315 76.20643
#
# Poissons Ratio (x) = 0.14080 0.43101
# Poissons Ratio (y) = 0.22664 -0.08047
# Poissons Ratio (z) = 0.43075 -0.04996
#
# Static dielectric constant tensor:
#      x y z
#    x 1.763080 0.000000 0.000000 
#    y 0.000000 1.731270 0.000000 
#    z 0.000000 0.000000 1.804020 
# 
# From -- ./inp_files/2924.got.cif
#   From: 2010.05.17/outbox.cif.g08.bks.cpg/sg29_2_cif.got.tgz:2924.got - 2010.06.04 01:19:37.
