data_PCOD9341343
_publ_section_title
;
Structure prediction by ZEFSAII (Michael W. Deem and Ramdas Pophale) SiO2 
 PCOD9341343
Probable space group: P C A 21
;
_chemical_formula_sum "Si O2"
_cell_formula_units_Z 32
_cell_length_a 14.629562
_cell_length_b 10.807721
_cell_length_c 7.756204
_cell_angle_alpha 90.000000
_cell_angle_beta 90.000000
_cell_angle_gamma 90.000000
_cell_volume 1226.350668
_symmetry_space_group_name_H-M "P C A 21"
_symmetry_group_IT_number 29
_symmetry_cell_setting 'orthorhombic'
loop_
_space_group_symop_operation_xyz
x,y,z
-x,-y,1/2+z
1/2-x,y,1/2+z
1/2+x,-y,z
loop_
_atom_site_type_symbol
_atom_site_label
_atom_site_fract_x
_atom_site_fract_y
_atom_site_fract_z
Si Si1 0.643315 0.400977 0.972390
Si Si2 0.339032 0.957981 0.711390
Si Si3 0.785180 0.279148 0.156400
Si Si4 0.538183 0.959057 0.629464
Si Si5 0.046201 0.291041 0.439881
Si Si6 0.797574 0.898768 0.387891
Si Si7 0.135455 0.341397 0.785123
Si Si8 0.484891 0.751236 0.054861
O O1 0.676250 0.289636 0.848541
O O2 0.540296 0.367464 0.014955
O O3 0.648743 0.524539 0.862790
O O4 0.715309 0.391624 0.124640
O O5 0.275505 0.844527 0.653458
O O6 0.443302 0.921433 0.722597
O O7 0.292519 0.019042 0.875091
O O8 0.333690 0.070284 0.575191
O O9 0.877889 0.290510 0.043906
O O10 0.540111 0.855765 0.479521
O O11 0.626083 0.945400 0.752082
O O12 0.527401 0.101957 0.582227
O O13 0.033993 0.302771 0.231563
O O14 0.122540 0.335341 0.578534
O O15 0.786519 0.756007 0.341496
O O16 0.046754 0.288558 0.892566
#
# Coordination Sequence:
#
# PCOD9341343 Si02
#       8
#     4   4   4   4   4   4   4   4
#     4  11  26  48  70 105 148 199 261 308 379 465
#     4  12  23  43  73 104 154 188 245 319 386 460
#     4  11  25  45  72 110 145 197 253 318 381 454
#     4  11  22  44  74 114 153 191 249 317 392 467
#     4  10  25  44  73 110 147 195 256 314 372 457
#     4  11  26  43  68 112 148 193 247 309 394 460
#     4  11  27  49  73 107 151 203 263 308 387 456
#     4  11  24  46  79 110 150 200 254 319 395 467
#
# _framework density 26.093679000000002
#
# number of rings (size 3 to 8) (size 9 to 14) (size 15 to 20)
#    0.000    1.000    3.750    1.500    7.000    6.000 
#    2.250    0.000    0.000    0.000    0.000    0.000 
#    0.000    0.000    0.000    0.000    0.000    0.000 
#
# Total GULP energy -179070.842270 kJ/mol
# GULP energy per Si atom -5595.963821 kJ/mol
# Density = 2.603429 g / cm^3
# Si number density = 26.093679 Si / 1000 Ang^3
#
#
#
# Elastic Constant Matrix: (Units=GPa)
#
#
# Indices 1 2 3 4 5 6 
#
# 1 82.3744 21.9259 23.3929 0.0000 0.0000 0.0000
# 2 21.9259 111.7900 9.8151 0.0000 0.0000 0.0000
# 3 23.3929 9.8151 89.5356 0.0000 0.0000 0.0000
# 4 0.0000 0.0000 0.0000 28.9697 0.0000 0.0000
# 5 0.0000 0.0000 0.0000 0.0000 36.9695 0.0000
# 6 0.0000 0.0000 0.0000 0.0000 0.0000 29.3769
#
#
#
# Elastic Compliance Matrix: (Units=1/GPa)
#
#
# Indices 1 2 3 4 5 6 
#
# 1 0.013722 -0.002400 -0.003322 0.000000 0.000000 0.000000
# 2 -0.002400 0.009452 -0.000409 0.000000 0.000000 0.000000
# 3 -0.003322 -0.000409 0.012082 0.000000 0.000000 0.000000
# 4 0.000000 0.000000 0.000000 0.034519 0.000000 0.000000
# 5 0.000000 0.000000 0.000000 0.000000 0.027049 0.000000
# 6 0.000000 0.000000 0.000000 0.000000 0.000000 0.034040
#
#
# Mechanical properties :
#
#
# Convention : Reuss Voigt Hill
#
# Bulk Modulus (GPa) = 43.49046 43.77418 43.63232
# Shear Modulus (GPa) = 33.15868 34.30096 33.72982
#
# Velocity S-wave (km/s) = 3.56863 3.62958 3.59924
# Velocity P-wave (km/s) = 5.80374 5.86322 5.83356
#
# Compressibility (1/GPa) = 0.02299355
#
# Stress axis : x y z
#
# Youngs Moduli (GPa) = 72.87664 105.79862 82.77084
#
# Poissons Ratio (x) = 0.25388 0.27497
# Poissons Ratio (y) = 0.17488 0.03387
# Poissons Ratio (z) = 0.24210 0.04329
#
# Static dielectric constant tensor:
#      x y z
#    x 2.172730 0.000000 0.000000 
#    y 0.000000 2.027700 0.000000 
#    z 0.000000 0.000000 2.107950 
# 
# From -- ./inp_files/1881.got.cif
#   From: 2010.05.17/outbox.cif.g08.bks.cpg/sg29_1_cif.got.tgz:1881.got - 2010.06.04 01:19:37.
