data_PCOD9341882
_publ_section_title
;
Structure prediction by ZEFSAII (Michael W. Deem and Ramdas Pophale) SiO2 
 PCOD9341882
Probable space group: P N C 2
;
_chemical_formula_sum "Si O2"
_cell_formula_units_Z 20
_cell_length_a 13.260730
_cell_length_b 4.996561
_cell_length_c 13.263452
_cell_angle_alpha 90.000000
_cell_angle_beta 90.000000
_cell_angle_gamma 90.000000
_cell_volume 878.810417
_symmetry_space_group_name_H-M "P N C 2"
_symmetry_group_IT_number 30
_symmetry_cell_setting 'orthorhombic'
loop_
_space_group_symop_operation_xyz
x,y,z
-x,-y,z
-x,1/2+y,1/2+z
x,1/2-y,1/2+z
loop_
_atom_site_type_symbol
_atom_site_label
_atom_site_fract_x
_atom_site_fract_y
_atom_site_fract_z
Si Si1 0.616118 0.422487 0.382490
Si Si2 0.891803 0.591511 0.073859
Si Si3 0.066715 0.236963 0.803275
Si Si4 0.284537 0.407467 0.792853
Si Si5 0.762780 0.420181 0.565292
O O1 0.500000 0.500000 0.392272
O O2 0.662171 0.621152 0.298690
O O3 0.674025 0.474929 0.487155
O O4 0.646539 0.122407 0.350796
O O5 0.903392 0.608682 0.195232
O O6 0.805093 0.377140 0.054505
O O7 0.000000 0.500000 0.031563
O O8 0.856297 0.883669 0.042641
O O9 0.173768 0.353849 0.841195
O O10 0.000000 0.500000 0.786073
O O11 0.000000 0.000000 0.853114
O O12 0.268886 0.514463 0.679694
#
# Coordination Sequence:
#
# PCOD9341882 Si02
#       5
#     4   4   4   4   4
#     4  12  27  45  65  92 125 164 221 279 319 367
#     4  10  18  35  64  95 129 167 202 246 309 381
#     4  10  18  34  63  96 130 167 205 250 312 385
#     4  11  23  44  68  94 128 167 210 260 321 383
#     4  11  23  42  66  93 128 167 208 257 317 380
#
# _framework density 22.758036000000001
#
# number of rings (size 3 to 8) (size 9 to 14) (size 15 to 20)
#    0.000    1.200    0.000   10.800    0.000    1.600 
#    0.000   10.000    0.000    0.000    0.000    0.000 
#    0.000    0.000    0.000    0.000    0.000    0.000 
#
# Total GULP energy -111889.579338 kJ/mol
# GULP energy per Si atom -5594.478967 kJ/mol
# Density = 2.270624 g / cm^3
# Si number density = 22.758036 Si / 1000 Ang^3
#
#
#
# Elastic Constant Matrix: (Units=GPa)
#
#
# Indices 1 2 3 4 5 6 
#
# 1 154.2173 32.0308 19.9453 0.0000 0.0000 0.0000
# 2 32.0308 115.7004 3.2193 0.0000 0.0000 0.0000
# 3 19.9453 3.2193 95.0523 0.0000 0.0000 0.0000
# 4 0.0000 0.0000 0.0000 21.9714 0.0000 0.0000
# 5 0.0000 0.0000 0.0000 0.0000 -60.7030 0.0000
# 6 0.0000 0.0000 0.0000 0.0000 0.0000 43.0829
#
#
#
# Elastic Compliance Matrix: (Units=1/GPa)
#
#
# Indices 1 2 3 4 5 6 
#
# 1 0.007066 -0.001917 -0.001418 0.000000 0.000000 0.000000
# 2 -0.001917 0.009171 0.000092 0.000000 0.000000 0.000000
# 3 -0.001418 0.000092 0.010815 0.000000 0.000000 0.000000
# 4 0.000000 0.000000 0.000000 0.045514 0.000000 0.000000
# 5 0.000000 0.000000 0.000000 0.000000 -0.016474 0.000000
# 6 0.000000 0.000000 0.000000 0.000000 0.000000 0.023211
#
#
# Mechanical properties :
#
#
# Convention : Reuss Voigt Hill
#
# Bulk Modulus (GPa) = 48.62366 52.81788 50.72077
# Shear Modulus (GPa) = 53.97000 21.52189 37.74594
#
# Velocity S-wave (km/s) = 4.87506 3.07853 4.07698
# Velocity P-wave (km/s) = 7.28698 5.99127 6.67066
#
# Compressibility (1/GPa) = 0.02056612
#
# Stress axis : x y z
#
# Youngs Moduli (GPa) = 141.52667 109.03845 92.46496
#
# Poissons Ratio (x) = 0.20899 0.13109
# Poissons Ratio (y) = 0.27126 -0.00847
# Poissons Ratio (z) = 0.20065 -0.00998
#
# Static dielectric constant tensor:
#      x y z
#    x 2.877820 0.000000 0.000000 
#    y 0.000000 1.795660 0.000000 
#    z 0.000000 0.000000 1.928620 
# 
# From -- ./inp_files/5375.got.cif
#   From: 2010.05.17/outbox.cif.g08.bks.cpg/sg30_3_cif.got.tgz:5375.got - 2010.06.03 17:03:02.
