data_PCOD9341797
_publ_section_title
;
Structure prediction by ZEFSAII (Michael W. Deem and Ramdas Pophale) SiO2 
 PCOD9341797
Probable space group: P C A 21
;
_chemical_formula_sum "Si O2"
_cell_formula_units_Z 32
_cell_length_a 21.000000
_cell_length_b 6.000000
_cell_length_c 12.000000
_cell_angle_alpha 90.000000
_cell_angle_beta 90.000000
_cell_angle_gamma 90.000000
_cell_volume 1512.000000
_symmetry_space_group_name_H-M "P C A 21"
_symmetry_group_IT_number 29
_symmetry_cell_setting 'orthorhombic'
loop_
_space_group_symop_operation_xyz
x,y,z
-x,-y,1/2+z
1/2-x,y,1/2+z
1/2+x,-y,z
loop_
_atom_site_type_symbol
_atom_site_label
_atom_site_fract_x
_atom_site_fract_y
_atom_site_fract_z
Si Si1 0.553441 0.857471 0.014480
Si Si2 0.857363 0.308421 0.798576
Si Si3 0.576120 0.935838 0.437844
Si Si4 0.025305 0.373106 0.241384
Si Si5 0.806762 0.036329 0.587655
Si Si6 0.892356 0.582933 0.315531
Si Si7 0.185570 0.271977 0.596703
Si Si8 0.763039 0.413783 0.435545
O O1 0.530000 0.691110 0.111628
O O2 0.624660 0.931185 0.052968
O O3 0.568316 0.754426 0.893260
O O4 0.491268 0.018376 0.001362
O O5 0.920618 0.438686 0.759792
O O6 0.828830 0.180416 0.692896
O O7 0.793937 0.430278 0.845472
O O8 0.885448 0.154349 0.897531
O O9 0.552901 0.815769 0.324417
O O10 0.629765 0.804588 0.509673
O O11 0.951603 0.425082 0.275051
O O12 0.780823 0.169654 0.480100
O O13 0.743289 0.900095 0.622882
O O14 0.855054 0.668906 0.206413
O O15 0.831934 0.500721 0.391495
O O16 0.229053 0.464055 0.540051
#
# Coordination Sequence:
#
# PCOD9341797 Si02
#       8
#     4   4   4   4   4   4   4   4
#     4  12  28  48  77 110 148 198 253 309 376 447
#     4  12  26  46  76 108 144 200 243 305 376 441
#     4  12  27  50  75 109 149 196 251 310 378 445
#     4  12  28  51  78 108 152 198 251 315 375 449
#     4  12  27  47  76 107 148 194 249 306 370 445
#     4  12  29  47  78 109 153 197 252 310 379 454
#     4  12  29  47  77 113 153 198 250 314 374 455
#     4  12  26  50  73 110 149 197 249 307 382 444
#
# _framework density 21.164021000000002
#
# number of rings (size 3 to 8) (size 9 to 14) (size 15 to 20)
#    0.000    0.000    6.250    2.250   12.250    1.000 
#    0.000    0.000    0.000    0.000    0.000    0.000 
#    0.000    0.000    0.000    0.000    0.000    0.000 
#
# Total GULP energy -178437.281161 kJ/mol
# GULP energy per Si atom -5576.165036 kJ/mol
# Density = 2.111585 g / cm^3
# Si number density = 21.164021 Si / 1000 Ang^3
#
#
#
# Elastic Constant Matrix: (Units=GPa)
#
#
# Indices 1 2 3 4 5 6 
#
# 1 199.5927 30.0097 14.9758 0.0000 0.0000 0.0000
# 2 30.0097 26.2889 6.3124 0.0000 0.0000 0.0000
# 3 14.9758 6.3124 64.7533 0.0000 0.0000 0.0000
# 4 0.0000 0.0000 0.0000 40.4129 0.0000 0.0000
# 5 0.0000 0.0000 0.0000 0.0000 54.5592 0.0000
# 6 0.0000 0.0000 0.0000 0.0000 0.0000 53.5197
#
#
#
# Elastic Compliance Matrix: (Units=1/GPa)
#
#
# Indices 1 2 3 4 5 6 
#
# 1 0.006083 -0.006765 -0.000747 0.000000 0.000000 0.000000
# 2 -0.006765 0.046473 -0.002966 0.000000 0.000000 0.000000
# 3 -0.000747 -0.002966 0.015905 0.000000 0.000000 0.000000
# 4 0.000000 0.000000 0.000000 0.024745 0.000000 0.000000
# 5 0.000000 0.000000 0.000000 0.000000 0.018329 0.000000
# 6 0.000000 0.000000 0.000000 0.000000 0.000000 0.018685
#
#
# Mechanical properties :
#
#
# Convention : Reuss Voigt Hill
#
# Bulk Modulus (GPa) = 21.05017 43.69230 32.37124
# Shear Modulus (GPa) = 29.93798 45.65415 37.79606
#
# Velocity S-wave (km/s) = 3.76516 4.64956 4.23053
# Velocity P-wave (km/s) = 5.37305 7.03662 6.26034
#
# Compressibility (1/GPa) = 0.04750555
#
# Stress axis : x y z
#
# Youngs Moduli (GPa) = 164.38086 21.51764 62.87244
#
# Poissons Ratio (x) = 0.14557 0.04700
# Poissons Ratio (y) = 1.11203 0.18647
# Poissons Ratio (z) = 0.12287 0.06382
#
# Static dielectric constant tensor:
#      x y z
#    x 1.699160 0.000000 0.000000 
#    y 0.000000 1.878580 0.000000 
#    z 0.000000 0.000000 1.764110 
# 
# From -- ./inp_files/3833.got.cif
#   From: 2010.05.17/outbox.ucp.g08.bks.cvg/sg29_2_cif.got.tgz:3833.got - 2010.06.11 15:24:14.
