data_PCOD9341135
_publ_section_title
;
Structure prediction by ZEFSAII (Michael W. Deem and Ramdas Pophale) SiO2 
 PCOD9341135
Probable space group: P C A 21
;
_chemical_formula_sum "Si O2"
_cell_formula_units_Z 32
_cell_length_a 9.888118
_cell_length_b 10.210343
_cell_length_c 14.463835
_cell_angle_alpha 90.000000
_cell_angle_beta 90.000000
_cell_angle_gamma 90.000000
_cell_volume 1460.284351
_symmetry_space_group_name_H-M "P C A 21"
_symmetry_group_IT_number 29
_symmetry_cell_setting 'orthorhombic'
loop_
_space_group_symop_operation_xyz
x,y,z
-x,-y,1/2+z
1/2-x,y,1/2+z
1/2+x,-y,z
loop_
_atom_site_type_symbol
_atom_site_label
_atom_site_fract_x
_atom_site_fract_y
_atom_site_fract_z
Si Si1 0.450203 0.262098 0.940890
Si Si2 0.106071 0.615852 0.796097
Si Si3 0.603065 0.322735 0.122665
Si Si4 0.905447 0.629532 0.629363
Si Si5 0.839207 0.667080 0.251816
Si Si6 0.269338 0.856609 0.764651
Si Si7 0.644843 0.780921 0.954432
Si Si8 0.531678 0.996116 0.848061
O O1 0.487086 0.381302 0.872128
O O2 0.299499 0.251773 0.979250
O O3 0.468402 0.133379 0.879521
O O4 0.553285 0.273799 0.024346
O O5 0.181989 0.480319 0.788160
O O6 0.209803 0.731624 0.820630
O O7 0.033722 0.635494 0.697251
O O8 0.641256 0.477455 0.115303
O O9 0.474275 0.326603 0.191493
O O10 0.702474 0.215069 0.167143
O O11 0.787056 0.702011 0.687262
O O12 0.934412 0.698665 0.531503
O O13 0.861298 0.743571 0.346244
O O14 0.408118 0.914725 0.804363
O O15 0.152343 0.966134 0.776480
O O16 0.593416 0.928983 0.940998
#
# Coordination Sequence:
#
# PCOD9341135 Si02
#       8
#     4   4   4   4   4   4   4   4
#     4  11  23  44  67  97 139 180 236 285 341 416
#     4  10  23  43  66  99 140 178 222 292 351 418
#     4  11  23  44  67 105 137 182 229 293 351 421
#     4  11  23  42  70 104 138 178 234 288 361 428
#     4  11  21  40  70  99 139 176 224 289 358 410
#     4  11  23  47  72  95 141 185 234 284 343 416
#     4  12  23  43  70 101 138 179 233 292 348 424
#     4  11  25  47  68  98 138 190 236 283 349 413
#
# _framework density 21.913540999999999
#
# number of rings (size 3 to 8) (size 9 to 14) (size 15 to 20)
#    0.000    1.000    6.250    0.750    0.000    0.000 
#   15.750    0.000    0.000    0.000    0.000    0.000 
#    0.000    0.000    0.000    0.000    0.000    0.000 
#
# Total GULP energy -178502.738133 kJ/mol
# GULP energy per Si atom -5578.210567 kJ/mol
# Density = 2.186366 g / cm^3
# Si number density = 21.913541 Si / 1000 Ang^3
#
#
#
# Elastic Constant Matrix: (Units=GPa)
#
#
# Indices 1 2 3 4 5 6 
#
# 1 75.6318 15.9382 13.6370 0.0000 0.0000 0.0000
# 2 15.9382 54.6242 21.8354 0.0000 0.0000 0.0000
# 3 13.6370 21.8354 83.8879 0.0000 0.0000 0.0000
# 4 0.0000 0.0000 0.0000 32.5062 0.0000 0.0000
# 5 0.0000 0.0000 0.0000 0.0000 33.2755 0.0000
# 6 0.0000 0.0000 0.0000 0.0000 0.0000 26.7310
#
#
#
# Elastic Compliance Matrix: (Units=1/GPa)
#
#
# Indices 1 2 3 4 5 6 
#
# 1 0.014229 -0.003602 -0.001376 0.000000 0.000000 0.000000
# 2 -0.003602 0.021345 -0.004970 0.000000 0.000000 0.000000
# 3 -0.001376 -0.004970 0.013438 0.000000 0.000000 0.000000
# 4 0.000000 0.000000 0.000000 0.030763 0.000000 0.000000
# 5 0.000000 0.000000 0.000000 0.000000 0.030052 0.000000
# 6 0.000000 0.000000 0.000000 0.000000 0.000000 0.037410
#
#
# Mechanical properties :
#
#
# Convention : Reuss Voigt Hill
#
# Bulk Modulus (GPa) = 34.34513 35.21834 34.78173
# Shear Modulus (GPa) = 28.27448 29.35143 28.81295
#
# Velocity S-wave (km/s) = 3.59594 3.66378 3.63002
# Velocity P-wave (km/s) = 5.74004 5.83130 5.78585
#
# Compressibility (1/GPa) = 0.02911621
#
# Stress axis : x y z
#
# Youngs Moduli (GPa) = 70.27897 46.85005 74.41573
#
# Poissons Ratio (x) = 0.16875 0.10236
# Poissons Ratio (y) = 0.25313 0.36987
# Poissons Ratio (z) = 0.09667 0.23286
#
# Static dielectric constant tensor:
#      x y z
#    x 1.856510 0.000000 0.000000 
#    y 0.000000 1.899210 0.000000 
#    z 0.000000 0.000000 1.797070 
# 
# From -- ./inp_files/4332.got.cif
#   From: 2010.05.17/outbox.cif.g08.bks.cpg/sg29_3_cif.got.tgz:4332.got - 2010.06.04 01:19:37.
