data_PCOD9341825
_publ_section_title
;
Structure prediction by ZEFSAII (Michael W. Deem and Ramdas Pophale) SiO2 
 PCOD9341825
Probable space group: P N C 2
;
_chemical_formula_sum "Si O2"
_cell_formula_units_Z 22
_cell_length_a 9.188891
_cell_length_b 13.145923
_cell_length_c 8.732548
_cell_angle_alpha 90.000000
_cell_angle_beta 90.000000
_cell_angle_gamma 90.000000
_cell_volume 1054.860829
_symmetry_space_group_name_H-M "P N C 2"
_symmetry_group_IT_number 30
_symmetry_cell_setting 'orthorhombic'
loop_
_space_group_symop_operation_xyz
x,y,z
-x,-y,z
-x,1/2+y,1/2+z
x,1/2-y,1/2+z
loop_
_atom_site_type_symbol
_atom_site_label
_atom_site_fract_x
_atom_site_fract_y
_atom_site_fract_z
Si Si1 0.753048 0.638363 0.718770
Si Si2 0.863155 0.325415 0.960168
Si Si3 0.246950 0.638363 0.621588
Si Si4 0.000000 0.000000 0.670181
Si Si5 0.500000 0.500000 0.670185
Si Si6 0.136850 0.174585 0.880193
Si Si7 0.000000 0.500000 0.670177
O O1 0.609798 0.575155 0.757683
O O2 0.759472 0.750153 0.784778
O O3 0.782081 0.644512 0.536435
O O4 0.894003 0.571741 0.767561
O O5 0.759472 0.250153 0.055577
O O6 0.908940 0.421601 0.063109
O O7 0.782093 0.355486 0.803921
O O8 0.000004 0.250000 0.920185
O O9 0.390202 0.575155 0.582687
O O10 0.105997 0.571741 0.572792
O O11 0.908941 0.921600 0.777252
#
# Coordination Sequence:
#
# PCOD9341825 Si02
#       7
#     4   4   4   2   2   4   2
#     4  11  23  41  64  97 136 178 228 276 341 406
#     4  12  22  40  67 104 133 171 230 298 333 402
#     4  11  23  41  64  97 136 178 228 276 341 406
#     4  12  24  36  70 116 134 168 220 306 366 370
#     4  10  28  42  64  94 140 202 216 268 348 420
#     4  12  22  40  67 104 133 171 230 298 333 402
#     4  10  16  34  64  86 122 170 222 276 318 396
#
# _framework density 20.855831999999999
#
# number of rings (size 3 to 8) (size 9 to 14) (size 15 to 20)
#    0.000    0.727    7.273    1.091    5.091    1.455 
#    0.000    0.000    0.000    2.182    0.000    0.000 
#    0.000    0.000    0.000    0.000    0.000    0.000 
#
# Total GULP energy -122744.944286 kJ/mol
# GULP energy per Si atom -5579.315649 kJ/mol
# Density = 2.080836 g / cm^3
# Si number density = 20.855832 Si / 1000 Ang^3
#
#
#
# Elastic Constant Matrix: (Units=GPa)
#
#
# Indices 1 2 3 4 5 6 
#
# 1 104.5372 51.2361 15.2861 0.0000 0.0000 0.0000
# 2 51.2361 195.7312 65.6002 0.0000 0.0000 0.0000
# 3 15.2861 65.6002 111.8342 0.0000 0.0000 0.0000
# 4 0.0000 0.0000 0.0000 45.4223 0.0000 0.0000
# 5 0.0000 0.0000 0.0000 0.0000 9.3827 0.0000
# 6 0.0000 0.0000 0.0000 0.0000 0.0000 44.6674
#
#
#
# Elastic Compliance Matrix: (Units=1/GPa)
#
#
# Indices 1 2 3 4 5 6 
#
# 1 0.010979 -0.002951 0.000230 0.000000 0.000000 0.000000
# 2 -0.002951 0.007153 -0.003792 0.000000 0.000000 0.000000
# 3 0.000230 -0.003792 0.011135 0.000000 0.000000 0.000000
# 4 0.000000 0.000000 0.000000 0.022016 0.000000 0.000000
# 5 0.000000 0.000000 0.000000 0.000000 0.106579 0.000000
# 6 0.000000 0.000000 0.000000 0.000000 0.000000 0.022388
#
#
# Mechanical properties :
#
#
# Convention : Reuss Voigt Hill
#
# Bulk Modulus (GPa) = 61.57531 75.14969 68.36250
# Shear Modulus (GPa) = 25.16519 38.55985 31.86252
#
# Velocity S-wave (km/s) = 3.47742 4.30452 3.91289
# Velocity P-wave (km/s) = 6.76104 7.79848 7.29822
#
# Compressibility (1/GPa) = 0.01624027
#
# Stress axis : x y z
#
# Youngs Moduli (GPa) = 91.08563 139.81095 89.80895
#
# Poissons Ratio (x) = 0.41260 -0.02070
# Poissons Ratio (y) = 0.26880 0.34057
# Poissons Ratio (z) = -0.02099 0.53019
#
# Static dielectric constant tensor:
#      x y z
#    x 1.794520 0.000000 0.000000 
#    y 0.000000 1.808120 0.000000 
#    z 0.000000 0.000000 1.789290 
# 
# From -- ./inp_files/1811.got.cif
#   From: 2010.05.17/outbox.cif.g08.bks.cpg/sg30_1_cif.got.tgz:1811.got - 2010.06.03 17:03:02.
