data_PCOD9341768
_publ_section_title
;
Structure prediction by ZEFSAII (Michael W. Deem and Ramdas Pophale) SiO2 
 PCOD9341768
Probable space group: P C A 21
;
_chemical_formula_sum "Si O2"
_cell_formula_units_Z 28
_cell_length_a 13.423827
_cell_length_b 4.720420
_cell_length_c 15.600197
_cell_angle_alpha 90.000000
_cell_angle_beta 90.000000
_cell_angle_gamma 90.000000
_cell_volume 988.523666
_symmetry_space_group_name_H-M "P C A 21"
_symmetry_group_IT_number 29
_symmetry_cell_setting 'orthorhombic'
loop_
_space_group_symop_operation_xyz
x,y,z
-x,-y,1/2+z
1/2-x,y,1/2+z
1/2+x,-y,z
loop_
_atom_site_type_symbol
_atom_site_label
_atom_site_fract_x
_atom_site_fract_y
_atom_site_fract_z
Si Si1 0.293234 0.391671 0.286500
Si Si2 0.845552 0.078390 0.396970
Si Si3 0.901858 0.023446 0.159496
Si Si4 0.382310 0.259543 0.991033
Si Si5 0.080047 0.437996 0.216564
Si Si6 0.780758 0.356626 0.572191
Si Si7 0.445528 0.799702 0.885311
O O1 0.311866 0.714093 0.318119
O O2 0.367197 0.237798 0.219613
O O3 0.183339 0.313673 0.254426
O O4 0.311927 0.236384 0.375192
O O5 0.818203 0.193228 0.489154
O O6 0.963434 0.016912 0.392518
O O7 0.938965 0.891232 0.069650
O O8 0.058648 0.670002 0.290645
O O9 0.801618 0.195491 0.131457
O O10 0.283766 0.381155 0.036920
O O11 0.436826 0.528138 0.947818
O O12 0.362213 0.010103 0.922398
O O13 0.989170 0.224624 0.197463
O O14 0.124312 0.565739 0.129348
#
# Coordination Sequence:
#
# PCOD9341768 Si02
#       7
#     4   4   4   4   4   4   4
#     4  12  30  62  93 137 195 255 320 408 482 589
#     4  12  32  59  95 140 191 253 328 400 492 577
#     4  12  31  61  93 147 201 252 334 405 489 598
#     4  12  28  60  92 138 197 247 325 405 483 594
#     4  12  32  62 102 141 197 263 325 409 500 575
#     4  12  30  61  96 142 196 259 322 415 497 578
#     4  12  31  59  97 143 189 263 328 406 489 593
#
# _framework density 28.325066
#
# number of rings (size 3 to 8) (size 9 to 14) (size 15 to 20)
#    0.000    0.000    2.857    2.571   12.000    4.571 
#    7.714    1.429    0.000    0.000    0.000    0.000 
#    0.000    0.000    0.000    0.000    0.000    0.000 
#
# Total GULP energy -157036.668567 kJ/mol
# GULP energy per Si atom -5608.452449 kJ/mol
# Density = 2.826060 g / cm^3
# Si number density = 28.325066 Si / 1000 Ang^3
#
#
#
# Elastic Constant Matrix: (Units=GPa)
#
#
# Indices 1 2 3 4 5 6 
#
# 1 117.8791 34.7130 53.4345 0.0000 0.0000 0.0000
# 2 34.7130 165.2389 72.0403 0.0000 0.0000 0.0000
# 3 53.4345 72.0403 211.0014 0.0000 0.0000 0.0000
# 4 0.0000 0.0000 0.0000 75.1199 0.0000 0.0000
# 5 0.0000 0.0000 0.0000 0.0000 44.5314 0.0000
# 6 0.0000 0.0000 0.0000 0.0000 0.0000 61.7003
#
#
#
# Elastic Compliance Matrix: (Units=1/GPa)
#
#
# Indices 1 2 3 4 5 6 
#
# 1 0.009764 -0.001143 -0.002082 0.000000 0.000000 0.000000
# 2 -0.001143 0.007244 -0.002184 0.000000 0.000000 0.000000
# 3 -0.002082 -0.002184 0.006012 0.000000 0.000000 0.000000
# 4 0.000000 0.000000 0.000000 0.013312 0.000000 0.000000
# 5 0.000000 0.000000 0.000000 0.000000 0.022456 0.000000
# 6 0.000000 0.000000 0.000000 0.000000 0.000000 0.016207
#
#
# Mechanical properties :
#
#
# Convention : Reuss Voigt Hill
#
# Bulk Modulus (GPa) = 81.95752 90.49945 86.22849
# Shear Modulus (GPa) = 55.62879 58.53241 57.08060
#
# Velocity S-wave (km/s) = 4.43645 4.55076 4.49396
# Velocity P-wave (km/s) = 7.43237 7.72219 7.57867
#
# Compressibility (1/GPa) = 0.01220144
#
# Stress axis : x y z
#
# Youngs Moduli (GPa) = 102.41862 138.04343 166.32857
#
# Poissons Ratio (x) = 0.15783 0.34634
# Poissons Ratio (y) = 0.11710 0.36322
# Poissons Ratio (z) = 0.21326 0.30145
#
# Static dielectric constant tensor:
#      x y z
#    x 2.369640 0.000000 0.000000 
#    y 0.000000 2.179110 0.000000 
#    z 0.000000 0.000000 2.272010 
# 
# From -- ./inp_files/3940.got.cif
#   From: 2010.05.17/outbox.cif.g08.bks.cpg/sg29_2_cif.got.tgz:3940.got - 2010.06.04 01:19:37.
