data_PCOD9341931
_publ_section_title
;
Structure prediction by ZEFSAII (Michael W. Deem and Ramdas Pophale) SiO2 
 PCOD9341931
Probable space group: P N C 2
;
_chemical_formula_sum "Si O2"
_cell_formula_units_Z 32
_cell_length_a 6.711556
_cell_length_b 21.772874
_cell_length_c 13.822521
_cell_angle_alpha 90.000000
_cell_angle_beta 90.000000
_cell_angle_gamma 90.000000
_cell_volume 2019.883102
_symmetry_space_group_name_H-M "P N C 2"
_symmetry_group_IT_number 30
_symmetry_cell_setting 'orthorhombic'
loop_
_space_group_symop_operation_xyz
x,y,z
-x,-y,z
-x,1/2+y,1/2+z
x,1/2-y,1/2+z
loop_
_atom_site_type_symbol
_atom_site_label
_atom_site_fract_x
_atom_site_fract_y
_atom_site_fract_z
Si Si1 0.886394 0.344967 0.697210
Si Si2 0.534376 0.570729 0.913643
Si Si3 0.722744 0.676574 0.587008
Si Si4 0.534376 0.070729 0.182858
Si Si5 0.428190 0.765453 0.695436
Si Si6 0.113606 0.344967 0.899292
Si Si7 0.277256 0.676574 0.009494
Si Si8 0.571810 0.765453 0.901066
O O1 0.756541 0.403654 0.666201
O O2 0.729017 0.289855 0.712518
O O3 0.999999 0.356274 0.798251
O O4 0.047877 0.326576 0.617086
O O5 0.500000 0.500000 0.938920
O O6 0.500000 0.577697 0.798251
O O7 0.383854 0.615553 0.969228
O O8 0.756542 0.596345 0.930301
O O9 0.616147 0.615554 0.627274
O O10 0.616352 0.733546 0.642197
O O11 0.673287 0.687444 0.474929
O O12 0.500000 0.000000 0.157581
O O13 0.326713 0.812557 0.621573
O O14 0.499999 0.790349 0.798251
O O15 0.952123 0.326576 0.979416
O O16 0.270983 0.289856 0.883983
O O17 0.383649 0.733546 0.954306
#
# Coordination Sequence:
#
# PCOD9341931 Si02
#       8
#     4   4   4   4   4   4   4   4
#     4  11  17  31  50  73 102 133 165 206 257 308
#     4  10  20  33  47  69 100 131 169 206 250 310
#     4  10  19  32  48  71 101 132 164 208 255 301
#     4  10  20  33  47  69 100 131 169 206 250 310
#     4  10  19  31  49  72 102 130 165 207 255 308
#     4  11  17  31  50  73 102 133 165 206 257 308
#     4  10  19  32  48  71 101 132 164 208 255 301
#     4  10  19  31  49  72 102 130 165 207 255 308
#
# _framework density 15.842499999999999
#
# number of rings (size 3 to 8) (size 9 to 14) (size 15 to 20)
#    0.000    1.750    5.000    2.250    0.000    1.000 
#    0.000    0.000    0.000    0.750    0.000    0.000 
#    0.000    0.000    0.000    0.000    0.000    0.000 
#
# Total GULP energy -178510.553888 kJ/mol
# GULP energy per Si atom -5578.454809 kJ/mol
# Density = 1.580644 g / cm^3
# Si number density = 15.842500 Si / 1000 Ang^3
#
#
#
# Elastic Constant Matrix: (Units=GPa)
#
#
# Indices 1 2 3 4 5 6 
#
# 1 90.7990 11.3401 20.7530 0.0000 0.0000 0.0000
# 2 11.3401 58.1914 20.7261 0.0000 0.0000 0.0000
# 3 20.7530 20.7261 92.8701 0.0000 0.0000 0.0000
# 4 0.0000 0.0000 0.0000 16.6093 0.0000 0.0000
# 5 0.0000 0.0000 0.0000 0.0000 27.4338 0.0000
# 6 0.0000 0.0000 0.0000 0.0000 0.0000 11.6977
#
#
#
# Elastic Compliance Matrix: (Units=1/GPa)
#
#
# Indices 1 2 3 4 5 6 
#
# 1 0.011720 -0.001468 -0.002291 0.000000 0.000000 0.000000
# 2 -0.001468 0.018852 -0.003879 0.000000 0.000000 0.000000
# 3 -0.002291 -0.003879 0.012146 0.000000 0.000000 0.000000
# 4 0.000000 0.000000 0.000000 0.060207 0.000000 0.000000
# 5 0.000000 0.000000 0.000000 0.000000 0.036451 0.000000
# 6 0.000000 0.000000 0.000000 0.000000 0.000000 0.085487
#
#
# Mechanical properties :
#
#
# Convention : Reuss Voigt Hill
#
# Bulk Modulus (GPa) = 36.44181 38.61099 37.52640
# Shear Modulus (GPa) = 20.05706 23.75089 21.90398
#
# Velocity S-wave (km/s) = 3.56199 3.87614 3.72238
# Velocity P-wave (km/s) = 6.32215 6.66763 6.49718
#
# Compressibility (1/GPa) = 0.02744101
#
# Stress axis : x y z
#
# Youngs Moduli (GPa) = 85.32124 53.04361 82.33467
#
# Poissons Ratio (x) = 0.07786 0.18867
# Poissons Ratio (y) = 0.12524 0.31940
# Poissons Ratio (z) = 0.19551 0.20577
#
# Static dielectric constant tensor:
#      x y z
#    x 1.552960 0.000000 0.000000 
#    y 0.000000 1.513560 0.000000 
#    z 0.000000 0.000000 1.538860 
# 
# From -- ./inp_files/4780.got.cif
#   From: 2010.05.17/outbox.cif.g08.bks.cpg/sg30_3_cif.got.tgz:4780.got - 2010.06.03 17:03:02.
