data_PCOD9341733
_publ_section_title
;
Structure prediction by ZEFSAII (Michael W. Deem and Ramdas Pophale) SiO2 
 PCOD9341733
Probable space group: P C A 21
;
_chemical_formula_sum "Si O2"
_cell_formula_units_Z 20
_cell_length_a 10.359761
_cell_length_b 7.382181
_cell_length_c 10.581856
_cell_angle_alpha 90.000000
_cell_angle_beta 90.000000
_cell_angle_gamma 90.000000
_cell_volume 809.275277
_symmetry_space_group_name_H-M "P C A 21"
_symmetry_group_IT_number 29
_symmetry_cell_setting 'orthorhombic'
loop_
_space_group_symop_operation_xyz
x,y,z
-x,-y,1/2+z
1/2-x,y,1/2+z
1/2+x,-y,z
loop_
_atom_site_type_symbol
_atom_site_label
_atom_site_fract_x
_atom_site_fract_y
_atom_site_fract_z
Si Si1 0.407355 0.981915 0.764100
Si Si2 0.011840 0.512809 0.606922
Si Si3 0.764013 0.383517 0.766086
Si Si4 0.672727 0.704066 0.426435
Si Si5 0.077579 0.117265 0.997789
O O1 0.297838 0.827981 0.785446
O O2 0.362013 0.183735 0.801328
O O3 0.448318 0.991772 0.618494
O O4 0.521587 0.944889 0.863919
O O5 0.131056 0.569474 0.696754
O O6 0.056140 0.352320 0.514872
O O7 0.886902 0.452049 0.684596
O O8 0.985883 0.689023 0.524007
O O9 0.764129 0.511632 0.889283
O O10 0.770865 0.839387 0.494510
#
# Coordination Sequence:
#
# PCOD9341733 Si02
#       5
#     4   4   4   4   4
#     4  12  28  48  82 119 158 212 266 337 403 485
#     4  12  25  51  74 114 157 212 258 334 400 474
#     4  12  27  47  81 109 160 204 268 325 406 473
#     4  12  26  49  78 114 159 208 271 331 399 485
#     4  12  28  51  79 120 158 214 269 337 398 487
#
# _framework density 24.713471999999999
#
# number of rings (size 3 to 8) (size 9 to 14) (size 15 to 20)
#    0.000    0.000    6.000    2.400    5.600    0.000 
#    0.000    0.000    0.000    0.000    0.000    0.000 
#    0.000    0.000    0.000    0.000    0.000    0.000 
#
# Total GULP energy -112054.174002 kJ/mol
# GULP energy per Si atom -5602.708700 kJ/mol
# Density = 2.465722 g / cm^3
# Si number density = 24.713472 Si / 1000 Ang^3
#
#
#
# Elastic Constant Matrix: (Units=GPa)
#
#
# Indices 1 2 3 4 5 6 
#
# 1 80.0279 6.2746 24.5869 0.0000 0.0000 0.0000
# 2 6.2746 124.5324 35.7200 0.0000 0.0000 0.0000
# 3 24.5869 35.7200 106.0966 0.0000 0.0000 0.0000
# 4 0.0000 0.0000 0.0000 55.3203 0.0000 0.0000
# 5 0.0000 0.0000 0.0000 0.0000 43.4405 0.0000
# 6 0.0000 0.0000 0.0000 0.0000 0.0000 13.0666
#
#
#
# Elastic Compliance Matrix: (Units=1/GPa)
#
#
# Indices 1 2 3 4 5 6 
#
# 1 0.013460 0.000240 -0.003200 0.000000 0.000000 0.000000
# 2 0.000240 0.008893 -0.003049 0.000000 0.000000 0.000000
# 3 -0.003200 -0.003049 0.011194 0.000000 0.000000 0.000000
# 4 0.000000 0.000000 0.000000 0.018077 0.000000 0.000000
# 5 0.000000 0.000000 0.000000 0.000000 0.023020 0.000000
# 6 0.000000 0.000000 0.000000 0.000000 0.000000 0.076531
#
#
# Mechanical properties :
#
#
# Convention : Reuss Voigt Hill
#
# Bulk Modulus (GPa) = 46.45380 49.31334 47.88357
# Shear Modulus (GPa) = 29.34814 38.63718 33.99266
#
# Velocity S-wave (km/s) = 3.44980 3.95828 3.71276
# Velocity P-wave (km/s) = 5.89118 6.39437 6.14792
#
# Compressibility (1/GPa) = 0.02152677
#
# Stress axis : x y z
#
# Youngs Moduli (GPa) = 74.29446 112.45243 89.33680
#
# Poissons Ratio (x) = -0.02695 0.28587
# Poissons Ratio (y) = -0.01780 0.27243
# Poissons Ratio (z) = 0.23774 0.34292
#
# Static dielectric constant tensor:
#      x y z
#    x 2.035540 0.000000 0.000000 
#    y 0.000000 1.931910 0.000000 
#    z 0.000000 0.000000 1.981500 
# 
# From -- ./inp_files/1341.got.cif
#   From: 2010.05.17/outbox.cif.g08.bks.cpg/sg29_1_cif.got.tgz:1341.got - 2010.06.04 01:19:37.
