data_PCOD9341688
_publ_section_title
;
Structure prediction by ZEFSAII (Michael W. Deem and Ramdas Pophale) SiO2 
 PCOD9341688
Probable space group: P C A 21
;
_chemical_formula_sum "Si O2"
_cell_formula_units_Z 24
_cell_length_a 18.247375
_cell_length_b 4.926726
_cell_length_c 9.649555
_cell_angle_alpha 90.000000
_cell_angle_beta 90.000000
_cell_angle_gamma 90.000000
_cell_volume 867.493227
_symmetry_space_group_name_H-M "P C A 21"
_symmetry_group_IT_number 29
_symmetry_cell_setting 'orthorhombic'
loop_
_space_group_symop_operation_xyz
x,y,z
-x,-y,1/2+z
1/2-x,y,1/2+z
1/2+x,-y,z
loop_
_atom_site_type_symbol
_atom_site_label
_atom_site_fract_x
_atom_site_fract_y
_atom_site_fract_z
Si Si1 0.005159 0.638033 0.997260
Si Si2 0.236327 0.401745 0.259084
Si Si3 0.761540 0.097678 0.579026
Si Si4 0.628006 0.725144 0.912033
Si Si5 0.996144 0.002378 0.752166
Si Si6 0.622940 0.294292 0.437787
O O1 0.077627 0.457466 0.012283
O O2 0.997882 0.714966 0.833424
O O3 0.934941 0.454351 0.033075
O O4 0.007923 0.907290 0.091688
O O5 0.226628 0.594886 0.126817
O O6 0.314674 0.458123 0.327836
O O7 0.237168 0.091309 0.214277
O O8 0.173302 0.483152 0.363547
O O9 0.680169 0.099057 0.514646
O O10 0.823378 0.956213 0.486163
O O11 0.570772 0.863873 0.808477
O O12 0.925453 0.139901 0.824200
#
# Coordination Sequence:
#
# PCOD9341688 Si02
#       6
#     4   4   4   4   4   4
#     4  11  28  54  83 128 170 234 294 368 438 531
#     4  12  28  48  82 122 172 222 290 358 438 516
#     4  12  28  48  86 118 172 226 288 358 440 514
#     4  11  28  51  78 125 171 225 295 364 434 526
#     4  11  28  48  85 114 170 228 294 356 440 517
#     4  11  28  51  78 125 171 225 295 364 434 526
#
# _framework density 27.66592
#
# number of rings (size 3 to 8) (size 9 to 14) (size 15 to 20)
#    0.000    0.667    0.000    4.000   18.667    5.333 
#    0.000    0.000    0.000    0.000    0.000    0.000 
#    0.000    0.000    0.000    0.000    0.000    0.000 
#
# Total GULP energy -134743.841787 kJ/mol
# GULP energy per Si atom -5614.326741 kJ/mol
# Density = 2.760295 g / cm^3
# Si number density = 27.665920 Si / 1000 Ang^3
#
#
#
# Elastic Constant Matrix: (Units=GPa)
#
#
# Indices 1 2 3 4 5 6 
#
# 1 228.6025 49.5879 49.5691 0.0000 0.0000 0.0000
# 2 49.5879 96.1556 16.2601 0.0000 0.0000 0.0000
# 3 49.5691 16.2601 96.2455 0.0000 0.0000 0.0000
# 4 0.0000 0.0000 0.0000 48.5573 0.0000 0.0000
# 5 0.0000 0.0000 0.0000 0.0000 34.1534 0.0000
# 6 0.0000 0.0000 0.0000 0.0000 0.0000 64.1149
#
#
#
# Elastic Compliance Matrix: (Units=1/GPa)
#
#
# Indices 1 2 3 4 5 6 
#
# 1 0.005409 -0.002386 -0.002382 0.000000 0.000000 0.000000
# 2 -0.002386 0.011759 -0.000757 0.000000 0.000000 0.000000
# 3 -0.002382 -0.000757 0.011745 0.000000 0.000000 0.000000
# 4 0.000000 0.000000 0.000000 0.020594 0.000000 0.000000
# 5 0.000000 0.000000 0.000000 0.000000 0.029280 0.000000
# 6 0.000000 0.000000 0.000000 0.000000 0.000000 0.015597
#
#
# Mechanical properties :
#
#
# Convention : Reuss Voigt Hill
#
# Bulk Modulus (GPa) = 55.99205 72.42645 64.20925
# Shear Modulus (GPa) = 44.88770 49.73755 47.31263
#
# Velocity S-wave (km/s) = 4.03239 4.24464 4.13987
# Velocity P-wave (km/s) = 6.47787 7.08931 6.79048
#
# Compressibility (1/GPa) = 0.01785968
#
# Stress axis : x y z
#
# Youngs Moduli (GPa) = 184.88892 85.04433 85.14200
#
# Poissons Ratio (x) = 0.20295 0.20285
# Poissons Ratio (y) = 0.44122 0.06449
# Poissons Ratio (z) = 0.44049 0.06442
#
# Static dielectric constant tensor:
#      x y z
#    x 2.076580 0.000000 0.000000 
#    y 0.000000 2.116980 0.000000 
#    z 0.000000 0.000000 2.170240 
# 
# From -- ./inp_files/3387.got.cif
#   From: 2010.05.17/outbox.cif.g08.bks.cpg/sg29_2_cif.got.tgz:3387.got - 2010.06.04 01:19:37.
