data_PCOD9341256
_publ_section_title
;
Structure prediction by ZEFSAII (Michael W. Deem and Ramdas Pophale) SiO2 
 PCOD9341256
Probable space group: P C A 21
;
_chemical_formula_sum "Si O2"
_cell_formula_units_Z 28
_cell_length_a 15.426370
_cell_length_b 6.920776
_cell_length_c 12.515188
_cell_angle_alpha 90.000000
_cell_angle_beta 90.000000
_cell_angle_gamma 90.000000
_cell_volume 1336.152149
_symmetry_space_group_name_H-M "P C A 21"
_symmetry_group_IT_number 29
_symmetry_cell_setting 'orthorhombic'
loop_
_space_group_symop_operation_xyz
x,y,z
-x,-y,1/2+z
1/2-x,y,1/2+z
1/2+x,-y,z
loop_
_atom_site_type_symbol
_atom_site_label
_atom_site_fract_x
_atom_site_fract_y
_atom_site_fract_z
Si Si1 0.032430 0.872076 0.806280
Si Si2 0.148210 0.026535 0.209276
Si Si3 0.600368 0.481901 0.913298
Si Si4 0.119210 0.968314 0.593792
Si Si5 0.944016 0.878481 0.491158
Si Si6 0.799528 0.678266 0.214217
Si Si7 0.273028 0.692108 0.591727
O O1 0.032917 0.667681 0.863532
O O2 0.084730 0.851216 0.696820
O O3 0.938583 0.955543 0.777777
O O4 0.083925 0.019192 0.882230
O O5 0.220727 0.177755 0.247083
O O6 0.182406 0.810165 0.189907
O O7 0.119974 0.085603 0.088878
O O8 0.550948 0.651586 0.974256
O O9 0.654392 0.582330 0.816957
O O10 0.661945 0.369305 0.997102
O O11 0.200493 0.845705 0.551493
O O12 0.036995 0.971471 0.517089
O O13 0.142727 0.178851 0.639990
O O14 0.766093 0.503405 0.140358
#
# Coordination Sequence:
#
# PCOD9341256 Si02
#       7
#     4   4   4   4   4   4   4
#     4  11  23  44  64  97 131 177 214 278 331 403
#     4  10  24  43  67  94 135 169 220 272 341 385
#     4  12  24  40  70  98 136 172 230 270 338 396
#     4  10  24  43  67  94 135 169 220 272 341 385
#     4  11  23  44  64  97 131 177 214 278 331 403
#     4  11  23  43  68  98 128 175 220 281 326 403
#     4  11  23  43  68  98 128 175 220 281 326 403
#
# _framework density 20.955698999999999
#
# number of rings (size 3 to 8) (size 9 to 14) (size 15 to 20)
#    0.000    1.143    5.714    0.000    0.000    5.714 
#    0.000    0.000    0.000    0.000    0.000    0.000 
#    0.000    0.000    0.000    0.000    0.000    0.000 
#
# Total GULP energy -156368.198267 kJ/mol
# GULP energy per Si atom -5584.578510 kJ/mol
# Density = 2.090800 g / cm^3
# Si number density = 20.955699 Si / 1000 Ang^3
#
#
#
# Elastic Constant Matrix: (Units=GPa)
#
#
# Indices 1 2 3 4 5 6 
#
# 1 71.3483 27.8304 6.1402 0.0000 0.0000 0.0000
# 2 27.8304 111.1235 6.9166 0.0000 0.0000 0.0000
# 3 6.1402 6.9166 48.8052 0.0000 0.0000 0.0000
# 4 0.0000 0.0000 0.0000 33.9528 0.0000 0.0000
# 5 0.0000 0.0000 0.0000 0.0000 7.9894 0.0000
# 6 0.0000 0.0000 0.0000 0.0000 0.0000 27.2944
#
#
#
# Elastic Compliance Matrix: (Units=1/GPa)
#
#
# Indices 1 2 3 4 5 6 
#
# 1 0.015631 -0.003826 -0.001424 0.000000 0.000000 0.000000
# 2 -0.003826 0.010016 -0.000938 0.000000 0.000000 0.000000
# 3 -0.001424 -0.000938 0.020802 0.000000 0.000000 0.000000
# 4 0.000000 0.000000 0.000000 0.029453 0.000000 0.000000
# 5 0.000000 0.000000 0.000000 0.000000 0.125165 0.000000
# 6 0.000000 0.000000 0.000000 0.000000 0.000000 0.036638
#
#
# Mechanical properties :
#
#
# Convention : Reuss Voigt Hill
#
# Bulk Modulus (GPa) = 29.35017 34.78350 32.06683
# Shear Modulus (GPa) = 19.12505 26.53999 22.83252
#
# Velocity S-wave (km/s) = 3.02427 3.56263 3.30443
# Velocity P-wave (km/s) = 5.12164 5.79290 5.46758
#
# Compressibility (1/GPa) = 0.03407136
#
# Stress axis : x y z
#
# Youngs Moduli (GPa) = 63.97666 99.84439 48.07292
#
# Poissons Ratio (x) = 0.38200 0.06847
# Poissons Ratio (y) = 0.24477 0.04509
# Poissons Ratio (z) = 0.09112 0.09366
#
# Static dielectric constant tensor:
#      x y z
#    x 1.773830 0.000000 0.000000 
#    y 0.000000 1.749720 0.000000 
#    z 0.000000 0.000000 1.767100 
# 
# From -- ./inp_files/3604.got.cif
#   From: 2010.05.17/outbox.cif.g08.bks.cpg/sg29_2_cif.got.tgz:3604.got - 2010.06.04 01:19:37.
