data_PCOD9341642
_publ_section_title
;
Structure prediction by ZEFSAII (Michael W. Deem and Ramdas Pophale) SiO2 
 PCOD9341642
Probable space group: P C A 21
;
_chemical_formula_sum "Si O2"
_cell_formula_units_Z 28
_cell_length_a 9.791055
_cell_length_b 7.833766
_cell_length_c 14.765435
_cell_angle_alpha 90.000000
_cell_angle_beta 90.000000
_cell_angle_gamma 90.000000
_cell_volume 1132.521175
_symmetry_space_group_name_H-M "P C A 21"
_symmetry_group_IT_number 29
_symmetry_cell_setting 'orthorhombic'
loop_
_space_group_symop_operation_xyz
x,y,z
-x,-y,1/2+z
1/2-x,y,1/2+z
1/2+x,-y,z
loop_
_atom_site_type_symbol
_atom_site_label
_atom_site_fract_x
_atom_site_fract_y
_atom_site_fract_z
Si Si1 0.641543 0.614454 0.316480
Si Si2 0.893383 0.032011 0.477398
Si Si3 0.214655 0.589160 0.574160
Si Si4 0.371636 0.129405 0.290835
Si Si5 0.514708 0.411783 0.177413
Si Si6 0.356348 0.601520 0.401562
Si Si7 0.858055 0.031668 0.095676
O O1 0.722711 0.791119 0.314923
O O2 0.560982 0.588860 0.223348
O O3 0.517962 0.584557 0.386916
O O4 0.759502 0.469043 0.322428
O O5 0.929835 0.925942 0.387840
O O6 0.778203 0.965183 0.545831
O O7 0.836708 0.202988 0.429130
O O8 0.020699 0.062138 0.542740
O O9 0.348257 0.647575 0.629503
O O10 0.287000 0.507691 0.486273
O O11 0.115363 0.450249 0.616439
O O12 0.131037 0.766877 0.570114
O O13 0.467784 0.278858 0.252788
O O14 0.360188 0.002436 0.204092
#
# Coordination Sequence:
#
# PCOD9341642 Si02
#       7
#     4   4   4   4   4   4   4
#     4  12  25  45  72 108 143 189 252 300 380 443
#     4  11  28  49  76 109 150 196 252 307 379 454
#     4  11  26  46  75 101 153 189 248 313 368 454
#     4  12  27  45  82 105 154 194 249 319 378 448
#     4  12  25  46  68 112 139 195 247 299 380 446
#     4  11  25  47  71 106 145 193 245 313 366 454
#     4  11  28  50  74 113 148 196 253 305 381 451
#
# _framework density 24.723597999999999
#
# number of rings (size 3 to 8) (size 9 to 14) (size 15 to 20)
#    0.000    0.571    2.857    3.429   10.000    4.571 
#    0.000    0.000    0.000    0.000    0.000    0.000 
#    0.000    0.000    0.000    0.000    0.000    0.000 
#
# Total GULP energy -156432.403588 kJ/mol
# GULP energy per Si atom -5586.871557 kJ/mol
# Density = 2.466733 g / cm^3
# Si number density = 24.723598 Si / 1000 Ang^3
#
#
#
# Elastic Constant Matrix: (Units=GPa)
#
#
# Indices 1 2 3 4 5 6 
#
# 1 127.1160 10.8815 44.1034 0.0000 0.0000 0.0000
# 2 10.8815 38.2372 8.2342 0.0000 0.0000 0.0000
# 3 44.1034 8.2342 103.5266 0.0000 0.0000 0.0000
# 4 0.0000 0.0000 0.0000 39.9168 0.0000 0.0000
# 5 0.0000 0.0000 0.0000 0.0000 44.3067 0.0000
# 6 0.0000 0.0000 0.0000 0.0000 0.0000 32.9522
#
#
#
# Elastic Compliance Matrix: (Units=1/GPa)
#
#
# Indices 1 2 3 4 5 6 
#
# 1 0.009356 -0.001836 -0.003840 0.000000 0.000000 0.000000
# 2 -0.001836 0.026968 -0.001363 0.000000 0.000000 0.000000
# 3 -0.003840 -0.001363 0.011404 0.000000 0.000000 0.000000
# 4 0.000000 0.000000 0.000000 0.025052 0.000000 0.000000
# 5 0.000000 0.000000 0.000000 0.000000 0.022570 0.000000
# 6 0.000000 0.000000 0.000000 0.000000 0.000000 0.030347
#
#
# Mechanical properties :
#
#
# Convention : Reuss Voigt Hill
#
# Bulk Modulus (GPa) = 29.71659 43.92422 36.82041
# Shear Modulus (GPa) = 33.11449 37.14586 35.13017
#
# Velocity S-wave (km/s) = 3.66374 3.88034 3.77359
# Velocity P-wave (km/s) = 5.47201 6.15474 5.82339
#
# Compressibility (1/GPa) = 0.03365123
#
# Stress axis : x y z
#
# Youngs Moduli (GPa) = 106.88077 37.08040 87.69177
#
# Poissons Ratio (x) = 0.06807 0.33672
# Poissons Ratio (y) = 0.19620 0.11952
# Poissons Ratio (z) = 0.41041 0.05054
#
# Static dielectric constant tensor:
#      x y z
#    x 1.914000 0.000000 0.000000 
#    y 0.000000 2.000200 0.000000 
#    z 0.000000 0.000000 2.146260 
# 
# From -- ./inp_files/4222.got.cif
#   From: 2010.05.17/outbox.cif.g08.bks.cpg/sg29_3_cif.got.tgz:4222.got - 2010.06.04 01:19:37.
