data_PCOD9341421
_publ_section_title
;
Structure prediction by ZEFSAII (Michael W. Deem and Ramdas Pophale) SiO2 
 PCOD9341421
Probable space group: P C A 21
;
_chemical_formula_sum "Si O2"
_cell_formula_units_Z 28
_cell_length_a 14.285821
_cell_length_b 17.719704
_cell_length_c 4.951476
_cell_angle_alpha 90.000000
_cell_angle_beta 90.000000
_cell_angle_gamma 90.000000
_cell_volume 1253.419207
_symmetry_space_group_name_H-M "P C A 21"
_symmetry_group_IT_number 29
_symmetry_cell_setting 'orthorhombic'
loop_
_space_group_symop_operation_xyz
x,y,z
-x,-y,1/2+z
1/2-x,y,1/2+z
1/2+x,-y,z
loop_
_atom_site_type_symbol
_atom_site_label
_atom_site_fract_x
_atom_site_fract_y
_atom_site_fract_z
Si Si1 0.814651 0.833335 0.954120
Si Si2 0.188412 0.640253 0.513708
Si Si3 0.554239 0.711851 0.272850
Si Si4 0.011024 0.549387 0.613142
Si Si5 0.444321 0.763949 0.783488
Si Si6 0.187780 0.896801 0.293928
Si Si7 0.941084 0.973073 0.864022
O O1 0.731257 0.846572 0.742943
O O2 0.852994 0.748926 0.896299
O O3 0.903831 0.888816 0.915475
O O4 0.223801 0.634099 0.817465
O O5 0.107225 0.579149 0.481201
O O6 0.138956 0.717727 0.427177
O O7 0.548786 0.623894 0.191837
O O8 0.476762 0.725650 0.506093
O O9 0.527193 0.758031 0.001836
O O10 0.967134 0.497123 0.383180
O O11 0.402129 0.845674 0.732567
O O12 0.271113 0.881628 0.087787
O O13 0.151535 0.981725 0.273018
O O14 0.981897 0.013905 0.131440
#
# Coordination Sequence:
#
# PCOD9341421 Si02
#       7
#     4   4   4   4   4   4   4
#     4  12  25  44  66  94 129 171 220 274 318 371
#     4  11  21  37  60  91 121 155 196 248 308 371
#     4  11  23  42  65  90 121 166 212 250 312 387
#     4  11  23  42  65  90 125 165 206 257 317 384
#     4  11  21  38  62  91 125 161 200 248 308 385
#     4  12  23  37  58  91 125 157 197 253 309 359
#     4  12  24  42  64  89 124 169 217 262 314 371
#
# _framework density 22.338896999999999
#
# number of rings (size 3 to 8) (size 9 to 14) (size 15 to 20)
#    0.000    0.571    0.000   11.143    0.000    0.000 
#    0.000    4.286    0.000    0.000    0.000    0.000 
#    0.000    0.000    0.000    0.000    0.000    0.000 
#
# Total GULP energy -156652.890992 kJ/mol
# GULP energy per Si atom -5594.746107 kJ/mol
# Density = 2.228805 g / cm^3
# Si number density = 22.338897 Si / 1000 Ang^3
#
#
#
# Elastic Constant Matrix: (Units=GPa)
#
#
# Indices 1 2 3 4 5 6 
#
# 1 55.9488 21.2258 6.4304 0.0000 0.0000 0.0000
# 2 21.2258 90.1070 11.1323 0.0000 0.0000 0.0000
# 3 6.4304 11.1323 73.9039 0.0000 0.0000 0.0000
# 4 0.0000 0.0000 0.0000 23.6127 0.0000 0.0000
# 5 0.0000 0.0000 0.0000 0.0000 43.2345 0.0000
# 6 0.0000 0.0000 0.0000 0.0000 0.0000 20.0432
#
#
#
# Elastic Compliance Matrix: (Units=1/GPa)
#
#
# Indices 1 2 3 4 5 6 
#
# 1 0.019705 -0.004514 -0.001035 0.000000 0.000000 0.000000
# 2 -0.004514 0.012342 -0.001466 0.000000 0.000000 0.000000
# 3 -0.001035 -0.001466 0.013842 0.000000 0.000000 0.000000
# 4 0.000000 0.000000 0.000000 0.042350 0.000000 0.000000
# 5 0.000000 0.000000 0.000000 0.000000 0.023130 0.000000
# 6 0.000000 0.000000 0.000000 0.000000 0.000000 0.049892
#
#
# Mechanical properties :
#
#
# Convention : Reuss Voigt Hill
#
# Bulk Modulus (GPa) = 31.38784 33.05963 32.22374
# Shear Modulus (GPa) = 26.89460 29.45616 28.17538
#
# Velocity S-wave (km/s) = 3.47354 3.63520 3.55529
# Velocity P-wave (km/s) = 5.49259 5.69656 5.59551
#
# Compressibility (1/GPa) = 0.03185947
#
# Stress axis : x y z
#
# Youngs Moduli (GPa) = 50.74890 81.02160 72.24389
#
# Poissons Ratio (x) = 0.36572 0.07474
# Poissons Ratio (y) = 0.22908 0.10594
# Poissons Ratio (z) = 0.05250 0.11881
#
# Static dielectric constant tensor:
#      x y z
#    x 1.842410 0.000000 0.000000 
#    y 0.000000 1.844820 0.000000 
#    z 0.000000 0.000000 1.812830 
# 
# From -- ./inp_files/109.got.cif
#   From: 2010.05.17/outbox.cif.g08.bks.cpg/sg29_1_cif.got.tgz:109.got - 2010.06.04 01:19:37.
