data_PCOD9341083
_publ_section_title
;
Structure prediction by ZEFSAII (Michael W. Deem and Ramdas Pophale) SiO2 
 PCOD9341083
Probable space group: P C A 21
;
_chemical_formula_sum "Si O2"
_cell_formula_units_Z 32
_cell_length_a 11.319630
_cell_length_b 4.833242
_cell_length_c 22.531997
_cell_angle_alpha 90.000000
_cell_angle_beta 90.000000
_cell_angle_gamma 90.000000
_cell_volume 1232.737073
_symmetry_space_group_name_H-M "P C A 21"
_symmetry_group_IT_number 29
_symmetry_cell_setting 'orthorhombic'
loop_
_space_group_symop_operation_xyz
x,y,z
-x,-y,1/2+z
1/2-x,y,1/2+z
1/2+x,-y,z
loop_
_atom_site_type_symbol
_atom_site_label
_atom_site_fract_x
_atom_site_fract_y
_atom_site_fract_z
Si Si1 0.553096 0.432649 0.060160
Si Si2 0.237456 0.076082 0.190581
Si Si3 0.935927 0.071471 0.395217
Si Si4 0.786469 0.932499 0.554795
Si Si5 0.288276 0.448374 0.385690
Si Si6 0.884758 0.273843 0.971784
Si Si7 0.397191 0.731858 0.277096
Si Si8 0.076131 0.575881 0.196036
O O1 0.594306 0.117670 0.054755
O O2 0.528394 0.479338 0.129769
O O3 0.667796 0.622634 0.044864
O O4 0.446246 0.533477 0.020632
O O5 0.268537 0.047287 0.120822
O O6 0.335068 0.948974 0.233624
O O7 0.120292 0.888690 0.200345
O O8 0.194421 0.387419 0.201130
O O9 0.822093 0.870062 0.388558
O O10 0.024793 0.921881 0.437350
O O11 0.892542 0.369917 0.416944
O O12 0.976934 0.117345 0.327592
O O13 0.703934 0.069141 0.506219
O O14 0.174021 0.535580 0.421135
O O15 0.302066 0.570393 0.319205
O O16 0.479139 0.520707 0.242158
#
# Coordination Sequence:
#
# PCOD9341083 Si02
#       8
#     4   4   4   4   4   4   4   4
#     4  10  23  42  64  99 127 160 217 265 317 395
#     4  10  23  41  67  97 125 166 207 267 325 380
#     4  10  26  43  58  96 126 163 223 252 307 379
#     4  10  23  42  64  99 128 159 215 263 320 388
#     4  10  26  41  60  93 128 164 218 261 297 385
#     4  12  23  43  70  87 132 178 202 267 330 360
#     4  10  25  42  65  90 132 163 218 260 310 381
#     4  10  23  40  68  95 128 165 210 265 330 376
#
# _framework density 25.958494999999999
#
# number of rings (size 3 to 8) (size 9 to 14) (size 15 to 20)
#    0.750    1.000    0.000    2.250    5.250    4.000 
#    0.000    7.500    0.000    0.000    0.000    0.000 
#    0.000    0.000    0.000    0.000    0.000    0.000 
#
# Total GULP energy -179510.921517 kJ/mol
# GULP energy per Si atom -5609.716297 kJ/mol
# Density = 2.589941 g / cm^3
# Si number density = 25.958495 Si / 1000 Ang^3
#
#
#
# Elastic Constant Matrix: (Units=GPa)
#
#
# Indices 1 2 3 4 5 6 
#
# 1 21.1394 0.1550 23.9036 0.0000 0.0000 0.0000
# 2 0.1550 100.7352 24.3842 0.0000 0.0000 0.0000
# 3 23.9036 24.3842 148.9290 0.0000 0.0000 0.0000
# 4 0.0000 0.0000 0.0000 32.1821 0.0000 0.0000
# 5 0.0000 0.0000 0.0000 0.0000 48.1391 0.0000
# 6 0.0000 0.0000 0.0000 0.0000 0.0000 27.6543
#
#
#
# Elastic Compliance Matrix: (Units=1/GPa)
#
#
# Indices 1 2 3 4 5 6 
#
# 1 0.058286 0.002265 -0.009726 0.000000 0.000000 0.000000
# 2 0.002265 0.010425 -0.002070 0.000000 0.000000 0.000000
# 3 -0.009726 -0.002070 0.008615 0.000000 0.000000 0.000000
# 4 0.000000 0.000000 0.000000 0.031073 0.000000 0.000000
# 5 0.000000 0.000000 0.000000 0.000000 0.020773 0.000000
# 6 0.000000 0.000000 0.000000 0.000000 0.000000 0.036161
#
#
# Mechanical properties :
#
#
# Convention : Reuss Voigt Hill
#
# Bulk Modulus (GPa) = 17.16380 40.85436 29.00908
# Shear Modulus (GPa) = 24.53189 36.41915 30.47552
#
# Velocity S-wave (km/s) = 3.07749 3.74970 3.43010
# Velocity P-wave (km/s) = 4.38797 5.87533 5.18526
#
# Compressibility (1/GPa) = 0.05826215
#
# Stress axis : x y z
#
# Youngs Moduli (GPa) = 17.15676 95.92619 116.08172
#
# Poissons Ratio (x) = -0.21723 1.12900
# Poissons Ratio (y) = -0.03885 0.24033
# Poissons Ratio (z) = 0.16686 0.19860
#
# Static dielectric constant tensor:
#      x y z
#    x 2.072990 0.000000 0.000000 
#    y 0.000000 1.961110 0.000000 
#    z 0.000000 0.000000 2.033830 
# 
# From -- ./inp_files/5717.got.cif
#   From: 2010.05.17/outbox.cif.g08.bks.cpg/sg29_3_cif.got.tgz:5717.got - 2010.06.04 01:19:37.
