data_PCOD9341059
_publ_section_title
;
Structure prediction by ZEFSAII (Michael W. Deem and Ramdas Pophale) SiO2 
 PCOD9341059
Probable space group: P C A 21
;
_chemical_formula_sum "Si O2"
_cell_formula_units_Z 32
_cell_length_a 16.811594
_cell_length_b 6.812605
_cell_length_c 10.954874
_cell_angle_alpha 90.000000
_cell_angle_beta 90.000000
_cell_angle_gamma 90.000000
_cell_volume 1254.669928
_symmetry_space_group_name_H-M "P C A 21"
_symmetry_group_IT_number 29
_symmetry_cell_setting 'orthorhombic'
loop_
_space_group_symop_operation_xyz
x,y,z
-x,-y,1/2+z
1/2-x,y,1/2+z
1/2+x,-y,z
loop_
_atom_site_type_symbol
_atom_site_label
_atom_site_fract_x
_atom_site_fract_y
_atom_site_fract_z
Si Si1 0.097161 0.040027 0.892540
Si Si2 0.692161 0.285012 0.871650
Si Si3 0.182984 0.970545 0.462716
Si Si4 0.437604 0.698553 0.864525
Si Si5 0.138714 0.206828 0.658602
Si Si6 0.232282 0.510512 0.133068
Si Si7 0.958418 0.066300 0.644658
Si Si8 0.401067 0.283854 0.787358
O O1 0.140985 0.196136 0.804244
O O2 0.012362 0.162276 0.893350
O O3 0.107663 0.815893 0.838893
O O4 0.097509 0.983797 0.033227
O O5 0.733978 0.078685 0.905672
O O6 0.738301 0.367601 0.753957
O O7 0.701670 0.406449 0.000230
O O8 0.131226 0.774242 0.451641
O O9 0.188456 0.029510 0.601759
O O10 0.141824 0.143816 0.386367
O O11 0.443266 0.466677 0.854489
O O12 0.415494 0.772573 0.728449
O O13 0.185294 0.392364 0.608333
O O14 0.046759 0.156361 0.622462
O O15 0.164027 0.370004 0.191877
O O16 0.959848 0.861120 0.716205
#
# Coordination Sequence:
#
# PCOD9341059 Si02
#       8
#     4   4   4   4   4   4   4   4
#     4  11  24  47  73 107 154 198 258 325 394 472
#     4  12  27  47  80 114 157 202 265 330 398 472
#     4  11  23  47  75 103 152 205 248 315 398 468
#     4  10  22  48  70 109 146 197 257 308 392 468
#     4  11  25  47  70 112 155 201 260 330 394 466
#     4  12  27  48  79 120 154 207 270 331 394 486
#     4  10  24  46  71 107 153 202 248 325 391 464
#     4  11  24  46  80 106 147 208 256 314 397 476
#
# _framework density 25.504715999999998
#
# number of rings (size 3 to 8) (size 9 to 14) (size 15 to 20)
#    0.000    1.000    2.500    3.000    5.250    0.000 
#   22.500    0.000    0.000    0.000    0.000    0.000 
#    0.000    0.000    0.000    0.000    0.000    0.000 
#
# Total GULP energy -178285.588282 kJ/mol
# GULP energy per Si atom -5571.424634 kJ/mol
# Density = 2.544667 g / cm^3
# Si number density = 25.504716 Si / 1000 Ang^3
#
#
#
# Elastic Constant Matrix: (Units=GPa)
#
#
# Indices 1 2 3 4 5 6 
#
# 1 79.0059 49.0855 27.9216 0.0000 0.0000 0.0000
# 2 49.0855 126.8441 37.2167 0.0000 0.0000 0.0000
# 3 27.9216 37.2167 92.6571 0.0000 0.0000 0.0000
# 4 0.0000 0.0000 0.0000 24.9626 0.0000 0.0000
# 5 0.0000 0.0000 0.0000 0.0000 30.2984 0.0000
# 6 0.0000 0.0000 0.0000 0.0000 0.0000 53.2295
#
#
#
# Elastic Compliance Matrix: (Units=1/GPa)
#
#
# Indices 1 2 3 4 5 6 
#
# 1 0.017309 -0.005858 -0.002863 0.000000 0.000000 0.000000
# 2 -0.005858 0.010920 -0.002621 0.000000 0.000000 0.000000
# 3 -0.002863 -0.002621 0.012708 0.000000 0.000000 0.000000
# 4 0.000000 0.000000 0.000000 0.040060 0.000000 0.000000
# 5 0.000000 0.000000 0.000000 0.000000 0.033005 0.000000
# 6 0.000000 0.000000 0.000000 0.000000 0.000000 0.018787
#
#
# Mechanical properties :
#
#
# Convention : Reuss Voigt Hill
#
# Bulk Modulus (GPa) = 54.78622 58.55053 56.66838
# Shear Modulus (GPa) = 30.94924 33.98365 32.46645
#
# Velocity S-wave (km/s) = 3.48727 3.65423 3.57173
# Velocity P-wave (km/s) = 6.14347 6.38836 6.26711
#
# Compressibility (1/GPa) = 0.01825277
#
# Stress axis : x y z
#
# Youngs Moduli (GPa) = 57.77483 91.57920 78.69176
#
# Poissons Ratio (x) = 0.53647 0.22529
# Poissons Ratio (y) = 0.33845 0.20622
# Poissons Ratio (z) = 0.16540 0.24000
#
# Static dielectric constant tensor:
#      x y z
#    x 2.237210 0.000000 0.000000 
#    y 0.000000 2.059810 0.000000 
#    z 0.000000 0.000000 2.098910 
# 
# From -- ./inp_files/3864.got.cif
#   From: 2010.05.17/outbox.cif.g08.bks.cpg/sg29_2_cif.got.tgz:3864.got - 2010.06.04 01:19:37.
