data_PCOD9341557
_publ_section_title
;
Structure prediction by ZEFSAII (Michael W. Deem and Ramdas Pophale) SiO2 
 PCOD9341557
Probable space group: P C A 21
;
_chemical_formula_sum "Si O2"
_cell_formula_units_Z 24
_cell_length_a 8.512596
_cell_length_b 12.913762
_cell_length_c 8.485425
_cell_angle_alpha 90.000000
_cell_angle_beta 90.000000
_cell_angle_gamma 90.000000
_cell_volume 932.799705
_symmetry_space_group_name_H-M "P C A 21"
_symmetry_group_IT_number 29
_symmetry_cell_setting 'orthorhombic'
loop_
_space_group_symop_operation_xyz
x,y,z
-x,-y,1/2+z
1/2-x,y,1/2+z
1/2+x,-y,z
loop_
_atom_site_type_symbol
_atom_site_label
_atom_site_fract_x
_atom_site_fract_y
_atom_site_fract_z
Si Si1 0.104205 0.630217 0.829680
Si Si2 0.179553 0.089534 0.811053
Si Si3 0.607189 0.693188 0.758315
Si Si4 0.205444 0.755020 0.107026
Si Si5 0.603503 0.043667 0.520215
Si Si6 0.287622 0.435882 0.960805
O O1 0.167193 0.670675 0.664528
O O2 0.217249 0.546281 0.914097
O O3 0.929362 0.586349 0.838254
O O4 0.118321 0.728610 0.944536
O O5 0.218577 0.206024 0.757371
O O6 0.095196 0.036514 0.663032
O O7 0.059470 0.089421 0.958494
O O8 0.320396 0.019757 0.875274
O O9 0.433967 0.739455 0.734212
O O10 0.640958 0.603878 0.626830
O O11 0.642336 0.639381 0.922816
O O12 0.286038 0.864402 0.082814
#
# Coordination Sequence:
#
# PCOD9341557 Si02
#       6
#     4   4   4   4   4   4
#     4  11  24  42  66  96 131 174 221 279 343 414
#     4  12  25  44  69 101 140 185 237 297 360 426
#     4  11  24  43  66  96 133 175 225 281 344 416
#     4  11  24  44  67  95 133 177 225 279 343 411
#     4  12  26  45  70 102 141 187 240 298 360 428
#     4  11  25  42  66  98 132 172 224 278 344 419
#
# _framework density 25.728995999999999
#
# number of rings (size 3 to 8) (size 9 to 14) (size 15 to 20)
#    0.000    0.667    0.000    8.000    0.000   12.000 
#    0.000    0.000    0.000    0.000    0.000    0.000 
#    0.000    0.000    0.000    0.000    0.000    0.000 
#
# Total GULP energy -134351.790136 kJ/mol
# GULP energy per Si atom -5597.991256 kJ/mol
# Density = 2.567044 g / cm^3
# Si number density = 25.728996 Si / 1000 Ang^3
#
#
#
# Elastic Constant Matrix: (Units=GPa)
#
#
# Indices 1 2 3 4 5 6 
#
# 1 66.6751 -6.3215 -1.8054 0.0000 0.0000 0.0000
# 2 -6.3215 100.6740 -3.1330 0.0000 0.0000 0.0000
# 3 -1.8054 -3.1330 59.0074 0.0000 0.0000 0.0000
# 4 0.0000 0.0000 0.0000 39.3788 0.0000 0.0000
# 5 0.0000 0.0000 0.0000 0.0000 25.9036 0.0000
# 6 0.0000 0.0000 0.0000 0.0000 0.0000 -60.1011
#
#
#
# Elastic Compliance Matrix: (Units=1/GPa)
#
#
# Indices 1 2 3 4 5 6 
#
# 1 0.015103 0.000964 0.000513 0.000000 0.000000 0.000000
# 2 0.000964 0.010011 0.000561 0.000000 0.000000 0.000000
# 3 0.000513 0.000561 0.016993 0.000000 0.000000 0.000000
# 4 0.000000 0.000000 0.000000 0.025394 0.000000 0.000000
# 5 0.000000 0.000000 0.000000 0.000000 0.038605 0.000000
# 6 0.000000 0.000000 0.000000 0.000000 0.000000 -0.016639
#
#
# Mechanical properties :
#
#
# Convention : Reuss Voigt Hill
#
# Bulk Modulus (GPa) = 21.65231 22.64851 22.15041
# Shear Modulus (GPa) = 49.61064 16.87735 33.24400
#
# Velocity S-wave (km/s) = 4.39589 2.56396 3.59846
# Velocity P-wave (km/s) = 5.84799 4.19369 5.08851
#
# Compressibility (1/GPa) = 0.04618444
#
# Stress axis : x y z
#
# Youngs Moduli (GPa) = 66.21011 99.88944 58.84939
#
# Poissons Ratio (x) = -0.09633 -0.03021
# Poissons Ratio (y) = -0.06385 -0.03302
# Poissons Ratio (z) = -0.03399 -0.05604
#
# Static dielectric constant tensor:
#      x y z
#    x 2.033740 0.000000 0.000000 
#    y 0.000000 1.996810 0.000000 
#    z 0.000000 0.000000 2.009000 
# 
# From -- ./inp_files/1126.got.cif
#   From: 2010.05.17/outbox.cif.g08.bks.cpg/sg29_1_cif.got.tgz:1126.got - 2010.06.04 01:19:37.
