data_PCOD9341352
_publ_section_title
;
Structure prediction by ZEFSAII (Michael W. Deem and Ramdas Pophale) SiO2 
 PCOD9341352
Probable space group: P C A 21
;
_chemical_formula_sum "Si O2"
_cell_formula_units_Z 24
_cell_length_a 16.825210
_cell_length_b 5.290325
_cell_length_c 10.478408
_cell_angle_alpha 90.000000
_cell_angle_beta 90.000000
_cell_angle_gamma 90.000000
_cell_volume 932.691784
_symmetry_space_group_name_H-M "P C A 21"
_symmetry_group_IT_number 29
_symmetry_cell_setting 'orthorhombic'
loop_
_space_group_symop_operation_xyz
x,y,z
-x,-y,1/2+z
1/2-x,y,1/2+z
1/2+x,-y,z
loop_
_atom_site_type_symbol
_atom_site_label
_atom_site_fract_x
_atom_site_fract_y
_atom_site_fract_z
Si Si1 0.660014 0.767135 0.951960
Si Si2 0.096185 0.722876 0.421420
Si Si3 0.124362 0.745733 0.802173
Si Si4 0.449555 0.211770 0.886334
Si Si5 0.233219 0.605704 0.572129
Si Si6 0.125950 0.956379 0.179406
O O1 0.635222 0.496119 0.896217
O O2 0.666365 0.990777 0.847700
O O3 0.734760 0.674809 0.039938
O O4 0.600615 0.895632 0.053491
O O5 0.054966 0.469201 0.460773
O O6 0.190110 0.699090 0.442810
O O7 0.064495 0.978863 0.480051
O O8 0.077932 0.760118 0.269302
O O9 0.162748 0.641099 0.673393
O O10 0.030630 0.802682 0.807629
O O11 0.374176 0.176423 0.788901
O O12 0.301571 0.787981 0.626439
#
# Coordination Sequence:
#
# PCOD9341352 Si02
#       6
#     4   4   4   4   4   4
#     4  12  27  47  73 112 151 192 254 316 368 461
#     4  10  25  46  74 105 150 191 248 304 377 436
#     4  12  29  46  78 110 152 200 255 306 393 438
#     4  10  25  49  71 111 150 194 250 306 374 456
#     4  12  27  47  78 112 149 199 256 318 367 456
#     4  10  25  47  74 106 148 194 245 310 371 437
#
# _framework density 25.731974999999998
#
# number of rings (size 3 to 8) (size 9 to 14) (size 15 to 20)
#    1.000    0.000    1.667    3.000    7.000    2.667 
#    0.000    0.000    0.000    0.000    0.000    0.000 
#    0.000    0.000    0.000    0.000    0.000    0.000 
#
# Total GULP energy -133639.647996 kJ/mol
# GULP energy per Si atom -5568.318667 kJ/mol
# Density = 2.567341 g / cm^3
# Si number density = 25.731975 Si / 1000 Ang^3
#
#
#
# Elastic Constant Matrix: (Units=GPa)
#
#
# Indices 1 2 3 4 5 6 
#
# 1 94.0190 57.5247 18.4654 0.0000 0.0000 0.0000
# 2 57.5247 202.3384 33.6586 0.0000 0.0000 0.0000
# 3 18.4654 33.6586 70.5918 0.0000 0.0000 0.0000
# 4 0.0000 0.0000 0.0000 28.9565 0.0000 0.0000
# 5 0.0000 0.0000 0.0000 0.0000 34.1687 0.0000
# 6 0.0000 0.0000 0.0000 0.0000 0.0000 26.2927
#
#
#
# Elastic Compliance Matrix: (Units=1/GPa)
#
#
# Indices 1 2 3 4 5 6 
#
# 1 0.013081 -0.003421 -0.001791 0.000000 0.000000 0.000000
# 2 -0.003421 0.006263 -0.002091 0.000000 0.000000 0.000000
# 3 -0.001791 -0.002091 0.015631 0.000000 0.000000 0.000000
# 4 0.000000 0.000000 0.000000 0.034535 0.000000 0.000000
# 5 0.000000 0.000000 0.000000 0.000000 0.029267 0.000000
# 6 0.000000 0.000000 0.000000 0.000000 0.000000 0.038033
#
#
# Mechanical properties :
#
#
# Convention : Reuss Voigt Hill
#
# Bulk Modulus (GPa) = 49.09308 65.13851 57.11579
# Shear Modulus (GPa) = 31.60457 35.03695 33.32076
#
# Velocity S-wave (km/s) = 3.50840 3.69400 3.60240
# Velocity P-wave (km/s) = 5.96086 6.60026 6.28869
#
# Compressibility (1/GPa) = 0.02036947
#
# Stress axis : x y z
#
# Youngs Moduli (GPa) = 76.44700 159.67585 63.97372
#
# Poissons Ratio (x) = 0.54626 0.11455
# Poissons Ratio (y) = 0.26153 0.13378
# Poissons Ratio (z) = 0.13688 0.33392
#
# Static dielectric constant tensor:
#      x y z
#    x 2.118870 0.000000 0.000000 
#    y 0.000000 2.096410 0.000000 
#    z 0.000000 0.000000 2.091800 
# 
# From -- ./inp_files/3563.got.cif
#   From: 2010.05.17/outbox.cif.g08.bks.cpg/sg29_2_cif.got.tgz:3563.got - 2010.06.04 01:19:37.
