data_PCOD9341989
_publ_section_title
;
Structure prediction by ZEFSAII (Michael W. Deem and Ramdas Pophale) SiO2 
 PCOD9341989
Probable space group: P N C 2
;
_chemical_formula_sum "Si O2"
_cell_formula_units_Z 24
_cell_length_a 8.093433
_cell_length_b 15.714986
_cell_length_c 9.424840
_cell_angle_alpha 90.000000
_cell_angle_beta 90.000000
_cell_angle_gamma 90.000000
_cell_volume 1198.728306
_symmetry_space_group_name_H-M "P N C 2"
_symmetry_group_IT_number 30
_symmetry_cell_setting 'orthorhombic'
loop_
_space_group_symop_operation_xyz
x,y,z
-x,-y,z
-x,1/2+y,1/2+z
x,1/2-y,1/2+z
loop_
_atom_site_type_symbol
_atom_site_label
_atom_site_fract_x
_atom_site_fract_y
_atom_site_fract_z
Si Si1 0.722843 0.316277 0.191090
Si Si2 0.310858 0.843113 0.017471
Si Si3 0.614598 0.733536 0.073769
Si Si4 0.193280 0.172257 0.302040
Si Si5 0.097890 0.911202 0.452622
Si Si6 0.306105 0.510476 0.713197
O O1 0.769913 0.224325 0.125920
O O2 0.740847 0.324513 0.357923
O O3 0.527079 0.322395 0.150883
O O4 0.827566 0.382451 0.101021
O O5 0.506010 0.817989 0.034135
O O6 0.273224 0.937353 0.069887
O O7 0.761336 0.758793 0.181476
O O8 0.678609 0.690196 0.930682
O O9 0.221922 0.080723 0.228735
O O10 0.019582 0.160217 0.381870
O O11 0.242783 0.931330 0.342011
O O12 0.000000 0.000000 0.468158
O O13 0.500000 0.500000 0.726829
#
# Coordination Sequence:
#
# PCOD9341989 Si02
#       6
#     4   4   4   4   4   4
#     4  10  19  38  62  92 125 167 220 266 312 408
#     4  10  20  35  68  92 117 161 232 262 318 384
#     4  10  19  39  63  92 120 169 220 263 323 403
#     4  11  22  39  62  92 135 163 214 277 337 395
#     4  10  24  40  60  96 134 179 214 272 352 391
#     4  11  20  40  64  89 123 174 221 268 318 399
#
# _framework density 20.021218000000001
#
# number of rings (size 3 to 8) (size 9 to 14) (size 15 to 20)
#    1.000    0.667    3.333    2.000    0.000    2.667 
#    0.000   10.000    0.000    0.000    0.000    0.000 
#    0.000    0.000    0.000    0.000    0.000    0.000 
#
# Total GULP energy -133793.454092 kJ/mol
# GULP energy per Si atom -5574.727254 kJ/mol
# Density = 1.997565 g / cm^3
# Si number density = 20.021218 Si / 1000 Ang^3
#
#
#
# Elastic Constant Matrix: (Units=GPa)
#
#
# Indices 1 2 3 4 5 6 
#
# 1 39.1483 28.7737 43.4294 0.0000 0.0000 0.0000
# 2 28.7737 67.0794 61.1092 0.0000 0.0000 0.0000
# 3 43.4294 61.1092 167.7849 0.0000 0.0000 0.0000
# 4 0.0000 0.0000 0.0000 34.6256 0.0000 0.0000
# 5 0.0000 0.0000 0.0000 0.0000 19.3668 0.0000
# 6 0.0000 0.0000 0.0000 0.0000 0.0000 26.5284
#
#
#
# Elastic Compliance Matrix: (Units=1/GPa)
#
#
# Indices 1 2 3 4 5 6 
#
# 1 0.041387 -0.011963 -0.006356 0.000000 0.000000 0.000000
# 2 -0.011963 0.025768 -0.006288 0.000000 0.000000 0.000000
# 3 -0.006356 -0.006288 0.009895 0.000000 0.000000 0.000000
# 4 0.000000 0.000000 0.000000 0.028880 0.000000 0.000000
# 5 0.000000 0.000000 0.000000 0.000000 0.051635 0.000000
# 6 0.000000 0.000000 0.000000 0.000000 0.000000 0.037695
#
#
# Mechanical properties :
#
#
# Convention : Reuss Voigt Hill
#
# Bulk Modulus (GPa) = 35.92419 60.07078 47.99749
# Shear Modulus (GPa) = 19.70406 25.48419 22.59412
#
# Velocity S-wave (km/s) = 3.14053 3.57159 3.36297
# Velocity P-wave (km/s) = 5.57966 6.86127 6.25338
#
# Compressibility (1/GPa) = 0.02783640
#
# Stress axis : x y z
#
# Youngs Moduli (GPa) = 24.16195 38.80758 101.05692
#
# Poissons Ratio (x) = 0.46427 0.64227
# Poissons Ratio (y) = 0.28906 0.63550
# Poissons Ratio (z) = 0.15356 0.24404
#
# Static dielectric constant tensor:
#      x y z
#    x 1.747340 0.000000 0.000000 
#    y 0.000000 1.729180 0.000000 
#    z 0.000000 0.000000 1.665400 
# 
# From -- ./inp_files/1932.got.cif
#   From: 2010.05.17/outbox.cif.g08.bks.cpg/sg30_1_cif.got.tgz:1932.got - 2010.06.03 17:03:02.
