data_PCOD9341924
_publ_section_title
;
Structure prediction by ZEFSAII (Michael W. Deem and Ramdas Pophale) SiO2 
 PCOD9341924
Probable space group: P N C 2
;
_chemical_formula_sum "Si O2"
_cell_formula_units_Z 30
_cell_length_a 8.477872
_cell_length_b 9.662152
_cell_length_c 16.385764
_cell_angle_alpha 90.000000
_cell_angle_beta 90.000000
_cell_angle_gamma 90.000000
_cell_volume 1342.231467
_symmetry_space_group_name_H-M "P N C 2"
_symmetry_group_IT_number 30
_symmetry_cell_setting 'orthorhombic'
loop_
_space_group_symop_operation_xyz
x,y,z
-x,-y,z
-x,1/2+y,1/2+z
x,1/2-y,1/2+z
loop_
_atom_site_type_symbol
_atom_site_label
_atom_site_fract_x
_atom_site_fract_y
_atom_site_fract_z
Si Si1 0.500000 0.158832 0.172070
Si Si2 0.828792 0.740627 0.917279
Si Si3 0.828791 0.240627 0.417279
Si Si4 0.828089 0.165507 0.103872
Si Si5 0.500000 0.301988 0.863582
Si Si6 0.166620 0.500000 0.292698
Si Si7 0.171911 0.165507 0.103872
Si Si8 0.500000 0.500000 0.303607
O O1 0.666692 0.221131 0.143135
O O2 0.499999 0.156867 0.269360
O O3 0.333308 0.221131 0.143135
O O4 0.500000 0.000000 0.140749
O O5 0.666809 0.658624 0.902668
O O6 0.000000 0.668725 0.909832
O O7 0.832543 0.864980 0.851131
O O8 0.821181 0.805091 0.007546
O O9 0.821181 0.305090 0.507547
O O10 0.666809 0.158624 0.402668
O O11 0.832543 0.364981 0.351131
O O12 0.000000 0.217755 0.134218
O O13 0.829784 0.000000 0.117605
O O14 0.500000 0.134033 0.861316
O O15 0.338827 0.500000 0.252536
O O16 0.000000 0.500000 0.246713
#
# Coordination Sequence:
#
# PCOD9341924 Si02
#       8
#     4   4   4   4   4   4   4   2
#     4  10  21  32  43  64  99 133 155 177 217 279
#     4   9  15  25  44  68  91 112 143 189 235 274
#     4   9  15  25  44  68  91 112 143 189 235 274
#     4   9  16  28  47  70  93 117 148 192 241 278
#     4  10  19  29  43  68  96 122 150 182 229 277
#     4   8  12  20  36  62  90 106 123 166 228 276
#     4   9  16  28  47  70  93 117 148 192 241 278
#     4   8  16  26  40  60  86 114 140 176 220 264
#
# _framework density 22.350839000000001
#
# number of rings (size 3 to 8) (size 9 to 14) (size 15 to 20)
#    0.000    2.933    1.333    0.800    0.000    1.067 
#    0.000    0.000    0.000    0.000    6.933    0.000 
#    0.000    0.000    0.000    0.000    0.000    0.000 
#
# Total GULP energy -167067.851011 kJ/mol
# GULP energy per Si atom -5568.928367 kJ/mol
# Density = 2.229997 g / cm^3
# Si number density = 22.350839 Si / 1000 Ang^3
#
#
#
# Elastic Constant Matrix: (Units=GPa)
#
#
# Indices 1 2 3 4 5 6 
#
# 1 330.6350 7.0395 42.3348 0.0000 0.0000 0.0000
# 2 7.0395 66.1287 -0.0707 0.0000 0.0000 0.0000
# 3 42.3348 -0.0707 29.3618 0.0000 0.0000 0.0000
# 4 0.0000 0.0000 0.0000 4.9032 0.0000 0.0000
# 5 0.0000 0.0000 0.0000 0.0000 5793.2379 0.0000
# 6 0.0000 0.0000 0.0000 0.0000 0.0000 -25.0122
#
#
#
# Elastic Compliance Matrix: (Units=1/GPa)
#
#
# Indices 1 2 3 4 5 6 
#
# 1 0.003720 -0.000402 -0.005364 0.000000 0.000000 0.000000
# 2 -0.000402 0.015165 0.000616 0.000000 0.000000 0.000000
# 3 -0.005364 0.000616 0.041794 0.000000 0.000000 0.000000
# 4 0.000000 0.000000 0.000000 0.203948 0.000000 0.000000
# 5 0.000000 0.000000 0.000000 0.000000 0.000173 0.000000
# 6 0.000000 0.000000 0.000000 0.000000 0.000000 -0.039981
#
#
# Mechanical properties :
#
#
# Convention : Reuss Voigt Hill
#
# Bulk Modulus (GPa) = 19.84971 58.30360 39.07666
# Shear Modulus (GPa) = 19.84811 1179.74724 599.79767
#
# Velocity S-wave (km/s) = 2.98321 22.99950 16.39934
# Velocity P-wave (km/s) = 4.55700 27.04524 19.39345
#
# Compressibility (1/GPa) = 0.05037856
#
# Stress axis : x y z
#
# Youngs Moduli (GPa) = 268.82406 65.93939 23.92686
#
# Poissons Ratio (x) = 0.02649 0.12835
# Poissons Ratio (y) = 0.10799 -0.01473
# Poissons Ratio (z) = 1.44209 -0.04060
#
# Static dielectric constant tensor:
#      x y z
#    x 1.782650 0.000000 0.000000 
#    y 0.000000 1.818530 0.000000 
#    z 0.000000 0.000000 1.734640 
# 
# From -- ./inp_files/3752.got.cif
#   From: 2010.05.17/outbox.cif.g08.bks.cpg/sg30_2_cif.got.tgz:3752.got - 2010.06.03 17:03:02.
