data_PCOD9341763
_publ_section_title
;
Structure prediction by ZEFSAII (Michael W. Deem and Ramdas Pophale) SiO2 
 PCOD9341763
Probable space group: P C A 21
;
_chemical_formula_sum "Si O2"
_cell_formula_units_Z 12
_cell_length_a 8.400424
_cell_length_b 4.800511
_cell_length_c 10.661104
_cell_angle_alpha 90.000000
_cell_angle_beta 90.000000
_cell_angle_gamma 90.000000
_cell_volume 429.923175
_symmetry_space_group_name_H-M "P C A 21"
_symmetry_group_IT_number 29
_symmetry_cell_setting 'orthorhombic'
loop_
_space_group_symop_operation_xyz
x,y,z
-x,-y,1/2+z
1/2-x,y,1/2+z
1/2+x,-y,z
loop_
_atom_site_type_symbol
_atom_site_label
_atom_site_fract_x
_atom_site_fract_y
_atom_site_fract_z
Si Si1 0.533311 0.356591 0.182910
Si Si2 0.966689 0.143410 0.353825
Si Si3 0.823783 0.250000 0.018367
O O1 0.443965 0.111024 0.256041
O O2 0.437921 0.507717 0.069775
O O3 0.697366 0.229801 0.131772
O O4 0.802634 0.270198 0.404963
O O5 0.062079 0.992283 0.466960
O O6 0.056035 0.388976 0.280694
#
# Coordination Sequence:
#
# PCOD9341763 Si02
#       3
#     4   4   4
#     4  12  28  50  80 116 154 202 258 318 382 456
#     4  12  28  50  80 116 154 202 258 318 382 456
#     4  12  28  52  80 114 156 204 256 318 384 456
#
# _framework density 27.911968000000002
#
# number of rings (size 3 to 8) (size 9 to 14) (size 15 to 20)
#    0.000    0.000    0.000    8.000    0.000   18.667 
#    0.000    0.000    0.000    0.000    0.000    0.000 
#    0.000    0.000    0.000    0.000    0.000    0.000 
#
# Total GULP energy -67246.083287 kJ/mol
# GULP energy per Si atom -5603.840274 kJ/mol
# Density = 2.784844 g / cm^3
# Si number density = 27.911968 Si / 1000 Ang^3
#
#
#
# Elastic Constant Matrix: (Units=GPa)
#
#
# Indices 1 2 3 4 5 6 
#
# 1 179.8106 107.0508 83.3626 0.0000 0.0000 0.0000
# 2 107.0508 220.7813 129.7179 0.0000 0.0000 0.0000
# 3 83.3626 129.7179 214.6237 0.0000 0.0000 0.0000
# 4 0.0000 0.0000 0.0000 78.9384 0.0000 0.0000
# 5 0.0000 0.0000 0.0000 0.0000 56.6157 0.0000
# 6 0.0000 0.0000 0.0000 0.0000 0.0000 60.8577
#
#
#
# Elastic Compliance Matrix: (Units=1/GPa)
#
#
# Indices 1 2 3 4 5 6 
#
# 1 0.008008 -0.003187 -0.001184 0.000000 0.000000 0.000000
# 2 -0.003187 0.008292 -0.003774 0.000000 0.000000 0.000000
# 3 -0.001184 -0.003774 0.007400 0.000000 0.000000 0.000000
# 4 0.000000 0.000000 0.000000 0.012668 0.000000 0.000000
# 5 0.000000 0.000000 0.000000 0.000000 0.017663 0.000000
# 6 0.000000 0.000000 0.000000 0.000000 0.000000 0.016432
#
#
# Mechanical properties :
#
#
# Convention : Reuss Voigt Hill
#
# Bulk Modulus (GPa) = 134.95195 139.49755 137.22475
# Shear Modulus (GPa) = 56.03987 58.95466 57.49726
#
# Velocity S-wave (km/s) = 4.48564 4.60081 4.54359
# Velocity P-wave (km/s) = 8.67652 8.84927 8.76332
#
# Compressibility (1/GPa) = 0.00741004
#
# Stress axis : x y z
#
# Youngs Moduli (GPa) = 124.87839 120.59986 135.13448
#
# Poissons Ratio (x) = 0.38436 0.16001
# Poissons Ratio (y) = 0.39800 0.50996
# Poissons Ratio (z) = 0.14787 0.45511
#
# Static dielectric constant tensor:
#      x y z
#    x 2.147150 0.000000 0.000000 
#    y 0.000000 2.071550 0.000000 
#    z 0.000000 0.000000 2.413360 
# 
# From -- ./inp_files/2721.got.cif
#   From: 2010.05.17/outbox.cif.g08.bks.cpg/sg29_2_cif.got.tgz:2721.got - 2010.06.04 01:19:37.
