data_PCOD9341772
_publ_section_title
;
Structure prediction by ZEFSAII (Michael W. Deem and Ramdas Pophale) SiO2 
 PCOD9341772
Probable space group: P C A 21
;
_chemical_formula_sum "Si O2"
_cell_formula_units_Z 32
_cell_length_a 15.225948
_cell_length_b 8.174726
_cell_length_c 13.264869
_cell_angle_alpha 90.000000
_cell_angle_beta 90.000000
_cell_angle_gamma 90.000000
_cell_volume 1651.051091
_symmetry_space_group_name_H-M "P C A 21"
_symmetry_group_IT_number 29
_symmetry_cell_setting 'orthorhombic'
loop_
_space_group_symop_operation_xyz
x,y,z
-x,-y,1/2+z
1/2-x,y,1/2+z
1/2+x,-y,z
loop_
_atom_site_type_symbol
_atom_site_label
_atom_site_fract_x
_atom_site_fract_y
_atom_site_fract_z
Si Si1 0.114288 0.064300 0.192280
Si Si2 0.614288 0.935701 0.573873
Si Si3 0.900941 0.513657 0.500369
Si Si4 0.400942 0.486342 0.265783
Si Si5 0.542488 0.268598 0.609767
Si Si6 0.705280 0.834804 0.771847
Si Si7 0.794720 0.834803 0.494306
Si Si8 0.957512 0.268597 0.656385
O O1 0.191321 0.137743 0.259626
O O2 0.155647 0.063582 0.079661
O O3 0.029927 0.180318 0.181852
O O4 0.087462 0.879573 0.216080
O O5 0.655648 0.936422 0.686492
O O6 0.691321 0.862258 0.506527
O O7 0.529927 0.819682 0.584302
O O8 0.587461 0.120427 0.550073
O O9 0.906019 0.463516 0.383076
O O10 0.823088 0.646606 0.510548
O O11 0.894806 0.370210 0.582312
O O12 0.988839 0.612324 0.535173
O O13 0.394807 0.629788 0.183839
O O14 0.323090 0.353391 0.255604
O O15 0.488841 0.387677 0.230980
O O16 0.675407 0.881439 0.883077
#
# Coordination Sequence:
#
# PCOD9341772 Si02
#       8
#     4   4   4   4   4   4   4   4
#     4   9  18  33  52  74 102 136 172 212 253 299
#     4   9  18  33  52  74 102 136 172 212 253 299
#     4   9  18  33  52  75 104 135 167 209 260 307
#     4   9  18  33  52  75 104 135 167 209 260 307
#     4   9  18  33  53  76 102 133 171 211 254 303
#     4   9  18  33  51  72 102 137 170 207 253 301
#     4   9  18  33  51  72 102 137 170 207 253 301
#     4   9  18  33  53  76 102 133 171 211 254 303
#
# _framework density 19.381592999999999
#
# number of rings (size 3 to 8) (size 9 to 14) (size 15 to 20)
#    0.000    3.000    0.000    0.000    0.000    3.000 
#    0.000   20.000    0.000    0.000    0.000    0.000 
#    0.000    0.000    0.000    0.000    0.000    0.000 
#
# Total GULP energy -178295.619438 kJ/mol
# GULP energy per Si atom -5571.738107 kJ/mol
# Density = 1.933748 g / cm^3
# Si number density = 19.381593 Si / 1000 Ang^3
#
#
#
# Elastic Constant Matrix: (Units=GPa)
#
#
# Indices 1 2 3 4 5 6 
#
# 1 50.7945 12.7483 -0.9687 0.0000 0.0000 0.0000
# 2 12.7483 40.7374 7.7282 0.0000 0.0000 0.0000
# 3 -0.9687 7.7282 47.3613 0.0000 0.0000 0.0000
# 4 0.0000 0.0000 0.0000 15.7123 0.0000 0.0000
# 5 0.0000 0.0000 0.0000 0.0000 8.1538 0.0000
# 6 0.0000 0.0000 0.0000 0.0000 0.0000 20.5844
#
#
#
# Elastic Compliance Matrix: (Units=1/GPa)
#
#
# Indices 1 2 3 4 5 6 
#
# 1 0.021480 -0.007023 0.001585 0.000000 0.000000 0.000000
# 2 -0.007023 0.027628 -0.004652 0.000000 0.000000 0.000000
# 3 0.001585 -0.004652 0.021906 0.000000 0.000000 0.000000
# 4 0.000000 0.000000 0.000000 0.063645 0.000000 0.000000
# 5 0.000000 0.000000 0.000000 0.000000 0.122643 0.000000
# 6 0.000000 0.000000 0.000000 0.000000 0.000000 0.048581
#
#
# Mechanical properties :
#
#
# Convention : Reuss Voigt Hill
#
# Bulk Modulus (GPa) = 19.67148 19.76763 19.71955
# Shear Modulus (GPa) = 14.57707 16.84911 15.71309
#
# Velocity S-wave (km/s) = 2.74544 2.95165 2.85041
# Velocity P-wave (km/s) = 4.49683 4.67307 4.58580
#
# Compressibility (1/GPa) = 0.05083502
#
# Stress axis : x y z
#
# Youngs Moduli (GPa) = 46.55506 36.19572 45.65012
#
# Poissons Ratio (x) = 0.25419 -0.07237
# Poissons Ratio (y) = 0.32694 0.21235
# Poissons Ratio (z) = -0.07380 0.16837
#
# Static dielectric constant tensor:
#      x y z
#    x 1.703820 0.000000 0.000000 
#    y 0.000000 1.693730 0.000000 
#    z 0.000000 0.000000 1.663850 
# 
# From -- ./inp_files/4740.got.cif
#   From: 2010.05.17/outbox.cif.g08.bks.cpg/sg29_3_cif.got.tgz:4740.got - 2010.06.04 01:19:37.
