data_PCOD9341891
_publ_section_title
;
Structure prediction by ZEFSAII (Michael W. Deem and Ramdas Pophale) SiO2 
 PCOD9341891
Probable space group: P N C 2
;
_chemical_formula_sum "Si O2"
_cell_formula_units_Z 32
_cell_length_a 12.232285
_cell_length_b 14.168375
_cell_length_c 9.007178
_cell_angle_alpha 90.000000
_cell_angle_beta 90.000000
_cell_angle_gamma 90.000000
_cell_volume 1561.048440
_symmetry_space_group_name_H-M "P N C 2"
_symmetry_group_IT_number 30
_symmetry_cell_setting 'orthorhombic'
loop_
_space_group_symop_operation_xyz
x,y,z
-x,-y,z
-x,1/2+y,1/2+z
x,1/2-y,1/2+z
loop_
_atom_site_type_symbol
_atom_site_label
_atom_site_fract_x
_atom_site_fract_y
_atom_site_fract_z
Si Si1 0.899173 0.070089 0.442000
Si Si2 0.293650 0.033148 0.770730
Si Si3 0.484546 0.151031 0.315618
Si Si4 0.973915 0.723930 0.839453
Si Si5 0.086749 0.584537 0.286121
Si Si6 0.656804 0.485499 0.950175
Si Si7 0.597324 0.827816 0.990011
Si Si8 0.811022 0.786621 0.600767
O O1 0.897414 0.108858 0.611276
O O2 0.784075 0.021888 0.416548
O O3 0.925902 0.152777 0.328336
O O4 0.000000 0.000000 0.431837
O O5 0.229574 0.122041 0.692775
O O6 0.203764 0.959409 0.832203
O O7 0.356024 0.988013 0.629418
O O8 0.367545 0.080026 0.897226
O O9 0.593941 0.101909 0.376083
O O10 0.471122 0.151739 0.138468
O O11 0.464370 0.254618 0.381883
O O12 0.392030 0.081350 0.383045
O O13 0.890576 0.727103 0.704770
O O14 0.029703 0.826080 0.862287
O O15 0.893611 0.689213 0.969421
O O16 0.000000 0.500000 0.294658
O O17 0.707944 0.773460 0.044015
#
# Coordination Sequence:
#
# PCOD9341891 Si02
#       8
#     4   4   4   4   4   4   4   4
#     4  10  22  39  65  93 131 186 221 265 347 414
#     4  11  21  40  69  95 130 178 227 291 340 415
#     4  11  23  43  69  97 131 173 224 292 340 409
#     4  12  21  36  58  96 135 181 221 277 337 411
#     4  10  18  36  58  89 133 176 222 267 336 408
#     4  10  23  45  67  96 133 176 230 277 347 410
#     4  12  22  40  70 103 128 171 235 289 345 402
#     4  12  20  34  63  98 131 165 235 278 331 402
#
# _framework density 20.499043
#
# number of rings (size 3 to 8) (size 9 to 14) (size 15 to 20)
#    0.000    1.000    6.250    1.500    1.750    0.000 
#    6.750    5.625    0.000    0.000    0.000    0.000 
#    0.000    0.000    0.000    0.000    0.000    0.000 
#
# Total GULP energy -178703.728078 kJ/mol
# GULP energy per Si atom -5584.491502 kJ/mol
# Density = 2.045239 g / cm^3
# Si number density = 20.499043 Si / 1000 Ang^3
#
#
#
# Elastic Constant Matrix: (Units=GPa)
#
#
# Indices 1 2 3 4 5 6 
#
# 1 95.7524 25.9725 39.5108 0.0000 0.0000 0.0000
# 2 25.9725 52.6084 24.9318 0.0000 0.0000 0.0000
# 3 39.5108 24.9318 89.0469 0.0000 0.0000 0.0000
# 4 0.0000 0.0000 0.0000 25.9330 0.0000 0.0000
# 5 0.0000 0.0000 0.0000 0.0000 29.9547 0.0000
# 6 0.0000 0.0000 0.0000 0.0000 0.0000 25.3918
#
#
#
# Elastic Compliance Matrix: (Units=1/GPa)
#
#
# Indices 1 2 3 4 5 6 
#
# 1 0.013633 -0.004455 -0.004802 0.000000 0.000000 0.000000
# 2 -0.004455 0.023372 -0.004567 0.000000 0.000000 0.000000
# 3 -0.004802 -0.004567 0.014639 0.000000 0.000000 0.000000
# 4 0.000000 0.000000 0.000000 0.038561 0.000000 0.000000
# 5 0.000000 0.000000 0.000000 0.000000 0.033384 0.000000
# 6 0.000000 0.000000 0.000000 0.000000 0.000000 0.039383
#
#
# Mechanical properties :
#
#
# Convention : Reuss Voigt Hill
#
# Bulk Modulus (GPa) = 41.67210 46.47088 44.07149
# Shear Modulus (GPa) = 25.17373 26.05540 25.61457
#
# Velocity S-wave (km/s) = 3.50815 3.56905 3.53873
# Velocity P-wave (km/s) = 6.06485 6.30105 6.18408
#
# Compressibility (1/GPa) = 0.02399687
#
# Stress axis : x y z
#
# Youngs Moduli (GPa) = 73.34889 42.78582 68.30865
#
# Poissons Ratio (x) = 0.19061 0.32801
# Poissons Ratio (y) = 0.32677 0.31197
# Poissons Ratio (z) = 0.35222 0.19541
#
# Static dielectric constant tensor:
#      x y z
#    x 1.741480 0.000000 0.000000 
#    y 0.000000 1.758380 0.000000 
#    z 0.000000 0.000000 1.792990 
# 
# From -- ./inp_files/2491.got.cif
#   From: 2010.05.17/outbox.cif.g08.bks.cpg/sg30_2_cif.got.tgz:2491.got - 2010.06.03 17:03:02.
