data_PCOD9341728
_publ_section_title
;
Structure prediction by ZEFSAII (Michael W. Deem and Ramdas Pophale) SiO2 
 PCOD9341728
Probable space group: P C A 21
;
_chemical_formula_sum "Si O2"
_cell_formula_units_Z 20
_cell_length_a 12.693534
_cell_length_b 11.086268
_cell_length_c 5.446754
_cell_angle_alpha 90.000000
_cell_angle_beta 90.000000
_cell_angle_gamma 90.000000
_cell_volume 766.488573
_symmetry_space_group_name_H-M "P C A 21"
_symmetry_group_IT_number 29
_symmetry_cell_setting 'orthorhombic'
loop_
_space_group_symop_operation_xyz
x,y,z
-x,-y,1/2+z
1/2-x,y,1/2+z
1/2+x,-y,z
loop_
_atom_site_type_symbol
_atom_site_label
_atom_site_fract_x
_atom_site_fract_y
_atom_site_fract_z
Si Si1 0.603743 0.121165 0.078830
Si Si2 0.176034 0.739940 0.470376
Si Si3 0.481464 0.292362 0.760594
Si Si4 0.818887 0.856026 0.486049
Si Si5 0.190039 0.476423 0.314612
O O1 0.604686 0.149516 0.366786
O O2 0.624317 0.986023 0.000947
O O3 0.714365 0.191633 0.017846
O O4 0.503744 0.185454 0.956022
O O5 0.184440 0.621470 0.301395
O O6 0.099525 0.682658 0.674667
O O7 0.406956 0.242970 0.544990
O O8 0.421701 0.410808 0.850792
O O9 0.759210 0.847070 0.225231
O O10 0.257224 0.442086 0.555132
#
# Coordination Sequence:
#
# PCOD9341728 Si02
#       5
#     4   4   4   4   4
#     4  12  25  48  73 107 149 201 251 307 371 454
#     4  12  25  48  73 107 149 201 251 307 371 454
#     4  12  30  44  80 112 150 200 256 312 380 444
#     4  12  28  51  76 109 156 197 248 313 378 447
#     4  12  28  51  76 109 156 197 248 313 378 447
#
# _framework density 26.093018000000001
#
# number of rings (size 3 to 8) (size 9 to 14) (size 15 to 20)
#    0.000    0.000    6.000    1.200   11.200    0.000 
#    0.000    0.000    0.000    0.000    0.000    0.000 
#    0.000    0.000    0.000    0.000    0.000    0.000 
#
# Total GULP energy -111778.777147 kJ/mol
# GULP energy per Si atom -5588.938857 kJ/mol
# Density = 2.603363 g / cm^3
# Si number density = 26.093018 Si / 1000 Ang^3
#
#
#
# Elastic Constant Matrix: (Units=GPa)
#
#
# Indices 1 2 3 4 5 6 
#
# 1 76.3878 26.6386 15.9979 0.0000 0.0000 0.0000
# 2 26.6386 104.5764 -14.1106 0.0000 0.0000 0.0000
# 3 15.9979 -14.1106 87.8234 0.0000 0.0000 0.0000
# 4 0.0000 0.0000 0.0000 22.7822 0.0000 0.0000
# 5 0.0000 0.0000 0.0000 0.0000 53.2503 0.0000
# 6 0.0000 0.0000 0.0000 0.0000 0.0000 50.1925
#
#
#
# Elastic Compliance Matrix: (Units=1/GPa)
#
#
# Indices 1 2 3 4 5 6 
#
# 1 0.015353 -0.004383 -0.003501 0.000000 0.000000 0.000000
# 2 -0.004383 0.011026 0.002570 0.000000 0.000000 0.000000
# 3 -0.003501 0.002570 0.012437 0.000000 0.000000 0.000000
# 4 0.000000 0.000000 0.000000 0.043894 0.000000 0.000000
# 5 0.000000 0.000000 0.000000 0.000000 0.018779 0.000000
# 6 0.000000 0.000000 0.000000 0.000000 0.000000 0.019923
#
#
# Mechanical properties :
#
#
# Convention : Reuss Voigt Hill
#
# Bulk Modulus (GPa) = 35.47696 36.20436 35.84066
# Shear Modulus (GPa) = 35.35162 41.26244 38.30703
#
# Velocity S-wave (km/s) = 3.68480 3.98095 3.83573
# Velocity P-wave (km/s) = 5.63289 5.91910 5.77777
#
# Compressibility (1/GPa) = 0.02818731
#
# Stress axis : x y z
#
# Youngs Moduli (GPa) = 65.13458 90.69746 80.40447
#
# Poissons Ratio (x) = 0.39754 0.28149
# Poissons Ratio (y) = 0.28550 -0.20663
# Poissons Ratio (z) = 0.22803 -0.23309
#
# Static dielectric constant tensor:
#      x y z
#    x 2.015520 0.000000 0.000000 
#    y 0.000000 2.059520 0.000000 
#    z 0.000000 0.000000 3.091060 
# 
# From -- ./inp_files/54.got.cif
#   From: 2010.05.17/outbox.cif.g08.bks.cpg/sg29_1_cif.got.tgz:54.got - 2010.06.04 01:19:37.
