data_PCOD9341122
_publ_section_title
;
Structure prediction by ZEFSAII (Michael W. Deem and Ramdas Pophale) SiO2 
 PCOD9341122
Probable space group: P C A 21
;
_chemical_formula_sum "Si O2"
_cell_formula_units_Z 32
_cell_length_a 29.745253
_cell_length_b 5.715797
_cell_length_c 9.546677
_cell_angle_alpha 90.000000
_cell_angle_beta 90.000000
_cell_angle_gamma 90.000000
_cell_volume 1623.105287
_symmetry_space_group_name_H-M "P C A 21"
_symmetry_group_IT_number 29
_symmetry_cell_setting 'orthorhombic'
loop_
_space_group_symop_operation_xyz
x,y,z
-x,-y,1/2+z
1/2-x,y,1/2+z
1/2+x,-y,z
loop_
_atom_site_type_symbol
_atom_site_label
_atom_site_fract_x
_atom_site_fract_y
_atom_site_fract_z
Si Si1 0.046403 0.387991 0.152390
Si Si2 0.839507 0.070315 0.857191
Si Si3 0.287506 0.640503 0.399999
Si Si4 0.568268 0.873195 0.403820
Si Si5 0.852143 0.458649 0.624013
Si Si6 0.733593 0.745954 0.237551
Si Si7 0.783687 0.120022 0.102938
Si Si8 0.531263 0.378618 0.434230
O O1 0.044712 0.158207 0.251403
O O2 0.098818 0.428532 0.119311
O O3 0.030080 0.584050 0.265453
O O4 0.015562 0.378231 0.016867
O O5 0.878480 0.882542 0.877915
O O6 0.792286 0.960647 0.809926
O O7 0.854294 0.253174 0.739642
O O8 0.827170 0.169888 0.008925
O O9 0.336173 0.615824 0.469994
O O10 0.261630 0.410224 0.345082
O O11 0.257075 0.753065 0.522506
O O12 0.290878 0.789744 0.259170
O O13 0.555958 0.625213 0.477189
O O14 0.554584 0.127252 0.463298
O O15 0.809190 0.613005 0.671956
O O16 0.768093 0.851769 0.124518
#
# Coordination Sequence:
#
# PCOD9341122 Si02
#       8
#     4   4   4   4   4   4   4   4
#     4  10  24  44  73  98 133 171 222 276 342 411
#     4  12  22  41  67  90 131 174 227 268 333 399
#     4  12  24  40  60  92 134 173 228 273 332 390
#     4  10  23  42  71 100 128 174 220 269 343 407
#     4  12  23  42  67  96 128 176 225 274 328 403
#     4  12  21  39  65  89 129 179 221 273 331 383
#     4  12  24  39  60  92 130 181 222 277 327 394
#     4  10  23  43  73  99 131 168 219 276 346 405
#
# _framework density 19.715294
#
# number of rings (size 3 to 8) (size 9 to 14) (size 15 to 20)
#    0.750    0.000    7.500    0.750    1.750    0.000 
#    2.250    0.000    0.000    0.000    0.000    0.000 
#    0.000    0.000    0.000    0.000    0.000    0.000 
#
# Total GULP energy -178191.953125 kJ/mol
# GULP energy per Si atom -5568.498535 kJ/mol
# Density = 1.967042 g / cm^3
# Si number density = 19.715294 Si / 1000 Ang^3
#
#
#
# Elastic Constant Matrix: (Units=GPa)
#
#
# Indices 1 2 3 4 5 6 
#
# 1 76.1211 26.3685 21.5087 0.0000 0.0000 0.0000
# 2 26.3685 87.9670 13.4367 0.0000 0.0000 0.0000
# 3 21.5087 13.4367 72.0464 0.0000 0.0000 0.0000
# 4 0.0000 0.0000 0.0000 30.3530 0.0000 0.0000
# 5 0.0000 0.0000 0.0000 0.0000 13.4595 0.0000
# 6 0.0000 0.0000 0.0000 0.0000 0.0000 20.1115
#
#
#
# Elastic Compliance Matrix: (Units=1/GPa)
#
#
# Indices 1 2 3 4 5 6 
#
# 1 0.015661 -0.004097 -0.003911 0.000000 0.000000 0.000000
# 2 -0.004097 0.012773 -0.001159 0.000000 0.000000 0.000000
# 3 -0.003911 -0.001159 0.015264 0.000000 0.000000 0.000000
# 4 0.000000 0.000000 0.000000 0.032946 0.000000 0.000000
# 5 0.000000 0.000000 0.000000 0.000000 0.074297 0.000000
# 6 0.000000 0.000000 0.000000 0.000000 0.000000 0.049723
#
#
# Mechanical properties :
#
#
# Convention : Reuss Voigt Hill
#
# Bulk Modulus (GPa) = 39.42730 39.86247 39.64489
# Shear Modulus (GPa) = 21.98251 24.43950 23.21100
#
# Velocity S-wave (km/s) = 3.34278 3.52465 3.43492
# Velocity P-wave (km/s) = 5.91106 6.06854 5.99032
#
# Compressibility (1/GPa) = 0.02536314
#
# Stress axis : x y z
#
# Youngs Moduli (GPa) = 63.85119 78.28972 65.51438
#
# Poissons Ratio (x) = 0.32076 0.25626
# Poissons Ratio (y) = 0.26161 0.07593
# Poissons Ratio (z) = 0.24975 0.09074
#
# Static dielectric constant tensor:
#      x y z
#    x 1.662760 0.000000 0.000000 
#    y 0.000000 1.810720 0.000000 
#    z 0.000000 0.000000 1.743220 
# 
# From -- ./inp_files/2627.got.cif
#   From: 2010.05.17/outbox.cif.g08.bks.cpg/sg29_2_cif.got.tgz:2627.got - 2010.06.04 01:19:37.
