data_PCOD9341838
_publ_section_title
;
Structure prediction by ZEFSAII (Michael W. Deem and Ramdas Pophale) SiO2 
 PCOD9341838
Probable space group: P N C 2
;
_chemical_formula_sum "Si O2"
_cell_formula_units_Z 30
_cell_length_a 5.492351
_cell_length_b 14.992407
_cell_length_c 18.750694
_cell_angle_alpha 90.000000
_cell_angle_beta 90.000000
_cell_angle_gamma 90.000000
_cell_volume 1543.998926
_symmetry_space_group_name_H-M "P N C 2"
_symmetry_group_IT_number 30
_symmetry_cell_setting 'orthorhombic'
loop_
_space_group_symop_operation_xyz
x,y,z
-x,-y,z
-x,1/2+y,1/2+z
x,1/2-y,1/2+z
loop_
_atom_site_type_symbol
_atom_site_label
_atom_site_fract_x
_atom_site_fract_y
_atom_site_fract_z
Si Si1 0.500000 0.500000 0.772630
Si Si2 0.406298 0.809854 0.710398
Si Si3 0.561034 0.398189 0.063583
Si Si4 0.912470 0.756933 0.737870
Si Si5 0.125693 0.153860 0.088435
Si Si6 0.115190 0.099509 0.345124
Si Si7 0.637919 0.110571 0.143934
Si Si8 0.067483 0.317536 0.000128
O O1 0.609317 0.575156 0.823203
O O2 0.334669 0.549794 0.714254
O O3 0.432911 0.881695 0.648169
O O4 0.652587 0.801166 0.755624
O O5 0.377357 0.712672 0.672115
O O6 0.145301 0.819732 0.747408
O O7 0.500000 0.500000 0.045597
O O8 0.323482 0.348605 0.033961
O O9 0.819572 0.360735 0.033633
O O10 0.883903 0.725012 0.655261
O O11 0.958552 0.668288 0.783716
O O12 0.380979 0.102713 0.101380
O O13 0.082487 0.212488 0.017750
O O14 0.880051 0.098372 0.098811
O O15 0.074799 0.148683 0.419185
O O16 0.000000 0.000000 0.345595
#
# Coordination Sequence:
#
# PCOD9341838 Si02
#       8
#     2   4   4   4   4   4   4   4
#     4  12  24  36  56  90 124 156 188 238 298 352
#     4  10  17  36  56  74 102 143 192 247 266 320
#     4  12  22  37  55  81 110 152 194 237 283 333
#     4  10  19  35  57  73 105 151 190 232 269 330
#     4  10  17  38  56  74 100 156 198 237 260 324
#     4  12  26  36  51  86 130 159 181 224 298 371
#     4  10  19  34  59  75 108 145 194 243 270 322
#     4  12  24  38  55  77 122 161 187 224 285 354
#
# _framework density 19.430064000000002
#
# number of rings (size 3 to 8) (size 9 to 14) (size 15 to 20)
#    0.000    1.067    8.000    2.800    2.800    0.000 
#    0.000    0.000    0.000    0.000    0.000    0.000 
#   12.000    0.000    0.000    0.000    0.000    0.000 
#
# Total GULP energy -167042.899274 kJ/mol
# GULP energy per Si atom -5568.096642 kJ/mol
# Density = 1.938584 g / cm^3
# Si number density = 19.430064 Si / 1000 Ang^3
#
#
#
# Elastic Constant Matrix: (Units=GPa)
#
#
# Indices 1 2 3 4 5 6 
#
# 1 167.2079 22.7673 28.4225 0.0000 0.0000 0.0000
# 2 22.7673 25.5842 29.3176 0.0000 0.0000 0.0000
# 3 28.4225 29.3176 73.3724 0.0000 0.0000 0.0000
# 4 0.0000 0.0000 0.0000 24.5871 0.0000 0.0000
# 5 0.0000 0.0000 0.0000 0.0000 10.9506 0.0000
# 6 0.0000 0.0000 0.0000 0.0000 0.0000 23.5858
#
#
#
# Elastic Compliance Matrix: (Units=1/GPa)
#
#
# Indices 1 2 3 4 5 6 
#
# 1 0.006811 -0.005604 -0.000399 0.000000 0.000000 0.000000
# 2 -0.005604 0.076710 -0.028480 0.000000 0.000000 0.000000
# 3 -0.000399 -0.028480 0.025164 0.000000 0.000000 0.000000
# 4 0.000000 0.000000 0.000000 0.040672 0.000000 0.000000
# 5 0.000000 0.000000 0.000000 0.000000 0.091319 0.000000
# 6 0.000000 0.000000 0.000000 0.000000 0.000000 0.042398
#
#
# Mechanical properties :
#
#
# Convention : Reuss Voigt Hill
#
# Bulk Modulus (GPa) = 25.17758 47.46438 36.32098
# Shear Modulus (GPa) = 13.68810 24.20186 18.94498
#
# Velocity S-wave (km/s) = 2.65708 3.53312 3.12594
# Velocity P-wave (km/s) = 4.73283 6.41290 5.63582
#
# Compressibility (1/GPa) = 0.03971787
#
# Stress axis : x y z
#
# Youngs Moduli (GPa) = 146.81057 13.03615 39.73960
#
# Poissons Ratio (x) = 0.07305 0.01588
# Poissons Ratio (y) = 0.82269 1.13180
# Poissons Ratio (z) = 0.05865 0.37127
#
# Static dielectric constant tensor:
#      x y z
#    x 1.843300 0.000000 0.000000 
#    y 0.000000 1.731220 0.000000 
#    z 0.000000 0.000000 1.656450 
# 
# From -- ./inp_files/6010.got.cif
#   From: 2010.05.17/outbox.cif.g08.bks.cpg/sg30_4_cif.got.tgz:6010.got - 2010.06.03 17:03:02.
