data_PCOD9341173
_publ_section_title
;
Structure prediction by ZEFSAII (Michael W. Deem and Ramdas Pophale) SiO2 
 PCOD9341173
Probable space group: P C A 21
;
_chemical_formula_sum "Si O2"
_cell_formula_units_Z 28
_cell_length_a 9.387491
_cell_length_b 13.646822
_cell_length_c 8.686902
_cell_angle_alpha 90.000000
_cell_angle_beta 90.000000
_cell_angle_gamma 90.000000
_cell_volume 1112.873966
_symmetry_space_group_name_H-M "P C A 21"
_symmetry_group_IT_number 29
_symmetry_cell_setting 'orthorhombic'
loop_
_space_group_symop_operation_xyz
x,y,z
-x,-y,1/2+z
1/2-x,y,1/2+z
1/2+x,-y,z
loop_
_atom_site_type_symbol
_atom_site_label
_atom_site_fract_x
_atom_site_fract_y
_atom_site_fract_z
Si Si1 0.584617 0.381204 0.614240
Si Si2 0.118061 0.897696 0.371165
Si Si3 0.616938 0.833579 0.494591
Si Si4 0.613286 0.024883 0.690297
Si Si5 0.879985 0.276056 0.638858
Si Si6 0.933167 0.572936 0.299143
Si Si7 0.301817 0.278819 0.728393
O O1 0.723116 0.312877 0.600720
O O2 0.613719 0.468206 0.735542
O O3 0.528506 0.425836 0.452880
O O4 0.451275 0.322615 0.681528
O O5 0.101624 0.791183 0.292153
O O6 0.009020 0.975133 0.292697
O O7 0.269751 0.935251 0.307597
O O8 0.088623 0.895665 0.554051
O O9 0.651276 0.935097 0.575084
O O10 0.454669 0.795548 0.513999
O O11 0.669309 0.820137 0.323446
O O12 0.707369 0.753961 0.586797
O O13 0.970282 0.373698 0.669956
O O14 0.793207 0.640479 0.316517
#
# Coordination Sequence:
#
# PCOD9341173 Si02
#       7
#     4   4   4   4   4   4   4
#     4  12  27  45  74  98 138 182 229 296 361 424
#     4  11  25  45  72 106 147 190 240 296 362 427
#     4  10  23  45  68 100 140 183 235 288 345 419
#     4  11  24  44  70 105 144 188 240 293 352 427
#     4  10  27  45  71 106 145 181 240 294 357 426
#     4  11  27  46  68 102 136 179 234 293 358 432
#     4  11  23  44  69  97 136 183 232 282 351 419
#
# _framework density 25.160080000000001
#
# number of rings (size 3 to 8) (size 9 to 14) (size 15 to 20)
#    0.000    1.143    1.429    2.571    8.000    8.000 
#    0.000    0.000    0.000    0.000    0.000    0.000 
#    0.000    0.000    0.000    0.000    0.000    0.000 
#
# Total GULP energy -156793.840652 kJ/mol
# GULP energy per Si atom -5599.780023 kJ/mol
# Density = 2.510281 g / cm^3
# Si number density = 25.160080 Si / 1000 Ang^3
#
#
#
# Elastic Constant Matrix: (Units=GPa)
#
#
# Indices 1 2 3 4 5 6 
#
# 1 105.2800 14.1457 14.8073 0.0000 0.0000 0.0000
# 2 14.1457 80.2969 -9.5752 0.0000 0.0000 0.0000
# 3 14.8073 -9.5752 82.8706 0.0000 0.0000 0.0000
# 4 0.0000 0.0000 0.0000 36.1371 0.0000 0.0000
# 5 0.0000 0.0000 0.0000 0.0000 21.3398 0.0000
# 6 0.0000 0.0000 0.0000 0.0000 0.0000 13.9735
#
#
#
# Elastic Compliance Matrix: (Units=1/GPa)
#
#
# Indices 1 2 3 4 5 6 
#
# 1 0.010054 -0.002013 -0.002029 0.000000 0.000000 0.000000
# 2 -0.002013 0.013031 0.001865 0.000000 0.000000 0.000000
# 3 -0.002029 0.001865 0.012645 0.000000 0.000000 0.000000
# 4 0.000000 0.000000 0.000000 0.027672 0.000000 0.000000
# 5 0.000000 0.000000 0.000000 0.000000 0.046861 0.000000
# 6 0.000000 0.000000 0.000000 0.000000 0.000000 0.071564
#
#
# Mechanical properties :
#
#
# Convention : Reuss Voigt Hill
#
# Bulk Modulus (GPa) = 31.87112 34.13370 33.00241
# Shear Modulus (GPa) = 25.42712 30.89471 28.16092
#
# Velocity S-wave (km/s) = 3.18246 3.50798 3.34918
# Velocity P-wave (km/s) = 5.11849 5.47759 5.30108
#
# Compressibility (1/GPa) = 0.03137636
#
# Stress axis : x y z
#
# Youngs Moduli (GPa) = 99.45917 76.74076 79.08199
#
# Poissons Ratio (x) = 0.15450 0.16047
# Poissons Ratio (y) = 0.20023 -0.14752
# Poissons Ratio (z) = 0.20182 -0.14315
#
# Static dielectric constant tensor:
#      x y z
#    x 1.974990 0.000000 0.000000 
#    y 0.000000 1.972410 0.000000 
#    z 0.000000 0.000000 2.002100 
# 
# From -- ./inp_files/1186.got.cif
#   From: 2010.05.17/outbox.cif.g08.bks.cpg/sg29_1_cif.got.tgz:1186.got - 2010.06.04 01:19:37.
