data_PCOD9341686
_publ_section_title
;
Structure prediction by ZEFSAII (Michael W. Deem and Ramdas Pophale) SiO2 
 PCOD9341686
Probable space group: P C A 21
;
_chemical_formula_sum "Si O2"
_cell_formula_units_Z 20
_cell_length_a 10.848693
_cell_length_b 9.106169
_cell_length_c 7.932189
_cell_angle_alpha 90.000000
_cell_angle_beta 90.000000
_cell_angle_gamma 90.000000
_cell_volume 783.621204
_symmetry_space_group_name_H-M "P C A 21"
_symmetry_group_IT_number 29
_symmetry_cell_setting 'orthorhombic'
loop_
_space_group_symop_operation_xyz
x,y,z
-x,-y,1/2+z
1/2-x,y,1/2+z
1/2+x,-y,z
loop_
_atom_site_type_symbol
_atom_site_label
_atom_site_fract_x
_atom_site_fract_y
_atom_site_fract_z
Si Si1 0.292737 0.596709 0.568500
Si Si2 0.545204 0.194345 0.858113
Si Si3 0.630603 0.973981 0.573686
Si Si4 0.409963 0.744536 0.892387
Si Si5 0.653145 0.739621 0.080494
O O1 0.368837 0.672388 0.416118
O O2 0.363659 0.660919 0.729347
O O3 0.153791 0.652784 0.544060
O O4 0.292529 0.422544 0.569026
O O5 0.427100 0.246382 0.750761
O O6 0.608841 0.072217 0.739183
O O7 0.492267 0.116024 0.025963
O O8 0.744852 0.865264 0.580138
O O9 0.642170 0.092218 0.421642
O O10 0.555105 0.753386 0.927280
#
# Coordination Sequence:
#
# PCOD9341686 Si02
#       5
#     4   4   4   4   4
#     4  12  27  51  78 112 166 206 267 334 411 480
#     4  11  27  50  80 115 158 212 268 333 403 478
#     4  11  27  50  80 116 153 210 270 328 396 484
#     4  11  27  50  75 115 157 209 265 332 401 483
#     4  11  28  49  83 116 156 209 272 331 411 477
#
# _framework density 25.522535999999999
#
# number of rings (size 3 to 8) (size 9 to 14) (size 15 to 20)
#    0.000    0.800    0.000    4.800   16.800    1.600 
#    0.000    0.000    0.000    0.000    0.000    0.000 
#    0.000    0.000    0.000    0.000    0.000    0.000 
#
# Total GULP energy -112217.850530 kJ/mol
# GULP energy per Si atom -5610.892527 kJ/mol
# Density = 2.546445 g / cm^3
# Si number density = 25.522536 Si / 1000 Ang^3
#
#
#
# Elastic Constant Matrix: (Units=GPa)
#
#
# Indices 1 2 3 4 5 6 
#
# 1 122.9122 83.1117 21.2242 0.0000 0.0000 0.0000
# 2 83.1117 208.0216 17.4946 0.0000 0.0000 0.0000
# 3 21.2242 17.4946 92.7836 0.0000 0.0000 0.0000
# 4 0.0000 0.0000 0.0000 31.3385 0.0000 0.0000
# 5 0.0000 0.0000 0.0000 0.0000 44.4512 0.0000
# 6 0.0000 0.0000 0.0000 0.0000 0.0000 34.9087
#
#
#
# Elastic Compliance Matrix: (Units=1/GPa)
#
#
# Indices 1 2 3 4 5 6 
#
# 1 0.011430 -0.004417 -0.001782 0.000000 0.000000 0.000000
# 2 -0.004417 0.006591 -0.000232 0.000000 0.000000 0.000000
# 3 -0.001782 -0.000232 0.011229 0.000000 0.000000 0.000000
# 4 0.000000 0.000000 0.000000 0.031910 0.000000 0.000000
# 5 0.000000 0.000000 0.000000 0.000000 0.022497 0.000000
# 6 0.000000 0.000000 0.000000 0.000000 0.000000 0.028646
#
#
# Mechanical properties :
#
#
# Convention : Reuss Voigt Hill
#
# Bulk Modulus (GPa) = 61.01865 74.15315 67.58590
# Shear Modulus (GPa) = 38.27650 42.26548 40.27099
#
# Velocity S-wave (km/s) = 3.87681 4.07382 3.97654
# Velocity P-wave (km/s) = 6.63319 7.15857 6.90088
#
# Compressibility (1/GPa) = 0.01638843
#
# Stress axis : x y z
#
# Youngs Moduli (GPa) = 87.48731 151.71170 89.05356
#
# Poissons Ratio (x) = 0.67010 0.15868
# Poissons Ratio (y) = 0.38642 0.02070
# Poissons Ratio (z) = 0.15589 0.03527
#
# Static dielectric constant tensor:
#      x y z
#    x 2.009720 0.000000 0.000000 
#    y 0.000000 1.944610 0.000000 
#    z 0.000000 0.000000 2.107710 
# 
# From -- ./inp_files/1347.got.cif
#   From: 2010.05.17/outbox.cif.g08.bks.cpg/sg29_1_cif.got.tgz:1347.got - 2010.06.04 01:19:37.
