data_PCOD9341839
_publ_section_title
;
Structure prediction by ZEFSAII (Michael W. Deem and Ramdas Pophale) SiO2 
 PCOD9341839
Probable space group: P N C 2
;
_chemical_formula_sum "Si O2"
_cell_formula_units_Z 32
_cell_length_a 11.373719
_cell_length_b 8.694370
_cell_length_c 14.895717
_cell_angle_alpha 90.000000
_cell_angle_beta 90.000000
_cell_angle_gamma 90.000000
_cell_volume 1472.997552
_symmetry_space_group_name_H-M "P N C 2"
_symmetry_group_IT_number 30
_symmetry_cell_setting 'orthorhombic'
loop_
_space_group_symop_operation_xyz
x,y,z
-x,-y,z
-x,1/2+y,1/2+z
x,1/2-y,1/2+z
loop_
_atom_site_type_symbol
_atom_site_label
_atom_site_fract_x
_atom_site_fract_y
_atom_site_fract_z
Si Si1 0.623104 0.513339 0.490970
Si Si2 0.621057 0.450633 0.128822
Si Si3 0.199175 0.596959 0.857434
Si Si4 0.315957 0.225118 0.379207
Si Si5 0.198609 0.773297 0.035338
Si Si6 0.428593 0.787202 0.818745
Si Si7 0.183578 0.411586 0.233808
Si Si8 0.939342 0.241769 0.712054
O O1 0.500000 0.500000 0.544234
O O2 0.649661 0.690229 0.470722
O O3 0.740042 0.437624 0.528543
O O4 0.595331 0.408608 0.400644
O O5 0.500000 0.500000 0.083418
O O6 0.693872 0.334595 0.068121
O O7 0.582895 0.370644 0.222978
O O8 0.714556 0.579899 0.158899
O O9 0.235133 0.424518 0.883976
O O10 0.322804 0.667996 0.824844
O O11 0.106340 0.625795 0.778231
O O12 0.157755 0.698613 0.942268
O O13 0.443585 0.210636 0.331347
O O14 0.243949 0.352845 0.323722
O O15 0.100669 0.772623 0.111005
O O16 0.130804 0.584370 0.240630
O O17 0.075676 0.299201 0.214565
#
# Coordination Sequence:
#
# PCOD9341839 Si02
#       8
#     4   4   4   4   4   4   4   4
#     4   9  18  35  60  87 126 163 208 258 323 394
#     4  11  18  35  65  98 126 162 218 267 326 397
#     4  11  22  39  63  93 129 164 212 268 325 384
#     4  11  20  34  64  97 125 162 207 270 331 388
#     4  10  22  39  62  88 126 169 211 263 317 386
#     4  10  17  36  62  94 122 165 207 261 324 393
#     4  10  19  38  66  90 116 168 215 256 317 386
#     4  10  22  42  64  90 119 172 222 258 316 381
#
# _framework density 21.724408
#
# number of rings (size 3 to 8) (size 9 to 14) (size 15 to 20)
#    0.000    1.750    5.000    1.500    0.000    3.500 
#    2.250    7.500    0.000    4.500    0.000    0.000 
#    0.000    0.000    0.000    0.000    0.000    0.000 
#
# Total GULP energy -178698.360467 kJ/mol
# GULP energy per Si atom -5584.323765 kJ/mol
# Density = 2.167496 g / cm^3
# Si number density = 21.724408 Si / 1000 Ang^3
#
#
#
# Elastic Constant Matrix: (Units=GPa)
#
#
# Indices 1 2 3 4 5 6 
#
# 1 113.5641 27.5635 18.7873 0.0000 0.0000 0.0000
# 2 27.5635 69.7985 2.5467 0.0000 0.0000 0.0000
# 3 18.7873 2.5467 53.1170 0.0000 0.0000 0.0000
# 4 0.0000 0.0000 0.0000 14.8338 0.0000 0.0000
# 5 0.0000 0.0000 0.0000 0.0000 -34.1246 0.0000
# 6 0.0000 0.0000 0.0000 0.0000 0.0000 23.7374
#
#
#
# Elastic Compliance Matrix: (Units=1/GPa)
#
#
# Indices 1 2 3 4 5 6 
#
# 1 0.010340 -0.003957 -0.003467 0.000000 0.000000 0.000000
# 2 -0.003957 0.015866 0.000639 0.000000 0.000000 0.000000
# 3 -0.003467 0.000639 0.020022 0.000000 0.000000 0.000000
# 4 0.000000 0.000000 0.000000 0.067414 0.000000 0.000000
# 5 0.000000 0.000000 0.000000 0.000000 -0.029304 0.000000
# 6 0.000000 0.000000 0.000000 0.000000 0.000000 0.042128
#
#
# Mechanical properties :
#
#
# Convention : Reuss Voigt Hill
#
# Bulk Modulus (GPa) = 30.62097 37.14161 33.88129
# Shear Modulus (GPa) = 33.12995 13.39480 23.26238
#
# Velocity S-wave (km/s) = 3.90937 2.48579 3.27585
# Velocity P-wave (km/s) = 5.87396 5.03713 5.47157
#
# Compressibility (1/GPa) = 0.03265736
#
# Stress axis : x y z
#
# Youngs Moduli (GPa) = 96.71620 63.02743 49.94471
#
# Poissons Ratio (x) = 0.24937 0.17318
# Poissons Ratio (y) = 0.38267 -0.03190
# Poissons Ratio (z) = 0.33535 -0.04026
#
# Static dielectric constant tensor:
#      x y z
#    x 1.793680 0.000000 0.000000 
#    y 0.000000 1.835440 0.000000 
#    z 0.000000 0.000000 1.814970 
# 
# From -- ./inp_files/5539.got.cif
#   From: 2010.05.17/outbox.cif.g08.bks.cpg/sg30_3_cif.got.tgz:5539.got - 2010.06.03 17:03:02.
