data_PCOD9341108
_publ_section_title
;
Structure prediction by ZEFSAII (Michael W. Deem and Ramdas Pophale) SiO2 
 PCOD9341108
Probable space group: P C A 21
;
_chemical_formula_sum "Si O2"
_cell_formula_units_Z 32
_cell_length_a 13.261913
_cell_length_b 8.683612
_cell_length_c 12.890221
_cell_angle_alpha 90.000000
_cell_angle_beta 90.000000
_cell_angle_gamma 90.000000
_cell_volume 1484.454696
_symmetry_space_group_name_H-M "P C A 21"
_symmetry_group_IT_number 29
_symmetry_cell_setting 'orthorhombic'
loop_
_space_group_symop_operation_xyz
x,y,z
-x,-y,1/2+z
1/2-x,y,1/2+z
1/2+x,-y,z
loop_
_atom_site_type_symbol
_atom_site_label
_atom_site_fract_x
_atom_site_fract_y
_atom_site_fract_z
Si Si1 0.482606 0.742369 0.764710
Si Si2 0.726865 0.135824 0.217599
Si Si3 0.950382 0.619074 0.043086
Si Si4 0.764533 0.681251 0.456394
Si Si5 0.592308 0.294038 0.643895
Si Si6 0.105573 0.114405 0.092019
Si Si7 0.090293 0.543051 0.866115
Si Si8 0.632073 0.960631 0.866290
O O1 0.362822 0.757664 0.759110
O O2 0.522539 0.703076 0.649990
O O3 0.521496 0.607744 0.840427
O O4 0.535636 0.898428 0.804113
O O5 0.797936 0.217197 0.132048
O O6 0.670777 0.986391 0.170737
O O7 0.804514 0.087751 0.307608
O O8 0.849079 0.681918 0.991993
O O9 0.929532 0.439694 0.070653
O O10 0.038890 0.631463 0.960052
O O11 0.833655 0.732196 0.554870
O O12 0.803673 0.524352 0.405605
O O13 0.790967 0.815337 0.374991
O O14 0.503258 0.170594 0.628945
O O15 0.591828 0.364897 0.759621
O O16 0.099308 0.015725 0.985230
#
# Coordination Sequence:
#
# PCOD9341108 Si02
#       8
#     4   4   4   4   4   4   4   4
#     4  10  23  43  62  96 137 166 225 280 333 401
#     4  12  25  40  68 100 129 177 228 276 328 400
#     4  11  22  41  69  95 133 174 217 279 339 402
#     4   9  21  42  65  90 123 179 219 255 342 396
#     4  11  25  41  66 101 134 170 229 278 335 399
#     4  10  23  44  63  91 139 176 216 273 334 405
#     4  10  23  42  65  99 131 169 219 288 332 392
#     4   9  22  45  62  92 130 181 215 263 339 395
#
# _framework density 21.556736000000001
#
# number of rings (size 3 to 8) (size 9 to 14) (size 15 to 20)
#    0.750    1.000    1.250    1.500    5.250    3.000 
#    2.250    0.000    0.000    0.000    0.000    0.000 
#    0.000    0.000    0.000    0.000    0.000    0.000 
#
# Total GULP energy -178697.439582 kJ/mol
# GULP energy per Si atom -5584.294987 kJ/mol
# Density = 2.150767 g / cm^3
# Si number density = 21.556736 Si / 1000 Ang^3
#
#
#
# Elastic Constant Matrix: (Units=GPa)
#
#
# Indices 1 2 3 4 5 6 
#
# 1 52.0176 26.7577 -19.1702 0.0000 0.0000 0.0000
# 2 26.7577 42.1673 5.5098 0.0000 0.0000 0.0000
# 3 -19.1702 5.5098 48.5309 0.0000 0.0000 0.0000
# 4 0.0000 0.0000 0.0000 14.8048 0.0000 0.0000
# 5 0.0000 0.0000 0.0000 0.0000 12.0789 0.0000
# 6 0.0000 0.0000 0.0000 0.0000 0.0000 30.9362
#
#
#
# Elastic Compliance Matrix: (Units=1/GPa)
#
#
# Indices 1 2 3 4 5 6 
#
# 1 0.041165 -0.028672 0.019516 0.000000 0.000000 0.000000
# 2 -0.028672 0.044042 -0.016326 0.000000 0.000000 0.000000
# 3 0.019516 -0.016326 0.030168 0.000000 0.000000 0.000000
# 4 0.000000 0.000000 0.000000 0.067546 0.000000 0.000000
# 5 0.000000 0.000000 0.000000 0.000000 0.082789 0.000000
# 6 0.000000 0.000000 0.000000 0.000000 0.000000 0.032325
#
#
# Mechanical properties :
#
#
# Convention : Reuss Voigt Hill
#
# Bulk Modulus (GPa) = 15.52515 18.76783 17.14649
# Shear Modulus (GPa) = 13.49642 20.20522 16.85082
#
# Velocity S-wave (km/s) = 2.50489 3.06486 2.79892
# Velocity P-wave (km/s) = 3.94761 4.60974 4.29146
#
# Compressibility (1/GPa) = 0.06441162
#
# Stress axis : x y z
#
# Youngs Moduli (GPa) = 24.29238 22.70545 33.14780
#
# Poissons Ratio (x) = 0.65101 -0.64691
# Poissons Ratio (y) = 0.69651 0.54117
# Poissons Ratio (z) = -0.47409 0.37069
#
# Static dielectric constant tensor:
#      x y z
#    x 1.749350 0.000000 0.000000 
#    y 0.000000 1.822560 0.000000 
#    z 0.000000 0.000000 1.766410 
# 
# From -- ./inp_files/4570.got.cif
#   From: 2010.05.17/outbox.cif.g08.bks.cpg/sg29_3_cif.got.tgz:4570.got - 2010.06.04 01:19:37.
