data_PCOD9341050
_publ_section_title
;
Structure prediction by ZEFSAII (Michael W. Deem and Ramdas Pophale) SiO2 
 PCOD9341050
Probable space group: P C A 21
;
_chemical_formula_sum "Si O2"
_cell_formula_units_Z 32
_cell_length_a 9.858961
_cell_length_b 11.977267
_cell_length_c 12.915180
_cell_angle_alpha 90.000000
_cell_angle_beta 90.000000
_cell_angle_gamma 90.000000
_cell_volume 1525.068472
_symmetry_space_group_name_H-M "P C A 21"
_symmetry_group_IT_number 29
_symmetry_cell_setting 'orthorhombic'
loop_
_space_group_symop_operation_xyz
x,y,z
-x,-y,1/2+z
1/2-x,y,1/2+z
1/2+x,-y,z
loop_
_atom_site_type_symbol
_atom_site_label
_atom_site_fract_x
_atom_site_fract_y
_atom_site_fract_z
Si Si1 0.964239 0.282919 0.577720
Si Si2 0.423282 0.003551 0.774020
Si Si3 0.017065 0.761088 0.301911
Si Si4 0.309619 0.717128 0.002992
Si Si5 0.673053 0.060135 0.632122
Si Si6 0.436598 0.499163 0.991622
Si Si7 0.804355 0.635691 0.405655
Si Si8 0.677069 0.866298 0.475064
O O1 0.850382 0.285930 0.490205
O O2 0.035305 0.401043 0.571177
O O3 0.913363 0.262587 0.692741
O O4 0.059106 0.181403 0.548194
O O5 0.526796 0.045415 0.686416
O O6 0.381452 0.089970 0.864792
O O7 0.500450 0.893492 0.817448
O O8 0.284994 0.959717 0.721089
O O9 0.878506 0.688730 0.305088
O O10 0.111877 0.725822 0.395875
O O11 0.335355 0.820698 0.076837
O O12 0.355863 0.598624 0.046494
O O13 0.720394 0.974522 0.540643
O O14 0.334287 0.437495 0.908624
O O15 0.577832 0.555004 0.952682
O O16 0.772039 0.755659 0.462793
#
# Coordination Sequence:
#
# PCOD9341050 Si02
#       8
#     4   4   4   4   4   4   4   4
#     4  11  23  46  68  99 140 187 232 287 357 420
#     4  12  26  42  67 105 144 179 241 279 354 432
#     4  11  23  42  68 105 138 185 237 291 345 430
#     4  11  23  42  71  98 141 181 228 291 348 416
#     4  12  25  42  69 103 137 189 231 283 358 423
#     4  10  22  46  71  96 137 185 230 293 359 413
#     4  10  23  44  72  98 140 180 234 295 355 410
#     4  11  25  42  70 100 145 182 227 301 346 420
#
# _framework density 20.982665999999998
#
# number of rings (size 3 to 8) (size 9 to 14) (size 15 to 20)
#    0.000    1.000    5.000    0.750    5.250    2.000 
#    4.500    5.000    0.000    0.000    0.000    0.000 
#    0.000    0.000    0.000    0.000    0.000    0.000 
#
# Total GULP energy -178176.547064 kJ/mol
# GULP energy per Si atom -5568.017096 kJ/mol
# Density = 2.093491 g / cm^3
# Si number density = 20.982666 Si / 1000 Ang^3
#
#
#
# Elastic Constant Matrix: (Units=GPa)
#
#
# Indices 1 2 3 4 5 6 
#
# 1 67.9284 20.6257 22.8972 0.0000 0.0000 0.0000
# 2 20.6257 135.3294 31.1849 0.0000 0.0000 0.0000
# 3 22.8972 31.1849 79.1349 0.0000 0.0000 0.0000
# 4 0.0000 0.0000 0.0000 5.5860 0.0000 0.0000
# 5 0.0000 0.0000 0.0000 0.0000 12.3330 0.0000
# 6 0.0000 0.0000 0.0000 0.0000 0.0000 21.3309
#
#
#
# Elastic Compliance Matrix: (Units=1/GPa)
#
#
# Indices 1 2 3 4 5 6 
#
# 1 0.016609 -0.001566 -0.004188 0.000000 0.000000 0.000000
# 2 -0.001566 0.008275 -0.002808 0.000000 0.000000 0.000000
# 3 -0.004188 -0.002808 0.014955 0.000000 0.000000 0.000000
# 4 0.000000 0.000000 0.000000 0.179019 0.000000 0.000000
# 5 0.000000 0.000000 0.000000 0.000000 0.081084 0.000000
# 6 0.000000 0.000000 0.000000 0.000000 0.000000 0.046880
#
#
# Mechanical properties :
#
#
# Convention : Reuss Voigt Hill
#
# Bulk Modulus (GPa) = 44.02573 47.97870 46.00221
# Shear Modulus (GPa) = 13.45829 21.69563 17.57696
#
# Velocity S-wave (km/s) = 2.53534 3.21904 2.89743
# Velocity P-wave (km/s) = 5.44041 6.06068 5.75890
#
# Compressibility (1/GPa) = 0.02271399
#
# Stress axis : x y z
#
# Youngs Moduli (GPa) = 60.20916 120.84437 66.86706
#
# Poissons Ratio (x) = 0.18927 0.28007
# Poissons Ratio (y) = 0.09430 0.18775
# Poissons Ratio (z) = 0.25218 0.33931
#
# Static dielectric constant tensor:
#      x y z
#    x 1.866450 0.000000 0.000000 
#    y 0.000000 1.905830 0.000000 
#    z 0.000000 0.000000 1.729870 
# 
# From -- ./inp_files/4312.got.cif
#   From: 2010.05.17/outbox.cif.g08.bks.cpg/sg29_3_cif.got.tgz:4312.got - 2010.06.04 01:19:37.
