data_PCOD9341787
_publ_section_title
;
Structure prediction by ZEFSAII (Michael W. Deem and Ramdas Pophale) SiO2 
 PCOD9341787
Probable space group: P C A 21
;
_chemical_formula_sum "Si O2"
_cell_formula_units_Z 28
_cell_length_a 9.000000
_cell_length_b 15.000000
_cell_length_c 9.000000
_cell_angle_alpha 90.000000
_cell_angle_beta 90.000000
_cell_angle_gamma 90.000000
_cell_volume 1215.000000
_symmetry_space_group_name_H-M "P C A 21"
_symmetry_group_IT_number 29
_symmetry_cell_setting 'orthorhombic'
loop_
_space_group_symop_operation_xyz
x,y,z
-x,-y,1/2+z
1/2-x,y,1/2+z
1/2+x,-y,z
loop_
_atom_site_type_symbol
_atom_site_label
_atom_site_fract_x
_atom_site_fract_y
_atom_site_fract_z
Si Si1 0.539157 0.876599 0.798110
Si Si2 0.925107 0.411247 0.422381
Si Si3 0.251071 0.967198 0.709080
Si Si4 0.032292 0.125503 0.117545
Si Si5 0.427079 0.313436 0.682941
Si Si6 0.573248 0.398380 0.422192
Si Si7 0.583431 0.692174 0.659541
O O1 0.365617 0.901636 0.789218
O O2 0.572699 0.798575 0.682118
O O3 0.633574 0.967507 0.787817
O O4 0.581572 0.841506 0.957758
O O5 0.749571 0.404556 0.449062
O O6 0.962688 0.385078 0.255249
O O7 0.992742 0.507826 0.451766
O O8 0.030297 0.337423 0.498934
O O9 0.138184 0.906706 0.615673
O O10 0.363834 0.040093 0.643049
O O11 0.051447 0.209337 0.226081
O O12 0.487049 0.325697 0.517321
O O13 0.252780 0.335646 0.694065
O O14 0.534477 0.363806 0.257378
#
# Coordination Sequence:
#
# PCOD9341787 Si02
#       7
#     4   4   4   4   4   4   4
#     4  11  23  43  68  97 138 176 229 274 341 394
#     4  12  28  46  74 103 136 183 227 285 344 413
#     4  10  24  42  64 100 130 182 224 284 328 402
#     4  11  23  43  68  97 138 176 229 274 341 394
#     4  12  25  44  72 104 142 181 228 285 341 410
#     4  12  26  50  72 101 138 179 233 281 346 409
#     4  12  25  44  72 104 142 181 228 285 341 410
#
# _framework density 23.045266999999999
#
# number of rings (size 3 to 8) (size 9 to 14) (size 15 to 20)
#    0.000    0.571    2.857    5.143    4.000    0.000 
#   10.286    0.000    0.000    0.000    0.000    0.000 
#    0.000    0.000    0.000    0.000    0.000    0.000 
#
# Total GULP energy -155979.276795 kJ/mol
# GULP energy per Si atom -5570.688457 kJ/mol
# Density = 2.299282 g / cm^3
# Si number density = 23.045267 Si / 1000 Ang^3
#
#
#
# Elastic Constant Matrix: (Units=GPa)
#
#
# Indices 1 2 3 4 5 6 
#
# 1 157.8549 27.7047 -7.4835 0.0000 0.0000 0.0000
# 2 27.7047 78.8777 4.4515 0.0000 0.0000 0.0000
# 3 -7.4835 4.4515 17.2014 0.0000 0.0000 0.0000
# 4 0.0000 0.0000 0.0000 28.1631 0.0000 0.0000
# 5 0.0000 0.0000 0.0000 0.0000 15.2385 0.0000
# 6 0.0000 0.0000 0.0000 0.0000 0.0000 68.3840
#
#
#
# Elastic Compliance Matrix: (Units=1/GPa)
#
#
# Indices 1 2 3 4 5 6 
#
# 1 0.006979 -0.002661 0.003725 0.000000 0.000000 0.000000
# 2 -0.002661 0.013881 -0.004750 0.000000 0.000000 0.000000
# 3 0.003725 -0.004750 0.060984 0.000000 0.000000 0.000000
# 4 0.000000 0.000000 0.000000 0.035507 0.000000 0.000000
# 5 0.000000 0.000000 0.000000 0.000000 0.065623 0.000000
# 6 0.000000 0.000000 0.000000 0.000000 0.000000 0.014623
#
#
# Mechanical properties :
#
#
# Convention : Reuss Voigt Hill
#
# Bulk Modulus (GPa) = 13.42812 33.69773 23.56292
# Shear Modulus (GPa) = 21.75860 37.64121 29.69990
#
# Velocity S-wave (km/s) = 3.07606 4.04587 3.59383
# Velocity P-wave (km/s) = 4.29601 6.03983 5.24096
#
# Compressibility (1/GPa) = 0.07447061
#
# Stress axis : x y z
#
# Youngs Moduli (GPa) = 143.29522 72.04250 16.39762
#
# Poissons Ratio (x) = 0.19173 -0.06108
# Poissons Ratio (y) = 0.38136 0.07789
# Poissons Ratio (z) = -0.53374 0.34220
#
# Static dielectric constant tensor:
#      x y z
#    x 1.773290 0.000000 0.000000 
#    y 0.000000 0.962150 0.000000 
#    z 0.000000 0.000000 2.039360 
# 
# From -- ./inp_files/1191.got.cif
#   From: 2010.05.17/outbox.ucp.g08.bks.cvg/sg29_1_cif.got.tgz:1191.got - 2010.06.11 15:24:14.
