data_PCOD9341411
_publ_section_title
;
Structure prediction by ZEFSAII (Michael W. Deem and Ramdas Pophale) SiO2 
 PCOD9341411
Probable space group: P C A 21
;
_chemical_formula_sum "Si O2"
_cell_formula_units_Z 32
_cell_length_a 12.229480
_cell_length_b 12.700153
_cell_length_c 9.080416
_cell_angle_alpha 90.000000
_cell_angle_beta 90.000000
_cell_angle_gamma 90.000000
_cell_volume 1410.336317
_symmetry_space_group_name_H-M "P C A 21"
_symmetry_group_IT_number 29
_symmetry_cell_setting 'orthorhombic'
loop_
_space_group_symop_operation_xyz
x,y,z
-x,-y,1/2+z
1/2-x,y,1/2+z
1/2+x,-y,z
loop_
_atom_site_type_symbol
_atom_site_label
_atom_site_fract_x
_atom_site_fract_y
_atom_site_fract_z
Si Si1 0.328520 0.331771 0.043610
Si Si2 0.637190 0.165093 0.831814
Si Si3 0.471713 0.583847 0.708122
Si Si4 0.955550 0.932794 0.334520
Si Si5 0.531561 0.806835 0.106856
Si Si6 0.112355 0.416948 0.992617
Si Si7 0.768463 0.810424 0.788847
Si Si8 0.365747 0.803127 0.675632
O O1 0.444448 0.377567 0.081679
O O2 0.243157 0.414488 0.976349
O O3 0.280277 0.287454 0.196671
O O4 0.327356 0.233398 0.933549
O O5 0.559814 0.231003 0.721570
O O6 0.755662 0.157754 0.755509
O O7 0.570216 0.055257 0.832376
O O8 0.648723 0.202960 0.999306
O O9 0.410629 0.486734 0.635388
O O10 0.397738 0.687029 0.736630
O O11 0.543072 0.551793 0.849787
O O12 0.008413 0.890279 0.486580
O O13 0.834509 0.882113 0.322973
O O14 0.034249 0.882477 0.211780
O O15 0.576338 0.703647 0.023616
O O16 0.636504 0.857297 0.187960
#
# Coordination Sequence:
#
# PCOD9341411 Si02
#       8
#     4   4   4   4   4   4   4   4
#     4  11  20  44  65 102 133 176 237 291 355 412
#     4  12  30  43  75 104 148 197 234 297 374 441
#     4  12  26  47  74 103 144 190 237 304 366 439
#     4  12  24  47  73 102 143 189 248 297 356 440
#     4  11  24  48  68 107 144 184 243 304 351 429
#     4  11  26  43  73 104 139 191 241 297 360 429
#     4  11  21  39  74  96 134 180 230 301 345 409
#     4  12  27  53  68 108 151 191 244 305 367 437
#
# _framework density 22.689623999999998
#
# number of rings (size 3 to 8) (size 9 to 14) (size 15 to 20)
#    0.000    0.500    6.250    2.250    8.750    1.000 
#    0.000    0.000    0.000    0.000    0.000    0.000 
#    0.000    0.000    0.000    0.000    0.000    0.000 
#
# Total GULP energy -178951.101879 kJ/mol
# GULP energy per Si atom -5592.221934 kJ/mol
# Density = 2.263798 g / cm^3
# Si number density = 22.689624 Si / 1000 Ang^3
#
#
#
# Elastic Constant Matrix: (Units=GPa)
#
#
# Indices 1 2 3 4 5 6 
#
# 1 72.9647 -1.1403 16.0466 0.0000 0.0000 0.0000
# 2 -1.1403 46.3762 -10.7397 0.0000 0.0000 0.0000
# 3 16.0466 -10.7397 94.4123 0.0000 0.0000 0.0000
# 4 0.0000 0.0000 0.0000 21.5645 0.0000 0.0000
# 5 0.0000 0.0000 0.0000 0.0000 37.4044 0.0000
# 6 0.0000 0.0000 0.0000 0.0000 0.0000 22.9801
#
#
#
# Elastic Compliance Matrix: (Units=1/GPa)
#
#
# Indices 1 2 3 4 5 6 
#
# 1 0.014240 -0.000216 -0.002445 0.000000 0.000000 0.000000
# 2 -0.000216 0.022149 0.002556 0.000000 0.000000 0.000000
# 3 -0.002445 0.002556 0.011298 0.000000 0.000000 0.000000
# 4 0.000000 0.000000 0.000000 0.046372 0.000000 0.000000
# 5 0.000000 0.000000 0.000000 0.000000 0.026735 0.000000
# 6 0.000000 0.000000 0.000000 0.000000 0.000000 0.043516
#
#
# Mechanical properties :
#
#
# Convention : Reuss Voigt Hill
#
# Bulk Modulus (GPa) = 21.06233 24.67627 22.86930
# Shear Modulus (GPa) = 27.72455 30.36223 29.04339
#
# Velocity S-wave (km/s) = 3.49937 3.66205 3.58163
# Velocity P-wave (km/s) = 5.06265 5.36470 5.21586
#
# Compressibility (1/GPa) = 0.04747813
#
# Stress axis : x y z
#
# Youngs Moduli (GPa) = 70.22694 45.14780 88.51003
#
# Poissons Ratio (x) = 0.00975 0.21639
# Poissons Ratio (y) = 0.01517 -0.22626
# Poissons Ratio (z) = 0.17169 -0.11541
#
# Static dielectric constant tensor:
#      x y z
#    x 1.853890 0.000000 0.000000 
#    y 0.000000 1.846200 0.000000 
#    z 0.000000 0.000000 1.893680 
# 
# From -- ./inp_files/1583.got.cif
#   From: 2010.05.17/outbox.cif.g08.bks.cpg/sg29_1_cif.got.tgz:1583.got - 2010.06.04 01:19:37.
