data_PCOD9341009
_publ_section_title
;
Structure prediction by ZEFSAII (Michael W. Deem and Ramdas Pophale) SiO2 
 PCOD9341009
Probable space group: P C A 21
;
_chemical_formula_sum "Si O2"
_cell_formula_units_Z 20
_cell_length_a 8.388632
_cell_length_b 6.977882
_cell_length_c 12.380552
_cell_angle_alpha 90.000000
_cell_angle_beta 90.000000
_cell_angle_gamma 90.000000
_cell_volume 724.694178
_symmetry_space_group_name_H-M "P C A 21"
_symmetry_group_IT_number 29
_symmetry_cell_setting 'orthorhombic'
loop_
_space_group_symop_operation_xyz
x,y,z
-x,-y,1/2+z
1/2-x,y,1/2+z
1/2+x,-y,z
loop_
_atom_site_type_symbol
_atom_site_label
_atom_site_fract_x
_atom_site_fract_y
_atom_site_fract_z
Si Si1 0.190250 0.736084 0.482870
Si Si2 0.050560 0.388384 0.174278
Si Si3 0.318742 0.101778 0.092759
Si Si4 0.500155 0.797660 0.774696
Si Si5 0.822494 0.675501 0.892852
O O1 0.239026 0.529918 0.437050
O O2 0.070022 0.662950 0.578793
O O3 0.124914 0.829216 0.369979
O O4 0.267512 0.914842 0.545540
O O5 0.206686 0.271240 0.137350
O O6 0.042735 0.331808 0.300763
O O7 0.054807 0.618351 0.197830
O O8 0.441340 0.047362 0.187588
O O9 0.393666 0.202588 0.989214
O O10 0.660427 0.757467 0.842997
#
# Coordination Sequence:
#
# PCOD9341009 Si02
#       5
#     4   4   4   4   4
#     4  11  23  43  69 101 133 184 225 289 353 402
#     4  10  22  44  66  97 136 179 228 283 344 409
#     4  11  23  43  67 103 137 172 240 284 339 421
#     4  10  22  46  72  95 139 187 228 284 359 409
#     4  10  22  44  68  98 137 178 231 284 339 427
#
# _framework density 27.597847999999999
#
# number of rings (size 3 to 8) (size 9 to 14) (size 15 to 20)
#    0.000    1.600    4.000    0.000    2.800    0.000 
#   18.000    0.000    0.000    0.000    0.000    0.000 
#    0.000    0.000    0.000    0.000    0.000    0.000 
#
# Total GULP energy -111559.431249 kJ/mol
# GULP energy per Si atom -5577.971562 kJ/mol
# Density = 2.753503 g / cm^3
# Si number density = 27.597848 Si / 1000 Ang^3
#
#
#
# Elastic Constant Matrix: (Units=GPa)
#
#
# Indices 1 2 3 4 5 6 
#
# 1 43.5250 29.3408 38.9901 0.0000 0.0000 0.0000
# 2 29.3408 111.4310 83.9433 0.0000 0.0000 0.0000
# 3 38.9901 83.9433 183.9236 0.0000 0.0000 0.0000
# 4 0.0000 0.0000 0.0000 49.9657 0.0000 0.0000
# 5 0.0000 0.0000 0.0000 0.0000 39.1015 0.0000
# 6 0.0000 0.0000 0.0000 0.0000 0.0000 28.3530
#
#
#
# Elastic Compliance Matrix: (Units=1/GPa)
#
#
# Indices 1 2 3 4 5 6 
#
# 1 0.029907 -0.004722 -0.004185 0.000000 0.000000 0.000000
# 2 -0.004722 0.014422 -0.005581 0.000000 0.000000 0.000000
# 3 -0.004185 -0.005581 0.008871 0.000000 0.000000 0.000000
# 4 0.000000 0.000000 0.000000 0.020014 0.000000 0.000000
# 5 0.000000 0.000000 0.000000 0.000000 0.025574 0.000000
# 6 0.000000 0.000000 0.000000 0.000000 0.000000 0.035270
#
#
# Mechanical properties :
#
#
# Convention : Reuss Voigt Hill
#
# Bulk Modulus (GPa) = 41.28099 71.49198 56.38649
# Shear Modulus (GPa) = 29.22094 35.92441 32.57268
#
# Velocity S-wave (km/s) = 3.25747 3.61184 3.43922
# Velocity P-wave (km/s) = 5.39802 6.58445 6.02053
#
# Compressibility (1/GPa) = 0.02422422
#
# Stress axis : x y z
#
# Youngs Moduli (GPa) = 33.43645 69.33843 112.72162
#
# Poissons Ratio (x) = 0.32745 0.47171
# Poissons Ratio (y) = 0.15790 0.62911
# Poissons Ratio (z) = 0.13992 0.38699
#
# Static dielectric constant tensor:
#      x y z
#    x 2.185820 0.000000 0.000000 
#    y 0.000000 2.202640 0.000000 
#    z 0.000000 0.000000 2.140250 
# 
# From -- ./inp_files/3017.got.cif
#   From: 2010.05.17/outbox.cif.g08.bks.cpg/sg29_2_cif.got.tgz:3017.got - 2010.06.04 01:19:37.
