data_PCOD9341928
_publ_section_title
;
Structure prediction by ZEFSAII (Michael W. Deem and Ramdas Pophale) SiO2 
 PCOD9341928
Probable space group: P N C 2
;
_chemical_formula_sum "Si O2"
_cell_formula_units_Z 30
_cell_length_a 12.223126
_cell_length_b 22.862706
_cell_length_c 5.610908
_cell_angle_alpha 90.000000
_cell_angle_beta 90.000000
_cell_angle_gamma 90.000000
_cell_volume 1567.989204
_symmetry_space_group_name_H-M "P N C 2"
_symmetry_group_IT_number 30
_symmetry_cell_setting 'orthorhombic'
loop_
_space_group_symop_operation_xyz
x,y,z
-x,-y,z
-x,1/2+y,1/2+z
x,1/2-y,1/2+z
loop_
_atom_site_type_symbol
_atom_site_label
_atom_site_fract_x
_atom_site_fract_y
_atom_site_fract_z
Si Si1 0.394486 0.455634 0.608140
Si Si2 0.903509 0.396673 0.422188
Si Si3 0.251515 0.775686 0.359191
Si Si4 0.000000 0.500000 0.095215
Si Si5 0.700911 0.390142 0.099581
Si Si6 0.464909 0.068786 0.616259
Si Si7 0.191039 0.518130 0.796632
Si Si8 0.998041 0.269041 0.399103
O O1 0.500000 0.500000 0.601535
O O2 0.395765 0.423060 0.355924
O O3 0.278311 0.488433 0.624774
O O4 0.411445 0.420924 0.856878
O O5 0.786844 0.377183 0.308297
O O6 0.875951 0.430899 0.663367
O O7 0.974049 0.337909 0.435392
O O8 0.958453 0.445718 0.253010
O O9 0.294182 0.747051 0.606086
O O10 0.276953 0.843372 0.393727
O O11 0.120953 0.763277 0.369590
O O12 0.899850 0.520093 0.927372
O O13 0.574304 0.393607 0.155588
O O14 0.734504 0.453139 0.999795
O O15 0.500000 0.000000 0.609657
O O16 0.050738 0.243424 0.640408
#
# Coordination Sequence:
#
# PCOD9341928 Si02
#       8
#     4   4   4   2   4   4   4   4
#     4  10  19  33  51  73 107 140 188 224 265 324
#     4  11  21  35  55  75 115 157 190 235 291 358
#     4  10  19  31  45  77 107 143 184 216 276 348
#     4  10  26  36  50  86 106 166 204 230 304 352
#     4  11  20  30  55  74 112 153 177 229 282 337
#     4  10  19  32  45  80 102 138 187 218 265 329
#     4  11  21  36  53  74 112 160 190 240 283 351
#     4  10  19  34  52  79 107 142 188 233 284 353
#
# _framework density 19.132783
#
# number of rings (size 3 to 8) (size 9 to 14) (size 15 to 20)
#    0.000    1.600    5.333    3.600    3.733    0.000 
#    0.000    0.000    0.000    0.000    0.000    0.000 
#    0.000    6.400    0.000    0.000    0.000    0.000 
#
# Total GULP energy -167189.081745 kJ/mol
# GULP energy per Si atom -5572.969391 kJ/mol
# Density = 1.908924 g / cm^3
# Si number density = 19.132783 Si / 1000 Ang^3
#
#
#
# Elastic Constant Matrix: (Units=GPa)
#
#
# Indices 1 2 3 4 5 6 
#
# 1 38.5777 22.7445 7.0575 0.0000 0.0000 0.0000
# 2 22.7445 43.1365 12.5817 0.0000 0.0000 0.0000
# 3 7.0575 12.5817 133.1549 0.0000 0.0000 0.0000
# 4 0.0000 0.0000 0.0000 21.1504 0.0000 0.0000
# 5 0.0000 0.0000 0.0000 0.0000 2.7039 0.0000
# 6 0.0000 0.0000 0.0000 0.0000 0.0000 10.7067
#
#
#
# Elastic Compliance Matrix: (Units=1/GPa)
#
#
# Indices 1 2 3 4 5 6 
#
# 1 0.037617 -0.019798 -0.000123 0.000000 0.000000 0.000000
# 2 -0.019798 0.034259 -0.002188 0.000000 0.000000 0.000000
# 3 -0.000123 -0.002188 0.007723 0.000000 0.000000 0.000000
# 4 0.000000 0.000000 0.000000 0.047280 0.000000 0.000000
# 5 0.000000 0.000000 0.000000 0.000000 0.369829 0.000000
# 6 0.000000 0.000000 0.000000 0.000000 0.000000 0.093399
#
#
# Mechanical properties :
#
#
# Convention : Reuss Voigt Hill
#
# Bulk Modulus (GPa) = 28.26354 33.29293 30.77824
# Shear Modulus (GPa) = 7.73850 18.41124 13.07487
#
# Velocity S-wave (km/s) = 2.01331 3.10544 2.61698
# Velocity P-wave (km/s) = 4.49543 5.50428 5.02524
#
# Compressibility (1/GPa) = 0.03538127
#
# Stress axis : x y z
#
# Youngs Moduli (GPa) = 26.58388 29.18918 129.47843
#
# Poissons Ratio (x) = 0.57789 0.01593
# Poissons Ratio (y) = 0.52631 0.28327
# Poissons Ratio (z) = 0.00327 0.06386
#
# Static dielectric constant tensor:
#      x y z
#    x 1.674400 0.000000 0.000000 
#    y 0.000000 1.687890 0.000000 
#    z 0.000000 0.000000 1.760630 
# 
# From -- ./inp_files/797.got.cif
#   From: 2010.05.17/outbox.cif.g08.bks.cpg/sg30_1_cif.got.tgz:797.got - 2010.06.03 17:03:02.
