data_PCOD9341470
_publ_section_title
;
Structure prediction by ZEFSAII (Michael W. Deem and Ramdas Pophale) SiO2 
 PCOD9341470
Probable space group: P C A 21
;
_chemical_formula_sum "Si O2"
_cell_formula_units_Z 32
_cell_length_a 18.337855
_cell_length_b 6.436017
_cell_length_c 13.790964
_cell_angle_alpha 90.000000
_cell_angle_beta 90.000000
_cell_angle_gamma 90.000000
_cell_volume 1627.647448
_symmetry_space_group_name_H-M "P C A 21"
_symmetry_group_IT_number 29
_symmetry_cell_setting 'orthorhombic'
loop_
_space_group_symop_operation_xyz
x,y,z
-x,-y,1/2+z
1/2-x,y,1/2+z
1/2+x,-y,z
loop_
_atom_site_type_symbol
_atom_site_label
_atom_site_fract_x
_atom_site_fract_y
_atom_site_fract_z
Si Si1 0.824967 0.351494 0.155910
Si Si2 0.277552 0.927121 0.788180
Si Si3 0.954471 0.046015 0.087449
Si Si4 0.980190 0.693423 0.414265
Si Si5 0.709596 0.420706 0.439061
Si Si6 0.674874 0.675796 0.820809
Si Si7 0.058835 0.963839 0.266216
Si Si8 0.066170 0.299308 0.433196
O O1 0.768646 0.224245 0.220865
O O2 0.892542 0.201926 0.127804
O O3 0.843909 0.551924 0.221576
O O4 0.788174 0.409113 0.054407
O O5 0.295299 0.806645 0.889160
O O6 0.228186 0.130038 0.802391
O O7 0.356049 0.965376 0.740529
O O8 0.005888 0.981393 0.175520
O O9 0.001206 0.170192 0.007662
O O10 0.924517 0.847560 0.027431
O O11 0.900027 0.733134 0.373522
O O12 0.998798 0.457517 0.442310
O O13 0.035091 0.763637 0.328621
O O14 0.779812 0.525808 0.391750
O O15 0.638695 0.563068 0.417634
O O16 0.050615 0.154832 0.341013
#
# Coordination Sequence:
#
# PCOD9341470 Si02
#       8
#     4   4   4   4   4   4   4   4
#     4  11  25  42  66 101 132 177 229 278 340 417
#     4  11  24  43  65  97 136 172 228 278 346 408
#     4  11  25  41  66 101 132 180 229 281 347 403
#     4  11  24  43  65  99 134 173 229 282 338 407
#     4  11  23  44  67  94 131 179 223 270 347 418
#     4  11  26  43  69 102 135 179 224 289 341 414
#     4  11  23  41  66  95 132 178 224 282 339 411
#     4  11  22  43  70  91 134 182 224 282 342 408
#
# _framework density 19.660278000000002
#
# number of rings (size 3 to 8) (size 9 to 14) (size 15 to 20)
#    0.000    1.000    3.750    2.250    3.500    7.000 
#    0.000    0.000    0.000    0.000    0.000    0.000 
#    0.000    0.000    0.000    0.000    0.000    0.000 
#
# Total GULP energy -178788.558862 kJ/mol
# GULP energy per Si atom -5587.142464 kJ/mol
# Density = 1.961553 g / cm^3
# Si number density = 19.660278 Si / 1000 Ang^3
#
#
#
# Elastic Constant Matrix: (Units=GPa)
#
#
# Indices 1 2 3 4 5 6 
#
# 1 105.5166 36.2770 43.3938 0.0000 0.0000 0.0000
# 2 36.2770 91.7440 38.0353 0.0000 0.0000 0.0000
# 3 43.3938 38.0353 129.8285 0.0000 0.0000 0.0000
# 4 0.0000 0.0000 0.0000 24.1263 0.0000 0.0000
# 5 0.0000 0.0000 0.0000 0.0000 34.7578 0.0000
# 6 0.0000 0.0000 0.0000 0.0000 0.0000 21.8961
#
#
#
# Elastic Compliance Matrix: (Units=1/GPa)
#
#
# Indices 1 2 3 4 5 6 
#
# 1 0.011887 -0.003475 -0.002955 0.000000 0.000000 0.000000
# 2 -0.003475 0.013423 -0.002771 0.000000 0.000000 0.000000
# 3 -0.002955 -0.002771 0.009502 0.000000 0.000000 0.000000
# 4 0.000000 0.000000 0.000000 0.041449 0.000000 0.000000
# 5 0.000000 0.000000 0.000000 0.000000 0.028771 0.000000
# 6 0.000000 0.000000 0.000000 0.000000 0.000000 0.045670
#
#
# Mechanical properties :
#
#
# Convention : Reuss Voigt Hill
#
# Bulk Modulus (GPa) = 60.93983 62.50013 61.71998
# Shear Modulus (GPa) = 28.64121 30.11491 29.37806
#
# Velocity S-wave (km/s) = 3.82095 3.91802 3.86979
# Velocity P-wave (km/s) = 7.10844 7.23374 7.17136
#
# Compressibility (1/GPa) = 0.01640963
#
# Stress axis : x y z
#
# Youngs Moduli (GPa) = 84.12360 74.49998 105.24191
#
# Poissons Ratio (x) = 0.25891 0.31099
# Poissons Ratio (y) = 0.29236 0.29161
# Poissons Ratio (z) = 0.24859 0.20643
#
# Static dielectric constant tensor:
#      x y z
#    x 1.671870 0.000000 0.000000 
#    y 0.000000 1.728180 0.000000 
#    z 0.000000 0.000000 1.662470 
# 
# From -- ./inp_files/3807.got.cif
#   From: 2010.05.17/outbox.cif.g08.bks.cpg/sg29_2_cif.got.tgz:3807.got - 2010.06.04 01:19:37.
