data_PCOD9341402
_publ_section_title
;
Structure prediction by ZEFSAII (Michael W. Deem and Ramdas Pophale) SiO2 
 PCOD9341402
Probable space group: P C A 21
;
_chemical_formula_sum "Si O2"
_cell_formula_units_Z 32
_cell_length_a 12.802019
_cell_length_b 5.182137
_cell_length_c 19.877879
_cell_angle_alpha 90.000000
_cell_angle_beta 90.000000
_cell_angle_gamma 90.000000
_cell_volume 1318.734598
_symmetry_space_group_name_H-M "P C A 21"
_symmetry_group_IT_number 29
_symmetry_cell_setting 'orthorhombic'
loop_
_space_group_symop_operation_xyz
x,y,z
-x,-y,1/2+z
1/2-x,y,1/2+z
1/2+x,-y,z
loop_
_atom_site_type_symbol
_atom_site_label
_atom_site_fract_x
_atom_site_fract_y
_atom_site_fract_z
Si Si1 0.006508 0.290630 0.781710
Si Si2 0.106367 0.792791 0.823339
Si Si3 0.112362 0.688467 0.036514
Si Si4 0.893035 0.747429 0.975030
Si Si5 0.402269 0.999435 0.672075
Si Si6 0.756050 0.681570 0.097386
Si Si7 0.393472 0.642820 0.183173
Si Si8 0.219524 0.775643 0.434207
O O1 0.016542 0.567052 0.819727
O O2 0.074262 0.365421 0.715083
O O3 0.057078 0.074990 0.828803
O O4 0.909989 0.154452 0.743042
O O5 0.153106 0.782821 0.747981
O O6 0.199081 0.742650 0.874083
O O7 0.157950 0.404953 0.051272
O O8 0.014120 0.702753 0.987874
O O9 0.205847 0.828651 0.998048
O O10 0.087604 0.809867 0.108513
O O11 0.844521 0.797581 0.049658
O O12 0.841408 0.487440 0.947617
O O13 0.859785 0.987327 0.929326
O O14 0.296064 0.156196 0.656898
O O15 0.499975 0.201506 0.668432
O O16 0.811655 0.422319 0.125962
#
# Coordination Sequence:
#
# PCOD9341402 Si02
#       8
#     4   4   4   4   4   4   4   4
#     4   9  19  38  66  92 125 173 211 278 326 383
#     4   9  20  41  70  89 129 179 228 269 330 388
#     4  11  26  39  66 101 137 169 226 274 340 405
#     4  11  25  41  67  96 133 175 217 281 332 388
#     4  11  20  37  63  97 138 168 216 270 343 403
#     4  11  22  39  61 101 134 174 215 273 346 413
#     4   9  22  39  65  93 132 177 213 284 332 397
#     4  11  24  46  70  95 132 185 226 273 333 401
#
# _framework density 24.265684
#
# number of rings (size 3 to 8) (size 9 to 14) (size 15 to 20)
#    0.750    1.000    1.250    3.000    5.250    2.000 
#    0.000    2.500   11.000    0.000    0.000    0.000 
#    0.000    0.000    0.000    0.000    0.000    0.000 
#
# Total GULP energy -178645.440227 kJ/mol
# GULP energy per Si atom -5582.670007 kJ/mol
# Density = 2.421045 g / cm^3
# Si number density = 24.265684 Si / 1000 Ang^3
#
#
#
# Elastic Constant Matrix: (Units=GPa)
#
#
# Indices 1 2 3 4 5 6 
#
# 1 94.9809 26.7717 25.4665 0.0000 0.0000 0.0000
# 2 26.7717 99.4977 6.4770 0.0000 0.0000 0.0000
# 3 25.4665 6.4770 37.6706 0.0000 0.0000 0.0000
# 4 0.0000 0.0000 0.0000 7.6851 0.0000 0.0000
# 5 0.0000 0.0000 0.0000 0.0000 8.5252 0.0000
# 6 0.0000 0.0000 0.0000 0.0000 0.0000 5.9354
#
#
#
# Elastic Compliance Matrix: (Units=1/GPa)
#
#
# Indices 1 2 3 4 5 6 
#
# 1 0.013761 -0.003132 -0.008764 0.000000 0.000000 0.000000
# 2 -0.003132 0.010877 0.000247 0.000000 0.000000 0.000000
# 3 -0.008764 0.000247 0.032428 0.000000 0.000000 0.000000
# 4 0.000000 0.000000 0.000000 0.130122 0.000000 0.000000
# 5 0.000000 0.000000 0.000000 0.000000 0.117299 0.000000
# 6 0.000000 0.000000 0.000000 0.000000 0.000000 0.168481
#
#
# Mechanical properties :
#
#
# Convention : Reuss Voigt Hill
#
# Bulk Modulus (GPa) = 29.61383 38.84219 34.22801
# Shear Modulus (GPa) = 9.85176 15.99141 12.92158
#
# Velocity S-wave (km/s) = 2.01712 2.56991 2.31011
# Velocity P-wave (km/s) = 4.20185 4.98475 4.60995
#
# Compressibility (1/GPa) = 0.03376801
#
# Stress axis : x y z
#
# Youngs Moduli (GPa) = 72.66796 91.93579 30.83715
#
# Poissons Ratio (x) = 0.28796 0.27027
# Poissons Ratio (y) = 0.22761 -0.00762
# Poissons Ratio (z) = 0.63690 -0.02273
#
# Static dielectric constant tensor:
#      x y z
#    x 1.912390 0.000000 0.000000 
#    y 0.000000 1.976330 0.000000 
#    z 0.000000 0.000000 1.996300 
# 
# From -- ./inp_files/5527.got.cif
#   From: 2010.05.17/outbox.cif.g08.bks.cpg/sg29_3_cif.got.tgz:5527.got - 2010.06.04 01:19:37.
