data_PCOD9341065
_publ_section_title
;
Structure prediction by ZEFSAII (Michael W. Deem and Ramdas Pophale) SiO2 
 PCOD9341065
Probable space group: P C A 21
;
_chemical_formula_sum "Si O2"
_cell_formula_units_Z 24
_cell_length_a 23.043824
_cell_length_b 5.572302
_cell_length_c 8.728834
_cell_angle_alpha 90.000000
_cell_angle_beta 90.000000
_cell_angle_gamma 90.000000
_cell_volume 1120.844667
_symmetry_space_group_name_H-M "P C A 21"
_symmetry_group_IT_number 29
_symmetry_cell_setting 'orthorhombic'
loop_
_space_group_symop_operation_xyz
x,y,z
-x,-y,1/2+z
1/2-x,y,1/2+z
1/2+x,-y,z
loop_
_atom_site_type_symbol
_atom_site_label
_atom_site_fract_x
_atom_site_fract_y
_atom_site_fract_z
Si Si1 0.763538 0.615517 0.538050
Si Si2 0.277156 0.045940 0.280559
Si Si3 0.945051 0.637183 0.279306
Si Si4 0.395439 0.855226 0.254446
Si Si5 0.062830 0.621922 0.467527
Si Si6 0.184247 0.670205 0.300106
O O1 0.807060 0.459044 0.637727
O O2 0.727590 0.455397 0.420958
O O3 0.720192 0.745279 0.655697
O O4 0.790410 0.832887 0.442110
O O5 0.325952 0.854339 0.238331
O O6 0.212503 0.934813 0.285443
O O7 0.914062 0.391160 0.336623
O O8 0.008041 0.639661 0.356940
O O9 0.914292 0.887684 0.319095
O O10 0.943980 0.593226 0.093568
O O11 0.427186 0.836463 0.089584
O O12 0.120632 0.629112 0.365485
#
# Coordination Sequence:
#
# PCOD9341065 Si02
#       6
#     4   4   4   4   4   4
#     4  10  23  37  66  97 134 170 226 266 358 406
#     4  11  22  42  64 100 131 180 219 282 349 408
#     4  10  25  44  70  96 128 184 221 282 334 400
#     4  10  24  42  70  92 136 169 225 279 340 404
#     4  10  24  44  69  94 137 171 236 277 340 398
#     4  11  22  43  65  99 134 176 219 290 337 416
#
# _framework density 21.412423
#
# number of rings (size 3 to 8) (size 9 to 14) (size 15 to 20)
#    1.000    0.667    0.000    4.000    7.000    2.667 
#    3.000    0.000    0.000    0.000    0.000    0.000 
#    0.000    0.000    0.000    0.000    0.000    0.000 
#
# Total GULP energy -133803.953448 kJ/mol
# GULP energy per Si atom -5575.164727 kJ/mol
# Density = 2.136369 g / cm^3
# Si number density = 21.412423 Si / 1000 Ang^3
#
#
#
# Elastic Constant Matrix: (Units=GPa)
#
#
# Indices 1 2 3 4 5 6 
#
# 1 66.6653 22.3515 7.4129 0.0000 0.0000 0.0000
# 2 22.3515 93.2566 30.3035 0.0000 0.0000 0.0000
# 3 7.4129 30.3035 66.1335 0.0000 0.0000 0.0000
# 4 0.0000 0.0000 0.0000 27.7205 0.0000 0.0000
# 5 0.0000 0.0000 0.0000 0.0000 35.5965 0.0000
# 6 0.0000 0.0000 0.0000 0.0000 0.0000 18.9084
#
#
#
# Elastic Compliance Matrix: (Units=1/GPa)
#
#
# Indices 1 2 3 4 5 6 
#
# 1 0.016311 -0.003895 -0.000043 0.000000 0.000000 0.000000
# 2 -0.003895 0.013529 -0.005763 0.000000 0.000000 0.000000
# 3 -0.000043 -0.005763 0.017766 0.000000 0.000000 0.000000
# 4 0.000000 0.000000 0.000000 0.036074 0.000000 0.000000
# 5 0.000000 0.000000 0.000000 0.000000 0.028093 0.000000
# 6 0.000000 0.000000 0.000000 0.000000 0.000000 0.052887
#
#
# Mechanical properties :
#
#
# Convention : Reuss Voigt Hill
#
# Bulk Modulus (GPa) = 35.45607 38.46568 36.96087
# Shear Modulus (GPa) = 25.84450 27.51090 26.67770
#
# Velocity S-wave (km/s) = 3.47794 3.58831 3.53356
# Velocity P-wave (km/s) = 5.72037 5.93053 5.82640
#
# Compressibility (1/GPa) = 0.02820392
#
# Stress axis : x y z
#
# Youngs Moduli (GPa) = 61.30773 73.91369 56.28610
#
# Poissons Ratio (x) = 0.28792 0.00244
# Poissons Ratio (y) = 0.23881 0.32436
# Poissons Ratio (z) = 0.00266 0.42594
#
# Static dielectric constant tensor:
#      x y z
#    x 1.773050 0.000000 0.000000 
#    y 0.000000 1.825540 0.000000 
#    z 0.000000 0.000000 1.796330 
# 
# From -- ./inp_files/2367.got.cif
#   From: 2010.05.17/outbox.cif.g08.bks.cpg/sg29_2_cif.got.tgz:2367.got - 2010.06.04 01:19:37.
