data_PCOD9341317
_publ_section_title
;
Structure prediction by ZEFSAII (Michael W. Deem and Ramdas Pophale) SiO2 
 PCOD9341317
Probable space group: P C A 21
;
_chemical_formula_sum "Si O2"
_cell_formula_units_Z 24
_cell_length_a 14.741635
_cell_length_b 6.418622
_cell_length_c 10.947385
_cell_angle_alpha 90.000000
_cell_angle_beta 90.000000
_cell_angle_gamma 90.000000
_cell_volume 1035.852327
_symmetry_space_group_name_H-M "P C A 21"
_symmetry_group_IT_number 29
_symmetry_cell_setting 'orthorhombic'
loop_
_space_group_symop_operation_xyz
x,y,z
-x,-y,1/2+z
1/2-x,y,1/2+z
1/2+x,-y,z
loop_
_atom_site_type_symbol
_atom_site_label
_atom_site_fract_x
_atom_site_fract_y
_atom_site_fract_z
Si Si1 0.958328 0.427666 0.192510
Si Si2 0.459919 0.806684 0.565050
Si Si3 0.242807 0.448848 0.754445
Si Si4 0.106619 0.111990 0.255466
Si Si5 0.280769 0.682700 0.499703
Si Si6 0.612389 0.097233 0.496471
O O1 0.866821 0.534625 0.243860
O O2 0.023475 0.610883 0.150306
O O3 0.023025 0.274003 0.270543
O O4 0.927834 0.290122 0.073482
O O5 0.384484 0.734573 0.469059
O O6 0.410254 0.001887 0.627363
O O7 0.559904 0.890352 0.536805
O O8 0.297996 0.232549 0.762667
O O9 0.275375 0.558123 0.627839
O O10 0.261967 0.564330 0.883524
O O11 0.099334 0.924486 0.352173
O O12 0.219069 0.886695 0.519279
#
# Coordination Sequence:
#
# PCOD9341317 Si02
#       6
#     4   4   4   4   4   4
#     4  10  24  47  71 102 146 195 243 301 373 427
#     4  11  24  45  73 101 147 190 253 295 366 440
#     4  11  25  45  75 103 151 193 241 298 374 433
#     4  11  24  45  71 110 141 192 244 312 358 441
#     4  11  24  47  71 108 146 201 239 304 372 436
#     4  10  25  41  71 102 143 187 248 300 361 435
#
# _framework density 23.169328
#
# number of rings (size 3 to 8) (size 9 to 14) (size 15 to 20)
#    0.000    1.333    1.667    2.000    7.000    1.333 
#    6.000    0.000    0.000    0.000    0.000    0.000 
#    0.000    0.000    0.000    0.000    0.000    0.000 
#
# Total GULP energy -133773.782855 kJ/mol
# GULP energy per Si atom -5573.907619 kJ/mol
# Density = 2.311659 g / cm^3
# Si number density = 23.169328 Si / 1000 Ang^3
#
#
#
# Elastic Constant Matrix: (Units=GPa)
#
#
# Indices 1 2 3 4 5 6 
#
# 1 135.6405 50.8971 20.9187 0.0000 0.0000 0.0000
# 2 50.8971 54.7458 22.5483 0.0000 0.0000 0.0000
# 3 20.9187 22.5483 79.8836 0.0000 0.0000 0.0000
# 4 0.0000 0.0000 0.0000 9.4411 0.0000 0.0000
# 5 0.0000 0.0000 0.0000 0.0000 33.2341 0.0000
# 6 0.0000 0.0000 0.0000 0.0000 0.0000 33.1076
#
#
#
# Elastic Compliance Matrix: (Units=1/GPa)
#
#
# Indices 1 2 3 4 5 6 
#
# 1 0.011322 -0.010529 0.000007 0.000000 0.000000 0.000000
# 2 -0.010529 0.030461 -0.005841 0.000000 0.000000 0.000000
# 3 0.000007 -0.005841 0.014165 0.000000 0.000000 0.000000
# 4 0.000000 0.000000 0.000000 0.105920 0.000000 0.000000
# 5 0.000000 0.000000 0.000000 0.000000 0.030090 0.000000
# 6 0.000000 0.000000 0.000000 0.000000 0.000000 0.030205
#
#
# Mechanical properties :
#
#
# Convention : Reuss Voigt Hill
#
# Bulk Modulus (GPa) = 43.06193 50.99979 47.03086
# Shear Modulus (GPa) = 19.03827 26.88360 22.96094
#
# Velocity S-wave (km/s) = 2.86964 3.41003 3.15144
# Velocity P-wave (km/s) = 5.44113 6.12894 5.79525
#
# Compressibility (1/GPa) = 0.02322237
#
# Stress axis : x y z
#
# Youngs Moduli (GPa) = 88.32151 32.82899 70.59653
#
# Poissons Ratio (x) = 0.34566 -0.00050
# Poissons Ratio (y) = 0.92996 0.41234
# Poissons Ratio (z) = -0.00063 0.19175
#
# Static dielectric constant tensor:
#      x y z
#    x 1.881750 0.000000 0.000000 
#    y 0.000000 1.829160 0.000000 
#    z 0.000000 0.000000 1.942130 
# 
# From -- ./inp_files/3382.got.cif
#   From: 2010.05.17/outbox.cif.g08.bks.cpg/sg29_2_cif.got.tgz:3382.got - 2010.06.04 01:19:37.
