data_PCOD9341521
_publ_section_title
;
Structure prediction by ZEFSAII (Michael W. Deem and Ramdas Pophale) SiO2 
 PCOD9341521
Probable space group: P C A 21
;
_chemical_formula_sum "Si O2"
_cell_formula_units_Z 32
_cell_length_a 7.952985
_cell_length_b 11.893603
_cell_length_c 13.837826
_cell_angle_alpha 90.000000
_cell_angle_beta 90.000000
_cell_angle_gamma 90.000000
_cell_volume 1308.915066
_symmetry_space_group_name_H-M "P C A 21"
_symmetry_group_IT_number 29
_symmetry_cell_setting 'orthorhombic'
loop_
_space_group_symop_operation_xyz
x,y,z
-x,-y,1/2+z
1/2-x,y,1/2+z
1/2+x,-y,z
loop_
_atom_site_type_symbol
_atom_site_label
_atom_site_fract_x
_atom_site_fract_y
_atom_site_fract_z
Si Si1 0.150442 0.122377 0.004460
Si Si2 0.568306 0.420542 0.315354
Si Si3 0.259862 0.607729 0.501792
Si Si4 0.382626 0.367646 0.565133
Si Si5 0.162571 0.948485 0.623372
Si Si6 0.590390 0.259578 0.147393
Si Si7 0.191007 0.345472 0.289099
Si Si8 0.166338 0.125705 0.785539
O O1 0.184265 0.254327 0.015632
O O2 0.016855 0.096038 0.089348
O O3 0.294778 0.037032 0.037453
O O4 0.096134 0.103936 0.893194
O O5 0.691927 0.369569 0.395037
O O6 0.630162 0.368938 0.213810
O O7 0.377106 0.380258 0.324932
O O8 0.571753 0.555311 0.327182
O O9 0.314457 0.480035 0.516557
O O10 0.411688 0.684300 0.541500
O O11 0.086052 0.629670 0.561354
O O12 0.320762 0.364499 0.674479
O O13 0.279373 0.840519 0.631053
O O14 0.184652 0.012107 0.725299
O O15 0.446886 0.197825 0.209860
O O16 0.176347 0.211119 0.303954
#
# Coordination Sequence:
#
# PCOD9341521 Si02
#       8
#     4   4   4   4   4   4   4   4
#     4  12  27  48  77 103 144 188 244 298 363 423
#     4  11  24  43  67 104 141 187 229 293 356 433
#     4  12  25  43  73 103 147 186 235 288 365 431
#     4  12  24  45  71 106 141 193 233 300 358 431
#     4  12  26  47  71 104 138 189 238 295 355 425
#     4  11  25  42  70 101 139 186 230 293 353 421
#     4  11  23  44  70 100 144 185 236 293 361 421
#     4  11  26  48  73 103 144 182 241 302 353 433
#
# _framework density 24.447727
#
# number of rings (size 3 to 8) (size 9 to 14) (size 15 to 20)
#    0.000    0.500    5.000    3.750    3.500    0.000 
#    0.000    0.000    0.000    0.000    0.000    0.000 
#    0.000    0.000    0.000    0.000    0.000    0.000 
#
# Total GULP energy -178757.309333 kJ/mol
# GULP energy per Si atom -5586.165917 kJ/mol
# Density = 2.439208 g / cm^3
# Si number density = 24.447727 Si / 1000 Ang^3
#
#
#
# Elastic Constant Matrix: (Units=GPa)
#
#
# Indices 1 2 3 4 5 6 
#
# 1 40.8844 17.0713 6.9267 0.0000 0.0000 0.0000
# 2 17.0713 139.2142 9.5906 0.0000 0.0000 0.0000
# 3 6.9267 9.5906 93.0396 0.0000 0.0000 0.0000
# 4 0.0000 0.0000 0.0000 34.9989 0.0000 0.0000
# 5 0.0000 0.0000 0.0000 0.0000 24.8635 0.0000
# 6 0.0000 0.0000 0.0000 0.0000 0.0000 30.2321
#
#
#
# Elastic Compliance Matrix: (Units=1/GPa)
#
#
# Indices 1 2 3 4 5 6 
#
# 1 0.026019 -0.003079 -0.001620 0.000000 0.000000 0.000000
# 2 -0.003079 0.007599 -0.000554 0.000000 0.000000 0.000000
# 3 -0.001620 -0.000554 0.010926 0.000000 0.000000 0.000000
# 4 0.000000 0.000000 0.000000 0.028572 0.000000 0.000000
# 5 0.000000 0.000000 0.000000 0.000000 0.040220 0.000000
# 6 0.000000 0.000000 0.000000 0.000000 0.000000 0.033077
#
#
# Mechanical properties :
#
#
# Convention : Reuss Voigt Hill
#
# Bulk Modulus (GPa) = 29.37863 37.81280 33.59572
# Shear Modulus (GPa) = 29.71500 33.98886 31.85193
#
# Velocity S-wave (km/s) = 3.49011 3.73267 3.61343
# Velocity P-wave (km/s) = 5.31829 5.83759 5.58398
#
# Compressibility (1/GPa) = 0.03403834
#
# Stress axis : x y z
#
# Youngs Moduli (GPa) = 38.43303 131.59762 91.52634
#
# Poissons Ratio (x) = 0.40520 0.14825
# Poissons Ratio (y) = 0.11834 0.05071
# Poissons Ratio (z) = 0.06225 0.07291
#
# Static dielectric constant tensor:
#      x y z
#    x 2.032500 0.000000 0.000000 
#    y 0.000000 2.001880 0.000000 
#    z 0.000000 0.000000 1.986710 
# 
# From -- ./inp_files/4310.got.cif
#   From: 2010.05.17/outbox.cif.g08.bks.cpg/sg29_3_cif.got.tgz:4310.got - 2010.06.04 01:19:37.
