data_PCOD9341472
_publ_section_title
;
Structure prediction by ZEFSAII (Michael W. Deem and Ramdas Pophale) SiO2 
 PCOD9341472
Probable space group: P C A 21
;
_chemical_formula_sum "Si O2"
_cell_formula_units_Z 24
_cell_length_a 14.198964
_cell_length_b 8.287100
_cell_length_c 8.431624
_cell_angle_alpha 90.000000
_cell_angle_beta 90.000000
_cell_angle_gamma 90.000000
_cell_volume 992.134311
_symmetry_space_group_name_H-M "P C A 21"
_symmetry_group_IT_number 29
_symmetry_cell_setting 'orthorhombic'
loop_
_space_group_symop_operation_xyz
x,y,z
-x,-y,1/2+z
1/2-x,y,1/2+z
1/2+x,-y,z
loop_
_atom_site_type_symbol
_atom_site_label
_atom_site_fract_x
_atom_site_fract_y
_atom_site_fract_z
Si Si1 0.213815 0.367229 0.498040
Si Si2 0.304787 0.047752 0.189443
Si Si3 0.991827 0.089270 0.703978
Si Si4 0.336649 0.568305 0.299288
Si Si5 0.027420 0.242326 0.354417
Si Si6 0.818486 0.166364 0.893100
O O1 0.226798 0.201856 0.591985
O O2 0.309065 0.420097 0.412965
O O3 0.181617 0.503773 0.623065
O O4 0.125260 0.336527 0.380638
O O5 0.402616 0.093497 0.271262
O O6 0.226964 0.988601 0.307818
O O7 0.326951 0.895429 0.072604
O O8 0.002544 0.154146 0.524188
O O9 0.917297 0.192308 0.804952
O O10 0.964661 0.901368 0.726496
O O11 0.440027 0.641031 0.317979
O O12 0.257664 0.697049 0.355924
#
# Coordination Sequence:
#
# PCOD9341472 Si02
#       6
#     4   4   4   4   4   4
#     4  11  26  46  67 106 148 187 239 294 377 434
#     4  11  24  43  68 104 135 189 242 303 350 434
#     4  11  22  44  69 107 136 184 254 303 361 422
#     4  12  26  47  72 108 147 194 239 300 379 438
#     4  11  25  47  72 106 146 193 245 312 367 445
#     4  12  23  43  74 101 140 187 247 298 356 429
#
# _framework density 24.190273999999999
#
# number of rings (size 3 to 8) (size 9 to 14) (size 15 to 20)
#    0.000    0.667    5.000    4.000    0.000    4.000 
#    0.000    0.000    0.000    0.000    0.000    0.000 
#    0.000    0.000    0.000    0.000    0.000    0.000 
#
# Total GULP energy -134363.760040 kJ/mol
# GULP energy per Si atom -5598.490002 kJ/mol
# Density = 2.413522 g / cm^3
# Si number density = 24.190274 Si / 1000 Ang^3
#
#
#
# Elastic Constant Matrix: (Units=GPa)
#
#
# Indices 1 2 3 4 5 6 
#
# 1 47.8661 11.0399 5.2948 0.0000 0.0000 0.0000
# 2 11.0399 87.4095 0.7201 0.0000 0.0000 0.0000
# 3 5.2948 0.7201 48.2522 0.0000 0.0000 0.0000
# 4 0.0000 0.0000 0.0000 59.4456 0.0000 0.0000
# 5 0.0000 0.0000 0.0000 0.0000 30.2138 0.0000
# 6 0.0000 0.0000 0.0000 0.0000 0.0000 46.7828
#
#
#
# Elastic Compliance Matrix: (Units=1/GPa)
#
#
# Indices 1 2 3 4 5 6 
#
# 1 0.021782 -0.002732 -0.002349 0.000000 0.000000 0.000000
# 2 -0.002732 0.011784 0.000124 0.000000 0.000000 0.000000
# 3 -0.002349 0.000124 0.020980 0.000000 0.000000 0.000000
# 4 0.000000 0.000000 0.000000 0.016822 0.000000 0.000000
# 5 0.000000 0.000000 0.000000 0.000000 0.033097 0.000000
# 6 0.000000 0.000000 0.000000 0.000000 0.000000 0.021375
#
#
# Mechanical properties :
#
#
# Convention : Reuss Voigt Hill
#
# Bulk Modulus (GPa) = 22.40543 24.18193 23.29368
# Shear Modulus (GPa) = 33.19330 38.38666 35.78998
#
# Velocity S-wave (km/s) = 3.70831 3.98787 3.85063
# Velocity P-wave (km/s) = 5.25525 5.58770 5.42402
#
# Compressibility (1/GPa) = 0.04463204
#
# Stress axis : x y z
#
# Youngs Moduli (GPa) = 45.91052 84.85803 47.66350
#
# Poissons Ratio (x) = 0.23180 0.11198
# Poissons Ratio (y) = 0.12541 -0.00590
# Poissons Ratio (z) = 0.10786 -0.01051
#
# Static dielectric constant tensor:
#      x y z
#    x 1.868080 0.000000 0.000000 
#    y 0.000000 2.016080 0.000000 
#    z 0.000000 0.000000 1.960620 
# 
# From -- ./inp_files/1704.got.cif
#   From: 2010.05.17/outbox.cif.g08.bks.cpg/sg29_1_cif.got.tgz:1704.got - 2010.06.04 01:19:37.
