data_PCOD9341663
_publ_section_title
;
Structure prediction by ZEFSAII (Michael W. Deem and Ramdas Pophale) SiO2 
 PCOD9341663
Probable space group: P C A 21
;
_chemical_formula_sum "Si O2"
_cell_formula_units_Z 32
_cell_length_a 9.356422
_cell_length_b 4.945843
_cell_length_c 25.999053
_cell_angle_alpha 90.000000
_cell_angle_beta 90.000000
_cell_angle_gamma 90.000000
_cell_volume 1203.116428
_symmetry_space_group_name_H-M "P C A 21"
_symmetry_group_IT_number 29
_symmetry_cell_setting 'orthorhombic'
loop_
_space_group_symop_operation_xyz
x,y,z
-x,-y,1/2+z
1/2-x,y,1/2+z
1/2+x,-y,z
loop_
_atom_site_type_symbol
_atom_site_label
_atom_site_fract_x
_atom_site_fract_y
_atom_site_fract_z
Si Si1 0.365500 0.686298 0.660970
Si Si2 0.103642 0.115566 0.532990
Si Si3 0.196101 0.818605 0.442493
Si Si4 0.374651 0.205101 0.596801
Si Si5 0.420015 0.688268 0.221802
Si Si6 0.902370 0.903543 0.851449
Si Si7 0.865379 0.794521 0.287450
Si Si8 0.535411 0.458841 0.941363
O O1 0.401351 0.517091 0.609786
O O2 0.449617 0.500365 0.702152
O O3 0.201526 0.663044 0.678254
O O4 0.390935 0.000243 0.646164
O O5 0.210745 0.206566 0.577844
O O6 0.026582 0.320597 0.493374
O O7 0.216827 0.969467 0.494989
O O8 0.989851 0.910255 0.557217
O O9 0.215248 0.966806 0.389517
O O10 0.295722 0.559545 0.442132
O O11 0.028253 0.754310 0.441887
O O12 0.379461 0.518207 0.272739
O O13 0.407057 0.000005 0.240489
O O14 0.018979 0.111388 0.829570
O O15 0.800393 0.820380 0.804190
O O16 0.976183 0.685159 0.889483
#
# Coordination Sequence:
#
# PCOD9341663 Si02
#       8
#     4   4   4   4   4   4   4   4
#     4  12  26  48  72 103 140 183 234 301 370 420
#     4  11  26  43  66 107 142 191 240 288 356 416
#     4  11  26  44  69  99 153 189 238 293 358 419
#     4  12  26  44  76 103 142 185 242 293 350 441
#     4  12  26  48  72 103 140 183 234 301 370 420
#     4  11  26  43  66 107 142 191 240 288 356 416
#     4  12  26  44  76 103 142 185 242 293 350 441
#     4  11  26  44  69  99 153 189 238 297 352 427
#
# _framework density 26.597591000000001
#
# number of rings (size 3 to 8) (size 9 to 14) (size 15 to 20)
#    0.000    0.500    2.500    4.500   10.500    0.000 
#    0.000    0.000    0.000    0.000    0.000    0.000 
#    0.000    0.000    0.000    0.000    0.000    0.000 
#
# Total GULP energy -178920.498992 kJ/mol
# GULP energy per Si atom -5591.265593 kJ/mol
# Density = 2.653705 g / cm^3
# Si number density = 26.597591 Si / 1000 Ang^3
#
#
#
# Elastic Constant Matrix: (Units=GPa)
#
#
# Indices 1 2 3 4 5 6 
#
# 1 82.7660 -7.8516 6.8465 0.0000 0.0000 0.0000
# 2 -7.8516 98.3060 10.0070 0.0000 0.0000 0.0000
# 3 6.8465 10.0070 82.5603 0.0000 0.0000 0.0000
# 4 0.0000 0.0000 0.0000 29.3922 0.0000 0.0000
# 5 0.0000 0.0000 0.0000 0.0000 34.9554 0.0000
# 6 0.0000 0.0000 0.0000 0.0000 0.0000 32.2096
#
#
#
# Elastic Compliance Matrix: (Units=1/GPa)
#
#
# Indices 1 2 3 4 5 6 
#
# 1 0.012282 0.001098 -0.001152 0.000000 0.000000 0.000000
# 2 0.001098 0.010398 -0.001351 0.000000 0.000000 0.000000
# 3 -0.001152 -0.001351 0.012372 0.000000 0.000000 0.000000
# 4 0.000000 0.000000 0.000000 0.034023 0.000000 0.000000
# 5 0.000000 0.000000 0.000000 0.000000 0.028608 0.000000
# 6 0.000000 0.000000 0.000000 0.000000 0.000000 0.031047
#
#
# Mechanical properties :
#
#
# Convention : Reuss Voigt Hill
#
# Bulk Modulus (GPa) = 31.01605 31.29290 31.15448
# Shear Modulus (GPa) = 35.14082 36.28682 35.71382
#
# Velocity S-wave (km/s) = 3.63878 3.69764 3.66833
# Velocity P-wave (km/s) = 5.41672 5.47913 5.44801
#
# Compressibility (1/GPa) = 0.03224137
#
# Stress axis : x y z
#
# Youngs Moduli (GPa) = 81.42200 96.17614 80.82993
#
# Poissons Ratio (x) = -0.10562 0.09308
# Poissons Ratio (y) = -0.08941 0.10923
# Poissons Ratio (z) = 0.09376 0.12997
#
# Static dielectric constant tensor:
#      x y z
#    x 2.027840 0.000000 0.000000 
#    y 0.000000 2.028890 0.000000 
#    z 0.000000 0.000000 2.171680 
# 
# From -- ./inp_files/5822.got.cif
#   From: 2010.05.17/outbox.cif.g08.bks.cpg/sg29_3_cif.got.tgz:5822.got - 2010.06.04 01:19:37.
