data_PCOD9341920
_publ_section_title
;
Structure prediction by ZEFSAII (Michael W. Deem and Ramdas Pophale) SiO2 
 PCOD9341920
Probable space group: P N C 2
;
_chemical_formula_sum "Si O2"
_cell_formula_units_Z 30
_cell_length_a 9.204909
_cell_length_b 10.385421
_cell_length_c 15.099614
_cell_angle_alpha 90.000000
_cell_angle_beta 90.000000
_cell_angle_gamma 90.000000
_cell_volume 1443.475614
_symmetry_space_group_name_H-M "P N C 2"
_symmetry_group_IT_number 30
_symmetry_cell_setting 'orthorhombic'
loop_
_space_group_symop_operation_xyz
x,y,z
-x,-y,z
-x,1/2+y,1/2+z
x,1/2-y,1/2+z
loop_
_atom_site_type_symbol
_atom_site_label
_atom_site_fract_x
_atom_site_fract_y
_atom_site_fract_z
Si Si1 0.778244 0.988114 0.033990
Si Si2 0.500000 0.500000 0.416909
Si Si3 0.119068 0.771432 0.562831
Si Si4 0.659245 0.786002 0.168177
Si Si5 0.443331 0.859566 0.537304
Si Si6 0.577822 0.780184 0.360909
Si Si7 0.896034 0.754521 0.920635
Si Si8 0.946210 0.646499 0.231265
O O1 0.739270 0.905462 0.120980
O O2 0.860261 0.118559 0.053717
O O3 0.857652 0.889672 0.968105
O O4 0.633721 0.030357 0.981385
O O5 0.545426 0.626089 0.362069
O O6 0.275070 0.837792 0.556771
O O7 0.006816 0.815368 0.486230
O O8 0.048344 0.797372 0.656428
O O9 0.545452 0.735203 0.095174
O O10 0.579696 0.823524 0.259512
O O11 0.781422 0.679262 0.197000
O O12 0.468793 0.838107 0.432502
O O13 0.500000 0.000000 0.561160
O O14 0.737989 0.806473 0.402353
O O15 0.962252 0.783453 0.825151
O O16 0.000000 0.500000 0.242336
#
# Coordination Sequence:
#
# PCOD9341920 Si02
#       8
#     4   2   4   4   4   4   4   4
#     4  11  19  40  69  92 128 163 216 272 322 381
#     4  10  18  40  68  90 118 172 218 260 312 374
#     4  12  23  39  68  96 126 167 222 271 318 391
#     4  11  23  42  67  90 131 171 210 267 333 384
#     4  12  25  44  61  93 133 172 211 265 329 393
#     4  10  22  43  65  95 127 171 216 265 332 387
#     4  10  22  41  69  91 127 168 215 270 318 384
#     4  11  23  41  63  96 128 168 214 263 323 386
#
# _framework density 20.783169000000001
#
# number of rings (size 3 to 8) (size 9 to 14) (size 15 to 20)
#    0.000    1.067    5.333    2.000    0.933    1.067 
#    8.400    0.000    0.000    0.000    0.000    0.000 
#    0.000    0.000    0.000    0.000    0.000    0.000 
#
# Total GULP energy -167634.327594 kJ/mol
# GULP energy per Si atom -5587.810920 kJ/mol
# Density = 2.073587 g / cm^3
# Si number density = 20.783169 Si / 1000 Ang^3
#
#
#
# Elastic Constant Matrix: (Units=GPa)
#
#
# Indices 1 2 3 4 5 6 
#
# 1 92.1045 2.2774 43.5359 0.0000 0.0000 0.0000
# 2 2.2774 9.6410 1.9570 0.0000 0.0000 0.0000
# 3 43.5359 1.9570 151.2467 0.0000 0.0000 0.0000
# 4 0.0000 0.0000 0.0000 -159.8900 0.0000 0.0000
# 5 0.0000 0.0000 0.0000 0.0000 -42.4980 0.0000
# 6 0.0000 0.0000 0.0000 0.0000 0.0000 21.9961
#
#
#
# Elastic Compliance Matrix: (Units=1/GPa)
#
#
# Indices 1 2 3 4 5 6 
#
# 1 0.012616 -0.002249 -0.003602 0.000000 0.000000 0.000000
# 2 -0.002249 0.104398 -0.000704 0.000000 0.000000 0.000000
# 3 -0.003602 -0.000704 0.007658 0.000000 0.000000 0.000000
# 4 0.000000 0.000000 0.000000 -0.006254 0.000000 0.000000
# 5 0.000000 0.000000 0.000000 0.000000 -0.023531 0.000000
# 6 0.000000 0.000000 0.000000 0.000000 0.000000 0.045463
#
#
# Mechanical properties :
#
#
# Convention : Reuss Voigt Hill
#
# Bulk Modulus (GPa) = 8.96361 38.72585 23.84473
# Shear Modulus (GPa) = 26.22668 -22.39691 1.91489
#
# Velocity S-wave (km/s) = 3.55620 -3.28631 0.96092
# Velocity P-wave (km/s) = 4.60265 2.06734 3.56779
#
# Compressibility (1/GPa) = 0.11156222
#
# Stress axis : x y z
#
# Youngs Moduli (GPa) = 79.26729 9.57872 130.58733
#
# Poissons Ratio (x) = 0.02154 0.47041
# Poissons Ratio (y) = 0.17826 0.09187
# Poissons Ratio (z) = 0.28554 0.00674
#
# Static dielectric constant tensor:
#      x y z
#    x 1.831890 0.000000 0.000000 
#    y 0.000000 2.136930 0.000000 
#    z 0.000000 0.000000 1.711550 
# 
# From -- ./inp_files/5158.got.cif
#   From: 2010.05.17/outbox.cif.g08.bks.cpg/sg30_3_cif.got.tgz:5158.got - 2010.06.03 17:03:02.
