data_PCOD9341151
_publ_section_title
;
Structure prediction by ZEFSAII (Michael W. Deem and Ramdas Pophale) SiO2 
 PCOD9341151
Probable space group: P C A 21
;
_chemical_formula_sum "Si O2"
_cell_formula_units_Z 28
_cell_length_a 22.083307
_cell_length_b 5.440194
_cell_length_c 8.804252
_cell_angle_alpha 90.000000
_cell_angle_beta 90.000000
_cell_angle_gamma 90.000000
_cell_volume 1057.720598
_symmetry_space_group_name_H-M "P C A 21"
_symmetry_group_IT_number 29
_symmetry_cell_setting 'orthorhombic'
loop_
_space_group_symop_operation_xyz
x,y,z
-x,-y,1/2+z
1/2-x,y,1/2+z
1/2+x,-y,z
loop_
_atom_site_type_symbol
_atom_site_label
_atom_site_fract_x
_atom_site_fract_y
_atom_site_fract_z
Si Si1 0.812163 0.377447 0.831850
Si Si2 0.803707 0.992719 0.105719
Si Si3 0.114492 0.632546 0.045140
Si Si4 0.091604 0.310130 0.492616
Si Si5 0.000039 0.328798 0.079209
Si Si6 0.475409 0.956230 0.355250
Si Si7 0.710455 0.725906 0.895795
O O1 0.840680 0.260460 0.677615
O O2 0.748606 0.513184 0.808907
O O3 0.860542 0.589396 0.871299
O O4 0.807308 0.217793 0.986565
O O5 0.869382 0.869264 0.093356
O O6 0.793382 0.964459 0.285698
O O7 0.751842 0.820447 0.033045
O O8 0.055701 0.503317 0.120965
O O9 0.084097 0.832297 0.931235
O O10 0.152015 0.417850 0.958842
O O11 0.063212 0.532625 0.585463
O O12 0.033878 0.189344 0.417527
O O13 0.988484 0.089442 0.179880
O O14 0.016505 0.232707 0.911428
#
# Coordination Sequence:
#
# PCOD9341151 Si02
#       7
#     4   4   4   4   4   4   4
#     4  11  24  44  73 101 143 193 240 315 374 452
#     4  11  25  41  75  96 141 190 250 294 388 446
#     4  11  25  45  72 101 157 185 247 311 382 446
#     4  10  23  44  65  98 140 178 237 296 359 436
#     4  11  25  43  70 106 142 191 237 305 366 460
#     4  11  25  41  72 101 140 188 239 287 379 442
#     4  11  25  46  65 109 141 189 246 318 366 462
#
# _framework density 26.472017000000001
#
# number of rings (size 3 to 8) (size 9 to 14) (size 15 to 20)
#    0.000    1.143    2.857    1.714    6.000    4.571 
#    0.000    0.000    0.000    0.000    0.000    0.000 
#    0.000    0.000    0.000    0.000    0.000    0.000 
#
# Total GULP energy -156608.011985 kJ/mol
# GULP energy per Si atom -5593.143285 kJ/mol
# Density = 2.641177 g / cm^3
# Si number density = 26.472017 Si / 1000 Ang^3
#
#
#
# Elastic Constant Matrix: (Units=GPa)
#
#
# Indices 1 2 3 4 5 6 
#
# 1 118.2629 18.8130 37.5795 0.0000 0.0000 0.0000
# 2 18.8130 63.2541 17.8898 0.0000 0.0000 0.0000
# 3 37.5795 17.8898 110.6480 0.0000 0.0000 0.0000
# 4 0.0000 0.0000 0.0000 39.8689 0.0000 0.0000
# 5 0.0000 0.0000 0.0000 0.0000 41.8422 0.0000
# 6 0.0000 0.0000 0.0000 0.0000 0.0000 43.8961
#
#
#
# Elastic Compliance Matrix: (Units=1/GPa)
#
#
# Indices 1 2 3 4 5 6 
#
# 1 0.009726 -0.002052 -0.002972 0.000000 0.000000 0.000000
# 2 -0.002052 0.017000 -0.002052 0.000000 0.000000 0.000000
# 3 -0.002972 -0.002052 0.010379 0.000000 0.000000 0.000000
# 4 0.000000 0.000000 0.000000 0.025082 0.000000 0.000000
# 5 0.000000 0.000000 0.000000 0.000000 0.023899 0.000000
# 6 0.000000 0.000000 0.000000 0.000000 0.000000 0.022781
#
#
# Mechanical properties :
#
#
# Convention : Reuss Voigt Hill
#
# Bulk Modulus (GPa) = 43.56544 48.96996 46.26770
# Shear Modulus (GPa) = 38.26434 39.64694 38.95564
#
# Velocity S-wave (km/s) = 3.80605 3.87420 3.84028
# Velocity P-wave (km/s) = 5.98394 6.20899 6.09750
#
# Compressibility (1/GPa) = 0.02295397
#
# Stress axis : x y z
#
# Youngs Moduli (GPa) = 102.81206 58.82386 96.35214
#
# Poissons Ratio (x) = 0.12073 0.28632
# Poissons Ratio (y) = 0.21101 0.19767
# Poissons Ratio (z) = 0.30551 0.12068
#
# Static dielectric constant tensor:
#      x y z
#    x 2.030240 0.000000 0.000000 
#    y 0.000000 2.109660 0.000000 
#    z 0.000000 0.000000 2.152840 
# 
# From -- ./inp_files/2427.got.cif
#   From: 2010.05.17/outbox.cif.g08.bks.cpg/sg29_2_cif.got.tgz:2427.got - 2010.06.04 01:19:37.
