data_PCOD9341244
_publ_section_title
;
Structure prediction by ZEFSAII (Michael W. Deem and Ramdas Pophale) SiO2 
 PCOD9341244
Probable space group: P C A 21
;
_chemical_formula_sum "Si O2"
_cell_formula_units_Z 20
_cell_length_a 9.483690
_cell_length_b 9.990809
_cell_length_c 8.731926
_cell_angle_alpha 90.000000
_cell_angle_beta 90.000000
_cell_angle_gamma 90.000000
_cell_volume 827.347678
_symmetry_space_group_name_H-M "P C A 21"
_symmetry_group_IT_number 29
_symmetry_cell_setting 'orthorhombic'
loop_
_space_group_symop_operation_xyz
x,y,z
-x,-y,1/2+z
1/2-x,y,1/2+z
1/2+x,-y,z
loop_
_atom_site_type_symbol
_atom_site_label
_atom_site_fract_x
_atom_site_fract_y
_atom_site_fract_z
Si Si1 0.144987 0.826793 0.742750
Si Si2 0.274365 0.011637 0.488861
Si Si3 0.344398 0.601712 0.848977
Si Si4 0.655534 0.795148 0.236424
Si Si5 0.372266 0.437918 0.165595
O O1 0.278414 0.747375 0.813293
O O2 0.002814 0.737842 0.744435
O O3 0.184724 0.901169 0.584655
O O4 0.123951 0.942386 0.867262
O O5 0.362434 0.084205 0.618554
O O6 0.198728 0.130196 0.392679
O O7 0.474465 0.591616 0.732350
O O8 0.214173 0.513952 0.794635
O O9 0.378012 0.533366 0.014171
O O10 0.774383 0.696938 0.165874
#
# Coordination Sequence:
#
# PCOD9341244 Si02
#       5
#     4   4   4   4   4
#     4  11  24  45  72 103 139 181 231 288 352 424
#     4  10  24  42  70 106 142 178 224 286 356 424
#     4  12  27  47  71 102 142 190 245 301 361 430
#     4  11  24  45  72 103 139 181 231 288 352 424
#     4  12  27  47  71 102 142 190 245 301 361 430
#
# _framework density 24.173634
#
# number of rings (size 3 to 8) (size 9 to 14) (size 15 to 20)
#    0.000    0.800    0.000    6.000    0.000   16.000 
#    0.000    2.000    0.000    0.000    0.000    0.000 
#    0.000    0.000    0.000    0.000    0.000    0.000 
#
# Total GULP energy -111510.996797 kJ/mol
# GULP energy per Si atom -5575.549840 kJ/mol
# Density = 2.411861 g / cm^3
# Si number density = 24.173634 Si / 1000 Ang^3
#
#
#
# Elastic Constant Matrix: (Units=GPa)
#
#
# Indices 1 2 3 4 5 6 
#
# 1 128.4839 27.4689 29.0703 0.0000 0.0000 0.0000
# 2 27.4689 83.5639 39.3141 0.0000 0.0000 0.0000
# 3 29.0703 39.3141 151.6183 0.0000 0.0000 0.0000
# 4 0.0000 0.0000 0.0000 40.4564 0.0000 0.0000
# 5 0.0000 0.0000 0.0000 0.0000 16.2188 0.0000
# 6 0.0000 0.0000 0.0000 0.0000 0.0000 34.8603
#
#
#
# Elastic Compliance Matrix: (Units=1/GPa)
#
#
# Indices 1 2 3 4 5 6 
#
# 1 0.008511 -0.002312 -0.001032 0.000000 0.000000 0.000000
# 2 -0.002312 0.014258 -0.003254 0.000000 0.000000 0.000000
# 3 -0.001032 -0.003254 0.007637 0.000000 0.000000 0.000000
# 4 0.000000 0.000000 0.000000 0.024718 0.000000 0.000000
# 5 0.000000 0.000000 0.000000 0.000000 0.061657 0.000000
# 6 0.000000 0.000000 0.000000 0.000000 0.000000 0.028686
#
#
# Mechanical properties :
#
#
# Convention : Reuss Voigt Hill
#
# Bulk Modulus (GPa) = 58.10691 61.70807 59.90749
# Shear Modulus (GPa) = 30.41385 36.16130 33.28757
#
# Velocity S-wave (km/s) = 3.55088 3.87188 3.71485
# Velocity P-wave (km/s) = 6.39540 6.75063 6.57542
#
# Compressibility (1/GPa) = 0.01720966
#
# Stress axis : x y z
#
# Youngs Moduli (GPa) = 117.49588 70.13789 130.93965
#
# Poissons Ratio (x) = 0.16216 0.13517
# Poissons Ratio (y) = 0.27165 0.42603
# Poissons Ratio (z) = 0.12130 0.22820
#
# Static dielectric constant tensor:
#      x y z
#    x 1.968450 0.000000 0.000000 
#    y 0.000000 2.129720 0.000000 
#    z 0.000000 0.000000 1.942710 
# 
# From -- ./inp_files/1093.got.cif
#   From: 2010.05.17/outbox.cif.g08.bks.cpg/sg29_1_cif.got.tgz:1093.got - 2010.06.04 01:19:37.
