data_PCOD9341907
_publ_section_title
;
Structure prediction by ZEFSAII (Michael W. Deem and Ramdas Pophale) SiO2 
 PCOD9341907
Probable space group: P N C 2
;
_chemical_formula_sum "Si O2"
_cell_formula_units_Z 30
_cell_length_a 15.321989
_cell_length_b 9.645835
_cell_length_c 9.111557
_cell_angle_alpha 90.000000
_cell_angle_beta 90.000000
_cell_angle_gamma 90.000000
_cell_volume 1346.627786
_symmetry_space_group_name_H-M "P N C 2"
_symmetry_group_IT_number 30
_symmetry_cell_setting 'orthorhombic'
loop_
_space_group_symop_operation_xyz
x,y,z
-x,-y,z
-x,1/2+y,1/2+z
x,1/2-y,1/2+z
loop_
_atom_site_type_symbol
_atom_site_label
_atom_site_fract_x
_atom_site_fract_y
_atom_site_fract_z
Si Si1 0.822680 0.340245 0.257140
Si Si2 0.000000 0.000000 0.178790
Si Si3 0.406407 0.403363 0.169403
Si Si4 0.119604 0.372878 0.868419
Si Si5 0.054840 0.761061 0.506268
Si Si6 0.484895 0.750004 0.416044
Si Si7 0.366199 0.739674 0.167355
Si Si8 0.787943 0.639452 0.178942
O O1 0.865563 0.284169 0.403953
O O2 0.900970 0.342685 0.138787
O O3 0.736764 0.258168 0.200579
O O4 0.795325 0.499380 0.272730
O O5 0.995375 0.132337 0.076209
O O6 0.093777 0.000085 0.263473
O O7 0.454906 0.353823 0.319547
O O8 0.389164 0.570864 0.164339
O O9 0.313595 0.328196 0.167043
O O10 0.457573 0.345147 0.025235
O O11 0.160186 0.256954 0.764377
O O12 0.175826 0.388564 0.014784
O O13 0.021596 0.336075 0.919106
O O14 0.424222 0.816569 0.290298
O O15 0.406015 0.694683 0.519765
#
# Coordination Sequence:
#
# PCOD9341907 Si02
#       8
#     4   2   4   4   4   4   4   4
#     4  11  24  41  64  91 124 167 213 260 316 371
#     4  12  24  40  64  92 128 170 218 266 308 388
#     4  10  22  40  63  90 123 158 202 256 303 371
#     4  12  23  42  64  91 127 170 212 261 319 372
#     4  12  23  42  64  91 127 170 212 261 319 372
#     4  10  18  38  64  84 120 154 190 242 312 362
#     4  10  22  40  63  90 123 158 202 256 303 371
#     4  11  24  41  64  91 124 167 213 260 316 371
#
# _framework density 22.277871000000001
#
# number of rings (size 3 to 8) (size 9 to 14) (size 15 to 20)
#    0.000    1.067    2.667    4.800    0.000    1.067 
#    0.000   10.667    0.000    0.000    0.000    0.000 
#    0.000    0.000    0.000    0.000    0.000    0.000 
#
# Total GULP energy -167302.919513 kJ/mol
# GULP energy per Si atom -5576.763984 kJ/mol
# Density = 2.222717 g / cm^3
# Si number density = 22.277871 Si / 1000 Ang^3
#
#
#
# Elastic Constant Matrix: (Units=GPa)
#
#
# Indices 1 2 3 4 5 6 
#
# 1 103.1770 15.0966 -5.6384 0.0000 0.0000 0.0000
# 2 15.0966 40.7909 4.1754 0.0000 0.0000 0.0000
# 3 -5.6384 4.1754 70.7403 0.0000 0.0000 0.0000
# 4 0.0000 0.0000 0.0000 17.8024 0.0000 0.0000
# 5 0.0000 0.0000 0.0000 0.0000 41.1324 0.0000
# 6 0.0000 0.0000 0.0000 0.0000 0.0000 35.9536
#
#
#
# Elastic Compliance Matrix: (Units=1/GPa)
#
#
# Indices 1 2 3 4 5 6 
#
# 1 0.010325 -0.003929 0.001055 0.000000 0.000000 0.000000
# 2 -0.003929 0.026160 -0.001857 0.000000 0.000000 0.000000
# 3 0.001055 -0.001857 0.014330 0.000000 0.000000 0.000000
# 4 0.000000 0.000000 0.000000 0.056172 0.000000 0.000000
# 5 0.000000 0.000000 0.000000 0.000000 0.024312 0.000000
# 6 0.000000 0.000000 0.000000 0.000000 0.000000 0.027814
#
#
# Mechanical properties :
#
#
# Convention : Reuss Voigt Hill
#
# Bulk Modulus (GPa) = 24.18313 26.88616 25.53464
# Shear Modulus (GPa) = 27.41855 32.38266 29.90061
#
# Velocity S-wave (km/s) = 3.51201 3.81672 3.66753
# Velocity P-wave (km/s) = 5.22728 5.61408 5.42413
#
# Compressibility (1/GPa) = 0.04135114
#
# Stress axis : x y z
#
# Youngs Moduli (GPa) = 96.85581 38.22696 69.78407
#
# Poissons Ratio (x) = 0.15020 -0.07361
# Poissons Ratio (y) = 0.38056 0.12960
# Poissons Ratio (z) = -0.10217 0.07100
#
# Static dielectric constant tensor:
#      x y z
#    x 1.857130 0.000000 0.000000 
#    y 0.000000 1.905640 0.000000 
#    z 0.000000 0.000000 1.878460 
# 
# From -- ./inp_files/2661.got.cif
#   From: 2010.05.17/outbox.cif.g08.bks.cpg/sg30_2_cif.got.tgz:2661.got - 2010.06.03 17:03:02.
