data_PCOD9341812
_publ_section_title
;
Structure prediction by ZEFSAII (Michael W. Deem and Ramdas Pophale) SiO2 
 PCOD9341812
Probable space group: P N C 2
;
_chemical_formula_sum "Si O2"
_cell_formula_units_Z 26
_cell_length_a 14.057974
_cell_length_b 17.317378
_cell_length_c 5.239044
_cell_angle_alpha 90.000000
_cell_angle_beta 90.000000
_cell_angle_gamma 90.000000
_cell_volume 1275.430853
_symmetry_space_group_name_H-M "P N C 2"
_symmetry_group_IT_number 30
_symmetry_cell_setting 'orthorhombic'
loop_
_space_group_symop_operation_xyz
x,y,z
-x,-y,z
-x,1/2+y,1/2+z
x,1/2-y,1/2+z
loop_
_atom_site_type_symbol
_atom_site_label
_atom_site_fract_x
_atom_site_fract_y
_atom_site_fract_z
Si Si1 0.992919 0.843857 0.828850
Si Si2 0.883935 0.626622 0.843951
Si Si3 0.685257 0.697475 0.920472
Si Si4 0.000000 0.000000 0.581076
Si Si5 0.273822 0.845620 0.486457
Si Si6 0.804075 0.173324 0.986671
Si Si7 0.525008 0.197601 0.355767
O O1 0.089867 0.802550 0.906934
O O2 0.937713 0.823393 0.567337
O O3 0.031430 0.929956 0.760566
O O4 0.922115 0.850640 0.066605
O O5 0.772912 0.640575 0.876564
O O6 0.919392 0.540427 0.910289
O O7 0.692514 0.762511 0.697895
O O8 0.579783 0.662097 0.890228
O O9 0.245274 0.875462 0.763018
O O10 0.253900 0.753224 0.522045
O O11 0.382874 0.854772 0.405947
O O12 0.203831 0.868726 0.257654
O O13 0.530020 0.236218 0.076165
#
# Coordination Sequence:
#
# PCOD9341812 Si02
#       7
#     4   4   4   2   4   4   4
#     4  10  20  35  51  73  99 129 174 216 258 295
#     4  10  20  38  52  75 104 134 178 213 255 306
#     4  10  21  34  51  78 109 141 168 204 260 313
#     4   8  22  36  58  68 100 132 182 226 250 294
#     4  10  17  30  45  72 105 132 164 197 242 308
#     4  10  18  29  46  71  99 134 165 197 247 301
#     4  10  16  30  49  67 102 139 168 198 237 303
#
# _framework density 20.385268
#
# number of rings (size 3 to 8) (size 9 to 14) (size 15 to 20)
#    0.923    1.231    3.077    2.308    0.000    0.000 
#   16.615    0.000    0.000    0.000    0.000    1.077 
#    0.000    0.000    0.000    0.000    0.000    0.000 
#
# Total GULP energy -144829.860186 kJ/mol
# GULP energy per Si atom -5570.379238 kJ/mol
# Density = 2.033887 g / cm^3
# Si number density = 20.385268 Si / 1000 Ang^3
#
#
#
# Elastic Constant Matrix: (Units=GPa)
#
#
# Indices 1 2 3 4 5 6 
#
# 1 98.2676 0.2680 -28.2420 0.0000 0.0000 0.0000
# 2 0.2680 26.4215 0.3934 0.0000 0.0000 0.0000
# 3 -28.2420 0.3934 83.9033 0.0000 0.0000 0.0000
# 4 0.0000 0.0000 0.0000 0.7934 0.0000 0.0000
# 5 0.0000 0.0000 0.0000 0.0000 29.4486 0.0000
# 6 0.0000 0.0000 0.0000 0.0000 0.0000 4.8669
#
#
#
# Elastic Compliance Matrix: (Units=1/GPa)
#
#
# Indices 1 2 3 4 5 6 
#
# 1 0.011267 -0.000171 0.003793 0.000000 0.000000 0.000000
# 2 -0.000171 0.037853 -0.000235 0.000000 0.000000 0.000000
# 3 0.003793 -0.000235 0.013196 0.000000 0.000000 0.000000
# 4 0.000000 0.000000 0.000000 1.260370 0.000000 0.000000
# 5 0.000000 0.000000 0.000000 0.000000 0.033957 0.000000
# 6 0.000000 0.000000 0.000000 0.000000 0.000000 0.205469
#
#
# Mechanical properties :
#
#
# Convention : Reuss Voigt Hill
#
# Bulk Modulus (GPa) = 14.47354 17.04792 15.76073
# Shear Modulus (GPa) = 3.16783 22.76667 12.96725
#
# Velocity S-wave (km/s) = 1.24794 3.34551 2.52486
# Velocity P-wave (km/s) = 3.03181 4.82745 4.03089
#
# Compressibility (1/GPa) = 0.06909162
#
# Stress axis : x y z
#
# Youngs Moduli (GPa) = 88.75524 26.41785 75.77824
#
# Poissons Ratio (x) = 0.00451 -0.28745
# Poissons Ratio (y) = 0.01516 0.01780
# Poissons Ratio (z) = -0.33667 0.00621
#
# Static dielectric constant tensor:
#      x y z
#    x 1.769350 0.000000 0.000000 
#    y 0.000000 1.760590 0.000000 
#    z 0.000000 0.000000 1.830640 
# 
# From -- ./inp_files/814.got.cif
#   From: 2010.05.17/outbox.cif.g08.bks.cpg/sg30_1_cif.got.tgz:814.got - 2010.06.03 17:03:02.
