data_PCOD9341588
_publ_section_title
;
Structure prediction by ZEFSAII (Michael W. Deem and Ramdas Pophale) SiO2 
 PCOD9341588
Probable space group: P C A 21
;
_chemical_formula_sum "Si O2"
_cell_formula_units_Z 32
_cell_length_a 18.856987
_cell_length_b 5.589979
_cell_length_c 13.144258
_cell_angle_alpha 90.000000
_cell_angle_beta 90.000000
_cell_angle_gamma 90.000000
_cell_volume 1385.538356
_symmetry_space_group_name_H-M "P C A 21"
_symmetry_group_IT_number 29
_symmetry_cell_setting 'orthorhombic'
loop_
_space_group_symop_operation_xyz
x,y,z
-x,-y,1/2+z
1/2-x,y,1/2+z
1/2+x,-y,z
loop_
_atom_site_type_symbol
_atom_site_label
_atom_site_fract_x
_atom_site_fract_y
_atom_site_fract_z
Si Si1 0.024384 0.247915 0.497580
Si Si2 0.464630 0.200303 0.216925
Si Si3 0.170483 0.532651 0.695191
Si Si4 0.669570 0.497032 0.144092
Si Si5 0.104217 0.847358 0.848731
Si Si6 0.090292 0.613690 0.346268
Si Si7 0.155501 0.895074 0.506409
Si Si8 0.685983 0.973884 0.027657
O O1 0.996271 0.263937 0.612466
O O2 0.070661 0.447945 0.441510
O O3 0.956732 0.229018 0.425891
O O4 0.080590 0.032633 0.509195
O O5 0.390264 0.334469 0.200063
O O6 0.515970 0.273156 0.309165
O O7 0.439424 0.939079 0.250500
O O8 0.250566 0.454552 0.682824
O O9 0.159037 0.662269 0.802588
O O10 0.157697 0.704785 0.598103
O O11 0.621100 0.498905 0.244164
O O12 0.671182 0.234462 0.085210
O O13 0.653866 0.736199 0.079310
O O14 0.151381 0.024114 0.915756
O O15 0.150670 0.783863 0.393348
O O16 0.228314 0.042369 0.518944
#
# Coordination Sequence:
#
# PCOD9341588 Si02
#       8
#     4   4   4   4   4   4   4   4
#     4  12  25  43  71 104 143 190 245 302 368 437
#     4  12  25  43  71 104 143 190 245 302 368 437
#     4  11  24  46  71 103 141 193 240 304 366 440
#     4  11  28  49  74 110 151 193 246 308 366 436
#     4  12  26  44  73 105 144 195 246 301 372 441
#     4  12  26  44  73 105 144 195 246 301 372 441
#     4  11  24  46  71 103 141 193 240 304 366 440
#     4  11  28  49  74 110 151 193 246 308 366 436
#
# _framework density 23.095715999999999
#
# number of rings (size 3 to 8) (size 9 to 14) (size 15 to 20)
#    0.000    0.500    5.000    2.250    7.000    4.000 
#    0.000    0.000    0.000    0.000    0.000    0.000 
#    0.000    0.000    0.000    0.000    0.000    0.000 
#
# Total GULP energy -178519.985915 kJ/mol
# GULP energy per Si atom -5578.749560 kJ/mol
# Density = 2.304315 g / cm^3
# Si number density = 23.095716 Si / 1000 Ang^3
#
#
#
# Elastic Constant Matrix: (Units=GPa)
#
#
# Indices 1 2 3 4 5 6 
#
# 1 70.8989 -5.7239 6.6557 0.0000 0.0000 0.0000
# 2 -5.7239 37.9517 16.4564 0.0000 0.0000 0.0000
# 3 6.6557 16.4564 112.8405 0.0000 0.0000 0.0000
# 4 0.0000 0.0000 0.0000 31.4584 0.0000 0.0000
# 5 0.0000 0.0000 0.0000 0.0000 178.8700 0.0000
# 6 0.0000 0.0000 0.0000 0.0000 0.0000 61.0587
#
#
#
# Elastic Compliance Matrix: (Units=1/GPa)
#
#
# Indices 1 2 3 4 5 6 
#
# 1 0.014441 0.002719 -0.001248 0.000000 0.000000 0.000000
# 2 0.002719 0.028640 -0.004337 0.000000 0.000000 0.000000
# 3 -0.001248 -0.004337 0.009568 0.000000 0.000000 0.000000
# 4 0.000000 0.000000 0.000000 0.031788 0.000000 0.000000
# 5 0.000000 0.000000 0.000000 0.000000 0.005591 0.000000
# 6 0.000000 0.000000 0.000000 0.000000 0.000000 0.016378
#
#
# Mechanical properties :
#
#
# Convention : Reuss Voigt Hill
#
# Bulk Modulus (GPa) = 21.31415 28.49640 24.90527
# Shear Modulus (GPa) = 39.13055 67.89762 53.51409
#
# Velocity S-wave (km/s) = 4.12063 5.42791 4.81880
# Velocity P-wave (km/s) = 5.64695 7.18666 6.46282
#
# Compressibility (1/GPa) = 0.04691718
#
# Stress axis : x y z
#
# Youngs Moduli (GPa) = 69.24569 34.91614 104.51264
#
# Poissons Ratio (x) = -0.09495 0.13047
# Poissons Ratio (y) = -0.18830 0.45329
# Poissons Ratio (z) = 0.08645 0.15144
#
# Static dielectric constant tensor:
#      x y z
#    x 1.841620 0.000000 0.000000 
#    y 0.000000 2.008270 0.000000 
#    z 0.000000 0.000000 1.964830 
# 
# From -- ./inp_files/3845.got.cif
#   From: 2010.05.17/outbox.cif.g08.bks.cpg/sg29_2_cif.got.tgz:3845.got - 2010.06.04 01:19:37.
