data_PCOD9341957
_publ_section_title
;
Structure prediction by ZEFSAII (Michael W. Deem and Ramdas Pophale) SiO2 
 PCOD9341957
Probable space group: P N C 2
;
_chemical_formula_sum "Si O2"
_cell_formula_units_Z 28
_cell_length_a 13.238296
_cell_length_b 5.628678
_cell_length_c 18.324363
_cell_angle_alpha 90.000000
_cell_angle_beta 90.000000
_cell_angle_gamma 90.000000
_cell_volume 1365.423517
_symmetry_space_group_name_H-M "P N C 2"
_symmetry_group_IT_number 30
_symmetry_cell_setting 'orthorhombic'
loop_
_space_group_symop_operation_xyz
x,y,z
-x,-y,z
-x,1/2+y,1/2+z
x,1/2-y,1/2+z
loop_
_atom_site_type_symbol
_atom_site_label
_atom_site_fract_x
_atom_site_fract_y
_atom_site_fract_z
Si Si1 0.752624 0.268291 0.638750
Si Si2 0.894115 0.959090 0.046466
Si Si3 0.551167 0.748091 0.526237
Si Si4 0.236584 0.075148 0.500193
Si Si5 0.475118 0.753671 0.192213
Si Si6 0.096995 0.674510 0.911105
Si Si7 0.940117 0.259216 0.246502
O O1 0.799074 0.497276 0.598743
O O2 0.642504 0.271940 0.672248
O O3 0.838893 0.224984 0.698161
O O4 0.745014 0.091717 0.569728
O O5 0.869522 0.701735 0.017870
O O6 0.902672 0.136384 0.977586
O O7 0.000000 0.000000 0.086017
O O8 0.500000 0.500000 0.502585
O O9 0.665388 0.760694 0.497354
O O10 0.538759 0.746383 0.615174
O O11 0.500000 0.000000 0.503844
O O12 0.205935 0.949829 0.424870
O O13 0.500000 0.500000 0.227671
O O14 0.500000 0.000000 0.232029
O O15 0.090088 0.786617 0.831447
O O16 0.000000 0.500000 0.913526
O O17 0.000000 0.500000 0.225483
O O18 0.000000 0.000000 0.241846
#
# Coordination Sequence:
#
# PCOD9341957 Si02
#       7
#     4   4   4   4   4   4   4
#     4  11  24  36  60  97 123 162 209 263 318 372
#     4  11  21  34  60  90 127 155 201 260 317 369
#     4  10  19  35  54  88 126 156 191 249 306 367
#     4  11  22  36  63  95 124 163 210 263 318 377
#     4  10  19  35  57  85 121 157 194 246 306 371
#     4  10  22  41  60  87 122 174 213 249 308 386
#     4  11  27  45  64  88 130 173 215 256 312 385
#
# _framework density 20.506457999999999
#
# number of rings (size 3 to 8) (size 9 to 14) (size 15 to 20)
#    0.000    1.429    4.286    2.571    8.000    0.000 
#    0.000    0.000    0.000    0.857    0.000    0.000 
#    0.000    0.000    0.000    0.000    0.000    0.000 
#
# Total GULP energy -155868.891416 kJ/mol
# GULP energy per Si atom -5566.746122 kJ/mol
# Density = 2.045978 g / cm^3
# Si number density = 20.506458 Si / 1000 Ang^3
#
#
#
# Elastic Constant Matrix: (Units=GPa)
#
#
# Indices 1 2 3 4 5 6 
#
# 1 103.0064 24.5957 11.1947 0.0000 0.0000 0.0000
# 2 24.5957 99.0476 -5.2994 0.0000 0.0000 0.0000
# 3 11.1947 -5.2994 51.7572 0.0000 0.0000 0.0000
# 4 0.0000 0.0000 0.0000 -20.2768 0.0000 0.0000
# 5 0.0000 0.0000 0.0000 0.0000 11.9254 0.0000
# 6 0.0000 0.0000 0.0000 0.0000 0.0000 41.8803
#
#
#
# Elastic Compliance Matrix: (Units=1/GPa)
#
#
# Indices 1 2 3 4 5 6 
#
# 1 0.010654 -0.002784 -0.002590 0.000000 0.000000 0.000000
# 2 -0.002784 0.010879 0.001716 0.000000 0.000000 0.000000
# 3 -0.002590 0.001716 0.020057 0.000000 0.000000 0.000000
# 4 0.000000 0.000000 0.000000 -0.049317 0.000000 0.000000
# 5 0.000000 0.000000 0.000000 0.000000 0.083855 0.000000
# 6 0.000000 0.000000 0.000000 0.000000 0.000000 0.023878
#
#
# Mechanical properties :
#
#
# Convention : Reuss Voigt Hill
#
# Bulk Modulus (GPa) = 29.17557 34.97701 32.07629
# Shear Modulus (GPa) = 42.10666 21.59378 31.85022
#
# Velocity S-wave (km/s) = 4.53629 3.24855 3.94532
# Velocity P-wave (km/s) = 6.45722 5.58251 6.03573
#
# Compressibility (1/GPa) = 0.03427526
#
# Stress axis : x y z
#
# Youngs Moduli (GPa) = 93.85800 91.91706 49.85835
#
# Poissons Ratio (x) = 0.25592 0.12911
# Poissons Ratio (y) = 0.26133 -0.08556
# Poissons Ratio (z) = 0.24305 -0.15774
#
# Static dielectric constant tensor:
#      x y z
#    x 1.801960 0.000000 0.000000 
#    y 0.000000 1.914160 0.000000 
#    z 0.000000 0.000000 1.716270 
# 
# From -- ./inp_files/7044.got.cif
#   From: 2010.05.17/outbox.cif.g08.bks.cpg/sg30_4_cif.got.tgz:7044.got - 2010.06.03 17:03:02.
