data_PCOD9341917
_publ_section_title
;
Structure prediction by ZEFSAII (Michael W. Deem and Ramdas Pophale) SiO2 
 PCOD9341917
Probable space group: P N C 2
;
_chemical_formula_sum "Si O2"
_cell_formula_units_Z 26
_cell_length_a 12.591531
_cell_length_b 5.007811
_cell_length_c 19.403567
_cell_angle_alpha 90.000000
_cell_angle_beta 90.000000
_cell_angle_gamma 90.000000
_cell_volume 1223.511465
_symmetry_space_group_name_H-M "P N C 2"
_symmetry_group_IT_number 30
_symmetry_cell_setting 'orthorhombic'
loop_
_space_group_symop_operation_xyz
x,y,z
-x,-y,z
-x,1/2+y,1/2+z
x,1/2-y,1/2+z
loop_
_atom_site_type_symbol
_atom_site_label
_atom_site_fract_x
_atom_site_fract_y
_atom_site_fract_z
Si Si1 0.500000 0.500000 0.983711
Si Si2 0.122867 0.047814 0.898666
Si Si3 0.182755 0.397129 0.659993
Si Si4 0.121757 0.949894 0.306964
Si Si5 0.112087 0.927439 0.579549
Si Si6 0.396442 0.096230 0.093226
Si Si7 0.711650 0.282621 0.986411
O O1 0.605869 0.383882 0.945706
O O2 0.441280 0.290325 0.034278
O O3 0.132254 0.850103 0.833103
O O4 0.213599 0.933372 0.948744
O O5 0.141781 0.346080 0.870568
O O6 0.000000 0.000000 0.923870
O O7 0.185069 0.488106 0.738352
O O8 0.134230 0.634605 0.611652
O O9 0.301324 0.307086 0.639483
O O10 0.115829 0.135185 0.642626
O O11 0.000000 0.000000 0.287225
O O12 0.203579 0.981206 0.522397
O O13 0.000000 0.000000 0.545082
O O14 0.500000 0.000000 0.133790
O O15 0.344499 0.853111 0.051838
#
# Coordination Sequence:
#
# PCOD9341917 Si02
#       7
#     2   4   4   4   4   4   4
#     4  10  18  40  60  84 118 156 204 244 310 370
#     4  10  23  39  59  86 121 161 202 245 293 359
#     4  11  21  38  60  88 121 157 196 241 298 361
#     4  10  21  38  59  83 118 165 201 234 288 355
#     4  11  22  34  57  94 126 149 186 246 308 360
#     4   9  20  36  60  87 115 153 195 250 307 360
#     4  10  22  36  61  88 120 158 200 249 308 361
#
# _framework density 21.250312000000001
#
# number of rings (size 3 to 8) (size 9 to 14) (size 15 to 20)
#    0.000    1.846    1.538    2.308    2.154    5.538 
#    0.000    0.000    1.692    0.000    0.000    0.000 
#    0.000    0.000    0.000    0.000    0.000    0.000 
#
# Total GULP energy -144897.101647 kJ/mol
# GULP energy per Si atom -5572.965448 kJ/mol
# Density = 2.120195 g / cm^3
# Si number density = 21.250312 Si / 1000 Ang^3
#
#
#
# Elastic Constant Matrix: (Units=GPa)
#
#
# Indices 1 2 3 4 5 6 
#
# 1 170.8866 15.9750 28.6357 0.0000 0.0000 0.0000
# 2 15.9750 66.4614 -8.5143 0.0000 0.0000 0.0000
# 3 28.6357 -8.5143 40.8026 0.0000 0.0000 0.0000
# 4 0.0000 0.0000 0.0000 21.5347 0.0000 0.0000
# 5 0.0000 0.0000 0.0000 0.0000 14.3433 0.0000
# 6 0.0000 0.0000 0.0000 0.0000 0.0000 31.5636
#
#
#
# Elastic Compliance Matrix: (Units=1/GPa)
#
#
# Indices 1 2 3 4 5 6 
#
# 1 0.006976 -0.002367 -0.005390 0.000000 0.000000 0.000000
# 2 -0.002367 0.016263 0.005055 0.000000 0.000000 0.000000
# 3 -0.005390 0.005055 0.029346 0.000000 0.000000 0.000000
# 4 0.000000 0.000000 0.000000 0.046437 0.000000 0.000000
# 5 0.000000 0.000000 0.000000 0.000000 0.069719 0.000000
# 6 0.000000 0.000000 0.000000 0.000000 0.000000 0.031682
#
#
# Mechanical properties :
#
#
# Convention : Reuss Voigt Hill
#
# Bulk Modulus (GPa) = 21.19523 38.92703 30.06113
# Shear Modulus (GPa) = 22.56780 29.62527 26.09653
#
# Velocity S-wave (km/s) = 3.26237 3.73783 3.50816
# Velocity P-wave (km/s) = 4.91797 6.08166 5.53051
#
# Compressibility (1/GPa) = 0.04718042
#
# Stress axis : x y z
#
# Youngs Moduli (GPa) = 143.34097 61.48940 34.07629
#
# Poissons Ratio (x) = 0.14557 0.18367
# Poissons Ratio (y) = 0.33934 -0.17226
# Poissons Ratio (z) = 0.77262 -0.31083
#
# Static dielectric constant tensor:
#      x y z
#    x 1.839860 0.000000 0.000000 
#    y 0.000000 1.832690 0.000000 
#    z 0.000000 0.000000 1.798360 
# 
# From -- ./inp_files/7380.got.cif
#   From: 2010.05.17/outbox.cif.g08.bks.cpg/sg30_4_cif.got.tgz:7380.got - 2010.06.03 17:03:02.
