data_PCOD9341126
_publ_section_title
;
Structure prediction by ZEFSAII (Michael W. Deem and Ramdas Pophale) SiO2 
 PCOD9341126
Probable space group: P C A 21
;
_chemical_formula_sum "Si O2"
_cell_formula_units_Z 20
_cell_length_a 22.470900
_cell_length_b 7.483148
_cell_length_c 4.971126
_cell_angle_alpha 90.000000
_cell_angle_beta 90.000000
_cell_angle_gamma 90.000000
_cell_volume 835.910100
_symmetry_space_group_name_H-M "P C A 21"
_symmetry_group_IT_number 29
_symmetry_cell_setting 'orthorhombic'
loop_
_space_group_symop_operation_xyz
x,y,z
-x,-y,1/2+z
1/2-x,y,1/2+z
1/2+x,-y,z
loop_
_atom_site_type_symbol
_atom_site_label
_atom_site_fract_x
_atom_site_fract_y
_atom_site_fract_z
Si Si1 0.960862 0.528674 0.819610
Si Si2 0.616092 0.286854 0.660113
Si Si3 0.288989 0.009869 0.226546
Si Si4 0.290053 0.429201 0.220292
Si Si5 0.498179 0.883476 0.443121
O O1 0.950725 0.733908 0.906809
O O2 0.984206 0.528331 0.516531
O O3 0.910277 0.389466 0.899764
O O4 0.655689 0.442744 0.792675
O O5 0.561444 0.208035 0.829807
O O6 0.659501 0.119499 0.625323
O O7 0.233037 0.976634 0.029339
O O8 0.305704 0.219307 0.222550
O O9 0.263799 0.465260 0.925680
O O10 0.490964 0.950329 0.745377
#
# Coordination Sequence:
#
# PCOD9341126 Si02
#       5
#     4   4   4   4   4
#     4  10  23  43  63  96 133 171 223 272 322 392
#     4  11  24  43  73  94 132 181 216 264 346 384
#     4  10  23  43  66 100 133 165 219 274 326 396
#     4  10  23  43  65  99 131 165 219 275 323 396
#     4  11  25  44  65  99 139 172 227 281 323 396
#
# _framework density 23.926015
#
# number of rings (size 3 to 8) (size 9 to 14) (size 15 to 20)
#    0.000    1.600    0.000    3.600    2.800    9.600 
#    7.200    0.000    0.000    0.000    0.000    0.000 
#    0.000    0.000    0.000    0.000    0.000    0.000 
#
# Total GULP energy -111853.839050 kJ/mol
# GULP energy per Si atom -5592.691952 kJ/mol
# Density = 2.387156 g / cm^3
# Si number density = 23.926015 Si / 1000 Ang^3
#
#
#
# Elastic Constant Matrix: (Units=GPa)
#
#
# Indices 1 2 3 4 5 6 
#
# 1 93.5326 56.1265 4.6265 0.0000 0.0000 0.0000
# 2 56.1265 122.1390 19.4348 0.0000 0.0000 0.0000
# 3 4.6265 19.4348 68.5429 0.0000 0.0000 0.0000
# 4 0.0000 0.0000 0.0000 38.8517 0.0000 0.0000
# 5 0.0000 0.0000 0.0000 0.0000 -13.2687 0.0000
# 6 0.0000 0.0000 0.0000 0.0000 0.0000 -50.5223
#
#
#
# Elastic Compliance Matrix: (Units=1/GPa)
#
#
# Indices 1 2 3 4 5 6 
#
# 1 0.014824 -0.006967 0.000975 0.000000 0.000000 0.000000
# 2 -0.006967 0.011849 -0.002889 0.000000 0.000000 0.000000
# 3 0.000975 -0.002889 0.015343 0.000000 0.000000 0.000000
# 4 0.000000 0.000000 0.000000 0.025739 0.000000 0.000000
# 5 0.000000 0.000000 0.000000 0.000000 -0.075366 0.000000
# 6 0.000000 0.000000 0.000000 0.000000 0.000000 -0.019793
#
#
# Mechanical properties :
#
#
# Convention : Reuss Voigt Hill
#
# Bulk Modulus (GPa) = 41.23308 49.39891 45.31599
# Shear Modulus (GPa) = -3212.12982 8.61391 -1601.75795
#
# Velocity S-wave (km/s) = -36.68025 1.89949 -25.90205
# Velocity P-wave (km/s) = 42.15032 5.04996 29.59010
#
# Compressibility (1/GPa) = 0.02425237
#
# Stress axis : x y z
#
# Youngs Moduli (GPa) = 67.45765 84.39664 65.17690
#
# Poissons Ratio (x) = 0.58801 -0.06354
# Poissons Ratio (y) = 0.46999 0.18832
# Poissons Ratio (z) = -0.06576 0.24385
#
# Static dielectric constant tensor:
#      x y z
#    x 1.910240 0.000000 0.000000 
#    y 0.000000 1.963220 0.000000 
#    z 0.000000 0.000000 1.880430 
# 
# From -- ./inp_files/350.got.cif
#   From: 2010.05.17/outbox.cif.g08.bks.cpg/sg29_1_cif.got.tgz:350.got - 2010.06.04 01:19:37.
