data_PCOD9341538
_publ_section_title
;
Structure prediction by ZEFSAII (Michael W. Deem and Ramdas Pophale) SiO2 
 PCOD9341538
Probable space group: P C A 21
;
_chemical_formula_sum "Si O2"
_cell_formula_units_Z 24
_cell_length_a 13.475409
_cell_length_b 9.042353
_cell_length_c 8.064860
_cell_angle_alpha 90.000000
_cell_angle_beta 90.000000
_cell_angle_gamma 90.000000
_cell_volume 982.698392
_symmetry_space_group_name_H-M "P C A 21"
_symmetry_group_IT_number 29
_symmetry_cell_setting 'orthorhombic'
loop_
_space_group_symop_operation_xyz
x,y,z
-x,-y,1/2+z
1/2-x,y,1/2+z
1/2+x,-y,z
loop_
_atom_site_type_symbol
_atom_site_label
_atom_site_fract_x
_atom_site_fract_y
_atom_site_fract_z
Si Si1 0.290407 0.774367 0.535020
Si Si2 0.991112 0.141627 0.393816
Si Si3 0.401639 0.360792 0.671768
Si Si4 0.721697 0.557711 0.891399
Si Si5 0.038870 0.364824 0.688055
Si Si6 0.596124 0.172149 0.379828
O O1 0.372920 0.855283 0.421194
O O2 0.286870 0.603757 0.474300
O O3 0.333925 0.799419 0.717960
O O4 0.177393 0.825508 0.523244
O O5 0.028624 0.229855 0.232996
O O6 0.033382 0.235094 0.552009
O O7 0.038391 0.981232 0.383652
O O8 0.323373 0.329519 0.526166
O O9 0.330566 0.408413 0.825747
O O10 0.469923 0.501061 0.630151
O O11 0.645336 0.572254 0.737806
O O12 0.986029 0.298121 0.852741
#
# Coordination Sequence:
#
# PCOD9341538 Si02
#       6
#     4   4   4   4   4   4
#     4  11  23  46  69  98 135 188 234 285 359 417
#     4  11  26  45  67 106 147 182 238 291 360 432
#     4  12  23  42  69 106 136 181 236 295 349 421
#     4  12  23  41  74 102 136 181 241 292 350 416
#     4  11  23  46  70 103 138 187 237 291 351 419
#     4  11  26  44  71  99 144 185 234 288 359 433
#
# _framework density 24.422550000000001
#
# number of rings (size 3 to 8) (size 9 to 14) (size 15 to 20)
#    0.000    0.667    6.667    1.000    0.000   10.667 
#    0.000    0.000    0.000    0.000    0.000    0.000 
#    0.000    0.000    0.000    0.000    0.000    0.000 
#
# Total GULP energy -134404.762843 kJ/mol
# GULP energy per Si atom -5600.198452 kJ/mol
# Density = 2.436696 g / cm^3
# Si number density = 24.422550 Si / 1000 Ang^3
#
#
#
# Elastic Constant Matrix: (Units=GPa)
#
#
# Indices 1 2 3 4 5 6 
#
# 1 128.8540 48.2940 11.8324 0.0000 0.0000 0.0000
# 2 48.2940 100.1543 11.4453 0.0000 0.0000 0.0000
# 3 11.8324 11.4453 79.8728 0.0000 0.0000 0.0000
# 4 0.0000 0.0000 0.0000 31.0319 0.0000 0.0000
# 5 0.0000 0.0000 0.0000 0.0000 51.7966 0.0000
# 6 0.0000 0.0000 0.0000 0.0000 0.0000 29.8721
#
#
#
# Elastic Compliance Matrix: (Units=1/GPa)
#
#
# Indices 1 2 3 4 5 6 
#
# 1 0.009518 -0.004502 -0.000765 0.000000 0.000000 0.000000
# 2 -0.004502 0.012280 -0.001093 0.000000 0.000000 0.000000
# 3 -0.000765 -0.001093 0.012790 0.000000 0.000000 0.000000
# 4 0.000000 0.000000 0.000000 0.032225 0.000000 0.000000
# 5 0.000000 0.000000 0.000000 0.000000 0.019306 0.000000
# 6 0.000000 0.000000 0.000000 0.000000 0.000000 0.033476
#
#
# Mechanical properties :
#
#
# Convention : Reuss Voigt Hill
#
# Bulk Modulus (GPa) = 45.72738 50.22494 47.97616
# Shear Modulus (GPa) = 35.81523 38.36075 37.08799
#
# Velocity S-wave (km/s) = 3.83362 3.96752 3.90114
# Velocity P-wave (km/s) = 6.19351 6.44964 6.32288
#
# Compressibility (1/GPa) = 0.02186874
#
# Stress axis : x y z
#
# Youngs Moduli (GPa) = 105.05955 81.43009 78.18728
#
# Poissons Ratio (x) = 0.36662 0.05981
# Poissons Ratio (y) = 0.47301 0.08544
# Poissons Ratio (z) = 0.08036 0.08898
#
# Static dielectric constant tensor:
#      x y z
#    x 1.924480 0.000000 0.000000 
#    y 0.000000 1.869980 0.000000 
#    z 0.000000 0.000000 2.093380 
# 
# From -- ./inp_files/1705.got.cif
#   From: 2010.05.17/outbox.cif.g08.bks.cpg/sg29_1_cif.got.tgz:1705.got - 2010.06.04 01:19:37.
