data_PCOD9341629
_publ_section_title
;
Structure prediction by ZEFSAII (Michael W. Deem and Ramdas Pophale) SiO2 
 PCOD9341629
Probable space group: P C A 21
;
_chemical_formula_sum "Si O2"
_cell_formula_units_Z 32
_cell_length_a 12.478009
_cell_length_b 11.481688
_cell_length_c 8.617051
_cell_angle_alpha 90.000000
_cell_angle_beta 90.000000
_cell_angle_gamma 90.000000
_cell_volume 1234.552886
_symmetry_space_group_name_H-M "P C A 21"
_symmetry_group_IT_number 29
_symmetry_cell_setting 'orthorhombic'
loop_
_space_group_symop_operation_xyz
x,y,z
-x,-y,1/2+z
1/2-x,y,1/2+z
1/2+x,-y,z
loop_
_atom_site_type_symbol
_atom_site_label
_atom_site_fract_x
_atom_site_fract_y
_atom_site_fract_z
Si Si1 0.055034 0.520311 0.000000
Si Si2 0.893075 0.383648 0.816048
Si Si3 0.256305 0.405135 0.373297
Si Si4 0.719902 0.197476 0.483603
Si Si5 0.083283 0.019774 0.488669
Si Si6 0.606029 0.280821 0.767604
Si Si7 0.587869 0.875363 0.150202
Si Si8 0.818700 0.759689 0.103387
O O1 0.047801 0.596686 0.153589
O O2 0.160842 0.440986 0.006958
O O3 0.071783 0.600040 0.848186
O O4 0.961115 0.432844 0.960062
O O5 0.794227 0.474529 0.816823
O O6 0.859713 0.253071 0.854783
O O7 0.168954 0.321569 0.452116
O O8 0.317659 0.325808 0.249465
O O9 0.695369 0.279842 0.631083
O O10 0.836363 0.208960 0.408043
O O11 0.678524 0.071047 0.529345
O O12 0.101396 0.053642 0.310219
O O13 0.098245 0.135225 0.592216
O O14 0.971186 0.956579 0.523974
O O15 0.502196 0.219802 0.695947
O O16 0.700018 0.819381 0.098813
#
# Coordination Sequence:
#
# PCOD9341629 Si02
#       8
#     4   4   4   4   4   4   4   4
#     4  12  27  43  76 105 155 190 251 302 375 450
#     4  12  27  47  70 114 144 202 243 308 373 446
#     4  12  27  47  75 104 148 195 246 305 372 441
#     4  11  26  45  71 104 149 190 249 300 381 429
#     4  11  29  47  76 107 146 198 242 314 362 451
#     4  11  25  45  71 108 148 196 241 312 356 457
#     4  11  28  48  76 108 147 189 256 296 373 437
#     4  12  27  50  75 106 149 196 248 311 372 439
#
# _framework density 25.920314999999999
#
# number of rings (size 3 to 8) (size 9 to 14) (size 15 to 20)
#    0.000    0.500    3.750    2.250   14.000    1.000 
#    0.000    0.000    0.000    0.000    0.000    0.000 
#    0.000    0.000    0.000    0.000    0.000    0.000 
#
# Total GULP energy -179311.795333 kJ/mol
# GULP energy per Si atom -5603.493604 kJ/mol
# Density = 2.586132 g / cm^3
# Si number density = 25.920315 Si / 1000 Ang^3
#
#
#
# Elastic Constant Matrix: (Units=GPa)
#
#
# Indices 1 2 3 4 5 6 
#
# 1 74.2285 7.2886 -2.9318 0.0000 0.0000 0.0000
# 2 7.2886 92.2086 6.8084 0.0000 0.0000 0.0000
# 3 -2.9318 6.8084 83.6015 0.0000 0.0000 0.0000
# 4 0.0000 0.0000 0.0000 48.8150 0.0000 0.0000
# 5 0.0000 0.0000 0.0000 0.0000 38.5496 0.0000
# 6 0.0000 0.0000 0.0000 0.0000 0.0000 34.6618
#
#
#
# Elastic Compliance Matrix: (Units=1/GPa)
#
#
# Indices 1 2 3 4 5 6 
#
# 1 0.013604 -0.001117 0.000568 0.000000 0.000000 0.000000
# 2 -0.001117 0.011002 -0.000935 0.000000 0.000000 0.000000
# 3 0.000568 -0.000935 0.012058 0.000000 0.000000 0.000000
# 4 0.000000 0.000000 0.000000 0.020486 0.000000 0.000000
# 5 0.000000 0.000000 0.000000 0.000000 0.025941 0.000000
# 6 0.000000 0.000000 0.000000 0.000000 0.000000 0.028850
#
#
# Mechanical properties :
#
#
# Convention : Reuss Voigt Hill
#
# Bulk Modulus (GPa) = 29.67784 30.26322 29.97053
# Shear Modulus (GPa) = 39.63823 40.33017 39.98420
#
# Velocity S-wave (km/s) = 3.91478 3.94881 3.93183
# Velocity P-wave (km/s) = 5.64877 5.70014 5.67451
#
# Compressibility (1/GPa) = 0.03369518
#
# Stress axis : x y z
#
# Youngs Moduli (GPa) = 73.50749 90.88974 82.93532
#
# Poissons Ratio (x) = 0.10155 -0.04711
# Poissons Ratio (y) = 0.08213 0.07756
# Poissons Ratio (z) = -0.04176 0.08500
#
# Static dielectric constant tensor:
#      x y z
#    x 2.091540 0.000000 0.000000 
#    y 0.000000 1.995950 0.000000 
#    z 0.000000 0.000000 2.021170 
# 
# From -- ./inp_files/1882.got.cif
#   From: 2010.05.17/outbox.cif.g08.bks.cpg/sg29_1_cif.got.tgz:1882.got - 2010.06.04 01:19:37.
