data_PCOD9341792
_publ_section_title
;
Structure prediction by ZEFSAII (Michael W. Deem and Ramdas Pophale) SiO2 
 PCOD9341792
Probable space group: P C A 21
;
_chemical_formula_sum "Si O2"
_cell_formula_units_Z 32
_cell_length_a 15.000000
_cell_length_b 12.000000
_cell_length_c 9.000000
_cell_angle_alpha 90.000000
_cell_angle_beta 90.000000
_cell_angle_gamma 90.000000
_cell_volume 1620.000000
_symmetry_space_group_name_H-M "P C A 21"
_symmetry_group_IT_number 29
_symmetry_cell_setting 'orthorhombic'
loop_
_space_group_symop_operation_xyz
x,y,z
-x,-y,1/2+z
1/2-x,y,1/2+z
1/2+x,-y,z
loop_
_atom_site_type_symbol
_atom_site_label
_atom_site_fract_x
_atom_site_fract_y
_atom_site_fract_z
Si Si1 0.772362 0.996957 0.146100
Si Si2 0.292559 0.259253 0.678267
Si Si3 0.140942 0.389728 0.878743
Si Si4 0.033899 0.163669 0.324200
Si Si5 0.968917 0.957697 0.146520
Si Si6 0.457605 0.723944 0.761997
Si Si7 0.882918 0.336230 0.435444
Si Si8 0.211994 0.828340 0.382924
O O1 0.737027 0.868767 0.129323
O O2 0.870386 0.977343 0.212812
O O3 0.718976 0.090996 0.238559
O O4 0.789942 0.071367 0.001075
O O5 0.214167 0.333364 0.761371
O O6 0.330244 0.331692 0.537338
O O7 0.373345 0.228430 0.792134
O O8 0.134803 0.529619 0.892583
O O9 0.042115 0.345779 0.826699
O O10 0.035378 0.084497 0.473259
O O11 0.959146 0.261826 0.347454
O O12 0.017301 0.074549 0.189048
O O13 0.008887 0.848577 0.223845
O O14 0.416860 0.670745 0.608596
O O15 0.375187 0.749774 0.872678
O O16 0.794748 0.257700 0.410342
#
# Coordination Sequence:
#
# PCOD9341792 Si02
#       8
#     4   4   4   4   4   4   4   4
#     4  12  23  42  72 108 150 185 245 306 382 447
#     4  12  28  50  76 115 147 206 250 312 382 441
#     4  12  30  50  80 105 155 204 257 312 365 455
#     4  11  26  43  75 110 149 195 250 312 384 452
#     4  11  22  42  71 107 151 186 241 314 376 452
#     4  11  26  50  72 112 148 197 250 308 380 443
#     4  11  28  50  74 110 149 198 256 313 371 455
#     4  12  25  45  74 107 147 193 239 317 378 447
#
# _framework density 19.753086
#
# number of rings (size 3 to 8) (size 9 to 14) (size 15 to 20)
#    0.000    0.500    3.750    3.750   10.500    0.000 
#    0.000    0.000    0.000    0.000    0.000    0.000 
#    0.000    0.000    0.000    0.000    0.000    0.000 
#
# Total GULP energy -178371.961589 kJ/mol
# GULP energy per Si atom -5574.123800 kJ/mol
# Density = 1.970813 g / cm^3
# Si number density = 19.753086 Si / 1000 Ang^3
#
#
#
# Elastic Constant Matrix: (Units=GPa)
#
#
# Indices 1 2 3 4 5 6 
#
# 1 142.4198 70.5160 24.7930 0.0000 0.0000 0.0000
# 2 70.5160 199.9559 39.7933 0.0000 0.0000 0.0000
# 3 24.7930 39.7933 83.4766 0.0000 0.0000 0.0000
# 4 0.0000 0.0000 0.0000 40.7922 0.0000 0.0000
# 5 0.0000 0.0000 0.0000 0.0000 33.7248 0.0000
# 6 0.0000 0.0000 0.0000 0.0000 0.0000 48.2076
#
#
#
# Elastic Compliance Matrix: (Units=1/GPa)
#
#
# Indices 1 2 3 4 5 6 
#
# 1 0.008619 -0.002795 -0.001227 0.000000 0.000000 0.000000
# 2 -0.002795 0.006432 -0.002236 0.000000 0.000000 0.000000
# 3 -0.001227 -0.002236 0.013410 0.000000 0.000000 0.000000
# 4 0.000000 0.000000 0.000000 0.024514 0.000000 0.000000
# 5 0.000000 0.000000 0.000000 0.000000 0.029652 0.000000
# 6 0.000000 0.000000 0.000000 0.000000 0.000000 0.020744
#
#
# Mechanical properties :
#
#
# Convention : Reuss Voigt Hill
#
# Bulk Modulus (GPa) = 62.72088 77.33965 70.03026
# Shear Modulus (GPa) = 41.25327 43.92826 42.59077
#
# Velocity S-wave (km/s) = 4.57491 4.72091 4.64848
# Velocity P-wave (km/s) = 7.72838 8.30386 8.02128
#
# Compressibility (1/GPa) = 0.01594365
#
# Stress axis : x y z
#
# Youngs Moduli (GPa) = 116.01961 155.47597 74.57251
#
# Poissons Ratio (x) = 0.43461 0.09153
# Poissons Ratio (y) = 0.32432 0.16673
# Poissons Ratio (z) = 0.14240 0.34762
#
# Static dielectric constant tensor:
#      x y z
#    x 1.761260 0.000000 0.000000 
#    y 0.000000 1.659950 0.000000 
#    z 0.000000 0.000000 1.915640 
# 
# From -- ./inp_files/1855.got.cif
#   From: 2010.05.17/outbox.ucp.g08.bks.cvg/sg29_1_cif.got.tgz:1855.got - 2010.06.11 15:24:14.
