data_PCOD9341391
_publ_section_title
;
Structure prediction by ZEFSAII (Michael W. Deem and Ramdas Pophale) SiO2 
 PCOD9341391
Probable space group: P C A 21
;
_chemical_formula_sum "Si O2"
_cell_formula_units_Z 16
_cell_length_a 11.794564
_cell_length_b 8.387902
_cell_length_c 5.341147
_cell_angle_alpha 90.000000
_cell_angle_beta 90.000000
_cell_angle_gamma 90.000000
_cell_volume 528.408469
_symmetry_space_group_name_H-M "P C A 21"
_symmetry_group_IT_number 29
_symmetry_cell_setting 'orthorhombic'
loop_
_space_group_symop_operation_xyz
x,y,z
-x,-y,1/2+z
1/2-x,y,1/2+z
1/2+x,-y,z
loop_
_atom_site_type_symbol
_atom_site_label
_atom_site_fract_x
_atom_site_fract_y
_atom_site_fract_z
Si Si1 0.910729 0.331696 0.612880
Si Si2 0.861449 0.137576 0.118166
Si Si3 0.159330 0.106308 0.958712
Si Si4 0.865561 0.666028 0.836625
O O1 0.862865 0.270055 0.343260
O O2 0.890296 0.222933 0.857885
O O3 0.858536 0.500947 0.691158
O O4 0.045223 0.356789 0.560688
O O5 0.915324 0.979633 0.249571
O O6 0.742704 0.032577 0.065131
O O7 0.081925 0.194888 0.160335
O O8 0.246191 0.248719 0.890318
#
# Coordination Sequence:
#
# PCOD9341391 Si02
#       4
#     4   4   4   4
#     4  12  27  50  79 118 161 212 263 325 396 477
#     4  11  26  48  79 114 157 203 266 322 393 469
#     4  10  26  52  80 118 159 210 265 331 397 465
#     4  11  27  50  80 116 163 209 262 328 400 469
#
# _framework density 30.279608
#
# number of rings (size 3 to 8) (size 9 to 14) (size 15 to 20)
#    0.000    1.000    0.000    4.500    0.000   22.000 
#    0.000   10.000    0.000    0.000    0.000    0.000 
#    0.000    0.000    0.000    0.000    0.000    0.000 
#
# Total GULP energy -89399.983306 kJ/mol
# GULP energy per Si atom -5587.498957 kJ/mol
# Density = 3.021069 g / cm^3
# Si number density = 30.279608 Si / 1000 Ang^3
#
#
#
# Elastic Constant Matrix: (Units=GPa)
#
#
# Indices 1 2 3 4 5 6 
#
# 1 122.3276 102.6820 64.6364 0.0000 0.0000 0.0000
# 2 102.6820 254.8255 132.2164 0.0000 0.0000 0.0000
# 3 64.6364 132.2164 256.7052 0.0000 0.0000 0.0000
# 4 0.0000 0.0000 0.0000 92.8955 0.0000 0.0000
# 5 0.0000 0.0000 0.0000 0.0000 56.2569 0.0000
# 6 0.0000 0.0000 0.0000 0.0000 0.0000 60.1273
#
#
#
# Elastic Compliance Matrix: (Units=1/GPa)
#
#
# Indices 1 2 3 4 5 6 
#
# 1 0.012459 -0.004630 -0.000752 0.000000 0.000000 0.000000
# 2 -0.004630 0.007076 -0.002479 0.000000 0.000000 0.000000
# 3 -0.000752 -0.002479 0.005362 0.000000 0.000000 0.000000
# 4 0.000000 0.000000 0.000000 0.010765 0.000000 0.000000
# 5 0.000000 0.000000 0.000000 0.000000 0.017776 0.000000
# 6 0.000000 0.000000 0.000000 0.000000 0.000000 0.016631
#
#
# Mechanical properties :
#
#
# Convention : Reuss Voigt Hill
#
# Bulk Modulus (GPa) = 108.99991 136.99199 122.99595
# Shear Modulus (GPa) = 56.27598 64.14418 60.21008
#
# Velocity S-wave (km/s) = 4.31576 4.60760 4.46406
# Velocity P-wave (km/s) = 7.80451 8.58179 8.20236
#
# Compressibility (1/GPa) = 0.00917432
#
# Stress axis : x y z
#
# Youngs Moduli (GPa) = 80.26583 141.32425 186.51051
#
# Poissons Ratio (x) = 0.65431 0.14033
# Poissons Ratio (y) = 0.37162 0.46231
# Poissons Ratio (z) = 0.06039 0.35030
#
# Static dielectric constant tensor:
#      x y z
#    x 2.727860 0.000000 0.000000 
#    y 0.000000 2.328110 0.000000 
#    z 0.000000 0.000000 2.935480 
# 
# From -- ./inp_files/1305.got.cif
#   From: 2010.05.17/outbox.cif.g08.bks.cpg/sg29_1_cif.got.tgz:1305.got - 2010.06.04 01:19:37.
