data_PCOD9341400
_publ_section_title
;
Structure prediction by ZEFSAII (Michael W. Deem and Ramdas Pophale) SiO2 
 PCOD9341400
Probable space group: P C A 21
;
_chemical_formula_sum "Si O2"
_cell_formula_units_Z 24
_cell_length_a 17.596149
_cell_length_b 13.673324
_cell_length_c 5.060726
_cell_angle_alpha 90.000000
_cell_angle_beta 90.000000
_cell_angle_gamma 90.000000
_cell_volume 1217.599777
_symmetry_space_group_name_H-M "P C A 21"
_symmetry_group_IT_number 29
_symmetry_cell_setting 'orthorhombic'
loop_
_space_group_symop_operation_xyz
x,y,z
-x,-y,1/2+z
1/2-x,y,1/2+z
1/2+x,-y,z
loop_
_atom_site_type_symbol
_atom_site_label
_atom_site_fract_x
_atom_site_fract_y
_atom_site_fract_z
Si Si1 0.536469 0.950599 0.119390
Si Si2 0.156785 0.777464 0.191033
Si Si3 0.794785 0.007062 0.788088
Si Si4 0.553066 0.240493 0.699947
Si Si5 0.206646 0.563126 0.113014
Si Si6 0.036394 0.545061 0.920401
O O1 0.512218 0.837979 0.147452
O O2 0.485415 0.011843 0.328484
O O3 0.623356 0.968834 0.197896
O O4 0.199635 0.874665 0.278576
O O5 0.101111 0.747775 0.431401
O O6 0.205094 0.681883 0.121059
O O7 0.107728 0.801369 0.930303
O O8 0.730750 0.976809 0.578435
O O9 0.527271 0.345365 0.807686
O O10 0.230107 0.530526 0.403726
O O11 0.123544 0.533534 0.014070
O O12 0.014130 0.474988 0.678495
#
# Coordination Sequence:
#
# PCOD9341400 Si02
#       6
#     4   4   4   4   4   4
#     4  12  22  40  61  85 120 166 214 241 295 373
#     4  11  20  35  57  88 125 155 193 237 314 380
#     4  12  23  35  55  86 126 161 200 253 301 352
#     4  11  21  38  62  88 115 162 207 251 296 362
#     4  11  21  36  58  89 124 156 188 246 315 383
#     4  11  23  40  63  90 122 158 208 258 311 360
#
# _framework density 19.710909000000001
#
# number of rings (size 3 to 8) (size 9 to 14) (size 15 to 20)
#    0.000    0.667    3.333    8.000    0.000    0.000 
#    0.000    0.000    0.000    6.000    0.000    0.000 
#    0.000    0.000    0.000    0.000    0.000    0.000 
#
# Total GULP energy -134250.557803 kJ/mol
# GULP energy per Si atom -5593.773242 kJ/mol
# Density = 1.966605 g / cm^3
# Si number density = 19.710909 Si / 1000 Ang^3
#
#
#
# Elastic Constant Matrix: (Units=GPa)
#
#
# Indices 1 2 3 4 5 6 
#
# 1 76.2663 30.4140 23.5092 0.0000 0.0000 0.0000
# 2 30.4140 38.5355 15.9965 0.0000 0.0000 0.0000
# 3 23.5092 15.9965 105.6730 0.0000 0.0000 0.0000
# 4 0.0000 0.0000 0.0000 15.4556 0.0000 0.0000
# 5 0.0000 0.0000 0.0000 0.0000 47.0070 0.0000
# 6 0.0000 0.0000 0.0000 0.0000 0.0000 21.0462
#
#
#
# Elastic Compliance Matrix: (Units=1/GPa)
#
#
# Indices 1 2 3 4 5 6 
#
# 1 0.019583 -0.014562 -0.002152 0.000000 0.000000 0.000000
# 2 -0.014562 0.038519 -0.002591 0.000000 0.000000 0.000000
# 3 -0.002152 -0.002591 0.010334 0.000000 0.000000 0.000000
# 4 0.000000 0.000000 0.000000 0.064701 0.000000 0.000000
# 5 0.000000 0.000000 0.000000 0.000000 0.021273 0.000000
# 6 0.000000 0.000000 0.000000 0.000000 0.000000 0.047514
#
#
# Mechanical properties :
#
#
# Convention : Reuss Voigt Hill
#
# Bulk Modulus (GPa) = 33.52938 40.03492 36.78215
# Shear Modulus (GPa) = 19.96188 26.73877 23.35032
#
# Velocity S-wave (km/s) = 3.18580 3.68713 3.44559
# Velocity P-wave (km/s) = 5.52991 6.20336 5.87629
#
# Compressibility (1/GPa) = 0.02982459
#
# Stress axis : x y z
#
# Youngs Moduli (GPa) = 51.06594 25.96131 96.76596
#
# Poissons Ratio (x) = 0.37805 0.20826
# Poissons Ratio (y) = 0.74363 0.25075
# Poissons Ratio (z) = 0.10990 0.06727
#
# Static dielectric constant tensor:
#      x y z
#    x 1.699190 0.000000 0.000000 
#    y 0.000000 1.687570 0.000000 
#    z 0.000000 0.000000 1.702390 
# 
# From -- ./inp_files/209.got.cif
#   From: 2010.05.17/outbox.cif.g08.bks.cpg/sg29_1_cif.got.tgz:209.got - 2010.06.04 01:19:37.
