data_PCOD9341303
_publ_section_title
;
Structure prediction by ZEFSAII (Michael W. Deem and Ramdas Pophale) SiO2 
 PCOD9341303
Probable space group: P C A 21
;
_chemical_formula_sum "Si O2"
_cell_formula_units_Z 12
_cell_length_a 15.718043
_cell_length_b 5.164788
_cell_length_c 5.297447
_cell_angle_alpha 90.000000
_cell_angle_beta 90.000000
_cell_angle_gamma 90.000000
_cell_volume 430.048654
_symmetry_space_group_name_H-M "P C A 21"
_symmetry_group_IT_number 29
_symmetry_cell_setting 'orthorhombic'
loop_
_space_group_symop_operation_xyz
x,y,z
-x,-y,1/2+z
1/2-x,y,1/2+z
1/2+x,-y,z
loop_
_atom_site_type_symbol
_atom_site_label
_atom_site_fract_x
_atom_site_fract_y
_atom_site_fract_z
Si Si1 0.775866 0.365528 0.901680
Si Si2 0.374694 0.959897 0.581240
Si Si3 0.017097 0.350508 0.340559
O O1 0.729932 0.505208 0.667713
O O2 0.864558 0.252080 0.807627
O O3 0.713906 0.112350 0.946091
O O4 0.449762 0.883338 0.391956
O O5 0.398627 0.223618 0.718088
O O6 0.977975 0.528336 0.119811
#
# Coordination Sequence:
#
# PCOD9341303 Si02
#       3
#     4   4   4
#     4   8  20  38  72  88 124 192 210 268 358 366
#     4  10  24  46  68  92 148 166 226 292 320 400
#     4  12  28  40  70 106 134 182 226 272 352 406
#
# _framework density 27.903815999999999
#
# number of rings (size 3 to 8) (size 9 to 14) (size 15 to 20)
#    2.000    0.000    0.000    2.000   14.000    0.000 
#    0.000   10.000    0.000    0.000    0.000    0.000 
#    0.000    0.000    0.000    0.000    0.000    0.000 
#
# Total GULP energy -66976.058865 kJ/mol
# GULP energy per Si atom -5581.338239 kJ/mol
# Density = 2.784031 g / cm^3
# Si number density = 27.903816 Si / 1000 Ang^3
#
#
#
# Elastic Constant Matrix: (Units=GPa)
#
#
# Indices 1 2 3 4 5 6 
#
# 1 103.3752 5.9713 25.5757 0.0000 0.0000 0.0000
# 2 5.9713 95.3850 32.3685 0.0000 0.0000 0.0000
# 3 25.5757 32.3685 214.2242 0.0000 0.0000 0.0000
# 4 0.0000 0.0000 0.0000 44.0431 0.0000 0.0000
# 5 0.0000 0.0000 0.0000 0.0000 52.1082 0.0000
# 6 0.0000 0.0000 0.0000 0.0000 0.0000 31.5285
#
#
#
# Elastic Compliance Matrix: (Units=1/GPa)
#
#
# Indices 1 2 3 4 5 6 
#
# 1 0.009973 -0.000232 -0.001156 0.000000 0.000000 0.000000
# 2 -0.000232 0.011056 -0.001643 0.000000 0.000000 0.000000
# 3 -0.001156 -0.001643 0.005054 0.000000 0.000000 0.000000
# 4 0.000000 0.000000 0.000000 0.022705 0.000000 0.000000
# 5 0.000000 0.000000 0.000000 0.000000 0.019191 0.000000
# 6 0.000000 0.000000 0.000000 0.000000 0.000000 0.031717
#
#
# Mechanical properties :
#
#
# Convention : Reuss Voigt Hill
#
# Bulk Modulus (GPa) = 49.94557 60.09061 55.01809
# Shear Modulus (GPa) = 44.47173 48.80721 46.63947
#
# Velocity S-wave (km/s) = 3.99651 4.18679 4.09276
# Velocity P-wave (km/s) = 6.26372 6.70477 6.48799
#
# Compressibility (1/GPa) = 0.02002180
#
# Stress axis : x y z
#
# Youngs Moduli (GPa) = 100.27273 90.44994 197.85592
#
# Poissons Ratio (x) = 0.02100 0.22863
# Poissons Ratio (y) = 0.02328 0.32503
# Poissons Ratio (z) = 0.11587 0.14859
#
# Static dielectric constant tensor:
#      x y z
#    x 2.156230 0.000000 0.000000 
#    y 0.000000 2.176790 0.000000 
#    z 0.000000 0.000000 2.202760 
# 
# From -- ./inp_files/296.got.cif
#   From: 2010.05.17/outbox.cif.g08.bks.cpg/sg29_1_cif.got.tgz:296.got - 2010.06.04 01:19:37.
