data_PCOD9341862
_publ_section_title
;
Structure prediction by ZEFSAII (Michael W. Deem and Ramdas Pophale) SiO2 
 PCOD9341862
Probable space group: P N C 2
;
_chemical_formula_sum "Si O2"
_cell_formula_units_Z 28
_cell_length_a 7.000224
_cell_length_b 17.638767
_cell_length_c 12.548618
_cell_angle_alpha 90.000000
_cell_angle_beta 90.000000
_cell_angle_gamma 90.000000
_cell_volume 1549.444624
_symmetry_space_group_name_H-M "P N C 2"
_symmetry_group_IT_number 30
_symmetry_cell_setting 'orthorhombic'
loop_
_space_group_symop_operation_xyz
x,y,z
-x,-y,z
-x,1/2+y,1/2+z
x,1/2-y,1/2+z
loop_
_atom_site_type_symbol
_atom_site_label
_atom_site_fract_x
_atom_site_fract_y
_atom_site_fract_z
Si Si1 0.329801 0.822136 0.380580
Si Si2 0.992137 0.739909 0.488468
Si Si3 0.153471 0.391967 0.085003
Si Si4 0.266715 0.553295 0.062321
Si Si5 0.588856 0.812823 0.948347
Si Si6 0.668711 0.296460 0.646842
Si Si7 0.493667 0.364069 0.227036
O O1 0.314353 0.891761 0.462953
O O2 0.512648 0.770853 0.411361
O O3 0.326810 0.842924 0.256559
O O4 0.147892 0.766212 0.401218
O O5 0.818419 0.685123 0.456898
O O6 0.879566 0.816631 0.518135
O O7 0.127717 0.712882 0.586552
O O8 0.258526 0.464664 0.032376
O O9 0.601767 0.428747 0.162778
O O10 0.276343 0.367490 0.186214
O O11 0.941236 0.421582 0.103744
O O12 0.509667 0.865496 0.853823
O O13 0.483249 0.826235 0.060248
O O14 0.592979 0.213323 0.683935
#
# Coordination Sequence:
#
# PCOD9341862 Si02
#       7
#     4   4   4   4   4   4   4
#     4   9  19  32  49  72 108 136 166 212 262 309
#     4  10  18  32  47  79 104 134 170 212 261 318
#     4  10  19  30  54  74 104 133 170 215 259 313
#     4  10  19  35  49  79 105 131 172 216 265 311
#     4  10  20  30  49  74 105 139 171 204 262 318
#     4  10  19  32  49  74 109 136 164 214 265 310
#     4  11  19  31  49  75 105 135 169 213 262 310
#
# _framework density 18.070990999999999
#
# number of rings (size 3 to 8) (size 9 to 14) (size 15 to 20)
#    0.000    2.000    5.714    0.429    2.000    1.143 
#    0.000    0.000    0.000    0.000    0.000   36.000 
#    0.000    0.000    0.000    0.000    0.000    0.000 
#
# Total GULP energy -155874.394883 kJ/mol
# GULP energy per Si atom -5566.942674 kJ/mol
# Density = 1.802986 g / cm^3
# Si number density = 18.070991 Si / 1000 Ang^3
#
#
#
# Elastic Constant Matrix: (Units=GPa)
#
#
# Indices 1 2 3 4 5 6 
#
# 1 92.7774 9.6681 50.0530 0.0000 0.0000 0.0000
# 2 9.6681 30.6921 10.1301 0.0000 0.0000 0.0000
# 3 50.0530 10.1301 127.3762 0.0000 0.0000 0.0000
# 4 0.0000 0.0000 0.0000 6.8977 0.0000 0.0000
# 5 0.0000 0.0000 0.0000 0.0000 14.4897 0.0000
# 6 0.0000 0.0000 0.0000 0.0000 0.0000 20.1740
#
#
#
# Elastic Compliance Matrix: (Units=1/GPa)
#
#
# Indices 1 2 3 4 5 6 
#
# 1 0.013884 -0.002642 -0.005246 0.000000 0.000000 0.000000
# 2 -0.002642 0.033963 -0.001663 0.000000 0.000000 0.000000
# 3 -0.005246 -0.001663 0.010044 0.000000 0.000000 0.000000
# 4 0.000000 0.000000 0.000000 0.144976 0.000000 0.000000
# 5 0.000000 0.000000 0.000000 0.000000 0.069015 0.000000
# 6 0.000000 0.000000 0.000000 0.000000 0.000000 0.049569
#
#
# Mechanical properties :
#
#
# Convention : Reuss Voigt Hill
#
# Bulk Modulus (GPa) = 25.77990 43.39423 34.58707
# Shear Modulus (GPa) = 14.14501 20.37857 17.26179
#
# Velocity S-wave (km/s) = 2.80080 3.36176 3.09402
# Velocity P-wave (km/s) = 4.97556 6.25571 5.65199
#
# Compressibility (1/GPa) = 0.03878991
#
# Stress axis : x y z
#
# Youngs Moduli (GPa) = 72.02659 29.44396 99.55932
#
# Poissons Ratio (x) = 0.07779 0.52224
# Poissons Ratio (y) = 0.19030 0.16555
# Poissons Ratio (z) = 0.37782 0.04896
#
# Static dielectric constant tensor:
#      x y z
#    x 1.699860 0.000000 0.000000 
#    y 0.000000 1.649550 0.000000 
#    z 0.000000 0.000000 1.623880 
# 
# From -- ./inp_files/3276.got.cif
#   From: 2010.05.17/outbox.cif.g08.bks.cpg/sg30_2_cif.got.tgz:3276.got - 2010.06.03 17:03:02.
