data_PCOD9341281
_publ_section_title
;
Structure prediction by ZEFSAII (Michael W. Deem and Ramdas Pophale) SiO2 
 PCOD9341281
Probable space group: P C A 21
;
_chemical_formula_sum "Si O2"
_cell_formula_units_Z 24
_cell_length_a 10.911309
_cell_length_b 10.457188
_cell_length_c 9.722096
_cell_angle_alpha 90.000000
_cell_angle_beta 90.000000
_cell_angle_gamma 90.000000
_cell_volume 1109.306802
_symmetry_space_group_name_H-M "P C A 21"
_symmetry_group_IT_number 29
_symmetry_cell_setting 'orthorhombic'
loop_
_space_group_symop_operation_xyz
x,y,z
-x,-y,1/2+z
1/2-x,y,1/2+z
1/2+x,-y,z
loop_
_atom_site_type_symbol
_atom_site_label
_atom_site_fract_x
_atom_site_fract_y
_atom_site_fract_z
Si Si1 0.739415 0.200234 0.697010
Si Si2 0.004912 0.637554 0.666035
Si Si3 0.142150 0.243569 0.390758
Si Si4 0.924408 0.760351 0.405552
Si Si5 0.875836 0.055036 0.947145
Si Si6 0.481576 0.658158 0.630213
O O1 0.627852 0.298016 0.726272
O O2 0.800170 0.132165 0.829245
O O3 0.685391 0.094564 0.591882
O O4 0.845290 0.284677 0.625118
O O5 0.893256 0.712808 0.737709
O O6 0.001818 0.665985 0.502981
O O7 0.988446 0.487241 0.681616
O O8 0.282850 0.265168 0.427431
O O9 0.053024 0.323595 0.489020
O O10 0.122698 0.093475 0.414022
O O11 0.983214 0.896121 0.446092
O O12 0.950056 0.740876 0.245851
#
# Coordination Sequence:
#
# PCOD9341281 Si02
#       6
#     4   4   4   4   4   4
#     4  10  24  44  70  96 140 174 224 282 328 404
#     4  11  25  45  68 100 133 182 223 274 339 397
#     4  12  26  41  73  98 136 173 221 284 335 402
#     4  10  25  42  65 103 132 174 226 275 330 402
#     4  10  25  43  68 101 136 179 223 273 347 390
#     4  11  25  45  68 100 133 182 223 274 339 397
#
# _framework density 21.635131999999999
#
# number of rings (size 3 to 8) (size 9 to 14) (size 15 to 20)
#    0.000    1.333    0.000    3.000   14.000    2.667 
#    0.000    0.000    0.000    0.000    0.000    0.000 
#    0.000    0.000    0.000    0.000    0.000    0.000 
#
# Total GULP energy -134157.371193 kJ/mol
# GULP energy per Si atom -5589.890466 kJ/mol
# Density = 2.158589 g / cm^3
# Si number density = 21.635132 Si / 1000 Ang^3
#
#
#
# Elastic Constant Matrix: (Units=GPa)
#
#
# Indices 1 2 3 4 5 6 
#
# 1 107.8633 18.8813 6.2728 0.0000 0.0000 0.0000
# 2 18.8813 96.1211 -12.3611 0.0000 0.0000 0.0000
# 3 6.2728 -12.3611 64.4812 0.0000 0.0000 0.0000
# 4 0.0000 0.0000 0.0000 34.4486 0.0000 0.0000
# 5 0.0000 0.0000 0.0000 0.0000 33.1153 0.0000
# 6 0.0000 0.0000 0.0000 0.0000 0.0000 -3.5854
#
#
#
# Elastic Compliance Matrix: (Units=1/GPa)
#
#
# Indices 1 2 3 4 5 6 
#
# 1 0.009713 -0.002081 -0.001344 0.000000 0.000000 0.000000
# 2 -0.002081 0.011112 0.002333 0.000000 0.000000 0.000000
# 3 -0.001344 0.002333 0.016086 0.000000 0.000000 0.000000
# 4 0.000000 0.000000 0.000000 0.029029 0.000000 0.000000
# 5 0.000000 0.000000 0.000000 0.000000 0.030198 0.000000
# 6 0.000000 0.000000 0.000000 0.000000 0.000000 -0.278912
#
#
# Mechanical properties :
#
#
# Convention : Reuss Voigt Hill
#
# Bulk Modulus (GPa) = 28.79530 32.67242 30.73386
# Shear Modulus (GPa) = -29.58341 29.84054 0.12857
#
# Velocity S-wave (km/s) = -3.70182 3.71787 0.24404
# Velocity P-wave (km/s) = 2.22101 5.79348 3.78362
#
# Compressibility (1/GPa) = 0.03472789
#
# Stress axis : x y z
#
# Youngs Moduli (GPa) = 102.95060 89.99067 62.16476
#
# Poissons Ratio (x) = 0.18726 0.08354
# Poissons Ratio (y) = 0.21422 -0.14501
# Poissons Ratio (z) = 0.13835 -0.20992
#
# Static dielectric constant tensor:
#      x y z
#    x 1.786540 0.000000 0.000000 
#    y 0.000000 1.700840 0.000000 
#    z 0.000000 0.000000 1.765230 
# 
# From -- ./inp_files/1438.got.cif
#   From: 2010.05.17/outbox.cif.g08.bks.cpg/sg29_1_cif.got.tgz:1438.got - 2010.06.04 01:19:37.
