data_PCOD9341319
_publ_section_title
;
Structure prediction by ZEFSAII (Michael W. Deem and Ramdas Pophale) SiO2 
 PCOD9341319
Probable space group: P C A 21
;
_chemical_formula_sum "Si O2"
_cell_formula_units_Z 28
_cell_length_a 26.440235
_cell_length_b 9.127459
_cell_length_c 5.517789
_cell_angle_alpha 90.000000
_cell_angle_beta 90.000000
_cell_angle_gamma 90.000000
_cell_volume 1331.619943
_symmetry_space_group_name_H-M "P C A 21"
_symmetry_group_IT_number 29
_symmetry_cell_setting 'orthorhombic'
loop_
_space_group_symop_operation_xyz
x,y,z
-x,-y,1/2+z
1/2-x,y,1/2+z
1/2+x,-y,z
loop_
_atom_site_type_symbol
_atom_site_label
_atom_site_fract_x
_atom_site_fract_y
_atom_site_fract_z
Si Si1 0.577356 0.593444 0.709230
Si Si2 0.279837 0.691328 0.648061
Si Si3 0.967127 0.343319 0.552533
Si Si4 0.528640 0.017925 0.076114
Si Si5 0.120407 0.531737 0.312617
Si Si6 0.116289 0.208449 0.085624
Si Si7 0.220764 0.042405 0.152004
O O1 0.527574 0.648205 0.566648
O O2 0.622784 0.497731 0.596474
O O3 0.550951 0.475906 0.885202
O O4 0.603405 0.737229 0.815652
O O5 0.253666 0.655476 0.389287
O O6 0.333252 0.610968 0.687939
O O7 0.288073 0.866951 0.649246
O O8 0.953103 0.177790 0.486602
O O9 0.932328 0.380069 0.785026
O O10 0.499385 0.042374 0.333155
O O11 0.572292 0.904788 0.147978
O O12 0.114960 0.364602 0.220664
O O13 0.169130 0.130531 0.123180
O O14 0.245890 0.076772 0.412611
#
# Coordination Sequence:
#
# PCOD9341319 Si02
#       7
#     4   4   4   4   4   4   4
#     4  11  23  42  65  98 137 182 233 276 346 406
#     4  10  24  47  72 103 136 176 235 286 344 418
#     4  11  23  41  66  93 139 182 228 281 332 411
#     4  12  27  43  67  99 137 183 228 278 339 405
#     4  11  25  42  69  99 134 187 224 287 344 406
#     4  11  26  44  66 103 141 178 235 286 346 413
#     4  10  24  47  73  99 136 182 227 286 351 411
#
# _framework density 21.027018999999999
#
# number of rings (size 3 to 8) (size 9 to 14) (size 15 to 20)
#    0.000    1.143    2.857    1.714   10.000    1.143 
#    2.571    0.000    0.000    0.000    0.000    0.000 
#    0.000    0.000    0.000    0.000    0.000    0.000 
#
# Total GULP energy -155980.478585 kJ/mol
# GULP energy per Si atom -5570.731378 kJ/mol
# Density = 2.097916 g / cm^3
# Si number density = 21.027019 Si / 1000 Ang^3
#
#
#
# Elastic Constant Matrix: (Units=GPa)
#
#
# Indices 1 2 3 4 5 6 
#
# 1 126.3439 56.8814 60.1471 0.0000 0.0000 0.0000
# 2 56.8814 69.7552 22.4987 0.0000 0.0000 0.0000
# 3 60.1471 22.4987 86.6454 0.0000 0.0000 0.0000
# 4 0.0000 0.0000 0.0000 24.4675 0.0000 0.0000
# 5 0.0000 0.0000 0.0000 0.0000 22.7362 0.0000
# 6 0.0000 0.0000 0.0000 0.0000 0.0000 36.8658
#
#
#
# Elastic Compliance Matrix: (Units=1/GPa)
#
#
# Indices 1 2 3 4 5 6 
#
# 1 0.017256 -0.011141 -0.009086 0.000000 0.000000 0.000000
# 2 -0.011141 0.022839 0.001803 0.000000 0.000000 0.000000
# 3 -0.009086 0.001803 0.017380 0.000000 0.000000 0.000000
# 4 0.000000 0.000000 0.000000 0.040871 0.000000 0.000000
# 5 0.000000 0.000000 0.000000 0.000000 0.043983 0.000000
# 6 0.000000 0.000000 0.000000 0.000000 0.000000 0.027125
#
#
# Mechanical properties :
#
#
# Convention : Reuss Voigt Hill
#
# Bulk Modulus (GPa) = 48.47698 62.42209 55.44954
# Shear Modulus (GPa) = 23.45474 26.36172 24.90823
#
# Velocity S-wave (km/s) = 3.34347 3.54461 3.44551
# Velocity P-wave (km/s) = 6.16520 6.81934 6.50051
#
# Compressibility (1/GPa) = 0.02062835
#
# Stress axis : x y z
#
# Youngs Moduli (GPa) = 57.95096 43.78499 57.53664
#
# Poissons Ratio (x) = 0.48780 0.52277
# Poissons Ratio (y) = 0.64562 -0.10375
# Poissons Ratio (z) = 0.52653 -0.07895
#
# Static dielectric constant tensor:
#      x y z
#    x 1.770200 0.000000 0.000000 
#    y 0.000000 1.729640 0.000000 
#    z 0.000000 0.000000 2.061230 
# 
# From -- ./inp_files/655.got.cif
#   From: 2010.05.17/outbox.cif.g08.bks.cpg/sg29_1_cif.got.tgz:655.got - 2010.06.04 01:19:37.
