data_PCOD9341093
_publ_section_title
;
Structure prediction by ZEFSAII (Michael W. Deem and Ramdas Pophale) SiO2 
 PCOD9341093
Probable space group: P C A 21
;
_chemical_formula_sum "Si O2"
_cell_formula_units_Z 24
_cell_length_a 14.545649
_cell_length_b 12.701733
_cell_length_c 5.298431
_cell_angle_alpha 90.000000
_cell_angle_beta 90.000000
_cell_angle_gamma 90.000000
_cell_volume 978.911354
_symmetry_space_group_name_H-M "P C A 21"
_symmetry_group_IT_number 29
_symmetry_cell_setting 'orthorhombic'
loop_
_space_group_symop_operation_xyz
x,y,z
-x,-y,1/2+z
1/2-x,y,1/2+z
1/2+x,-y,z
loop_
_atom_site_type_symbol
_atom_site_label
_atom_site_fract_x
_atom_site_fract_y
_atom_site_fract_z
Si Si1 0.788231 0.880852 0.129530
Si Si2 0.943216 0.510274 0.872042
Si Si3 0.943093 0.996118 0.371365
Si Si4 0.144278 0.788079 0.998453
Si Si5 0.289538 0.365292 0.061206
Si Si6 0.854196 0.297447 0.998007
O O1 0.720268 0.926075 0.346674
O O2 0.885821 0.899622 0.257627
O O3 0.769910 0.757852 0.093120
O O4 0.868169 0.416637 0.910813
O O5 0.981616 0.509152 0.590283
O O6 0.889677 0.615422 0.948638
O O7 0.872283 0.093062 0.413598
O O8 0.990138 0.973730 0.639030
O O9 0.102875 0.718375 0.773116
O O10 0.249808 0.746951 0.026811
O O11 0.101638 0.770482 0.273435
O O12 0.277043 0.410328 0.342309
#
# Coordination Sequence:
#
# PCOD9341093 Si02
#       6
#     4   4   4   4   4   4
#     4  10  23  43  70  94 127 181 236 279 335 428
#     4  12  26  42  68 105 144 182 229 304 359 407
#     4  12  26  42  68 105 144 182 229 304 359 407
#     4  10  23  41  66  99 134 185 236 284 347 432
#     4  10  23  43  70  94 127 181 236 279 335 428
#     4  10  23  41  66  99 134 185 236 284 347 432
#
# _framework density 24.517029999999998
#
# number of rings (size 3 to 8) (size 9 to 14) (size 15 to 20)
#    0.000    1.333    0.000    4.000    9.333    4.000 
#    0.000    0.000    0.000    0.000    0.000    0.000 
#    0.000    0.000    0.000    0.000    0.000    0.000 
#
# Total GULP energy -133995.666557 kJ/mol
# GULP energy per Si atom -5583.152773 kJ/mol
# Density = 2.446123 g / cm^3
# Si number density = 24.517030 Si / 1000 Ang^3
#
#
#
# Elastic Constant Matrix: (Units=GPa)
#
#
# Indices 1 2 3 4 5 6 
#
# 1 73.9351 10.5563 37.0862 0.0000 0.0000 0.0000
# 2 10.5563 20.1567 23.7241 0.0000 0.0000 0.0000
# 3 37.0862 23.7241 159.1662 0.0000 0.0000 0.0000
# 4 0.0000 0.0000 0.0000 28.9236 0.0000 0.0000
# 5 0.0000 0.0000 0.0000 0.0000 80.0689 0.0000
# 6 0.0000 0.0000 0.0000 0.0000 0.0000 31.6253
#
#
#
# Elastic Compliance Matrix: (Units=1/GPa)
#
#
# Indices 1 2 3 4 5 6 
#
# 1 0.015681 -0.004744 -0.002947 0.000000 0.000000 0.000000
# 2 -0.004744 0.061602 -0.008077 0.000000 0.000000 0.000000
# 3 -0.002947 -0.008077 0.008173 0.000000 0.000000 0.000000
# 4 0.000000 0.000000 0.000000 0.034574 0.000000 0.000000
# 5 0.000000 0.000000 0.000000 0.000000 0.012489 0.000000
# 6 0.000000 0.000000 0.000000 0.000000 0.000000 0.031620
#
#
# Mechanical properties :
#
#
# Convention : Reuss Voigt Hill
#
# Bulk Modulus (GPa) = 18.54555 43.99904 31.27229
# Shear Modulus (GPa) = 23.40306 40.24965 31.82635
#
# Velocity S-wave (km/s) = 3.09295 4.05619 3.60687
# Velocity P-wave (km/s) = 4.50954 6.31840 5.48899
#
# Compressibility (1/GPa) = 0.05392130
#
# Stress axis : x y z
#
# Youngs Moduli (GPa) = 63.77254 16.23326 122.35239
#
# Poissons Ratio (x) = 0.07701 0.36051
# Poissons Ratio (y) = 0.30255 0.98818
# Poissons Ratio (z) = 0.18791 0.13111
#
# Static dielectric constant tensor:
#      x y z
#    x -12.221450 0.000000 0.000000 
#    y 0.000000 1.956560 0.000000 
#    z 0.000000 0.000000 2.039830 
# 
# From -- ./inp_files/196.got.cif
#   From: 2010.05.17/outbox.cif.g08.bks.cpg/sg29_1_cif.got.tgz:196.got - 2010.06.04 01:19:37.
