data_PCOD9341543
_publ_section_title
;
Structure prediction by ZEFSAII (Michael W. Deem and Ramdas Pophale) SiO2 
 PCOD9341543
Probable space group: P C A 21
;
_chemical_formula_sum "Si O2"
_cell_formula_units_Z 20
_cell_length_a 9.873436
_cell_length_b 7.193777
_cell_length_c 10.798332
_cell_angle_alpha 90.000000
_cell_angle_beta 90.000000
_cell_angle_gamma 90.000000
_cell_volume 766.976332
_symmetry_space_group_name_H-M "P C A 21"
_symmetry_group_IT_number 29
_symmetry_cell_setting 'orthorhombic'
loop_
_space_group_symop_operation_xyz
x,y,z
-x,-y,1/2+z
1/2-x,y,1/2+z
1/2+x,-y,z
loop_
_atom_site_type_symbol
_atom_site_label
_atom_site_fract_x
_atom_site_fract_y
_atom_site_fract_z
Si Si1 0.490737 0.428110 0.408770
Si Si2 0.669400 0.206752 0.566431
Si Si3 0.021384 0.049694 0.253331
Si Si4 0.213086 0.099576 0.911841
Si Si5 0.064885 0.638849 0.151510
O O1 0.534598 0.175455 0.643908
O O2 0.356158 0.300888 0.423550
O O3 0.490294 0.578787 0.517639
O O4 0.513476 0.483513 0.267102
O O5 0.735795 0.007183 0.534376
O O6 0.774040 0.341517 0.633899
O O7 0.904000 0.033835 0.356630
O O8 0.161735 0.103346 0.316692
O O9 0.023115 0.844896 0.192729
O O10 0.619960 0.296815 0.438887
#
# Coordination Sequence:
#
# PCOD9341543 Si02
#       5
#     4   4   4   4   4
#     4  11  27  50  77 116 163 217 263 341 423 484
#     4  12  23  48  77 114 150 213 279 343 392 501
#     4  11  23  46  79 111 154 207 278 333 396 494
#     4  11  23  47  79 112 150 210 275 331 405 489
#     4  11  26  49  76 117 165 211 269 340 416 484
#
# _framework density 26.076422000000001
#
# number of rings (size 3 to 8) (size 9 to 14) (size 15 to 20)
#    0.000    0.800    6.000    1.200    0.000    4.800 
#    7.200    0.000    0.000    0.000    0.000    0.000 
#    0.000    0.000    0.000    0.000    0.000    0.000 
#
# Total GULP energy -112083.037015 kJ/mol
# GULP energy per Si atom -5604.151851 kJ/mol
# Density = 2.601707 g / cm^3
# Si number density = 26.076422 Si / 1000 Ang^3
#
#
#
# Elastic Constant Matrix: (Units=GPa)
#
#
# Indices 1 2 3 4 5 6 
#
# 1 140.4992 28.1761 64.5521 0.0000 0.0000 0.0000
# 2 28.1761 73.3873 71.4401 0.0000 0.0000 0.0000
# 3 64.5521 71.4401 176.0865 0.0000 0.0000 0.0000
# 4 0.0000 0.0000 0.0000 51.1950 0.0000 0.0000
# 5 0.0000 0.0000 0.0000 0.0000 68.3894 0.0000
# 6 0.0000 0.0000 0.0000 0.0000 0.0000 18.0519
#
#
#
# Elastic Compliance Matrix: (Units=1/GPa)
#
#
# Indices 1 2 3 4 5 6 
#
# 1 0.008566 -0.000383 -0.002985 0.000000 0.000000 0.000000
# 2 -0.000383 0.022538 -0.009003 0.000000 0.000000 0.000000
# 3 -0.002985 -0.009003 0.010426 0.000000 0.000000 0.000000
# 4 0.000000 0.000000 0.000000 0.019533 0.000000 0.000000
# 5 0.000000 0.000000 0.000000 0.000000 0.014622 0.000000
# 6 0.000000 0.000000 0.000000 0.000000 0.000000 0.055396
#
#
# Mechanical properties :
#
#
# Convention : Reuss Voigt Hill
#
# Bulk Modulus (GPa) = 59.56976 79.81218 69.69097
# Shear Modulus (GPa) = 30.97528 42.58088 36.77808
#
# Velocity S-wave (km/s) = 3.45028 4.04533 3.75960
# Velocity P-wave (km/s) = 6.22627 7.24521 6.75498
#
# Compressibility (1/GPa) = 0.01678704
#
# Stress axis : x y z
#
# Youngs Moduli (GPa) = 116.74593 44.36953 95.91467
#
# Poissons Ratio (x) = 0.01700 0.28627
# Poissons Ratio (y) = 0.04474 0.86356
# Poissons Ratio (z) = 0.34844 0.39948
#
# Static dielectric constant tensor:
#      x y z
#    x 2.009610 0.000000 0.000000 
#    y 0.000000 2.109020 0.000000 
#    z 0.000000 0.000000 2.071790 
# 
# From -- ./inp_files/3057.got.cif
#   From: 2010.05.17/outbox.cif.g08.bks.cpg/sg29_2_cif.got.tgz:3057.got - 2010.06.04 01:19:37.
