data_PCOD9341610
_publ_section_title
;
Structure prediction by ZEFSAII (Michael W. Deem and Ramdas Pophale) SiO2 
 PCOD9341610
Probable space group: P C A 21
;
_chemical_formula_sum "Si O2"
_cell_formula_units_Z 20
_cell_length_a 17.576074
_cell_length_b 6.562542
_cell_length_c 7.558412
_cell_angle_alpha 90.000000
_cell_angle_beta 90.000000
_cell_angle_gamma 90.000000
_cell_volume 871.815386
_symmetry_space_group_name_H-M "P C A 21"
_symmetry_group_IT_number 29
_symmetry_cell_setting 'orthorhombic'
loop_
_space_group_symop_operation_xyz
x,y,z
-x,-y,1/2+z
1/2-x,y,1/2+z
1/2+x,-y,z
loop_
_atom_site_type_symbol
_atom_site_label
_atom_site_fract_x
_atom_site_fract_y
_atom_site_fract_z
Si Si1 0.928813 0.547201 0.059210
Si Si2 0.928447 0.962821 0.908352
Si Si3 0.329024 0.686783 0.788462
Si Si4 0.060430 0.252711 0.034618
Si Si5 0.661103 0.442593 0.898435
O O1 0.894441 0.431125 0.229136
O O2 0.013731 0.465375 0.039628
O O3 0.924434 0.791205 0.060240
O O4 0.881594 0.475517 0.889357
O O5 0.935020 0.844440 0.725405
O O6 0.854572 0.105321 0.884989
O O7 0.003269 0.102742 0.930971
O O8 0.345355 0.690436 0.578213
O O9 0.243600 0.612317 0.821824
O O10 0.142363 0.324577 0.962185
#
# Coordination Sequence:
#
# PCOD9341610 Si02
#       5
#     4   4   4   4   4
#     4  11  24  48  73 105 147 191 250 314 379 435
#     4  11  25  47  72 120 141 196 261 316 375 462
#     4  11  26  48  68 104 152 196 248 298 383 460
#     4  11  25  42  78 106 149 189 254 313 384 439
#     4  12  24  49  73  99 153 202 235 313 377 452
#
# _framework density 22.940635
#
# number of rings (size 3 to 8) (size 9 to 14) (size 15 to 20)
#    0.000    0.800    4.000    2.400    8.400    0.000 
#    7.200    0.000    0.000    0.000    0.000    0.000 
#    0.000    0.000    0.000    0.000    0.000    0.000 
#
# Total GULP energy -111659.929800 kJ/mol
# GULP energy per Si atom -5582.996490 kJ/mol
# Density = 2.288842 g / cm^3
# Si number density = 22.940635 Si / 1000 Ang^3
#
#
#
# Elastic Constant Matrix: (Units=GPa)
#
#
# Indices 1 2 3 4 5 6 
#
# 1 104.4962 59.7568 27.3832 0.0000 0.0000 0.0000
# 2 59.7568 113.7270 22.3335 0.0000 0.0000 0.0000
# 3 27.3832 22.3335 113.8026 0.0000 0.0000 0.0000
# 4 0.0000 0.0000 0.0000 -1.4241 0.0000 0.0000
# 5 0.0000 0.0000 0.0000 0.0000 28.8467 0.0000
# 6 0.0000 0.0000 0.0000 0.0000 0.0000 18.8130
#
#
#
# Elastic Compliance Matrix: (Units=1/GPa)
#
#
# Indices 1 2 3 4 5 6 
#
# 1 0.014112 -0.007019 -0.002018 0.000000 0.000000 0.000000
# 2 -0.007019 0.012636 -0.000791 0.000000 0.000000 0.000000
# 3 -0.002018 -0.000791 0.009428 0.000000 0.000000 0.000000
# 4 0.000000 0.000000 0.000000 -0.702216 0.000000 0.000000
# 5 0.000000 0.000000 0.000000 0.000000 0.034666 0.000000
# 6 0.000000 0.000000 0.000000 0.000000 0.000000 0.053155
#
#
# Mechanical properties :
#
#
# Convention : Reuss Voigt Hill
#
# Bulk Modulus (GPa) = 60.53099 61.21921 60.87510
# Shear Modulus (GPa) = -9.04068 24.08397 7.52164
#
# Velocity S-wave (km/s) = -1.98732 3.24364 1.81269
# Velocity P-wave (km/s) = 4.60188 6.38530 5.56549
#
# Compressibility (1/GPa) = 0.01652046
#
# Stress axis : x y z
#
# Youngs Moduli (GPa) = 70.85967 79.13697 106.06693
#
# Poissons Ratio (x) = 0.55545 0.21407
# Poissons Ratio (y) = 0.49736 0.08390
# Poissons Ratio (z) = 0.14302 0.06259
#
# Static dielectric constant tensor:
#      x y z
#    x 1.824830 0.000000 0.000000 
#    y 0.000000 1.914900 0.000000 
#    z 0.000000 0.000000 1.903220 
# 
# From -- ./inp_files/1962.got.cif
#   From: 2010.05.17/outbox.cif.g08.bks.cpg/sg29_1_cif.got.tgz:1962.got - 2010.06.04 01:19:37.
