data_PCOD9341524
_publ_section_title
;
Structure prediction by ZEFSAII (Michael W. Deem and Ramdas Pophale) SiO2 
 PCOD9341524
Probable space group: P C A 21
;
_chemical_formula_sum "Si O2"
_cell_formula_units_Z 24
_cell_length_a 14.792713
_cell_length_b 5.564866
_cell_length_c 10.912211
_cell_angle_alpha 90.000000
_cell_angle_beta 90.000000
_cell_angle_gamma 90.000000
_cell_volume 898.287378
_symmetry_space_group_name_H-M "P C A 21"
_symmetry_group_IT_number 29
_symmetry_cell_setting 'orthorhombic'
loop_
_space_group_symop_operation_xyz
x,y,z
-x,-y,1/2+z
1/2-x,y,1/2+z
1/2+x,-y,z
loop_
_atom_site_type_symbol
_atom_site_label
_atom_site_fract_x
_atom_site_fract_y
_atom_site_fract_z
Si Si1 0.662753 0.273913 0.505180
Si Si2 0.111206 0.919501 0.183878
Si Si3 0.792821 0.183651 0.289174
Si Si4 0.349848 0.259035 0.048132
Si Si5 0.433136 0.195063 0.313191
Si Si6 0.364095 0.398625 0.548037
O O1 0.743919 0.302586 0.406116
O O2 0.682187 0.289165 0.654222
O O3 0.606095 0.513488 0.480814
O O4 0.630561 0.002368 0.496670
O O5 0.207864 0.978811 0.244757
O O6 0.122997 0.660384 0.112235
O O7 0.035825 0.857762 0.283374
O O8 0.086701 0.167408 0.114041
O O9 0.877730 0.045898 0.344470
O O10 0.389147 0.256886 0.183276
O O11 0.241299 0.306852 0.044758
O O12 0.405713 0.390103 0.412479
#
# Coordination Sequence:
#
# PCOD9341524 Si02
#       6
#     4   4   4   4   4   4
#     4  11  24  39  76 100 144 194 253 302 380 445
#     4  12  28  47  74 113 155 195 263 319 384 468
#     4  11  23  47  70 110 147 202 248 320 372 467
#     4  11  23  44  71 105 139 200 246 305 379 453
#     4  11  27  47  82 109 155 212 253 322 407 454
#     4  12  25  52  71 111 158 195 259 334 372 471
#
# _framework density 26.717509
#
# number of rings (size 3 to 8) (size 9 to 14) (size 15 to 20)
#    0.000    0.667    6.667    0.000    2.333   10.667 
#    0.000    0.000    0.000    0.000    0.000    0.000 
#    0.000    0.000    0.000    0.000    0.000    0.000 
#
# Total GULP energy -133901.694203 kJ/mol
# GULP energy per Si atom -5579.237258 kJ/mol
# Density = 2.665670 g / cm^3
# Si number density = 26.717509 Si / 1000 Ang^3
#
#
#
# Elastic Constant Matrix: (Units=GPa)
#
#
# Indices 1 2 3 4 5 6 
#
# 1 100.2114 19.1037 24.1654 0.0000 0.0000 0.0000
# 2 19.1037 216.4603 60.5814 0.0000 0.0000 0.0000
# 3 24.1654 60.5814 129.6278 0.0000 0.0000 0.0000
# 4 0.0000 0.0000 0.0000 25.8352 0.0000 0.0000
# 5 0.0000 0.0000 0.0000 0.0000 33.7457 0.0000
# 6 0.0000 0.0000 0.0000 0.0000 0.0000 17.2788
#
#
#
# Elastic Compliance Matrix: (Units=1/GPa)
#
#
# Indices 1 2 3 4 5 6 
#
# 1 0.010484 -0.000435 -0.001751 0.000000 0.000000 0.000000
# 2 -0.000435 0.005333 -0.002411 0.000000 0.000000 0.000000
# 3 -0.001751 -0.002411 0.009168 0.000000 0.000000 0.000000
# 4 0.000000 0.000000 0.000000 0.038707 0.000000 0.000000
# 5 0.000000 0.000000 0.000000 0.000000 0.029633 0.000000
# 6 0.000000 0.000000 0.000000 0.000000 0.000000 0.057874
#
#
# Mechanical properties :
#
#
# Convention : Reuss Voigt Hill
#
# Bulk Modulus (GPa) = 63.33191 72.66672 67.99932
# Shear Modulus (GPa) = 30.18266 38.20187 34.19227
#
# Velocity S-wave (km/s) = 3.36474 3.78543 3.58127
# Velocity P-wave (km/s) = 6.23306 6.80905 6.52741
#
# Compressibility (1/GPa) = 0.01578983
#
# Stress axis : x y z
#
# Youngs Moduli (GPa) = 95.38229 187.51035 109.07827
#
# Poissons Ratio (x) = 0.08160 0.19100
# Poissons Ratio (y) = 0.04151 0.26302
# Poissons Ratio (z) = 0.16702 0.45214
#
# Static dielectric constant tensor:
#      x y z
#    x 2.114400 0.000000 0.000000 
#    y 0.000000 2.385320 0.000000 
#    z 0.000000 0.000000 2.137800 
# 
# From -- ./inp_files/3566.got.cif
#   From: 2010.05.17/outbox.cif.g08.bks.cpg/sg29_2_cif.got.tgz:3566.got - 2010.06.04 01:19:37.
