data_PCOD9341012
_publ_section_title
;
Structure prediction by ZEFSAII (Michael W. Deem and Ramdas Pophale) SiO2 
 PCOD9341012
Probable space group: P C A 21
;
_chemical_formula_sum "Si O2"
_cell_formula_units_Z 32
_cell_length_a 25.096222
_cell_length_b 5.777747
_cell_length_c 9.109700
_cell_angle_alpha 90.000000
_cell_angle_beta 90.000000
_cell_angle_gamma 90.000000
_cell_volume 1320.903051
_symmetry_space_group_name_H-M "P C A 21"
_symmetry_group_IT_number 29
_symmetry_cell_setting 'orthorhombic'
loop_
_space_group_symop_operation_xyz
x,y,z
-x,-y,1/2+z
1/2-x,y,1/2+z
1/2+x,-y,z
loop_
_atom_site_type_symbol
_atom_site_label
_atom_site_fract_x
_atom_site_fract_y
_atom_site_fract_z
Si Si1 0.218304 0.473924 0.998410
Si Si2 0.908753 0.840821 0.209229
Si Si3 0.223656 0.800533 0.718951
Si Si4 0.176171 0.173167 0.507545
Si Si5 0.521539 0.477156 0.874316
Si Si6 0.173783 0.091026 0.197135
Si Si7 0.008366 0.817606 0.602169
Si Si8 0.093660 0.888838 0.998410
O O1 0.205184 0.648970 0.861901
O O2 0.270563 0.314756 0.971323
O O3 0.177342 0.294442 0.074914
O O4 0.240317 0.624954 0.130006
O O5 0.862325 0.705907 0.125733
O O6 0.952848 0.669766 0.270979
O O7 0.940263 0.019405 0.106320
O O8 0.887586 0.989570 0.347372
O O9 0.186887 0.931198 0.596672
O O10 0.267708 0.001290 0.748528
O O11 0.147379 0.152342 0.351652
O O12 0.499692 0.281475 0.766108
O O13 0.484310 0.607470 0.988560
O O14 0.569838 0.360574 0.963773
O O15 0.139641 0.894971 0.117173
O O16 0.956397 0.959882 0.554820
#
# Coordination Sequence:
#
# PCOD9341012 Si02
#       8
#     4   4   4   4   4   4   4   4
#     4  11  24  44  67  95 136 182 226 280 346 404
#     4  10  24  42  66  99 136 178 229 283 339 408
#     4  11  24  44  67  95 136 182 226 280 346 404
#     4  11  25  43  66 102 134 177 232 285 335 417
#     4  10  22  44  70 100 132 190 218 278 356 398
#     4  11  25  43  66 102 134 177 232 285 335 417
#     4  10  22  44  68 100 138 178 224 276 340 414
#     4  10  24  42  66  99 136 178 229 283 339 408
#
# _framework density 24.225850000000001
#
# number of rings (size 3 to 8) (size 9 to 14) (size 15 to 20)
#    0.000    1.500    2.500    0.750    3.500    9.000 
#    2.250    0.000    2.750    0.000    0.000    0.000 
#    0.000    0.000    0.000    0.000    0.000    0.000 
#
# Total GULP energy -178674.439079 kJ/mol
# GULP energy per Si atom -5583.576221 kJ/mol
# Density = 2.417071 g / cm^3
# Si number density = 24.225850 Si / 1000 Ang^3
#
#
#
# Elastic Constant Matrix: (Units=GPa)
#
#
# Indices 1 2 3 4 5 6 
#
# 1 45.4616 10.0159 41.2517 0.0000 0.0000 0.0000
# 2 10.0159 71.8755 26.6642 0.0000 0.0000 0.0000
# 3 41.2517 26.6642 98.5099 0.0000 0.0000 0.0000
# 4 0.0000 0.0000 0.0000 61.4467 0.0000 0.0000
# 5 0.0000 0.0000 0.0000 0.0000 39.4509 0.0000
# 6 0.0000 0.0000 0.0000 0.0000 0.0000 29.4739
#
#
#
# Elastic Compliance Matrix: (Units=1/GPa)
#
#
# Indices 1 2 3 4 5 6 
#
# 1 0.035503 0.000631 -0.015038 0.000000 0.000000 0.000000
# 2 0.000631 0.015477 -0.004454 0.000000 0.000000 0.000000
# 3 -0.015038 -0.004454 0.017654 0.000000 0.000000 0.000000
# 4 0.000000 0.000000 0.000000 0.016274 0.000000 0.000000
# 5 0.000000 0.000000 0.000000 0.000000 0.025348 0.000000
# 6 0.000000 0.000000 0.000000 0.000000 0.000000 0.033928
#
#
# Mechanical properties :
#
#
# Convention : Reuss Voigt Hill
#
# Bulk Modulus (GPa) = 32.34827 41.30117 36.82472
# Shear Modulus (GPa) = 26.01322 35.26862 30.64092
#
# Velocity S-wave (km/s) = 3.28041 3.81967 3.56026
# Velocity P-wave (km/s) = 5.26592 6.04471 5.66871
#
# Compressibility (1/GPa) = 0.03091355
#
# Stress axis : x y z
#
# Youngs Moduli (GPa) = 28.16666 64.61124 56.64418
#
# Poissons Ratio (x) = -0.04080 0.85182
# Poissons Ratio (y) = -0.01778 0.25228
# Poissons Ratio (z) = 0.42357 0.28776
#
# Static dielectric constant tensor:
#      x y z
#    x 1.946350 0.000000 0.000000 
#    y 0.000000 2.023800 0.000000 
#    z 0.000000 0.000000 1.952200 
# 
# From -- ./inp_files/2617.got.cif
#   From: 2010.05.17/outbox.cif.g08.bks.cpg/sg29_2_cif.got.tgz:2617.got - 2010.06.04 01:19:37.
