data_PCOD9341716
_publ_section_title
;
Structure prediction by ZEFSAII (Michael W. Deem and Ramdas Pophale) SiO2 
 PCOD9341716
Probable space group: P C A 21
;
_chemical_formula_sum "Si O2"
_cell_formula_units_Z 24
_cell_length_a 9.604320
_cell_length_b 12.250386
_cell_length_c 8.264302
_cell_angle_alpha 90.000000
_cell_angle_beta 90.000000
_cell_angle_gamma 90.000000
_cell_volume 972.349900
_symmetry_space_group_name_H-M "P C A 21"
_symmetry_group_IT_number 29
_symmetry_cell_setting 'orthorhombic'
loop_
_space_group_symop_operation_xyz
x,y,z
-x,-y,1/2+z
1/2-x,y,1/2+z
1/2+x,-y,z
loop_
_atom_site_type_symbol
_atom_site_label
_atom_site_fract_x
_atom_site_fract_y
_atom_site_fract_z
Si Si1 0.066716 0.041566 0.390410
Si Si2 0.797096 0.305707 0.759319
Si Si3 0.559908 0.683925 0.965412
Si Si4 0.799124 0.061783 0.201610
Si Si5 0.343670 0.274198 0.823080
Si Si6 0.935456 0.423921 0.456338
O O1 0.098303 0.168933 0.415956
O O2 0.905959 0.031525 0.345777
O O3 0.123105 0.972323 0.539105
O O4 0.158608 0.003984 0.236738
O O5 0.737120 0.189116 0.708072
O O6 0.881906 0.365437 0.618176
O O7 0.672009 0.382776 0.819113
O O8 0.907805 0.285986 0.902754
O O9 0.678273 0.721127 0.839283
O O10 0.564334 0.552799 0.975857
O O11 0.603531 0.730522 0.139186
O O12 0.413057 0.379963 0.905814
#
# Coordination Sequence:
#
# PCOD9341716 Si02
#       6
#     4   4   4   4   4   4
#     4  12  28  50  78 112 150 202 259 325 396 462
#     4  12  27  47  78 113 158 205 264 324 390 466
#     4  12  26  46  78 110 160 205 259 317 390 470
#     4  12  28  50  80 111 155 201 261 327 395 466
#     4  12  27  48  73 115 153 203 260 323 386 462
#     4  12  24  47  73 115 156 208 259 320 387 464
#
# _framework density 24.682473000000002
#
# number of rings (size 3 to 8) (size 9 to 14) (size 15 to 20)
#    0.000    0.000    1.667    8.000    7.000    0.000 
#    0.000    0.000    0.000    0.000    0.000    0.000 
#    0.000    0.000    0.000    0.000    0.000    0.000 
#
# Total GULP energy -134817.231337 kJ/mol
# GULP energy per Si atom -5617.384639 kJ/mol
# Density = 2.462629 g / cm^3
# Si number density = 24.682473 Si / 1000 Ang^3
#
#
#
# Elastic Constant Matrix: (Units=GPa)
#
#
# Indices 1 2 3 4 5 6 
#
# 1 119.3394 29.6236 13.3628 0.0000 0.0000 0.0000
# 2 29.6236 109.2080 44.7827 0.0000 0.0000 0.0000
# 3 13.3628 44.7827 100.7679 0.0000 0.0000 0.0000
# 4 0.0000 0.0000 0.0000 36.9600 0.0000 0.0000
# 5 0.0000 0.0000 0.0000 0.0000 38.4942 0.0000
# 6 0.0000 0.0000 0.0000 0.0000 0.0000 34.8684
#
#
#
# Elastic Compliance Matrix: (Units=1/GPa)
#
#
# Indices 1 2 3 4 5 6 
#
# 1 0.008986 -0.002383 -0.000133 0.000000 0.000000 0.000000
# 2 -0.002383 0.011830 -0.004941 0.000000 0.000000 0.000000
# 3 -0.000133 -0.004941 0.012137 0.000000 0.000000 0.000000
# 4 0.000000 0.000000 0.000000 0.027056 0.000000 0.000000
# 5 0.000000 0.000000 0.000000 0.000000 0.025978 0.000000
# 6 0.000000 0.000000 0.000000 0.000000 0.000000 0.028679
#
#
# Mechanical properties :
#
#
# Convention : Reuss Voigt Hill
#
# Bulk Modulus (GPa) = 55.43546 56.09485 55.76516
# Shear Modulus (GPa) = 36.87512 38.16761 37.52137
#
# Velocity S-wave (km/s) = 3.86940 3.93663 3.90316
# Velocity P-wave (km/s) = 6.51699 6.59080 6.55400
#
# Compressibility (1/GPa) = 0.01803900
#
# Stress axis : x y z
#
# Youngs Moduli (GPa) = 111.28579 84.53436 82.39072
#
# Poissons Ratio (x) = 0.20146 0.01092
# Poissons Ratio (y) = 0.26521 0.40711
# Poissons Ratio (z) = 0.01475 0.41770
#
# Static dielectric constant tensor:
#      x y z
#    x 1.917670 0.000000 0.000000 
#    y 0.000000 1.898540 0.000000 
#    z 0.000000 0.000000 2.000980 
# 
# From -- ./inp_files/1120.got.cif
#   From: 2010.05.17/outbox.cif.g08.bks.cpg/sg29_1_cif.got.tgz:1120.got - 2010.06.04 01:19:37.
