data_PCOD9341422
_publ_section_title
;
Structure prediction by ZEFSAII (Michael W. Deem and Ramdas Pophale) SiO2 
 PCOD9341422
Probable space group: P C A 21
;
_chemical_formula_sum "Si O2"
_cell_formula_units_Z 32
_cell_length_a 9.185568
_cell_length_b 17.735165
_cell_length_c 8.569283
_cell_angle_alpha 90.000000
_cell_angle_beta 90.000000
_cell_angle_gamma 90.000000
_cell_volume 1396.001020
_symmetry_space_group_name_H-M "P C A 21"
_symmetry_group_IT_number 29
_symmetry_cell_setting 'orthorhombic'
loop_
_space_group_symop_operation_xyz
x,y,z
-x,-y,1/2+z
1/2-x,y,1/2+z
1/2+x,-y,z
loop_
_atom_site_type_symbol
_atom_site_label
_atom_site_fract_x
_atom_site_fract_y
_atom_site_fract_z
Si Si1 0.436921 0.868605 0.097230
Si Si2 0.857113 0.164590 0.746561
Si Si3 0.654927 0.647382 0.085811
Si Si4 0.567580 0.952267 0.598578
Si Si5 0.456740 0.567205 0.296273
Si Si6 0.796767 0.874369 0.797231
Si Si7 0.100220 0.268752 0.774597
Si Si8 0.293582 0.511239 0.988263
O O1 0.311945 0.839957 0.212691
O O2 0.590047 0.845268 0.168733
O O3 0.451080 0.959210 0.081805
O O4 0.390026 0.840504 0.929094
O O5 0.927128 0.091981 0.660671
O O6 0.951073 0.237947 0.698769
O O7 0.583181 0.683406 0.932282
O O8 0.706258 0.564620 0.031565
O O9 0.544360 0.639575 0.231902
O O10 0.799161 0.688700 0.149405
O O11 0.694148 0.938340 0.724574
O O12 0.619140 0.910161 0.442017
O O13 0.582640 0.511877 0.362713
O O14 0.326680 0.569637 0.422642
O O15 0.376902 0.536615 0.142408
O O16 0.690778 0.805022 0.828417
#
# Coordination Sequence:
#
# PCOD9341422 Si02
#       8
#     4   4   4   4   4   4   4   4
#     4  12  22  39  64  92 129 164 220 289 349 384
#     4  11  25  40  62  90 131 172 217 279 333 397
#     4  12  23  42  74  97 132 183 224 264 322 407
#     4  11  21  38  62  98 120 169 219 275 350 412
#     4  12  23  43  71 109 144 174 214 278 339 391
#     4  11  23  40  65  90 132 169 217 281 327 395
#     4  11  24  45  64  91 128 181 232 251 322 409
#     4  12  23  43  74 107 144 172 217 279 344 385
#
# _framework density 22.922616999999999
#
# number of rings (size 3 to 8) (size 9 to 14) (size 15 to 20)
#    0.000    0.500    3.750    6.750    0.000    0.000 
#    0.000    2.500    0.000    0.000    0.000    0.000 
#    0.000    0.000    0.000    0.000    0.000    0.000 
#
# Total GULP energy -179103.060118 kJ/mol
# GULP energy per Si atom -5596.970629 kJ/mol
# Density = 2.287044 g / cm^3
# Si number density = 22.922617 Si / 1000 Ang^3
#
#
#
# Elastic Constant Matrix: (Units=GPa)
#
#
# Indices 1 2 3 4 5 6 
#
# 1 72.0907 -2.1926 -9.5423 0.0000 0.0000 0.0000
# 2 -2.1926 34.1049 -0.5611 0.0000 0.0000 0.0000
# 3 -9.5423 -0.5611 51.0129 0.0000 0.0000 0.0000
# 4 0.0000 0.0000 0.0000 20.0678 0.0000 0.0000
# 5 0.0000 0.0000 0.0000 0.0000 43.6007 0.0000
# 6 0.0000 0.0000 0.0000 0.0000 0.0000 30.9613
#
#
#
# Elastic Compliance Matrix: (Units=1/GPa)
#
#
# Indices 1 2 3 4 5 6 
#
# 1 0.014255 0.000960 0.002677 0.000000 0.000000 0.000000
# 2 0.000960 0.029391 0.000503 0.000000 0.000000 0.000000
# 3 0.002677 0.000503 0.020109 0.000000 0.000000 0.000000
# 4 0.000000 0.000000 0.000000 0.049831 0.000000 0.000000
# 5 0.000000 0.000000 0.000000 0.000000 0.022935 0.000000
# 6 0.000000 0.000000 0.000000 0.000000 0.000000 0.032298
#
#
# Mechanical properties :
#
#
# Convention : Reuss Voigt Hill
#
# Bulk Modulus (GPa) = 13.88186 14.73516 14.30851
# Shear Modulus (GPa) = 27.09271 30.22626 28.65948
#
# Velocity S-wave (km/s) = 3.44164 3.63522 3.53975
# Velocity P-wave (km/s) = 4.67571 4.90530 4.79188
#
# Compressibility (1/GPa) = 0.07203646
#
# Stress axis : x y z
#
# Youngs Moduli (GPa) = 70.15089 34.02364 49.72853
#
# Poissons Ratio (x) = -0.03268 -0.13313
# Poissons Ratio (y) = -0.06738 -0.02501
# Poissons Ratio (z) = -0.18780 -0.01711
#
# Static dielectric constant tensor:
#      x y z
#    x 1.887990 0.000000 0.000000 
#    y 0.000000 1.907740 0.000000 
#    z 0.000000 0.000000 1.861710 
# 
# From -- ./inp_files/1261.got.cif
#   From: 2010.05.17/outbox.cif.g08.bks.cpg/sg29_1_cif.got.tgz:1261.got - 2010.06.04 01:19:37.
