data_PCOD9341299
_publ_section_title
;
Structure prediction by ZEFSAII (Michael W. Deem and Ramdas Pophale) SiO2 
 PCOD9341299
Probable space group: P C A 21
;
_chemical_formula_sum "Si O2"
_cell_formula_units_Z 24
_cell_length_a 11.110803
_cell_length_b 6.619618
_cell_length_c 13.806622
_cell_angle_alpha 90.000000
_cell_angle_beta 90.000000
_cell_angle_gamma 90.000000
_cell_volume 1015.466990
_symmetry_space_group_name_H-M "P C A 21"
_symmetry_group_IT_number 29
_symmetry_cell_setting 'orthorhombic'
loop_
_space_group_symop_operation_xyz
x,y,z
-x,-y,1/2+z
1/2-x,y,1/2+z
1/2+x,-y,z
loop_
_atom_site_type_symbol
_atom_site_label
_atom_site_fract_x
_atom_site_fract_y
_atom_site_fract_z
Si Si1 0.656488 0.256318 0.130510
Si Si2 0.699750 0.625234 0.696946
Si Si3 0.052075 0.457124 0.522203
Si Si4 0.597758 0.925823 0.278153
Si Si5 0.913395 0.367260 0.335583
Si Si6 0.698168 0.174518 0.454608
O O1 0.749996 0.396445 0.186571
O O2 0.569949 0.421997 0.081264
O O3 0.592415 0.112209 0.205089
O O4 0.716979 0.121111 0.046003
O O5 0.647416 0.662839 0.589456
O O6 0.798756 0.776239 0.737214
O O7 0.599342 0.577217 0.778319
O O8 0.098348 0.682533 0.504072
O O9 0.018775 0.383245 0.415910
O O10 0.468844 0.816113 0.274723
O O11 0.639747 0.012090 0.383025
O O12 0.789711 0.309837 0.389406
#
# Coordination Sequence:
#
# PCOD9341299 Si02
#       6
#     4   4   4   4   4   4
#     4  10  24  48  70 108 145 195 247 301 380 450
#     4  11  24  46  71 104 148 196 243 312 368 450
#     4  10  24  45  75 100 149 192 242 304 381 442
#     4  12  26  43  78 108 146 200 254 310 371 460
#     4  11  24  45  71 108 143 199 246 303 386 437
#     4  10  24  47  69 108 147 186 248 310 370 451
#
# _framework density 23.634444999999999
#
# number of rings (size 3 to 8) (size 9 to 14) (size 15 to 20)
#    0.000    1.333    1.667    2.000    7.000    0.000 
#   18.000    0.000    0.000    0.000    0.000    0.000 
#    0.000    0.000    0.000    0.000    0.000    0.000 
#
# Total GULP energy -134001.569229 kJ/mol
# GULP energy per Si atom -5583.398718 kJ/mol
# Density = 2.358065 g / cm^3
# Si number density = 23.634445 Si / 1000 Ang^3
#
#
#
# Elastic Constant Matrix: (Units=GPa)
#
#
# Indices 1 2 3 4 5 6 
#
# 1 65.6352 40.5660 28.7660 0.0000 0.0000 0.0000
# 2 40.5660 64.1787 44.0098 0.0000 0.0000 0.0000
# 3 28.7660 44.0098 98.8362 0.0000 0.0000 0.0000
# 4 0.0000 0.0000 0.0000 40.1995 0.0000 0.0000
# 5 0.0000 0.0000 0.0000 0.0000 31.3053 0.0000
# 6 0.0000 0.0000 0.0000 0.0000 0.0000 37.9683
#
#
#
# Elastic Compliance Matrix: (Units=1/GPa)
#
#
# Indices 1 2 3 4 5 6 
#
# 1 0.025012 -0.015572 -0.000346 0.000000 0.000000 0.000000
# 2 -0.015572 0.032126 -0.009773 0.000000 0.000000 0.000000
# 3 -0.000346 -0.009773 0.014570 0.000000 0.000000 0.000000
# 4 0.000000 0.000000 0.000000 0.024876 0.000000 0.000000
# 5 0.000000 0.000000 0.000000 0.000000 0.031943 0.000000
# 6 0.000000 0.000000 0.000000 0.000000 0.000000 0.026338
#
#
# Mechanical properties :
#
#
# Convention : Reuss Voigt Hill
#
# Bulk Modulus (GPa) = 49.19741 50.59264 49.89502
# Shear Modulus (GPa) = 23.47179 29.58185 26.52682
#
# Velocity S-wave (km/s) = 3.15480 3.54169 3.35383
# Velocity P-wave (km/s) = 5.84222 6.17880 6.01286
#
# Compressibility (1/GPa) = 0.02032627
#
# Stress axis : x y z
#
# Youngs Moduli (GPa) = 39.98122 31.12738 68.63459
#
# Poissons Ratio (x) = 0.48473 0.02371
# Poissons Ratio (y) = 0.62261 0.67075
# Poissons Ratio (z) = 0.01381 0.30420
#
# Static dielectric constant tensor:
#      x y z
#    x 1.911520 0.000000 0.000000 
#    y 0.000000 1.891340 0.000000 
#    z 0.000000 0.000000 1.983940 
# 
# From -- ./inp_files/4458.got.cif
#   From: 2010.05.17/outbox.cif.g08.bks.cpg/sg29_3_cif.got.tgz:4458.got - 2010.06.04 01:19:37.
