data_PCOD9341276
_publ_section_title
;
Structure prediction by ZEFSAII (Michael W. Deem and Ramdas Pophale) SiO2 
 PCOD9341276
Probable space group: P C A 21
;
_chemical_formula_sum "Si O2"
_cell_formula_units_Z 28
_cell_length_a 14.773520
_cell_length_b 5.182840
_cell_length_c 15.081356
_cell_angle_alpha 90.000000
_cell_angle_beta 90.000000
_cell_angle_gamma 90.000000
_cell_volume 1154.761186
_symmetry_space_group_name_H-M "P C A 21"
_symmetry_group_IT_number 29
_symmetry_cell_setting 'orthorhombic'
loop_
_space_group_symop_operation_xyz
x,y,z
-x,-y,1/2+z
1/2-x,y,1/2+z
1/2+x,-y,z
loop_
_atom_site_type_symbol
_atom_site_label
_atom_site_fract_x
_atom_site_fract_y
_atom_site_fract_z
Si Si1 0.605602 0.525082 0.907570
Si Si2 0.992957 0.350771 0.065607
Si Si3 0.167038 0.269947 0.729422
Si Si4 0.209319 0.685268 0.618732
Si Si5 0.481227 0.879490 0.675681
Si Si6 0.204481 0.959785 0.959317
Si Si7 0.191996 0.910149 0.288902
O O1 0.613396 0.561176 0.802598
O O2 0.623982 0.224812 0.924995
O O3 0.677474 0.739402 0.948163
O O4 0.517735 0.599394 0.963888
O O5 0.015529 0.608000 0.122810
O O6 0.889602 0.271785 0.078629
O O7 0.045455 0.111156 0.109782
O O8 0.199199 0.378739 0.634749
O O9 0.084053 0.075187 0.709955
O O10 0.260783 0.186687 0.773495
O O11 0.274237 0.839660 0.554387
O O12 0.245385 0.755507 0.717655
O O13 0.409344 0.877965 0.755462
O O14 0.285236 0.872366 0.891712
#
# Coordination Sequence:
#
# PCOD9341276 Si02
#       7
#     4   4   4   4   4   4   4
#     4  11  23  44  64  97 133 175 225 281 335 403
#     4  11  24  42  66 100 131 180 220 279 337 400
#     4  10  24  44  68  95 142 176 223 284 342 398
#     4  11  23  43  67  97 139 173 226 280 336 403
#     4  11  25  41  69  99 131 180 223 270 346 401
#     4  11  26  40  70 100 127 181 226 275 339 404
#     4  11  23  44  68  98 135 177 225 279 337 403
#
# _framework density 24.247436
#
# number of rings (size 3 to 8) (size 9 to 14) (size 15 to 20)
#    0.000    1.143    2.857    2.571    8.000    0.000 
#    0.000    0.000    3.143    0.000    0.000    0.000 
#    0.000    0.000    0.000    0.000    0.000    0.000 
#
# Total GULP energy -155908.964148 kJ/mol
# GULP energy per Si atom -5568.177291 kJ/mol
# Density = 2.419225 g / cm^3
# Si number density = 24.247436 Si / 1000 Ang^3
#
#
#
# Elastic Constant Matrix: (Units=GPa)
#
#
# Indices 1 2 3 4 5 6 
#
# 1 56.1720 14.7151 -8.0160 0.0000 0.0000 0.0000
# 2 14.7151 55.4748 11.2274 0.0000 0.0000 0.0000
# 3 -8.0160 11.2274 71.0478 0.0000 0.0000 0.0000
# 4 0.0000 0.0000 0.0000 22.2562 0.0000 0.0000
# 5 0.0000 0.0000 0.0000 0.0000 27.0158 0.0000
# 6 0.0000 0.0000 0.0000 0.0000 0.0000 20.2148
#
#
#
# Elastic Compliance Matrix: (Units=1/GPa)
#
#
# Indices 1 2 3 4 5 6 
#
# 1 0.019798 -0.005892 0.003165 0.000000 0.000000 0.000000
# 2 -0.005892 0.020375 -0.003885 0.000000 0.000000 0.000000
# 3 0.003165 -0.003885 0.015046 0.000000 0.000000 0.000000
# 4 0.000000 0.000000 0.000000 0.044931 0.000000 0.000000
# 5 0.000000 0.000000 0.000000 0.000000 0.037015 0.000000
# 6 0.000000 0.000000 0.000000 0.000000 0.000000 0.049469
#
#
# Mechanical properties :
#
#
# Convention : Reuss Voigt Hill
#
# Bulk Modulus (GPa) = 23.81223 24.28307 24.04765
# Shear Modulus (GPa) = 23.38018 24.88189 24.13103
#
# Velocity S-wave (km/s) = 3.10858 3.20686 3.15810
# Velocity P-wave (km/s) = 4.76720 4.87323 4.82050
#
# Compressibility (1/GPa) = 0.04199523
#
# Stress axis : x y z
#
# Youngs Moduli (GPa) = 50.51119 49.07906 66.46297
#
# Poissons Ratio (x) = 0.28917 -0.21034
# Poissons Ratio (y) = 0.29761 0.25818
# Poissons Ratio (z) = -0.15986 0.19065
#
# Static dielectric constant tensor:
#      x y z
#    x 1.925290 0.000000 0.000000 
#    y 0.000000 2.217390 0.000000 
#    z 0.000000 0.000000 1.977790 
# 
# From -- ./inp_files/4649.got.cif
#   From: 2010.05.17/outbox.cif.g08.bks.cpg/sg29_3_cif.got.tgz:4649.got - 2010.06.04 01:19:37.
