data_PCOD9341403
_publ_section_title
;
Structure prediction by ZEFSAII (Michael W. Deem and Ramdas Pophale) SiO2 
 PCOD9341403
Probable space group: P C A 21
;
_chemical_formula_sum "Si O2"
_cell_formula_units_Z 32
_cell_length_a 14.160607
_cell_length_b 10.804024
_cell_length_c 9.034959
_cell_angle_alpha 90.000000
_cell_angle_beta 90.000000
_cell_angle_gamma 90.000000
_cell_volume 1382.272272
_symmetry_space_group_name_H-M "P C A 21"
_symmetry_group_IT_number 29
_symmetry_cell_setting 'orthorhombic'
loop_
_space_group_symop_operation_xyz
x,y,z
-x,-y,1/2+z
1/2-x,y,1/2+z
1/2+x,-y,z
loop_
_atom_site_type_symbol
_atom_site_label
_atom_site_fract_x
_atom_site_fract_y
_atom_site_fract_z
Si Si1 0.527509 0.633950 0.947660
Si Si2 0.702729 0.624750 0.723683
Si Si3 0.958139 0.113833 0.106811
Si Si4 0.441844 0.874429 0.465248
Si Si5 0.761253 0.048144 0.564126
Si Si6 0.579252 0.692789 0.467576
Si Si7 0.780091 0.878270 0.824038
Si Si8 0.593243 0.503961 0.229609
O O1 0.625910 0.625661 0.855229
O O2 0.443648 0.607835 0.830363
O O3 0.502308 0.762180 0.032146
O O4 0.545380 0.526889 0.071056
O O5 0.646978 0.612759 0.570503
O O6 0.738498 0.766791 0.728402
O O7 0.793856 0.534818 0.729324
O O8 0.957247 0.119001 0.287071
O O9 0.847735 0.087968 0.065463
O O10 0.017131 0.997417 0.043392
O O11 0.332159 0.852776 0.500025
O O12 0.492497 0.758238 0.542741
O O13 0.793641 0.997659 0.722874
O O14 0.781749 0.931457 0.456104
O O15 0.634694 0.812866 0.406769
O O16 0.550803 0.616881 0.325784
#
# Coordination Sequence:
#
# PCOD9341403 Si02
#       8
#     4   4   4   4   4   4   4   4
#     4  12  27  49  75 104 149 190 246 306 376 433
#     4  11  24  43  76 108 136 187 250 312 363 424
#     4  12  27  46  68 110 151 195 241 301 371 444
#     4  12  25  43  71 106 155 193 244 297 365 446
#     4  12  24  39  63 103 154 198 234 291 362 450
#     4  11  22  42  71 102 140 186 250 301 360 418
#     4  11  20  38  63 101 142 191 245 287 347 429
#     4  11  25  48  73 106 139 190 248 311 356 432
#
# _framework density 23.150288
#
# number of rings (size 3 to 8) (size 9 to 14) (size 15 to 20)
#    0.000    0.500    5.000    3.750    5.250    0.000 
#    2.250    1.250    0.000    0.000    0.000    0.000 
#    0.000    0.000    0.000    0.000    0.000    0.000 
#
# Total GULP energy -178542.114563 kJ/mol
# GULP energy per Si atom -5579.441080 kJ/mol
# Density = 2.309760 g / cm^3
# Si number density = 23.150288 Si / 1000 Ang^3
#
#
#
# Elastic Constant Matrix: (Units=GPa)
#
#
# Indices 1 2 3 4 5 6 
#
# 1 128.0919 27.7535 55.0855 0.0000 0.0000 0.0000
# 2 27.7535 47.7539 26.1152 0.0000 0.0000 0.0000
# 3 55.0855 26.1152 143.0341 0.0000 0.0000 0.0000
# 4 0.0000 0.0000 0.0000 29.0437 0.0000 0.0000
# 5 0.0000 0.0000 0.0000 0.0000 32.9783 0.0000
# 6 0.0000 0.0000 0.0000 0.0000 0.0000 16.8728
#
#
#
# Elastic Compliance Matrix: (Units=1/GPa)
#
#
# Indices 1 2 3 4 5 6 
#
# 1 0.010041 -0.004134 -0.003112 0.000000 0.000000 0.000000
# 2 -0.004134 0.024965 -0.002966 0.000000 0.000000 0.000000
# 3 -0.003112 -0.002966 0.008732 0.000000 0.000000 0.000000
# 4 0.000000 0.000000 0.000000 0.034431 0.000000 0.000000
# 5 0.000000 0.000000 0.000000 0.000000 0.030323 0.000000
# 6 0.000000 0.000000 0.000000 0.000000 0.000000 0.059267
#
#
# Mechanical properties :
#
#
# Convention : Reuss Voigt Hill
#
# Bulk Modulus (GPa) = 42.89358 59.64316 51.26837
# Shear Modulus (GPa) = 25.51621 29.77399 27.64510
#
# Velocity S-wave (km/s) = 3.32354 3.59014 3.45941
# Velocity P-wave (km/s) = 5.77030 6.55781 6.17662
#
# Compressibility (1/GPa) = 0.02331351
#
# Stress axis : x y z
#
# Youngs Moduli (GPa) = 99.59234 40.05577 114.52761
#
# Poissons Ratio (x) = 0.16557 0.35644
# Poissons Ratio (y) = 0.41167 0.33972
# Poissons Ratio (z) = 0.30996 0.11881
#
# Static dielectric constant tensor:
#      x y z
#    x 1.965430 0.000000 0.000000 
#    y 0.000000 1.893820 0.000000 
#    z 0.000000 0.000000 1.881570 
# 
# From -- ./inp_files/1883.got.cif
#   From: 2010.05.17/outbox.cif.g08.bks.cpg/sg29_1_cif.got.tgz:1883.got - 2010.06.04 01:19:37.
