data_PCOD9341142
_publ_section_title
;
Structure prediction by ZEFSAII (Michael W. Deem and Ramdas Pophale) SiO2 
 PCOD9341142
Probable space group: P C A 21
;
_chemical_formula_sum "Si O2"
_cell_formula_units_Z 28
_cell_length_a 7.214849
_cell_length_b 15.982806
_cell_length_c 10.037641
_cell_angle_alpha 90.000000
_cell_angle_beta 90.000000
_cell_angle_gamma 90.000000
_cell_volume 1157.475836
_symmetry_space_group_name_H-M "P C A 21"
_symmetry_group_IT_number 29
_symmetry_cell_setting 'orthorhombic'
loop_
_space_group_symop_operation_xyz
x,y,z
-x,-y,1/2+z
1/2-x,y,1/2+z
1/2+x,-y,z
loop_
_atom_site_type_symbol
_atom_site_label
_atom_site_fract_x
_atom_site_fract_y
_atom_site_fract_z
Si Si1 0.494924 0.920003 0.940040
Si Si2 0.574259 0.884478 0.440040
Si Si3 0.879794 0.514492 0.790721
Si Si4 0.250000 0.321808 0.690040
Si Si5 0.943074 0.200634 0.169618
Si Si6 0.379794 0.485508 0.089360
Si Si7 0.943075 0.200634 0.710462
O O1 0.706512 0.892582 0.940040
O O2 0.408533 0.876372 0.810586
O O3 0.492530 0.019484 0.940040
O O4 0.408533 0.876372 0.069493
O O5 0.511674 0.836745 0.308553
O O6 0.511674 0.836745 0.571527
O O7 0.854606 0.615295 0.788849
O O8 0.876840 0.493879 0.623796
O O9 0.123160 0.506121 0.756285
O O10 0.880882 0.478185 0.940041
O O11 0.400850 0.263652 0.620256
O O12 0.145394 0.384705 0.591233
O O13 0.099151 0.263652 0.759825
O O14 0.750000 0.247019 0.190040
#
# Coordination Sequence:
#
# PCOD9341142 Si02
#       7
#     4   4   4   4   4   4   4
#     4  12  24  44  68 101 147 191 247 310 359 440
#     4  12  24  44  68 101 145 193 249 306 369 428
#     4  10  23  43  72 103 143 186 239 291 375 447
#     4  10  26  44  76 102 152 186 240 306 374 430
#     4  12  25  44  69 104 142 193 246 302 369 429
#     4  10  23  43  72 103 143 186 239 291 375 447
#     4  12  25  44  69 104 142 193 246 302 369 429
#
# _framework density 24.190567000000001
#
# number of rings (size 3 to 8) (size 9 to 14) (size 15 to 20)
#    0.857    0.000    2.857    4.286    4.000    1.143 
#    0.000    0.000    0.000    0.000    0.000    0.000 
#    0.000    0.000    0.000    0.000    0.000    0.000 
#
# Total GULP energy -156106.639665 kJ/mol
# GULP energy per Si atom -5575.237131 kJ/mol
# Density = 2.413551 g / cm^3
# Si number density = 24.190567 Si / 1000 Ang^3
#
#
#
# Elastic Constant Matrix: (Units=GPa)
#
#
# Indices 1 2 3 4 5 6 
#
# 1 148.1020 28.4795 34.5625 0.0000 0.0000 0.0000
# 2 28.4795 105.9333 8.6485 0.0000 0.0000 0.0000
# 3 34.5625 8.6485 176.6216 0.0000 0.0000 0.0000
# 4 0.0000 0.0000 0.0000 17.2735 0.0000 0.0000
# 5 0.0000 0.0000 0.0000 0.0000 53.4037 0.0000
# 6 0.0000 0.0000 0.0000 0.0000 0.0000 44.7367
#
#
#
# Elastic Compliance Matrix: (Units=1/GPa)
#
#
# Indices 1 2 3 4 5 6 
#
# 1 0.007433 -0.001887 -0.001362 0.000000 0.000000 0.000000
# 2 -0.001887 0.009957 -0.000118 0.000000 0.000000 0.000000
# 3 -0.001362 -0.000118 0.005934 0.000000 0.000000 0.000000
# 4 0.000000 0.000000 0.000000 0.057892 0.000000 0.000000
# 5 0.000000 0.000000 0.000000 0.000000 0.018725 0.000000
# 6 0.000000 0.000000 0.000000 0.000000 0.000000 0.022353
#
#
# Mechanical properties :
#
#
# Convention : Reuss Voigt Hill
#
# Bulk Modulus (GPa) = 60.28096 63.78200 62.03148
# Shear Modulus (GPa) = 37.15845 47.01388 42.08617
#
# Velocity S-wave (km/s) = 3.92353 4.41327 4.17559
# Velocity P-wave (km/s) = 6.74527 7.23830 6.99613
#
# Compressibility (1/GPa) = 0.01658899
#
# Stress axis : x y z
#
# Youngs Moduli (GPa) = 134.53782 100.43300 168.51589
#
# Poissons Ratio (x) = 0.18952 0.22954
# Poissons Ratio (y) = 0.25388 0.01993
# Poissons Ratio (z) = 0.18326 0.01188
#
# Static dielectric constant tensor:
#      x y z
#    x 3.260200 0.000000 0.000000 
#    y 0.000000 1.839160 0.000000 
#    z 0.000000 0.000000 1.984710 
# 
# From -- ./inp_files/1224.got.cif
#   From: 2010.05.17/outbox.cif.g08.bks.cpg/sg29_1_cif.got.tgz:1224.got - 2010.06.04 01:19:37.
