data_PCOD9341275
_publ_section_title
;
Structure prediction by ZEFSAII (Michael W. Deem and Ramdas Pophale) SiO2 
 PCOD9341275
Probable space group: P C A 21
;
_chemical_formula_sum "Si O2"
_cell_formula_units_Z 16
_cell_length_a 9.762308
_cell_length_b 5.170196
_cell_length_c 10.762132
_cell_angle_alpha 90.000000
_cell_angle_beta 90.000000
_cell_angle_gamma 90.000000
_cell_volume 543.197581
_symmetry_space_group_name_H-M "P C A 21"
_symmetry_group_IT_number 29
_symmetry_cell_setting 'orthorhombic'
loop_
_space_group_symop_operation_xyz
x,y,z
-x,-y,1/2+z
1/2-x,y,1/2+z
1/2+x,-y,z
loop_
_atom_site_type_symbol
_atom_site_label
_atom_site_fract_x
_atom_site_fract_y
_atom_site_fract_z
Si Si1 0.219058 0.456666 0.316970
Si Si2 0.348195 0.567341 0.071836
Si Si3 0.576414 0.187077 0.022039
Si Si4 0.042237 0.973214 0.274875
O O1 0.339299 0.510741 0.219377
O O2 0.233925 0.406370 0.463041
O O3 0.150449 0.201573 0.268048
O O4 0.118993 0.706167 0.308061
O O5 0.499508 0.467608 0.032471
O O6 0.236600 0.801604 0.057298
O O7 0.494321 0.039133 0.131928
O O8 0.554911 0.057506 0.888315
#
# Coordination Sequence:
#
# PCOD9341275 Si02
#       4
#     4   4   4   4
#     4  10  24  44  68 104 142 186 236 294 356 426
#     4  10  24  44  72 106 146 188 240 298 362 428
#     4  10  24  46  76 108 146 192 244 300 362 432
#     4  10  24  44  72 104 142 188 240 292 356 428
#
# _framework density 29.455210999999998
#
# number of rings (size 3 to 8) (size 9 to 14) (size 15 to 20)
#    0.000    2.000    0.000    0.000    0.000   30.000 
#    0.000    0.000    0.000   12.000    0.000    0.000 
#    0.000    0.000    0.000    0.000    0.000    0.000 
#
# Total GULP energy -89265.426677 kJ/mol
# GULP energy per Si atom -5579.089167 kJ/mol
# Density = 2.938817 g / cm^3
# Si number density = 29.455211 Si / 1000 Ang^3
#
#
#
# Elastic Constant Matrix: (Units=GPa)
#
#
# Indices 1 2 3 4 5 6 
#
# 1 183.7440 53.9451 49.4506 0.0000 0.0000 0.0000
# 2 53.9451 136.8454 30.2374 0.0000 0.0000 0.0000
# 3 49.4506 30.2374 212.4638 0.0000 0.0000 0.0000
# 4 0.0000 0.0000 0.0000 57.0408 0.0000 0.0000
# 5 0.0000 0.0000 0.0000 0.0000 27.7852 0.0000
# 6 0.0000 0.0000 0.0000 0.0000 0.0000 26.9687
#
#
#
# Elastic Compliance Matrix: (Units=1/GPa)
#
#
# Indices 1 2 3 4 5 6 
#
# 1 0.006425 -0.002274 -0.001172 0.000000 0.000000 0.000000
# 2 -0.002274 0.008350 -0.000659 0.000000 0.000000 0.000000
# 3 -0.001172 -0.000659 0.005073 0.000000 0.000000 0.000000
# 4 0.000000 0.000000 0.000000 0.017531 0.000000 0.000000
# 5 0.000000 0.000000 0.000000 0.000000 0.035990 0.000000
# 6 0.000000 0.000000 0.000000 0.000000 0.000000 0.037080
#
#
# Mechanical properties :
#
#
# Convention : Reuss Voigt Hill
#
# Bulk Modulus (GPa) = 85.92245 88.92437 87.42341
# Shear Modulus (GPa) = 40.80336 48.98696 44.89516
#
# Velocity S-wave (km/s) = 3.72596 4.08254 3.90832
# Velocity P-wave (km/s) = 6.90972 7.24417 7.07892
#
# Compressibility (1/GPa) = 0.01163840
#
# Stress axis : x y z
#
# Youngs Moduli (GPa) = 155.63367 119.76708 197.11333
#
# Poissons Ratio (x) = 0.27235 0.23099
# Poissons Ratio (y) = 0.35391 0.12990
# Poissons Ratio (z) = 0.18238 0.07893
#
# Static dielectric constant tensor:
#      x y z
#    x 2.372470 0.000000 0.000000 
#    y 0.000000 2.380030 0.000000 
#    z 0.000000 0.000000 2.458870 
# 
# From -- ./inp_files/3006.got.cif
#   From: 2010.05.17/outbox.cif.g08.bks.cpg/sg29_2_cif.got.tgz:3006.got - 2010.06.04 01:19:37.
