data_PCOD9341829
_publ_section_title
;
Structure prediction by ZEFSAII (Michael W. Deem and Ramdas Pophale) SiO2 
 PCOD9341829
Probable space group: P N C 2
;
_chemical_formula_sum "Si O2"
_cell_formula_units_Z 28
_cell_length_a 13.156651
_cell_length_b 14.592799
_cell_length_c 5.492617
_cell_angle_alpha 90.000000
_cell_angle_beta 90.000000
_cell_angle_gamma 90.000000
_cell_volume 1054.540520
_symmetry_space_group_name_H-M "P N C 2"
_symmetry_group_IT_number 30
_symmetry_cell_setting 'orthorhombic'
loop_
_space_group_symop_operation_xyz
x,y,z
-x,-y,z
-x,1/2+y,1/2+z
x,1/2-y,1/2+z
loop_
_atom_site_type_symbol
_atom_site_label
_atom_site_fract_x
_atom_site_fract_y
_atom_site_fract_z
Si Si1 0.931668 0.590407 0.348630
Si Si2 0.990431 0.392255 0.854490
Si Si3 0.553629 0.306254 0.724847
Si Si4 0.380032 0.055371 0.200908
Si Si5 0.750540 0.758268 0.161722
Si Si6 0.698715 0.942422 0.706593
Si Si7 0.792028 0.199418 0.196158
O O1 0.819065 0.558487 0.263588
O O2 0.000000 0.500000 0.379293
O O3 0.938975 0.630352 0.622192
O O4 0.980907 0.645995 0.122139
O O5 0.875756 0.373563 0.772477
O O6 0.000000 0.500000 0.893815
O O7 0.530708 0.252054 0.471316
O O8 0.491610 0.401405 0.731315
O O9 0.673933 0.324184 0.721874
O O10 0.310922 0.148327 0.168428
O O11 0.335741 0.014862 0.451096
O O12 0.359599 0.013372 0.934559
O O13 0.808104 0.750983 0.411891
O O14 0.677674 0.667790 0.174018
O O15 0.808410 0.274435 0.412926
#
# Coordination Sequence:
#
# PCOD9341829 Si02
#       7
#     4   4   4   4   4   4   4
#     4  10  21  37  57  79 102 145 204 251 292 342
#     4  10  21  40  62  83 110 157 211 251 296 361
#     4  10  18  30  51  78 114 157 187 220 285 360
#     4  10  17  28  46  73 109 145 175 212 275 358
#     4   8  14  23  36  57  92 127 156 190 241 313
#     4  10  18  29  46  71 103 135 178 228 272 327
#     4  10  21  37  58  89 124 152 192 254 306 347
#
# _framework density 26.551849000000001
#
# number of rings (size 3 to 8) (size 9 to 14) (size 15 to 20)
#    0.000    2.286    0.000    5.143    0.000    0.000 
#    0.000   12.857    0.000    0.000    0.000   24.000 
#    0.000    0.000    0.000    0.000    0.000    0.000 
#
# Total GULP energy -156530.254174 kJ/mol
# GULP energy per Si atom -5590.366221 kJ/mol
# Density = 2.649142 g / cm^3
# Si number density = 26.551849 Si / 1000 Ang^3
#
#
#
# Elastic Constant Matrix: (Units=GPa)
#
#
# Indices 1 2 3 4 5 6 
#
# 1 142.6754 -0.4430 47.3247 0.0000 0.0000 0.0000
# 2 -0.4430 42.2541 8.2670 0.0000 0.0000 0.0000
# 3 47.3247 8.2670 298.7636 0.0000 0.0000 0.0000
# 4 0.0000 0.0000 0.0000 30.4459 0.0000 0.0000
# 5 0.0000 0.0000 0.0000 0.0000 47.8418 0.0000
# 6 0.0000 0.0000 0.0000 0.0000 0.0000 17.6946
#
#
#
# Elastic Compliance Matrix: (Units=1/GPa)
#
#
# Indices 1 2 3 4 5 6 
#
# 1 0.007402 0.000309 -0.001181 0.000000 0.000000 0.000000
# 2 0.000309 0.023808 -0.000708 0.000000 0.000000 0.000000
# 3 -0.001181 -0.000708 0.003554 0.000000 0.000000 0.000000
# 4 0.000000 0.000000 0.000000 0.032845 0.000000 0.000000
# 5 0.000000 0.000000 0.000000 0.000000 0.020902 0.000000
# 6 0.000000 0.000000 0.000000 0.000000 0.000000 0.056514
#
#
# Mechanical properties :
#
#
# Convention : Reuss Voigt Hill
#
# Bulk Modulus (GPa) = 31.64215 65.99894 48.82054
# Shear Modulus (GPa) = 31.50208 47.76608 39.63408
#
# Velocity S-wave (km/s) = 3.44821 4.24603 3.86775
# Velocity P-wave (km/s) = 5.27224 6.99635 6.19457
#
# Compressibility (1/GPa) = 0.03160342
#
# Stress axis : x y z
#
# Youngs Moduli (GPa) = 135.10604 42.00265 281.39082
#
# Poissons Ratio (x) = -0.01296 0.33231
# Poissons Ratio (y) = -0.04170 0.19913
# Poissons Ratio (z) = 0.15956 0.02972
#
# Static dielectric constant tensor:
#      x y z
#    x 2.073150 0.000000 0.000000 
#    y 0.000000 2.159410 0.000000 
#    z 0.000000 0.000000 2.155620 
# 
# From -- ./inp_files/767.got.cif
#   From: 2010.05.17/outbox.cif.g08.bks.cpg/sg30_1_cif.got.tgz:767.got - 2010.06.03 17:03:02.
