data_PCOD9341463
_publ_section_title
;
Structure prediction by ZEFSAII (Michael W. Deem and Ramdas Pophale) SiO2 
 PCOD9341463
Probable space group: P C A 21
;
_chemical_formula_sum "Si O2"
_cell_formula_units_Z 24
_cell_length_a 8.648811
_cell_length_b 12.981116
_cell_length_c 8.451222
_cell_angle_alpha 90.000000
_cell_angle_beta 90.000000
_cell_angle_gamma 90.000000
_cell_volume 948.828995
_symmetry_space_group_name_H-M "P C A 21"
_symmetry_group_IT_number 29
_symmetry_cell_setting 'orthorhombic'
loop_
_space_group_symop_operation_xyz
x,y,z
-x,-y,1/2+z
1/2-x,y,1/2+z
1/2+x,-y,z
loop_
_atom_site_type_symbol
_atom_site_label
_atom_site_fract_x
_atom_site_fract_y
_atom_site_fract_z
Si Si1 0.718916 0.501336 0.081380
Si Si2 0.279710 0.982867 0.868926
Si Si3 0.435681 0.154730 0.385658
Si Si4 0.055401 0.405639 0.382277
Si Si5 0.905905 0.294607 0.127375
Si Si6 0.874609 0.138301 0.593797
O O1 0.185185 0.400957 0.517215
O O2 0.636393 0.526728 0.245405
O O3 0.842446 0.409306 0.096573
O O4 0.591756 0.461461 0.958205
O O5 0.227115 0.098295 0.899784
O O6 0.434176 0.930847 0.939712
O O7 0.310598 0.964475 0.683802
O O8 0.143369 0.901549 0.916406
O O9 0.480836 0.251920 0.491391
O O10 0.478249 0.168844 0.199353
O O11 0.994976 0.303932 0.294102
O O12 0.750776 0.227179 0.123963
#
# Coordination Sequence:
#
# PCOD9341463 Si02
#       6
#     4   4   4   4   4   4
#     4  12  24  43  70  98 131 182 219 287 340 404
#     4   9  20  35  61  88 123 162 205 256 317 375
#     4   9  21  36  62  90 124 163 211 253 319 393
#     4  12  24  43  71  95 137 172 229 278 346 402
#     4  11  22  41  66  96 128 174 226 266 331 403
#     4   9  21  36  64  89 123 165 212 254 319 397
#
# _framework density 25.294336999999999
#
# number of rings (size 3 to 8) (size 9 to 14) (size 15 to 20)
#    1.000    0.667    3.333    1.000    4.667    0.000 
#    0.000    3.333    7.333    0.000    0.000    0.000 
#    0.000    0.000    0.000    0.000    0.000    0.000 
#
# Total GULP energy -133889.841020 kJ/mol
# GULP energy per Si atom -5578.743376 kJ/mol
# Density = 2.523677 g / cm^3
# Si number density = 25.294337 Si / 1000 Ang^3
#
#
#
# Elastic Constant Matrix: (Units=GPa)
#
#
# Indices 1 2 3 4 5 6 
#
# 1 61.6751 29.4176 9.5895 0.0000 0.0000 0.0000
# 2 29.4176 65.1396 -3.6543 0.0000 0.0000 0.0000
# 3 9.5895 -3.6543 51.0205 0.0000 0.0000 0.0000
# 4 0.0000 0.0000 0.0000 29.1387 0.0000 0.0000
# 5 0.0000 0.0000 0.0000 0.0000 33.5901 0.0000
# 6 0.0000 0.0000 0.0000 0.0000 0.0000 58.7579
#
#
#
# Elastic Compliance Matrix: (Units=1/GPa)
#
#
# Indices 1 2 3 4 5 6 
#
# 1 0.021785 -0.010108 -0.004819 0.000000 0.000000 0.000000
# 2 -0.010108 0.020104 0.003340 0.000000 0.000000 0.000000
# 3 -0.004819 0.003340 0.020745 0.000000 0.000000 0.000000
# 4 0.000000 0.000000 0.000000 0.034319 0.000000 0.000000
# 5 0.000000 0.000000 0.000000 0.000000 0.029771 0.000000
# 6 0.000000 0.000000 0.000000 0.000000 0.000000 0.017019
#
#
# Mechanical properties :
#
#
# Convention : Reuss Voigt Hill
#
# Bulk Modulus (GPa) = 25.34255 27.61566 26.47910
# Shear Modulus (GPa) = 27.76707 33.79615 30.78161
#
# Velocity S-wave (km/s) = 3.31684 3.65926 3.49225
# Velocity P-wave (km/s) = 4.97085 5.36609 5.17225
#
# Compressibility (1/GPa) = 0.03945933
#
# Stress axis : x y z
#
# Youngs Moduli (GPa) = 45.90377 49.74110 48.20479
#
# Poissons Ratio (x) = 0.50281 0.23228
# Poissons Ratio (y) = 0.46402 -0.16100
# Poissons Ratio (z) = 0.22119 -0.16613
#
# Static dielectric constant tensor:
#      x y z
#    x 2.046160 0.000000 0.000000 
#    y 0.000000 1.991750 0.000000 
#    z 0.000000 0.000000 2.049750 
# 
# From -- ./inp_files/1180.got.cif
#   From: 2010.05.17/outbox.cif.g08.bks.cpg/sg29_1_cif.got.tgz:1180.got - 2010.06.04 01:19:37.
