data_PCOD9341830
_publ_section_title
;
Structure prediction by ZEFSAII (Michael W. Deem and Ramdas Pophale) SiO2 
 PCOD9341830
Probable space group: P N C 2
;
_chemical_formula_sum "Si O2"
_cell_formula_units_Z 30
_cell_length_a 12.409038
_cell_length_b 14.757719
_cell_length_c 6.021129
_cell_angle_alpha 90.000000
_cell_angle_beta 90.000000
_cell_angle_gamma 90.000000
_cell_volume 1102.643910
_symmetry_space_group_name_H-M "P N C 2"
_symmetry_group_IT_number 30
_symmetry_cell_setting 'orthorhombic'
loop_
_space_group_symop_operation_xyz
x,y,z
-x,-y,z
-x,1/2+y,1/2+z
x,1/2-y,1/2+z
loop_
_atom_site_type_symbol
_atom_site_label
_atom_site_fract_x
_atom_site_fract_y
_atom_site_fract_z
Si Si1 0.333280 0.087374 0.859880
Si Si2 0.175546 0.459527 0.753585
Si Si3 0.977558 0.638121 0.483890
Si Si4 0.162257 0.318411 0.115811
Si Si5 0.790857 0.294260 0.496876
Si Si6 0.562418 0.256584 0.514025
Si Si7 0.500000 0.000000 0.118783
Si Si8 0.330968 0.938181 0.480153
O O1 0.271478 0.176961 0.768988
O O2 0.346755 0.010302 0.675061
O O3 0.248921 0.048264 0.036280
O O4 0.450545 0.084772 0.978136
O O5 0.060806 0.429591 0.670075
O O6 0.208890 0.546802 0.894570
O O7 0.205238 0.372939 0.905637
O O8 0.925074 0.618885 0.244958
O O9 0.911209 0.732450 0.543617
O O10 0.105002 0.641685 0.482924
O O11 0.804439 0.252125 0.748729
O O12 0.665727 0.324783 0.502353
O O13 0.509977 0.255103 0.764507
O O14 0.631969 0.162152 0.528000
O O15 0.407425 0.970739 0.283947
#
# Coordination Sequence:
#
# PCOD9341830 Si02
#       8
#     4   4   4   4   4   4   2   4
#     4   9  20  34  58  87 115 156 205 254 327 390
#     4   9  19  32  53  88 117 164 207 255 321 382
#     4  11  17  28  55  85 127 164 214 252 314 382
#     4  10  17  28  50  85 119 163 201 252 306 384
#     4  10  19  34  56  91 117 165 217 264 311 381
#     4  10  24  42  69  97 124 169 226 275 331 387
#     4  10  20  38  66  88 116 164 208 264 328 408
#     4  10  21  40  66  90 124 163 224 267 332 409
#
# _framework density 27.207332999999998
#
# number of rings (size 3 to 8) (size 9 to 14) (size 15 to 20)
#    0.000    2.133    2.667    0.400    3.733    0.000 
#    0.000    0.000    8.800   12.800    0.000    0.000 
#    0.000    0.000    0.000    0.000    0.000    0.000 
#
# Total GULP energy -167137.232083 kJ/mol
# GULP energy per Si atom -5571.241069 kJ/mol
# Density = 2.714541 g / cm^3
# Si number density = 27.207333 Si / 1000 Ang^3
#
#
#
# Elastic Constant Matrix: (Units=GPa)
#
#
# Indices 1 2 3 4 5 6 
#
# 1 94.3837 -5.2711 28.1342 0.0000 0.0000 0.0000
# 2 -5.2711 65.4021 21.6470 0.0000 0.0000 0.0000
# 3 28.1342 21.6470 176.0226 0.0000 0.0000 0.0000
# 4 0.0000 0.0000 0.0000 39.6548 0.0000 0.0000
# 5 0.0000 0.0000 0.0000 0.0000 -31.1157 0.0000
# 6 0.0000 0.0000 0.0000 0.0000 0.0000 25.7004
#
#
#
# Elastic Compliance Matrix: (Units=1/GPa)
#
#
# Indices 1 2 3 4 5 6 
#
# 1 0.011278 0.001569 -0.001996 0.000000 0.000000 0.000000
# 2 0.001569 0.016157 -0.002238 0.000000 0.000000 0.000000
# 3 -0.001996 -0.002238 0.006275 0.000000 0.000000 0.000000
# 4 0.000000 0.000000 0.000000 0.025218 0.000000 0.000000
# 5 0.000000 0.000000 0.000000 0.000000 -0.032138 0.000000
# 6 0.000000 0.000000 0.000000 0.000000 0.000000 0.038910
#
#
# Mechanical properties :
#
#
# Convention : Reuss Voigt Hill
#
# Bulk Modulus (GPa) = 35.23350 47.20318 41.21834
# Shear Modulus (GPa) = 62.12110 26.26779 44.19444
#
# Velocity S-wave (km/s) = 4.78352 3.11057 4.03470
# Velocity P-wave (km/s) = 6.59451 5.50345 6.07353
#
# Compressibility (1/GPa) = 0.02838208
#
# Stress axis : x y z
#
# Youngs Moduli (GPa) = 88.67188 61.89189 159.35627
#
# Poissons Ratio (x) = -0.09713 0.31800
# Poissons Ratio (y) = -0.13916 0.35661
# Poissons Ratio (z) = 0.17695 0.13850
#
# Static dielectric constant tensor:
#      x y z
#    x 2.208530 0.000000 0.000000 
#    y 0.000000 2.437560 0.000000 
#    z 0.000000 0.000000 2.230140 
# 
# From -- ./inp_files/950.got.cif
#   From: 2010.05.17/outbox.cif.g08.bks.cpg/sg30_1_cif.got.tgz:950.got - 2010.06.03 17:03:02.
