data_PCOD9341112
_publ_section_title
;
Structure prediction by ZEFSAII (Michael W. Deem and Ramdas Pophale) SiO2 
 PCOD9341112
Probable space group: P C A 21
;
_chemical_formula_sum "Si O2"
_cell_formula_units_Z 28
_cell_length_a 12.796351
_cell_length_b 9.077309
_cell_length_c 10.503728
_cell_angle_alpha 90.000000
_cell_angle_beta 90.000000
_cell_angle_gamma 90.000000
_cell_volume 1220.075568
_symmetry_space_group_name_H-M "P C A 21"
_symmetry_group_IT_number 29
_symmetry_cell_setting 'orthorhombic'
loop_
_space_group_symop_operation_xyz
x,y,z
-x,-y,1/2+z
1/2-x,y,1/2+z
1/2+x,-y,z
loop_
_atom_site_type_symbol
_atom_site_label
_atom_site_fract_x
_atom_site_fract_y
_atom_site_fract_z
Si Si1 0.567603 0.874197 0.439500
Si Si2 0.677326 0.050802 0.659158
Si Si3 0.828216 0.529513 0.649447
Si Si4 0.027447 0.697365 0.566666
Si Si5 0.607899 0.205942 0.122359
Si Si6 0.665585 0.559591 0.436722
Si Si7 0.037586 0.121110 0.828027
O O1 0.454339 0.866085 0.507174
O O2 0.601846 0.709475 0.416149
O O3 0.647717 0.956493 0.533842
O O4 0.543249 0.983238 0.324856
O O5 0.603445 0.196161 0.647262
O O6 0.794373 0.107084 0.661519
O O7 0.644959 0.944630 0.775643
O O8 0.847323 0.366254 0.595318
O O9 0.747839 0.596255 0.548296
O O10 0.790157 0.520758 0.796093
O O11 0.938098 0.614616 0.644595
O O12 0.095780 0.575283 0.490565
O O13 0.969343 0.800411 0.462722
O O14 0.516452 0.229001 0.226617
#
# Coordination Sequence:
#
# PCOD9341112 Si02
#       7
#     4   4   4   4   4   4   4
#     4  10  24  42  66  99 143 184 236 301 357 430
#     4  10  23  42  71 100 138 187 243 298 366 440
#     4  12  27  44  76 106 145 193 242 299 359 433
#     4  11  23  45  70 103 144 190 245 299 363 436
#     4  11  22  43  69  98 137 191 238 293 371 432
#     4  12  26  46  71 109 143 189 246 295 364 435
#     4  10  23  42  67 101 140 188 238 305 358 434
#
# _framework density 22.949399
#
# number of rings (size 3 to 8) (size 9 to 14) (size 15 to 20)
#    0.000    1.143    4.286    0.857    0.000   12.571 
#    0.000    0.000    0.000    0.000    0.000    0.000 
#    0.000    0.000    0.000    0.000    0.000    0.000 
#
# Total GULP energy -156495.973251 kJ/mol
# GULP energy per Si atom -5589.141902 kJ/mol
# Density = 2.289717 g / cm^3
# Si number density = 22.949399 Si / 1000 Ang^3
#
#
#
# Elastic Constant Matrix: (Units=GPa)
#
#
# Indices 1 2 3 4 5 6 
#
# 1 93.9926 21.5659 29.3824 0.0000 0.0000 0.0000
# 2 21.5659 77.3346 -11.5604 0.0000 0.0000 0.0000
# 3 29.3824 -11.5604 67.9711 0.0000 0.0000 0.0000
# 4 0.0000 0.0000 0.0000 19.3993 0.0000 0.0000
# 5 0.0000 0.0000 0.0000 0.0000 16.1233 0.0000
# 6 0.0000 0.0000 0.0000 0.0000 0.0000 24.8513
#
#
#
# Elastic Compliance Matrix: (Units=1/GPa)
#
#
# Indices 1 2 3 4 5 6 
#
# 1 0.013903 -0.004900 -0.006843 0.000000 0.000000 0.000000
# 2 -0.004900 0.014995 0.004668 0.000000 0.000000 0.000000
# 3 -0.006843 0.004668 0.018464 0.000000 0.000000 0.000000
# 4 0.000000 0.000000 0.000000 0.051548 0.000000 0.000000
# 5 0.000000 0.000000 0.000000 0.000000 0.062022 0.000000
# 6 0.000000 0.000000 0.000000 0.000000 0.000000 0.040239
#
#
# Mechanical properties :
#
#
# Convention : Reuss Voigt Hill
#
# Bulk Modulus (GPa) = 30.10888 35.34156 32.72522
# Shear Modulus (GPa) = 22.08564 25.40216 23.74390
#
# Velocity S-wave (km/s) = 3.10556 3.33059 3.22004
# Velocity P-wave (km/s) = 5.09976 5.49760 5.30241
#
# Compressibility (1/GPa) = 0.03321280
#
# Stress axis : x y z
#
# Youngs Moduli (GPa) = 71.92924 66.68852 54.15868
#
# Poissons Ratio (x) = 0.32677 0.37061
# Poissons Ratio (y) = 0.35244 -0.25284
# Poissons Ratio (z) = 0.49222 -0.31133
#
# Static dielectric constant tensor:
#      x y z
#    x 1.850800 0.000000 0.000000 
#    y 0.000000 1.861270 0.000000 
#    z 0.000000 0.000000 1.862260 
# 
# From -- ./inp_files/3130.got.cif
#   From: 2010.05.17/outbox.cif.g08.bks.cpg/sg29_2_cif.got.tgz:3130.got - 2010.06.04 01:19:37.
