data_PCOD9341291
_publ_section_title
;
Structure prediction by ZEFSAII (Michael W. Deem and Ramdas Pophale) SiO2 
 PCOD9341291
Probable space group: P C A 21
;
_chemical_formula_sum "Si O2"
_cell_formula_units_Z 32
_cell_length_a 12.963577
_cell_length_b 6.595202
_cell_length_c 17.704147
_cell_angle_alpha 90.000000
_cell_angle_beta 90.000000
_cell_angle_gamma 90.000000
_cell_volume 1513.658696
_symmetry_space_group_name_H-M "P C A 21"
_symmetry_group_IT_number 29
_symmetry_cell_setting 'orthorhombic'
loop_
_space_group_symop_operation_xyz
x,y,z
-x,-y,1/2+z
1/2-x,y,1/2+z
1/2+x,-y,z
loop_
_atom_site_type_symbol
_atom_site_label
_atom_site_fract_x
_atom_site_fract_y
_atom_site_fract_z
Si Si1 0.011747 0.242966 0.857340
Si Si2 0.683291 0.034100 0.608834
Si Si3 0.091868 0.080202 0.447616
Si Si4 0.869394 0.344691 0.602189
Si Si5 0.993616 0.038626 0.699348
Si Si6 0.266327 0.340969 0.369929
Si Si7 0.684922 0.719806 0.203647
Si Si8 0.082137 0.613796 0.934881
O O1 0.130367 0.205658 0.883954
O O2 0.192581 0.562873 0.896597
O O3 0.011143 0.185838 0.770029
O O4 0.921801 0.118668 0.896976
O O5 0.628573 0.979151 0.530625
O O6 0.595068 0.076609 0.670776
O O7 0.743339 0.841650 0.644415
O O8 0.763177 0.217000 0.595935
O O9 0.174250 0.239592 0.415503
O O10 0.977091 0.175620 0.441478
O O11 0.951589 0.180797 0.632125
O O12 0.855684 0.519066 0.663573
O O13 0.902311 0.443485 0.522733
O O14 0.907769 0.874667 0.721084
O O15 0.241048 0.335469 0.281489
O O16 0.494066 0.475382 0.383807
#
# Coordination Sequence:
#
# PCOD9341291 Si02
#       8
#     4   4   4   4   4   4   4   4
#     4  10  25  43  67 100 135 180 229 286 347 416
#     4  11  25  43  70  97 135 184 228 287 347 412
#     4  12  24  44  71  97 140 187 228 292 348 411
#     4  11  26  43  70 101 134 184 228 292 347 421
#     4  11  23  46  70  99 138 178 239 281 353 419
#     4  10  24  45  66 101 138 174 233 290 343 419
#     4  11  24  45  67  99 138 178 230 284 351 419
#     4  10  25  45  65 106 134 173 237 282 344 425
#
# _framework density 21.140830999999999
#
# number of rings (size 3 to 8) (size 9 to 14) (size 15 to 20)
#    0.750    0.500    3.750    0.750    5.250    4.000 
#    0.000    0.000    0.000    0.000    0.000    0.000 
#    0.000    0.000    0.000    0.000    0.000    0.000 
#
# Total GULP energy -178433.163371 kJ/mol
# GULP energy per Si atom -5576.036355 kJ/mol
# Density = 2.109271 g / cm^3
# Si number density = 21.140831 Si / 1000 Ang^3
#
#
#
# Elastic Constant Matrix: (Units=GPa)
#
#
# Indices 1 2 3 4 5 6 
#
# 1 63.3979 3.5050 7.2904 0.0000 0.0000 0.0000
# 2 3.5050 30.9198 14.9081 0.0000 0.0000 0.0000
# 3 7.2904 14.9081 91.8725 0.0000 0.0000 0.0000
# 4 0.0000 0.0000 0.0000 18.6853 0.0000 0.0000
# 5 0.0000 0.0000 0.0000 0.0000 23.6850 0.0000
# 6 0.0000 0.0000 0.0000 0.0000 0.0000 28.0586
#
#
#
# Elastic Compliance Matrix: (Units=1/GPa)
#
#
# Indices 1 2 3 4 5 6 
#
# 1 0.015967 -0.001301 -0.001056 0.000000 0.000000 0.000000
# 2 -0.001301 0.035193 -0.005607 0.000000 0.000000 0.000000
# 3 -0.001056 -0.005607 0.011878 0.000000 0.000000 0.000000
# 4 0.000000 0.000000 0.000000 0.053518 0.000000 0.000000
# 5 0.000000 0.000000 0.000000 0.000000 0.042221 0.000000
# 6 0.000000 0.000000 0.000000 0.000000 0.000000 0.035640
#
#
# Mechanical properties :
#
#
# Convention : Reuss Voigt Hill
#
# Bulk Modulus (GPa) = 21.22718 26.39969 23.81344
# Shear Modulus (GPa) = 22.11919 24.78490 23.45205
#
# Velocity S-wave (km/s) = 3.23813 3.42771 3.33427
# Velocity P-wave (km/s) = 4.90340 5.30850 5.10997
#
# Compressibility (1/GPa) = 0.04710941
#
# Stress axis : x y z
#
# Youngs Moduli (GPa) = 62.63017 28.41490 84.18675
#
# Poissons Ratio (x) = 0.03696 0.08890
# Poissons Ratio (y) = 0.08147 0.47207
# Poissons Ratio (z) = 0.06613 0.15934
#
# Static dielectric constant tensor:
#      x y z
#    x 1.784870 0.000000 0.000000 
#    y 0.000000 1.783650 0.000000 
#    z 0.000000 0.000000 1.736380 
# 
# From -- ./inp_files/5235.got.cif
#   From: 2010.05.17/outbox.cif.g08.bks.cpg/sg29_3_cif.got.tgz:5235.got - 2010.06.04 01:19:37.
