data_PCOD9341085
_publ_section_title
;
Structure prediction by ZEFSAII (Michael W. Deem and Ramdas Pophale) SiO2 
 PCOD9341085
Probable space group: P C A 21
;
_chemical_formula_sum "Si O2"
_cell_formula_units_Z 28
_cell_length_a 10.024698
_cell_length_b 8.953895
_cell_length_c 14.833002
_cell_angle_alpha 90.000000
_cell_angle_beta 90.000000
_cell_angle_gamma 90.000000
_cell_volume 1331.411643
_symmetry_space_group_name_H-M "P C A 21"
_symmetry_group_IT_number 29
_symmetry_cell_setting 'orthorhombic'
loop_
_space_group_symop_operation_xyz
x,y,z
-x,-y,1/2+z
1/2-x,y,1/2+z
1/2+x,-y,z
loop_
_atom_site_type_symbol
_atom_site_label
_atom_site_fract_x
_atom_site_fract_y
_atom_site_fract_z
Si Si1 0.636362 0.741796 0.390700
Si Si2 0.583366 0.210185 0.757299
Si Si3 0.348130 0.152647 0.081767
Si Si4 0.028830 0.681195 0.407625
Si Si5 0.209497 0.541060 0.850722
Si Si6 0.861415 0.873574 0.281192
Si Si7 0.953725 0.875151 0.577817
O O1 0.494527 0.784621 0.352104
O O2 0.637858 0.732357 0.498440
O O3 0.691489 0.597909 0.337871
O O4 0.744364 0.858755 0.354415
O O5 0.672789 0.357495 0.764930
O O6 0.484233 0.204950 0.673060
O O7 0.645664 0.046728 0.754385
O O8 0.354217 0.210190 0.184589
O O9 0.200822 0.084740 0.072380
O O10 0.457901 0.023865 0.069195
O O11 0.924899 0.540859 0.389820
O O12 0.990404 0.803353 0.330642
O O13 0.186159 0.642643 0.407857
O O14 0.989308 0.758692 0.500304
#
# Coordination Sequence:
#
# PCOD9341085 Si02
#       7
#     4   4   4   4   4   4   4
#     4  11  22  42  65  92 136 178 218 286 333 406
#     4  11  24  42  68 101 132 178 229 280 343 407
#     4  11  23  41  68 105 134 175 231 283 343 396
#     4  11  24  47  67  97 134 186 224 282 341 410
#     4  11  24  44  65  95 135 178 229 268 345 412
#     4  10  23  40  71  93 134 172 227 284 331 406
#     4  11  24  42  68 103 139 173 234 283 340 413
#
# _framework density 21.030311000000001
#
# number of rings (size 3 to 8) (size 9 to 14) (size 15 to 20)
#    0.000    1.143    5.714    0.857    4.000    1.143 
#    7.714    0.000    0.000    0.000    0.000    0.000 
#    0.000    0.000    0.000    0.000    0.000    0.000 
#
# Total GULP energy -155889.654552 kJ/mol
# GULP energy per Si atom -5567.487663 kJ/mol
# Density = 2.098245 g / cm^3
# Si number density = 21.030311 Si / 1000 Ang^3
#
#
#
# Elastic Constant Matrix: (Units=GPa)
#
#
# Indices 1 2 3 4 5 6 
#
# 1 59.9611 -10.6848 -11.8134 0.0000 0.0000 0.0000
# 2 -10.6848 45.2852 4.4994 0.0000 0.0000 0.0000
# 3 -11.8134 4.4994 95.5764 0.0000 0.0000 0.0000
# 4 0.0000 0.0000 0.0000 18.4235 0.0000 0.0000
# 5 0.0000 0.0000 0.0000 0.0000 28.2120 0.0000
# 6 0.0000 0.0000 0.0000 0.0000 0.0000 27.8539
#
#
#
# Elastic Compliance Matrix: (Units=1/GPa)
#
#
# Indices 1 2 3 4 5 6 
#
# 1 0.017786 0.003997 0.002010 0.000000 0.000000 0.000000
# 2 0.003997 0.023084 -0.000593 0.000000 0.000000 0.000000
# 3 0.002010 -0.000593 0.010739 0.000000 0.000000 0.000000
# 4 0.000000 0.000000 0.000000 0.054279 0.000000 0.000000
# 5 0.000000 0.000000 0.000000 0.000000 0.035446 0.000000
# 6 0.000000 0.000000 0.000000 0.000000 0.000000 0.035902
#
#
# Mechanical properties :
#
#
# Convention : Reuss Voigt Hill
#
# Bulk Modulus (GPa) = 16.01602 18.31389 17.16495
# Shear Modulus (GPa) = 26.70665 29.48597 28.09631
#
# Velocity S-wave (km/s) = 3.56745 3.74848 3.65909
# Velocity P-wave (km/s) = 4.95995 5.24043 5.10212
#
# Compressibility (1/GPa) = 0.06243750
#
# Stress axis : x y z
#
# Youngs Moduli (GPa) = 56.22484 43.31974 93.11681
#
# Poissons Ratio (x) = -0.17314 -0.18718
# Poissons Ratio (y) = -0.22471 0.05519
# Poissons Ratio (z) = -0.11302 0.02568
#
# Static dielectric constant tensor:
#      x y z
#    x 1.842350 0.000000 0.000000 
#    y 0.000000 1.833010 0.000000 
#    z 0.000000 0.000000 1.749190 
# 
# From -- ./inp_files/4521.got.cif
#   From: 2010.05.17/outbox.cif.g08.bks.cpg/sg29_3_cif.got.tgz:4521.got - 2010.06.04 01:19:37.
