data_PCOD9341394
_publ_section_title
;
Structure prediction by ZEFSAII (Michael W. Deem and Ramdas Pophale) SiO2 
 PCOD9341394
Probable space group: P C A 21
;
_chemical_formula_sum "Si O2"
_cell_formula_units_Z 32
_cell_length_a 9.266168
_cell_length_b 10.203509
_cell_length_c 17.370642
_cell_angle_alpha 90.000000
_cell_angle_beta 90.000000
_cell_angle_gamma 90.000000
_cell_volume 1642.349534
_symmetry_space_group_name_H-M "P C A 21"
_symmetry_group_IT_number 29
_symmetry_cell_setting 'orthorhombic'
loop_
_space_group_symop_operation_xyz
x,y,z
-x,-y,1/2+z
1/2-x,y,1/2+z
1/2+x,-y,z
loop_
_atom_site_type_symbol
_atom_site_label
_atom_site_fract_x
_atom_site_fract_y
_atom_site_fract_z
Si Si1 0.570040 0.793226 0.207970
Si Si2 0.119039 0.056530 0.352910
Si Si3 0.344656 0.251870 0.547300
Si Si4 0.434140 0.176305 0.385747
Si Si5 0.258277 0.394733 0.315901
Si Si6 0.431944 0.295715 0.953624
Si Si7 0.059653 0.545190 0.087923
Si Si8 0.822881 0.408391 0.190605
O O1 0.574863 0.912205 0.265953
O O2 0.629819 0.826836 0.124626
O O3 0.672963 0.685423 0.249609
O O4 0.417113 0.722149 0.198106
O O5 0.287003 0.092186 0.367879
O O6 0.031690 0.165077 0.404703
O O7 0.072078 0.909474 0.367422
O O8 0.439609 0.206350 0.475915
O O9 0.184032 0.245651 0.515735
O O10 0.382046 0.401702 0.566037
O O11 0.399274 0.311244 0.340885
O O12 0.154059 0.387400 0.391213
O O13 0.296937 0.530060 0.275136
O O14 0.539035 0.376666 0.007839
O O15 0.175119 0.611250 0.144522
O O16 0.917201 0.511655 0.138808
#
# Coordination Sequence:
#
# PCOD9341394 Si02
#       8
#     4   4   4   4   4   4   4   4
#     4   9  18  35  56  78 113 143 172 227 275 323
#     4   9  20  40  56  75 109 142 188 230 269 312
#     4   9  17  34  56  77 108 147 172 212 285 324
#     4   9  20  38  57  76 104 144 187 226 268 324
#     4   9  18  34  57  77 109 148 178 214 283 326
#     4   9  19  33  57  79 109 147 182 220 275 327
#     4  11  19  34  55  82 114 141 177 225 272 338
#     4  11  19  34  56  82 114 140 180 222 273 334
#
# _framework density 19.484282
#
# number of rings (size 3 to 8) (size 9 to 14) (size 15 to 20)
#    0.000    3.000    3.750    0.000    0.000    4.000 
#    6.750    6.250    0.000    0.000    0.000    0.000 
#    0.000    0.000    0.000    0.000    0.000    0.000 
#
# Total GULP energy -178226.045499 kJ/mol
# GULP energy per Si atom -5569.563922 kJ/mol
# Density = 1.943993 g / cm^3
# Si number density = 19.484282 Si / 1000 Ang^3
#
#
#
# Elastic Constant Matrix: (Units=GPa)
#
#
# Indices 1 2 3 4 5 6 
#
# 1 29.0764 -3.2356 16.5776 0.0000 0.0000 0.0000
# 2 -3.2356 13.2758 25.4870 0.0000 0.0000 0.0000
# 3 16.5776 25.4870 122.7500 0.0000 0.0000 0.0000
# 4 0.0000 0.0000 0.0000 22.1550 0.0000 0.0000
# 5 0.0000 0.0000 0.0000 0.0000 17.7945 0.0000
# 6 0.0000 0.0000 0.0000 0.0000 0.0000 18.0945
#
#
#
# Elastic Compliance Matrix: (Units=1/GPa)
#
#
# Indices 1 2 3 4 5 6 
#
# 1 0.047054 0.039356 -0.014526 0.000000 0.000000 0.000000
# 2 0.039356 0.158169 -0.038156 0.000000 0.000000 0.000000
# 3 -0.014526 -0.038156 0.018031 0.000000 0.000000 0.000000
# 4 0.000000 0.000000 0.000000 0.045137 0.000000 0.000000
# 5 0.000000 0.000000 0.000000 0.000000 0.056197 0.000000
# 6 0.000000 0.000000 0.000000 0.000000 0.000000 0.055265
#
#
# Mechanical properties :
#
#
# Convention : Reuss Voigt Hill
#
# Bulk Modulus (GPa) = 5.08647 26.97336 16.02991
# Shear Modulus (GPa) = 10.59233 20.02703 15.30968
#
# Velocity S-wave (km/s) = 2.33413 3.20950 2.80616
# Velocity P-wave (km/s) = 3.14331 5.25435 4.32947
#
# Compressibility (1/GPa) = 0.19660003
#
# Stress axis : x y z
#
# Youngs Moduli (GPa) = 21.25231 6.32234 55.46022
#
# Poissons Ratio (x) = -0.24882 0.80563
# Poissons Ratio (y) = -0.83640 2.11615
# Poissons Ratio (z) = 0.30872 0.24124
#
# Static dielectric constant tensor:
#      x y z
#    x 1.723000 0.000000 0.000000 
#    y 0.000000 1.708020 0.000000 
#    z 0.000000 0.000000 1.716920 
# 
# From -- ./inp_files/5018.got.cif
#   From: 2010.05.17/outbox.cif.g08.bks.cpg/sg29_3_cif.got.tgz:5018.got - 2010.06.04 01:19:37.
