data_PCOD9341038
_publ_section_title
;
Structure prediction by ZEFSAII (Michael W. Deem and Ramdas Pophale) SiO2 
 PCOD9341038
Probable space group: P C A 21
;
_chemical_formula_sum "Si O2"
_cell_formula_units_Z 32
_cell_length_a 28.907147
_cell_length_b 5.129985
_cell_length_c 8.941709
_cell_angle_alpha 90.000000
_cell_angle_beta 90.000000
_cell_angle_gamma 90.000000
_cell_volume 1325.994914
_symmetry_space_group_name_H-M "P C A 21"
_symmetry_group_IT_number 29
_symmetry_cell_setting 'orthorhombic'
loop_
_space_group_symop_operation_xyz
x,y,z
-x,-y,1/2+z
1/2-x,y,1/2+z
1/2+x,-y,z
loop_
_atom_site_type_symbol
_atom_site_label
_atom_site_fract_x
_atom_site_fract_y
_atom_site_fract_z
Si Si1 0.206590 0.471768 0.071430
Si Si2 0.574645 0.976241 0.831051
Si Si3 0.523339 0.447711 0.929422
Si Si4 0.158990 0.845626 0.659885
Si Si5 0.338181 0.826477 0.812610
Si Si6 0.208656 0.341731 0.755078
Si Si7 0.561464 0.443226 0.252171
Si Si8 0.621607 0.826423 0.105629
O O1 0.195848 0.687678 0.195968
O O2 0.247744 0.312440 0.146953
O O3 0.154242 0.382185 0.025863
O O4 0.225964 0.487652 0.904074
O O5 0.556515 0.682939 0.866585
O O6 0.533760 0.185178 0.837236
O O7 0.607012 0.049996 0.691819
O O8 0.606747 0.028195 0.979181
O O9 0.471894 0.543295 0.893228
O O10 0.532827 0.367371 0.102030
O O11 0.172045 0.858442 0.485262
O O12 0.169691 0.544302 0.696031
O O13 0.188473 0.049348 0.759889
O O14 0.390210 0.702677 0.787999
O O15 0.343585 0.105886 0.738209
O O16 0.577499 0.726359 0.193795
#
# Coordination Sequence:
#
# PCOD9341038 Si02
#       8
#     4   4   4   4   4   4   4   4
#     4  11  26  46  72 103 143 186 234 296 350 428
#     4  11  23  46  68  98 135 190 225 289 353 425
#     4  11  25  42  69  99 139 176 240 284 355 414
#     4  12  28  45  73 106 142 185 238 288 356 424
#     4  11  25  45  72 100 147 184 239 289 364 422
#     4  12  28  47  74 107 140 186 238 291 352 418
#     4  10  25  42  66 104 135 186 229 294 350 420
#     4  10  22  45  72  95 141 189 227 285 362 419
#
# _framework density 24.132822999999998
#
# number of rings (size 3 to 8) (size 9 to 14) (size 15 to 20)
#    0.000    1.000    2.500    2.250   12.250    1.000 
#    0.000    0.000    0.000    0.000    0.000    0.000 
#    0.000    0.000    0.000    0.000    0.000    0.000 
#
# Total GULP energy -178171.063380 kJ/mol
# GULP energy per Si atom -5567.845731 kJ/mol
# Density = 2.407790 g / cm^3
# Si number density = 24.132823 Si / 1000 Ang^3
#
#
#
# Elastic Constant Matrix: (Units=GPa)
#
#
# Indices 1 2 3 4 5 6 
#
# 1 52.1364 0.0508 -1.2089 0.0000 0.0000 0.0000
# 2 0.0508 59.1472 5.9209 0.0000 0.0000 0.0000
# 3 -1.2089 5.9209 96.4547 0.0000 0.0000 0.0000
# 4 0.0000 0.0000 0.0000 20.7552 0.0000 0.0000
# 5 0.0000 0.0000 0.0000 0.0000 30.5728 0.0000
# 6 0.0000 0.0000 0.0000 0.0000 0.0000 22.0449
#
#
#
# Elastic Compliance Matrix: (Units=1/GPa)
#
#
# Indices 1 2 3 4 5 6 
#
# 1 0.019186 -0.000041 0.000243 0.000000 0.000000 0.000000
# 2 -0.000041 0.017012 -0.001045 0.000000 0.000000 0.000000
# 3 0.000243 -0.001045 0.010435 0.000000 0.000000 0.000000
# 4 0.000000 0.000000 0.000000 0.048181 0.000000 0.000000
# 5 0.000000 0.000000 0.000000 0.000000 0.032709 0.000000
# 6 0.000000 0.000000 0.000000 0.000000 0.000000 0.045362
#
#
# Mechanical properties :
#
#
# Convention : Reuss Voigt Hill
#
# Bulk Modulus (GPa) = 22.24830 24.14043 23.19437
# Shear Modulus (GPa) = 26.37804 28.20627 27.29215
#
# Velocity S-wave (km/s) = 3.30970 3.42247 3.36656
# Velocity P-wave (km/s) = 4.88309 5.06385 4.97429
#
# Compressibility (1/GPa) = 0.04494725
#
# Stress axis : x y z
#
# Youngs Moduli (GPa) = 52.12097 58.78339 95.83370
#
# Poissons Ratio (x) = 0.00240 -0.02329
# Poissons Ratio (y) = 0.00213 0.10012
# Poissons Ratio (z) = -0.01266 0.06142
#
# Static dielectric constant tensor:
#      x y z
#    x 2.178010 0.000000 0.000000 
#    y 0.000000 2.016230 0.000000 
#    z 0.000000 0.000000 1.987280 
# 
# From -- ./inp_files/2611.got.cif
#   From: 2010.05.17/outbox.cif.g08.bks.cpg/sg29_2_cif.got.tgz:2611.got - 2010.06.04 01:19:37.
