data_PCOD9341631
_publ_section_title
;
Structure prediction by ZEFSAII (Michael W. Deem and Ramdas Pophale) SiO2 
 PCOD9341631
Probable space group: P C A 21
;
_chemical_formula_sum "Si O2"
_cell_formula_units_Z 28
_cell_length_a 10.676195
_cell_length_b 11.021684
_cell_length_c 9.285859
_cell_angle_alpha 90.000000
_cell_angle_beta 90.000000
_cell_angle_gamma 90.000000
_cell_volume 1092.663756
_symmetry_space_group_name_H-M "P C A 21"
_symmetry_group_IT_number 29
_symmetry_cell_setting 'orthorhombic'
loop_
_space_group_symop_operation_xyz
x,y,z
-x,-y,1/2+z
1/2-x,y,1/2+z
1/2+x,-y,z
loop_
_atom_site_type_symbol
_atom_site_label
_atom_site_fract_x
_atom_site_fract_y
_atom_site_fract_z
Si Si1 0.199944 0.184268 0.346710
Si Si2 0.338509 0.531253 0.532170
Si Si3 0.019880 0.517331 0.760333
Si Si4 0.376324 0.937707 0.692688
Si Si5 0.328924 0.740491 0.115017
Si Si6 0.822563 0.677995 0.093462
Si Si7 0.542347 0.888810 0.947797
O O1 0.112008 0.235409 0.473942
O O2 0.225834 0.259317 0.203645
O O3 0.329571 0.182574 0.433020
O O4 0.169383 0.051041 0.290264
O O5 0.458039 0.519279 0.429851
O O6 0.383072 0.503039 0.694744
O O7 0.264491 0.656497 0.521129
O O8 0.245302 0.423241 0.496667
O O9 0.091075 0.639423 0.704215
O O10 0.086735 0.398073 0.696154
O O11 0.267172 0.836821 0.687430
O O12 0.418550 0.991306 0.538206
O O13 0.497069 0.898747 0.783277
O O14 0.431968 0.819539 0.031172
#
# Coordination Sequence:
#
# PCOD9341631 Si02
#       7
#     4   4   4   4   4   4   4
#     4  12  25  48  74 108 150 198 252 318 379 464
#     4  11  26  47  73 111 147 200 250 320 383 458
#     4  11  26  44  75 106 148 198 252 313 397 444
#     4  12  28  48  75 111 153 207 259 319 388 461
#     4  11  27  49  75 112 155 202 264 326 373 480
#     4  11  25  45  73 102 147 189 251 312 377 454
#     4  12  27  47  75 106 152 198 256 310 389 449
#
# _framework density 25.625450000000001
#
# number of rings (size 3 to 8) (size 9 to 14) (size 15 to 20)
#    0.000    0.571    2.857    3.429    6.000    2.286 
#    0.000    0.000    0.000    0.000    0.000    0.000 
#    0.000    0.000    0.000    0.000    0.000    0.000 
#
# Total GULP energy -156645.056365 kJ/mol
# GULP energy per Si atom -5594.466299 kJ/mol
# Density = 2.556713 g / cm^3
# Si number density = 25.625450 Si / 1000 Ang^3
#
#
#
# Elastic Constant Matrix: (Units=GPa)
#
#
# Indices 1 2 3 4 5 6 
#
# 1 64.9064 4.7366 -0.8536 0.0000 0.0000 0.0000
# 2 4.7366 122.6098 6.3235 0.0000 0.0000 0.0000
# 3 -0.8536 6.3235 86.0469 0.0000 0.0000 0.0000
# 4 0.0000 0.0000 0.0000 29.6185 0.0000 0.0000
# 5 0.0000 0.0000 0.0000 0.0000 46.6870 0.0000
# 6 0.0000 0.0000 0.0000 0.0000 0.0000 38.1002
#
#
#
# Elastic Compliance Matrix: (Units=1/GPa)
#
#
# Indices 1 2 3 4 5 6 
#
# 1 0.015454 -0.000607 0.000198 0.000000 0.000000 0.000000
# 2 -0.000607 0.008211 -0.000609 0.000000 0.000000 0.000000
# 3 0.000198 -0.000609 0.011668 0.000000 0.000000 0.000000
# 4 0.000000 0.000000 0.000000 0.033763 0.000000 0.000000
# 5 0.000000 0.000000 0.000000 0.000000 0.021419 0.000000
# 6 0.000000 0.000000 0.000000 0.000000 0.000000 0.026247
#
#
# Mechanical properties :
#
#
# Convention : Reuss Voigt Hill
#
# Bulk Modulus (GPa) = 30.03411 32.66400 31.34905
# Shear Modulus (GPa) = 38.49194 40.43824 39.46509
#
# Velocity S-wave (km/s) = 3.87990 3.97678 3.92864
# Velocity P-wave (km/s) = 5.64068 5.81900 5.73053
#
# Compressibility (1/GPa) = 0.03329548
#
# Stress axis : x y z
#
# Youngs Moduli (GPa) = 64.70932 121.79016 85.70214
#
# Poissons Ratio (x) = 0.07395 -0.01696
# Poissons Ratio (y) = 0.03929 0.05223
# Poissons Ratio (z) = -0.01281 0.07422
#
# Static dielectric constant tensor:
#      x y z
#    x 1.971700 0.000000 0.000000 
#    y 0.000000 2.080330 0.000000 
#    z 0.000000 0.000000 2.024310 
# 
# From -- ./inp_files/1489.got.cif
#   From: 2010.05.17/outbox.cif.g08.bks.cpg/sg29_1_cif.got.tgz:1489.got - 2010.06.04 01:19:37.
