data_PCOD9341520
_publ_section_title
;
Structure prediction by ZEFSAII (Michael W. Deem and Ramdas Pophale) SiO2 
 PCOD9341520
Probable space group: P C A 21
;
_chemical_formula_sum "Si O2"
_cell_formula_units_Z 24
_cell_length_a 9.201055
_cell_length_b 7.087254
_cell_length_c 15.883913
_cell_angle_alpha 90.000000
_cell_angle_beta 90.000000
_cell_angle_gamma 90.000000
_cell_volume 1035.793364
_symmetry_space_group_name_H-M "P C A 21"
_symmetry_group_IT_number 29
_symmetry_cell_setting 'orthorhombic'
loop_
_space_group_symop_operation_xyz
x,y,z
-x,-y,1/2+z
1/2-x,y,1/2+z
1/2+x,-y,z
loop_
_atom_site_type_symbol
_atom_site_label
_atom_site_fract_x
_atom_site_fract_y
_atom_site_fract_z
Si Si1 0.346084 0.088888 0.551190
Si Si2 0.425815 0.213268 0.362835
Si Si3 0.363098 0.812711 0.121376
Si Si4 0.264525 0.914600 0.800453
Si Si5 0.139362 0.424529 0.538366
Si Si6 0.375927 0.612809 0.420408
O O1 0.410829 0.148212 0.460550
O O2 0.482516 0.083198 0.613286
O O3 0.235412 0.256974 0.575744
O O4 0.246662 0.903954 0.552784
O O5 0.568618 0.124882 0.321369
O O6 0.433416 0.439024 0.363304
O O7 0.284154 0.129158 0.317176
O O8 0.283629 0.850566 0.208477
O O9 0.392657 0.593361 0.102578
O O10 0.169673 0.788687 0.865020
O O11 0.236877 0.522636 0.466396
O O12 0.997175 0.348246 0.491340
#
# Coordination Sequence:
#
# PCOD9341520 Si02
#       6
#     4   4   4   4   4   4
#     4  11  25  43  71  93 135 180 233 274 331 419
#     4  11  24  44  68  99 129 183 230 274 332 413
#     4  12  26  45  65 105 137 178 222 286 348 391
#     4  12  27  42  69 101 144 170 224 289 345 393
#     4  11  23  44  69  96 128 177 236 269 330 405
#     4  11  23  44  68  98 127 178 231 274 326 411
#
# _framework density 23.170645
#
# number of rings (size 3 to 8) (size 9 to 14) (size 15 to 20)
#    0.000    0.667    5.000    3.000    9.333    2.667 
#    0.000    0.000    0.000    0.000    0.000    0.000 
#    0.000    0.000    0.000    0.000    0.000    0.000 
#
# Total GULP energy -134420.420220 kJ/mol
# GULP energy per Si atom -5600.850843 kJ/mol
# Density = 2.311791 g / cm^3
# Si number density = 23.170645 Si / 1000 Ang^3
#
#
#
# Elastic Constant Matrix: (Units=GPa)
#
#
# Indices 1 2 3 4 5 6 
#
# 1 89.5598 13.6214 -16.7800 0.0000 0.0000 0.0000
# 2 13.6214 70.2667 -1.7328 0.0000 0.0000 0.0000
# 3 -16.7800 -1.7328 42.6935 0.0000 0.0000 0.0000
# 4 0.0000 0.0000 0.0000 17.6269 0.0000 0.0000
# 5 0.0000 0.0000 0.0000 0.0000 25.6119 0.0000
# 6 0.0000 0.0000 0.0000 0.0000 0.0000 41.6643
#
#
#
# Elastic Compliance Matrix: (Units=1/GPa)
#
#
# Indices 1 2 3 4 5 6 
#
# 1 0.012410 -0.002288 0.004785 0.000000 0.000000 0.000000
# 2 -0.002288 0.014667 -0.000304 0.000000 0.000000 0.000000
# 3 0.004785 -0.000304 0.025291 0.000000 0.000000 0.000000
# 4 0.000000 0.000000 0.000000 0.056731 0.000000 0.000000
# 5 0.000000 0.000000 0.000000 0.000000 0.039044 0.000000
# 6 0.000000 0.000000 0.000000 0.000000 0.000000 0.024001
#
#
# Mechanical properties :
#
#
# Convention : Reuss Voigt Hill
#
# Bulk Modulus (GPa) = 17.61962 21.41526 19.51744
# Shear Modulus (GPa) = 26.78412 30.80805 28.79608
#
# Velocity S-wave (km/s) = 3.40362 3.65034 3.52914
# Velocity P-wave (km/s) = 4.80280 5.19896 5.00480
#
# Compressibility (1/GPa) = 0.05675491
#
# Stress axis : x y z
#
# Youngs Moduli (GPa) = 80.57922 68.17801 39.53975
#
# Poissons Ratio (x) = 0.15597 -0.18919
# Poissons Ratio (y) = 0.18435 0.01201
# Poissons Ratio (z) = -0.38555 0.02072
#
# Static dielectric constant tensor:
#      x y z
#    x 1.848020 0.000000 0.000000 
#    y 0.000000 1.902740 0.000000 
#    z 0.000000 0.000000 1.874040 
# 
# From -- ./inp_files/4217.got.cif
#   From: 2010.05.17/outbox.cif.g08.bks.cpg/sg29_3_cif.got.tgz:4217.got - 2010.06.04 01:19:37.
