data_PCOD9341254
_publ_section_title
;
Structure prediction by ZEFSAII (Michael W. Deem and Ramdas Pophale) SiO2 
 PCOD9341254
Probable space group: P C A 21
;
_chemical_formula_sum "Si O2"
_cell_formula_units_Z 32
_cell_length_a 15.751470
_cell_length_b 6.761030
_cell_length_c 13.659746
_cell_angle_alpha 90.000000
_cell_angle_beta 90.000000
_cell_angle_gamma 90.000000
_cell_volume 1454.710512
_symmetry_space_group_name_H-M "P C A 21"
_symmetry_group_IT_number 29
_symmetry_cell_setting 'orthorhombic'
loop_
_space_group_symop_operation_xyz
x,y,z
-x,-y,1/2+z
1/2-x,y,1/2+z
1/2+x,-y,z
loop_
_atom_site_type_symbol
_atom_site_label
_atom_site_fract_x
_atom_site_fract_y
_atom_site_fract_z
Si Si1 0.114871 0.615074 0.596030
Si Si2 0.493930 0.678396 0.495298
Si Si3 0.521623 0.935688 0.126538
Si Si4 0.694705 0.072784 0.479964
Si Si5 0.164319 0.116220 0.859093
Si Si6 0.468834 0.013833 0.846038
Si Si7 0.146260 0.375900 0.029425
Si Si8 0.795461 0.745918 0.151759
O O1 0.139449 0.435708 0.666183
O O2 0.060180 0.495512 0.516230
O O3 0.059088 0.791081 0.641021
O O4 0.190903 0.725359 0.540994
O O5 0.404578 0.575991 0.515820
O O6 0.500419 0.863731 0.569719
O O7 0.511051 0.769186 0.389408
O O8 0.583973 0.806243 0.059760
O O9 0.557481 0.982954 0.233142
O O10 0.780398 0.046402 0.417703
O O11 0.689599 0.892941 0.559351
O O12 0.609428 0.065549 0.412347
O O13 0.062199 0.088644 0.852283
O O14 0.202747 0.133745 0.751192
O O15 0.182377 0.311306 0.924235
O O16 0.211141 0.367732 0.118613
#
# Coordination Sequence:
#
# PCOD9341254 Si02
#       8
#     4   4   4   4   4   4   4   4
#     4  11  21  41  65  93 134 174 219 282 346 405
#     4  11  22  43  65  98 130 176 228 285 340 415
#     4  11  23  43  67  95 135 178 225 285 350 413
#     4  11  24  46  66  98 142 178 225 292 349 414
#     4  11  24  42  71 100 135 184 233 279 356 420
#     4  12  22  42  71  95 135 183 225 279 349 413
#     4  10  24  43  66  96 137 174 232 289 346 413
#     4  11  24  44  65  99 140 179 229 291 348 421
#
# _framework density 21.997505
#
# number of rings (size 3 to 8) (size 9 to 14) (size 15 to 20)
#    0.000    1.000    3.750    3.000    3.500    0.000 
#    4.500    1.250    0.000    0.000    0.000    0.000 
#    0.000    0.000    0.000    0.000    0.000    0.000 
#
# Total GULP energy -178589.739927 kJ/mol
# GULP energy per Si atom -5580.929373 kJ/mol
# Density = 2.194744 g / cm^3
# Si number density = 21.997505 Si / 1000 Ang^3
#
#
#
# Elastic Constant Matrix: (Units=GPa)
#
#
# Indices 1 2 3 4 5 6 
#
# 1 48.4430 8.0765 -0.8703 0.0000 0.0000 0.0000
# 2 8.0765 92.3972 15.3909 0.0000 0.0000 0.0000
# 3 -0.8703 15.3909 107.7529 0.0000 0.0000 0.0000
# 4 0.0000 0.0000 0.0000 22.6991 0.0000 0.0000
# 5 0.0000 0.0000 0.0000 0.0000 25.1994 0.0000
# 6 0.0000 0.0000 0.0000 0.0000 0.0000 27.1174
#
#
#
# Elastic Compliance Matrix: (Units=1/GPa)
#
#
# Indices 1 2 3 4 5 6 
#
# 1 0.020969 -0.001906 0.000442 0.000000 0.000000 0.000000
# 2 -0.001906 0.011260 -0.001624 0.000000 0.000000 0.000000
# 3 0.000442 -0.001624 0.009516 0.000000 0.000000 0.000000
# 4 0.000000 0.000000 0.000000 0.044055 0.000000 0.000000
# 5 0.000000 0.000000 0.000000 0.000000 0.039684 0.000000
# 6 0.000000 0.000000 0.000000 0.000000 0.000000 0.036877
#
#
# Mechanical properties :
#
#
# Convention : Reuss Voigt Hill
#
# Bulk Modulus (GPa) = 28.11553 32.64303 30.37928
# Shear Modulus (GPa) = 27.71739 30.06958 28.89348
#
# Velocity S-wave (km/s) = 3.55353 3.70125 3.62814
# Velocity P-wave (km/s) = 5.44479 5.75650 5.60281
#
# Compressibility (1/GPa) = 0.03556753
#
# Stress axis : x y z
#
# Youngs Moduli (GPa) = 47.69041 88.81031 105.08635
#
# Poissons Ratio (x) = 0.16931 -0.04641
# Poissons Ratio (y) = 0.09092 0.17063
# Poissons Ratio (z) = -0.02106 0.14420
#
# Static dielectric constant tensor:
#      x y z
#    x 1.918020 0.000000 0.000000 
#    y 0.000000 1.770250 0.000000 
#    z 0.000000 0.000000 1.795410 
# 
# From -- ./inp_files/4785.got.cif
#   From: 2010.05.17/outbox.cif.g08.bks.cpg/sg29_3_cif.got.tgz:4785.got - 2010.06.04 01:19:37.
