data_PCOD9341468
_publ_section_title
;
Structure prediction by ZEFSAII (Michael W. Deem and Ramdas Pophale) SiO2 
 PCOD9341468
Probable space group: P C A 21
;
_chemical_formula_sum "Si O2"
_cell_formula_units_Z 24
_cell_length_a 12.265571
_cell_length_b 8.528324
_cell_length_c 8.889562
_cell_angle_alpha 90.000000
_cell_angle_beta 90.000000
_cell_angle_gamma 90.000000
_cell_volume 929.890531
_symmetry_space_group_name_H-M "P C A 21"
_symmetry_group_IT_number 29
_symmetry_cell_setting 'orthorhombic'
loop_
_space_group_symop_operation_xyz
x,y,z
-x,-y,1/2+z
1/2-x,y,1/2+z
1/2+x,-y,z
loop_
_atom_site_type_symbol
_atom_site_label
_atom_site_fract_x
_atom_site_fract_y
_atom_site_fract_z
Si Si1 0.215144 0.208598 0.513530
Si Si2 0.237006 0.884074 0.903177
Si Si3 0.966433 0.711231 0.580703
Si Si4 0.017676 0.413151 0.420361
Si Si5 0.370560 0.759968 0.675042
Si Si6 0.062213 0.009350 0.705390
O O1 0.337290 0.258690 0.555502
O O2 0.138055 0.348010 0.457493
O O3 0.212148 0.059006 0.400744
O O4 0.150142 0.135857 0.652927
O O5 0.295081 0.737534 0.822043
O O6 0.114891 0.914868 0.841761
O O7 0.222023 0.845193 0.076139
O O8 0.994558 0.632318 0.744049
O O9 0.005200 0.597639 0.447711
O O10 0.026073 0.878316 0.585492
O O11 0.933471 0.347296 0.551316
O O12 0.456689 0.887179 0.730897
#
# Coordination Sequence:
#
# PCOD9341468 Si02
#       6
#     4   4   4   4   4   4
#     4  11  25  47  77 111 144 196 253 318 374 447
#     4  12  22  41  74 106 142 183 246 314 364 434
#     4  12  26  50  74 109 155 203 251 314 379 464
#     4  11  28  49  72 110 157 201 249 304 392 456
#     4  11  25  43  70 107 143 188 249 310 367 443
#     4  11  22  42  75 103 141 187 248 310 370 432
#
# _framework density 25.80949
#
# number of rings (size 3 to 8) (size 9 to 14) (size 15 to 20)
#    0.000    0.667    5.000    2.000    2.333    6.667 
#    3.000    0.000    0.000    0.000    0.000    0.000 
#    0.000    0.000    0.000    0.000    0.000    0.000 
#
# Total GULP energy -134049.052298 kJ/mol
# GULP energy per Si atom -5585.377179 kJ/mol
# Density = 2.575075 g / cm^3
# Si number density = 25.809490 Si / 1000 Ang^3
#
#
#
# Elastic Constant Matrix: (Units=GPa)
#
#
# Indices 1 2 3 4 5 6 
#
# 1 109.0106 32.3121 23.6888 0.0000 0.0000 0.0000
# 2 32.3121 99.3276 17.6991 0.0000 0.0000 0.0000
# 3 23.6888 17.6991 85.0471 0.0000 0.0000 0.0000
# 4 0.0000 0.0000 0.0000 47.7373 0.0000 0.0000
# 5 0.0000 0.0000 0.0000 0.0000 44.4179 0.0000
# 6 0.0000 0.0000 0.0000 0.0000 0.0000 24.7530
#
#
#
# Elastic Compliance Matrix: (Units=1/GPa)
#
#
# Indices 1 2 3 4 5 6 
#
# 1 0.010574 -0.003027 -0.002315 0.000000 0.000000 0.000000
# 2 -0.003027 0.011322 -0.001513 0.000000 0.000000 0.000000
# 3 -0.002315 -0.001513 0.012718 0.000000 0.000000 0.000000
# 4 0.000000 0.000000 0.000000 0.020948 0.000000 0.000000
# 5 0.000000 0.000000 0.000000 0.000000 0.022513 0.000000
# 6 0.000000 0.000000 0.000000 0.000000 0.000000 0.040399
#
#
# Mechanical properties :
#
#
# Convention : Reuss Voigt Hill
#
# Bulk Modulus (GPa) = 47.84020 48.97613 48.40817
# Shear Modulus (GPa) = 35.93166 38.02732 36.97949
#
# Velocity S-wave (km/s) = 3.73525 3.84263 3.78932
# Velocity P-wave (km/s) = 6.09745 6.22133 6.15971
#
# Compressibility (1/GPa) = 0.02090292
#
# Stress axis : x y z
#
# Youngs Moduli (GPa) = 94.57306 88.32299 78.62910
#
# Poissons Ratio (x) = 0.26737 0.18204
# Poissons Ratio (y) = 0.28629 0.11897
# Poissons Ratio (z) = 0.21896 0.13364
#
# Static dielectric constant tensor:
#      x y z
#    x 2.054120 0.000000 0.000000 
#    y 0.000000 2.032750 0.000000 
#    z 0.000000 0.000000 2.054050 
# 
# From -- ./inp_files/1407.got.cif
#   From: 2010.05.17/outbox.cif.g08.bks.cpg/sg29_1_cif.got.tgz:1407.got - 2010.06.04 01:19:37.
