data_PCOD9341458
_publ_section_title
;
Structure prediction by ZEFSAII (Michael W. Deem and Ramdas Pophale) SiO2 
 PCOD9341458
Probable space group: P C A 21
;
_chemical_formula_sum "Si O2"
_cell_formula_units_Z 20
_cell_length_a 11.505187
_cell_length_b 8.365098
_cell_length_c 9.360775
_cell_angle_alpha 90.000000
_cell_angle_beta 90.000000
_cell_angle_gamma 90.000000
_cell_volume 900.899864
_symmetry_space_group_name_H-M "P C A 21"
_symmetry_group_IT_number 29
_symmetry_cell_setting 'orthorhombic'
loop_
_space_group_symop_operation_xyz
x,y,z
-x,-y,1/2+z
1/2-x,y,1/2+z
1/2+x,-y,z
loop_
_atom_site_type_symbol
_atom_site_label
_atom_site_fract_x
_atom_site_fract_y
_atom_site_fract_z
Si Si1 0.173781 0.642551 0.617190
Si Si2 0.836925 0.625841 0.732869
Si Si3 0.729826 0.171404 0.869972
Si Si4 0.306694 0.194041 0.443115
Si Si5 0.037252 0.662974 0.344655
O O1 0.230015 0.492911 0.694563
O O2 0.272018 0.710649 0.506201
O O3 0.069371 0.615971 0.508212
O O4 0.149145 0.773269 0.739588
O O5 0.805411 0.714590 0.880081
O O6 0.836601 0.751888 0.603796
O O7 0.941263 0.499559 0.757570
O O8 0.861070 0.207461 0.812218
O O9 0.710608 0.993502 0.922310
O O10 0.413931 0.254076 0.345825
#
# Coordination Sequence:
#
# PCOD9341458 Si02
#       5
#     4   4   4   4   4
#     4   9  18  43  58  82 129 162 193 255 317 361
#     4  11  22  40  65  93 129 158 214 265 309 378
#     4   9  20  40  59  88 125 161 205 259 300 376
#     4  12  23  41  66  97 123 165 218 265 312 375
#     4   9  23  40  62  88 128 170 202 248 334 368
#
# _framework density 22.200025
#
# number of rings (size 3 to 8) (size 9 to 14) (size 15 to 20)
#    1.200    0.800    2.000    1.200    2.800    0.000 
#   10.800    0.000    0.000    0.000    0.000    0.000 
#    0.000    0.000    0.000    0.000    0.000    0.000 
#
# Total GULP energy -111467.780664 kJ/mol
# GULP energy per Si atom -5573.389033 kJ/mol
# Density = 2.214950 g / cm^3
# Si number density = 22.200025 Si / 1000 Ang^3
#
#
#
# Elastic Constant Matrix: (Units=GPa)
#
#
# Indices 1 2 3 4 5 6 
#
# 1 36.2476 12.2008 -2.2846 0.0000 0.0000 0.0000
# 2 12.2008 104.5044 42.9850 0.0000 0.0000 0.0000
# 3 -2.2846 42.9850 104.8977 0.0000 0.0000 0.0000
# 4 0.0000 0.0000 0.0000 46.8343 0.0000 0.0000
# 5 0.0000 0.0000 0.0000 0.0000 27.5263 0.0000
# 6 0.0000 0.0000 0.0000 0.0000 0.0000 21.4998
#
#
#
# Elastic Compliance Matrix: (Units=1/GPa)
#
#
# Indices 1 2 3 4 5 6 
#
# 1 0.029230 -0.004419 0.002448 0.000000 0.000000 0.000000
# 2 -0.004419 0.012177 -0.005086 0.000000 0.000000 0.000000
# 3 0.002448 -0.005086 0.011671 0.000000 0.000000 0.000000
# 4 0.000000 0.000000 0.000000 0.021352 0.000000 0.000000
# 5 0.000000 0.000000 0.000000 0.000000 0.036329 0.000000
# 6 0.000000 0.000000 0.000000 0.000000 0.000000 0.046512
#
#
# Mechanical properties :
#
#
# Convention : Reuss Voigt Hill
#
# Bulk Modulus (GPa) = 25.66628 39.05024 32.35826
# Shear Modulus (GPa) = 27.11890 32.02197 29.57044
#
# Velocity S-wave (km/s) = 3.49889 3.80205 3.65362
# Velocity P-wave (km/s) = 5.28294 6.07474 5.69262
#
# Compressibility (1/GPa) = 0.03896162
#
# Stress axis : x y z
#
# Youngs Moduli (GPa) = 34.21164 82.12221 85.68542
#
# Poissons Ratio (x) = 0.36292 -0.20972
# Poissons Ratio (y) = 0.15119 0.43581
# Poissons Ratio (z) = -0.08373 0.41768
#
# Static dielectric constant tensor:
#      x y z
#    x 1.867340 0.000000 0.000000 
#    y 0.000000 1.776420 0.000000 
#    z 0.000000 0.000000 1.838720 
# 
# From -- ./inp_files/1380.got.cif
#   From: 2010.05.17/outbox.cif.g08.bks.cpg/sg29_1_cif.got.tgz:1380.got - 2010.06.04 01:19:37.
