data_PCOD9341469
_publ_section_title
;
Structure prediction by ZEFSAII (Michael W. Deem and Ramdas Pophale) SiO2 
 PCOD9341469
Probable space group: P C A 21
;
_chemical_formula_sum "Si O2"
_cell_formula_units_Z 20
_cell_length_a 8.797055
_cell_length_b 7.561838
_cell_length_c 12.601005
_cell_angle_alpha 90.000000
_cell_angle_beta 90.000000
_cell_angle_gamma 90.000000
_cell_volume 838.242855
_symmetry_space_group_name_H-M "P C A 21"
_symmetry_group_IT_number 29
_symmetry_cell_setting 'orthorhombic'
loop_
_space_group_symop_operation_xyz
x,y,z
-x,-y,1/2+z
1/2-x,y,1/2+z
1/2+x,-y,z
loop_
_atom_site_type_symbol
_atom_site_label
_atom_site_fract_x
_atom_site_fract_y
_atom_site_fract_z
Si Si1 0.970763 0.892968 0.716230
Si Si2 0.738157 0.922720 0.014870
Si Si3 0.340812 0.220957 0.306411
Si Si4 0.196314 0.706301 0.562893
Si Si5 0.543181 0.633047 0.600469
O O1 0.867038 0.951051 0.616981
O O2 0.841282 0.803401 0.788174
O O3 0.101073 0.773746 0.664566
O O4 0.057803 0.052552 0.771150
O O5 0.882026 0.809790 0.052364
O O6 0.785547 0.123534 0.984858
O O7 0.650195 0.797451 0.932675
O O8 0.398156 0.369103 0.223625
O O9 0.363527 0.642135 0.594435
O O10 0.106005 0.530399 0.531961
#
# Coordination Sequence:
#
# PCOD9341469 Si02
#       5
#     4   4   4   4   4
#     4  11  22  43  68 100 140 184 225 296 357 422
#     4  11  24  45  71 105 141 185 240 299 359 431
#     4  11  23  41  70 104 135 186 238 283 365 425
#     4  12  23  47  72  96 152 182 232 303 358 418
#     4  11  24  46  67 103 138 189 237 297 357 430
#
# _framework density 23.859434
#
# number of rings (size 3 to 8) (size 9 to 14) (size 15 to 20)
#    0.000    0.800    6.000    2.400    5.600    0.000 
#    3.600    4.000    0.000    0.000    0.000    0.000 
#    0.000    0.000    0.000    0.000    0.000    0.000 
#
# Total GULP energy -111656.519571 kJ/mol
# GULP energy per Si atom -5582.825979 kJ/mol
# Density = 2.380513 g / cm^3
# Si number density = 23.859434 Si / 1000 Ang^3
#
#
#
# Elastic Constant Matrix: (Units=GPa)
#
#
# Indices 1 2 3 4 5 6 
#
# 1 176.1453 37.0563 -6.4597 0.0000 0.0000 0.0000
# 2 37.0563 108.0947 -12.0822 0.0000 0.0000 0.0000
# 3 -6.4597 -12.0822 27.1169 0.0000 0.0000 0.0000
# 4 0.0000 0.0000 0.0000 14.6994 0.0000 0.0000
# 5 0.0000 0.0000 0.0000 0.0000 -11.3513 0.0000
# 6 0.0000 0.0000 0.0000 0.0000 0.0000 37.0855
#
#
#
# Elastic Compliance Matrix: (Units=1/GPa)
#
#
# Indices 1 2 3 4 5 6 
#
# 1 0.006126 -0.002039 0.000551 0.000000 0.000000 0.000000
# 2 -0.002039 0.010414 0.004155 0.000000 0.000000 0.000000
# 3 0.000551 0.004155 0.038860 0.000000 0.000000 0.000000
# 4 0.000000 0.000000 0.000000 0.068030 0.000000 0.000000
# 5 0.000000 0.000000 0.000000 0.000000 -0.088096 0.000000
# 6 0.000000 0.000000 0.000000 0.000000 0.000000 0.026965
#
#
# Mechanical properties :
#
#
# Convention : Reuss Voigt Hill
#
# Bulk Modulus (GPa) = 16.46506 38.70950 27.58728
# Shear Modulus (GPa) = 64.75852 27.60956 46.18404
#
# Velocity S-wave (km/s) = 5.21542 3.40542 4.40440
# Velocity P-wave (km/s) = 6.57140 5.63220 6.11985
#
# Compressibility (1/GPa) = 0.06073466
#
# Stress axis : x y z
#
# Youngs Moduli (GPa) = 163.23345 96.02116 25.73353
#
# Poissons Ratio (x) = 0.19574 -0.01418
# Poissons Ratio (y) = 0.33276 -0.10691
# Poissons Ratio (z) = -0.08995 -0.39893
#
# Static dielectric constant tensor:
#      x y z
#    x 1.911360 0.000000 0.000000 
#    y 0.000000 1.967900 0.000000 
#    z 0.000000 0.000000 1.953490 
# 
# From -- ./inp_files/2793.got.cif
#   From: 2010.05.17/outbox.cif.g08.bks.cpg/sg29_2_cif.got.tgz:2793.got - 2010.06.04 01:19:37.
