data_PCOD9341333
_publ_section_title
;
Structure prediction by ZEFSAII (Michael W. Deem and Ramdas Pophale) SiO2 
 PCOD9341333
Probable space group: P C A 21
;
_chemical_formula_sum "Si O2"
_cell_formula_units_Z 32
_cell_length_a 25.443712
_cell_length_b 5.704093
_cell_length_c 9.393137
_cell_angle_alpha 90.000000
_cell_angle_beta 90.000000
_cell_angle_gamma 90.000000
_cell_volume 1363.256966
_symmetry_space_group_name_H-M "P C A 21"
_symmetry_group_IT_number 29
_symmetry_cell_setting 'orthorhombic'
loop_
_space_group_symop_operation_xyz
x,y,z
-x,-y,1/2+z
1/2-x,y,1/2+z
1/2+x,-y,z
loop_
_atom_site_type_symbol
_atom_site_label
_atom_site_fract_x
_atom_site_fract_y
_atom_site_fract_z
Si Si1 0.438806 0.384360 0.234860
Si Si2 0.696119 0.496028 0.308117
Si Si3 0.500350 0.666632 0.441862
Si Si4 0.162458 0.894713 0.088454
Si Si5 0.900752 0.122697 0.319014
Si Si6 0.253048 0.107495 0.239531
Si Si7 0.895921 0.874689 0.821806
Si Si8 0.813386 0.111121 0.001170
O O1 0.476640 0.431237 0.371032
O O2 0.405252 0.631361 0.229066
O O3 0.408248 0.137819 0.253326
O O4 0.475492 0.369431 0.096489
O O5 0.751736 0.622351 0.281958
O O6 0.645542 0.663158 0.312775
O O7 0.685319 0.325141 0.175296
O O8 0.694793 0.380736 0.464523
O O9 0.451762 0.841841 0.421797
O O10 0.547400 0.774575 0.349009
O O11 0.206825 0.088053 0.119534
O O12 0.112014 0.977577 0.178891
O O13 0.148274 0.864661 0.926245
O O14 0.226992 0.990349 0.379373
O O15 0.299864 0.984382 0.155913
O O16 0.870979 0.033865 0.947759
#
# Coordination Sequence:
#
# PCOD9341333 Si02
#       8
#     4   4   4   4   4   4   4   4
#     4  10  26  40  61  90 125 160 211 253 317 363
#     4   8  18  35  60  85 116 158 202 246 311 381
#     4  10  25  39  63  89 125 163 207 260 314 373
#     4   9  20  35  60  88 113 164 201 249 309 376
#     4  10  25  39  64  88 128 158 212 254 307 371
#     4   9  19  35  58  84 120 149 210 240 321 365
#     4   9  20  36  61  87 117 159 206 247 316 369
#     4   9  19  37  55  91 110 163 193 259 301 388
#
# _framework density 23.473195
#
# number of rings (size 3 to 8) (size 9 to 14) (size 15 to 20)
#    0.750    2.500    0.000    0.000   10.500    5.000 
#    2.250    1.250    0.000    0.000    0.000    0.000 
#    0.000    0.000    0.000    0.000    0.000    0.000 
#
# Total GULP energy -178172.142175 kJ/mol
# GULP energy per Si atom -5567.879443 kJ/mol
# Density = 2.341977 g / cm^3
# Si number density = 23.473195 Si / 1000 Ang^3
#
#
#
# Elastic Constant Matrix: (Units=GPa)
#
#
# Indices 1 2 3 4 5 6 
#
# 1 29.2049 -17.2397 14.2020 0.0000 0.0000 0.0000
# 2 -17.2397 82.2361 23.1383 0.0000 0.0000 0.0000
# 3 14.2020 23.1383 104.2883 0.0000 0.0000 0.0000
# 4 0.0000 0.0000 0.0000 31.3849 0.0000 0.0000
# 5 0.0000 0.0000 0.0000 0.0000 -120.8652 0.0000
# 6 0.0000 0.0000 0.0000 0.0000 0.0000 3.9172
#
#
#
# Elastic Compliance Matrix: (Units=1/GPa)
#
#
# Indices 1 2 3 4 5 6 
#
# 1 0.045707 0.012088 -0.008906 0.000000 0.000000 0.000000
# 2 0.012088 0.016167 -0.005233 0.000000 0.000000 0.000000
# 3 -0.008906 -0.005233 0.011963 0.000000 0.000000 0.000000
# 4 0.000000 0.000000 0.000000 0.031862 0.000000 0.000000
# 5 0.000000 0.000000 0.000000 0.000000 -0.008274 0.000000
# 6 0.000000 0.000000 0.000000 0.000000 0.000000 0.255284
#
#
# Mechanical properties :
#
#
# Convention : Reuss Voigt Hill
#
# Bulk Modulus (GPa) = 14.34025 28.43671 21.38848
# Shear Modulus (GPa) = 13.15594 -4.07070 4.54262
#
# Velocity S-wave (km/s) = 2.36999 -1.31831 1.39264
# Velocity P-wave (km/s) = 3.68939 3.13426 3.42309
#
# Compressibility (1/GPa) = 0.06973381
#
# Stress axis : x y z
#
# Youngs Moduli (GPa) = 21.87828 61.85609 83.59313
#
# Poissons Ratio (x) = -0.74771 0.74451
# Poissons Ratio (y) = -0.26446 0.43744
# Poissons Ratio (z) = 0.19486 0.32369
#
# Static dielectric constant tensor:
#      x y z
#    x 1.953820 0.000000 0.000000 
#    y 0.000000 2.049410 0.000000 
#    z 0.000000 0.000000 1.921840 
# 
# From -- ./inp_files/3990.got.cif
#   From: 2010.05.17/outbox.cif.g08.bks.cpg/sg29_2_cif.got.tgz:3990.got - 2010.06.04 01:19:37.
