data_PCOD9341094
_publ_section_title
;
Structure prediction by ZEFSAII (Michael W. Deem and Ramdas Pophale) SiO2 
 PCOD9341094
Probable space group: P C A 21
;
_chemical_formula_sum "Si O2"
_cell_formula_units_Z 32
_cell_length_a 9.178767
_cell_length_b 10.180262
_cell_length_c 13.911300
_cell_angle_alpha 90.000000
_cell_angle_beta 90.000000
_cell_angle_gamma 90.000000
_cell_volume 1299.903213
_symmetry_space_group_name_H-M "P C A 21"
_symmetry_group_IT_number 29
_symmetry_cell_setting 'orthorhombic'
loop_
_space_group_symop_operation_xyz
x,y,z
-x,-y,1/2+z
1/2-x,y,1/2+z
1/2+x,-y,z
loop_
_atom_site_type_symbol
_atom_site_label
_atom_site_fract_x
_atom_site_fract_y
_atom_site_fract_z
Si Si1 0.266290 0.428459 0.159230
Si Si2 0.070641 0.093175 0.619277
Si Si3 0.765974 0.219070 0.383788
Si Si4 0.755812 0.921551 0.316667
Si Si5 0.017954 0.247118 0.260135
Si Si6 0.715876 0.732887 0.991720
Si Si7 0.409946 0.803130 0.063301
Si Si8 0.415807 0.677720 0.708743
O O1 0.275791 0.398337 0.044097
O O2 0.424653 0.394575 0.203815
O O3 0.198914 0.570530 0.172849
O O4 0.146619 0.337381 0.216489
O O5 0.146368 0.077753 0.722507
O O6 0.190396 0.163319 0.553089
O O7 0.939587 0.192248 0.643323
O O8 0.042775 0.956633 0.566292
O O9 0.921228 0.282055 0.352902
O O10 0.720150 0.231008 0.493303
O O11 0.640817 0.276464 0.313437
O O12 0.772558 0.061706 0.366195
O O13 0.592630 0.892943 0.280670
O O14 0.779485 0.794980 0.385844
O O15 0.902086 0.229947 0.175097
O O16 0.548427 0.729260 0.020553
#
# Coordination Sequence:
#
# PCOD9341094 Si02
#       8
#     4   4   4   4   4   4   4   4
#     4  10  23  48  78 102 153 203 262 321 380 462
#     4  11  21  40  68 102 144 198 242 317 386 457
#     4  12  26  37  73 110 153 199 254 316 389 481
#     4  12  22  41  71 103 150 198 254 310 406 457
#     4  11  24  44  68 102 150 202 250 320 385 459
#     4  10  23  41  68 101 144 200 248 324 376 464
#     4  11  22  40  67 106 153 191 255 311 393 461
#     4  11  23  45  77 108 143 209 255 319 387 457
#
# _framework density 24.617218000000001
#
# number of rings (size 3 to 8) (size 9 to 14) (size 15 to 20)
#    0.000    1.000    6.250    2.250    1.750    0.000 
#    4.500    0.000   19.250    0.000    0.000    0.000 
#    0.000    0.000    0.000    0.000    0.000    0.000 
#
# Total GULP energy -178781.518620 kJ/mol
# GULP energy per Si atom -5586.922457 kJ/mol
# Density = 2.456119 g / cm^3
# Si number density = 24.617218 Si / 1000 Ang^3
#
#
#
# Elastic Constant Matrix: (Units=GPa)
#
#
# Indices 1 2 3 4 5 6 
#
# 1 105.0131 23.0709 25.8809 0.0000 0.0000 0.0000
# 2 23.0709 67.3272 4.2264 0.0000 0.0000 0.0000
# 3 25.8809 4.2264 106.5618 0.0000 0.0000 0.0000
# 4 0.0000 0.0000 0.0000 16.6493 0.0000 0.0000
# 5 0.0000 0.0000 0.0000 0.0000 40.9379 0.0000
# 6 0.0000 0.0000 0.0000 0.0000 0.0000 38.5295
#
#
#
# Elastic Compliance Matrix: (Units=1/GPa)
#
#
# Indices 1 2 3 4 5 6 
#
# 1 0.010930 -0.003588 -0.002512 0.000000 0.000000 0.000000
# 2 -0.003588 0.016068 0.000234 0.000000 0.000000 0.000000
# 3 -0.002512 0.000234 0.009985 0.000000 0.000000 0.000000
# 4 0.000000 0.000000 0.000000 0.060063 0.000000 0.000000
# 5 0.000000 0.000000 0.000000 0.000000 0.024427 0.000000
# 6 0.000000 0.000000 0.000000 0.000000 0.000000 0.025954
#
#
# Mechanical properties :
#
#
# Convention : Reuss Voigt Hill
#
# Bulk Modulus (GPa) = 39.60258 42.80648 41.20453
# Shear Modulus (GPa) = 29.83734 34.27160 32.05447
#
# Velocity S-wave (km/s) = 3.48523 3.73524 3.61240
# Velocity P-wave (km/s) = 5.68490 6.00244 5.84582
#
# Compressibility (1/GPa) = 0.02525088
#
# Stress axis : x y z
#
# Youngs Moduli (GPa) = 91.49148 62.23732 100.14918
#
# Poissons Ratio (x) = 0.22329 0.25160
# Poissons Ratio (y) = 0.32824 -0.02344
# Poissons Ratio (z) = 0.22985 -0.01457
#
# Static dielectric constant tensor:
#      x y z
#    x 1.970760 0.000000 0.000000 
#    y 0.000000 2.042890 0.000000 
#    z 0.000000 0.000000 1.988970 
# 
# From -- ./inp_files/4320.got.cif
#   From: 2010.05.17/outbox.cif.g08.bks.cpg/sg29_3_cif.got.tgz:4320.got - 2010.06.04 01:19:37.
