data_PCOD9341719
_publ_section_title
;
Structure prediction by ZEFSAII (Michael W. Deem and Ramdas Pophale) SiO2 
 PCOD9341719
Probable space group: P C A 21
;
_chemical_formula_sum "Si O2"
_cell_formula_units_Z 16
_cell_length_a 8.060274
_cell_length_b 9.400540
_cell_length_c 7.366202
_cell_angle_alpha 90.000000
_cell_angle_beta 90.000000
_cell_angle_gamma 90.000000
_cell_volume 558.143962
_symmetry_space_group_name_H-M "P C A 21"
_symmetry_group_IT_number 29
_symmetry_cell_setting 'orthorhombic'
loop_
_space_group_symop_operation_xyz
x,y,z
-x,-y,1/2+z
1/2-x,y,1/2+z
1/2+x,-y,z
loop_
_atom_site_type_symbol
_atom_site_label
_atom_site_fract_x
_atom_site_fract_y
_atom_site_fract_z
Si Si1 0.846046 0.171090 0.531800
Si Si2 0.926170 0.447177 0.752037
Si Si3 0.485538 0.118780 0.640674
Si Si4 0.704825 0.647122 0.974120
O O1 0.840769 0.318365 0.643836
O O2 0.649745 0.138265 0.516676
O O3 0.950838 0.172713 0.341105
O O4 0.934232 0.045530 0.643290
O O5 0.846932 0.533085 0.923764
O O6 0.919124 0.577910 0.617919
O O7 0.101468 0.373637 0.788470
O O8 0.322265 0.192425 0.544975
#
# Coordination Sequence:
#
# PCOD9341719 Si02
#       4
#     4   4   4   4
#     4  12  26  50  76 112 155 202 258 323 388 465
#     4  12  25  45  72 104 149 198 254 319 385 457
#     4  12  27  47  76 110 152 202 258 321 389 461
#     4  12  26  46  72 106 146 198 254 317 386 459
#
# _framework density 28.666437999999999
#
# number of rings (size 3 to 8) (size 9 to 14) (size 15 to 20)
#    0.000    0.000    0.000   12.000    0.000    8.000 
#    0.000    0.000    0.000    0.000    0.000    0.000 
#    0.000    0.000    0.000    0.000    0.000    0.000 
#
# Total GULP energy -89171.839821 kJ/mol
# GULP energy per Si atom -5573.239989 kJ/mol
# Density = 2.860119 g / cm^3
# Si number density = 28.666438 Si / 1000 Ang^3
#
#
#
# Elastic Constant Matrix: (Units=GPa)
#
#
# Indices 1 2 3 4 5 6 
#
# 1 121.8928 17.2727 22.3414 0.0000 0.0000 0.0000
# 2 17.2727 119.2596 36.3667 0.0000 0.0000 0.0000
# 3 22.3414 36.3667 129.3566 0.0000 0.0000 0.0000
# 4 0.0000 0.0000 0.0000 41.4740 0.0000 0.0000
# 5 0.0000 0.0000 0.0000 0.0000 39.4705 0.0000
# 6 0.0000 0.0000 0.0000 0.0000 0.0000 58.5566
#
#
#
# Elastic Compliance Matrix: (Units=1/GPa)
#
#
# Indices 1 2 3 4 5 6 
#
# 1 0.008552 -0.000862 -0.001235 0.000000 0.000000 0.000000
# 2 -0.000862 0.009258 -0.002454 0.000000 0.000000 0.000000
# 3 -0.001235 -0.002454 0.008634 0.000000 0.000000 0.000000
# 4 0.000000 0.000000 0.000000 0.024111 0.000000 0.000000
# 5 0.000000 0.000000 0.000000 0.000000 0.025335 0.000000
# 6 0.000000 0.000000 0.000000 0.000000 0.000000 0.017078
#
#
# Mechanical properties :
#
#
# Convention : Reuss Voigt Hill
#
# Bulk Modulus (GPa) = 57.66095 58.05231 57.85663
# Shear Modulus (GPa) = 46.36019 47.53544 46.94781
#
# Velocity S-wave (km/s) = 4.02584 4.07655 4.05127
# Velocity P-wave (km/s) = 6.46281 6.51557 6.48924
#
# Compressibility (1/GPa) = 0.01734276
#
# Stress axis : x y z
#
# Youngs Moduli (GPa) = 116.92613 108.01206 115.82522
#
# Poissons Ratio (x) = 0.09312 0.14301
# Poissons Ratio (y) = 0.10081 0.28422
# Poissons Ratio (z) = 0.14437 0.26505
#
# Static dielectric constant tensor:
#      x y z
#    x 2.480080 0.000000 0.000000 
#    y 0.000000 2.184730 0.000000 
#    z 0.000000 0.000000 2.429510 
# 
# From -- ./inp_files/1027.got.cif
#   From: 2010.05.17/outbox.cif.g08.bks.cpg/sg29_1_cif.got.tgz:1027.got - 2010.06.04 01:19:37.
