data_PCOD9341076
_publ_section_title
;
Structure prediction by ZEFSAII (Michael W. Deem and Ramdas Pophale) SiO2 
 PCOD9341076
Probable space group: P C A 21
;
_chemical_formula_sum "Si O2"
_cell_formula_units_Z 28
_cell_length_a 12.885583
_cell_length_b 18.579317
_cell_length_c 5.264282
_cell_angle_alpha 90.000000
_cell_angle_beta 90.000000
_cell_angle_gamma 90.000000
_cell_volume 1260.297176
_symmetry_space_group_name_H-M "P C A 21"
_symmetry_group_IT_number 29
_symmetry_cell_setting 'orthorhombic'
loop_
_space_group_symop_operation_xyz
x,y,z
-x,-y,1/2+z
1/2-x,y,1/2+z
1/2+x,-y,z
loop_
_atom_site_type_symbol
_atom_site_label
_atom_site_fract_x
_atom_site_fract_y
_atom_site_fract_z
Si Si1 0.504781 0.126298 0.991350
Si Si2 0.994159 0.546731 0.510266
Si Si3 0.319581 0.656862 0.905181
Si Si4 0.483023 0.779485 0.995839
Si Si5 0.726999 0.871298 0.406553
Si Si6 0.692326 0.028649 0.914082
Si Si7 0.322494 0.330788 0.531701
O O1 0.533139 0.182640 0.768505
O O2 0.389571 0.102492 0.917839
O O3 0.581344 0.059468 0.978778
O O4 0.504211 0.163453 0.266742
O O5 0.890630 0.595548 0.519651
O O6 0.013261 0.511509 0.785218
O O7 0.093013 0.596067 0.440080
O O8 0.262601 0.652106 0.634920
O O9 0.383729 0.731039 0.930333
O O10 0.585773 0.729537 0.012270
O O11 0.749018 0.828222 0.657501
O O12 0.799349 0.941888 0.413047
O O13 0.731086 0.053394 0.638945
O O14 0.242734 0.328492 0.294313
#
# Coordination Sequence:
#
# PCOD9341076 Si02
#       7
#     4   4   4   4   4   4   4
#     4  12  24  41  65  91 123 162 206 262 320 378
#     4  11  24  41  64 100 135 168 219 258 302 378
#     4  11  24  43  66  92 131 173 209 265 318 357
#     4  11  26  42  63  95 124 162 217 264 310 378
#     4  10  23  40  61  89 120 156 199 248 312 383
#     4  10  23  40  61  89 120 156 199 248 312 383
#     4  11  24  43  66  92 131 173 209 265 318 357
#
# _framework density 22.216982999999999
#
# number of rings (size 3 to 8) (size 9 to 14) (size 15 to 20)
#    0.000    1.143    0.000    5.143    0.000   19.429 
#    0.000    0.000    0.000    0.000    0.000    0.000 
#    0.000    0.000    0.000    0.000    0.000    0.000 
#
# Total GULP energy -156698.842039 kJ/mol
# GULP energy per Si atom -5596.387216 kJ/mol
# Density = 2.216642 g / cm^3
# Si number density = 22.216983 Si / 1000 Ang^3
#
#
#
# Elastic Constant Matrix: (Units=GPa)
#
#
# Indices 1 2 3 4 5 6 
#
# 1 54.3021 4.4690 -16.8040 0.0000 0.0000 0.0000
# 2 4.4690 53.8856 -20.2698 0.0000 0.0000 0.0000
# 3 -16.8040 -20.2698 96.0720 0.0000 0.0000 0.0000
# 4 0.0000 0.0000 0.0000 30.5287 0.0000 0.0000
# 5 0.0000 0.0000 0.0000 0.0000 44.6132 0.0000
# 6 0.0000 0.0000 0.0000 0.0000 0.0000 34.8163
#
#
#
# Elastic Compliance Matrix: (Units=1/GPa)
#
#
# Indices 1 2 3 4 5 6 
#
# 1 0.019476 -0.000363 0.003330 0.000000 0.000000 0.000000
# 2 -0.000363 0.020164 0.004191 0.000000 0.000000 0.000000
# 3 0.003330 0.004191 0.011876 0.000000 0.000000 0.000000
# 4 0.000000 0.000000 0.000000 0.032756 0.000000 0.000000
# 5 0.000000 0.000000 0.000000 0.000000 0.022415 0.000000
# 6 0.000000 0.000000 0.000000 0.000000 0.000000 0.028722
#
#
# Mechanical properties :
#
#
# Convention : Reuss Voigt Hill
#
# Bulk Modulus (GPa) = 15.19005 15.45002 15.32004
# Shear Modulus (GPa) = 34.95618 37.78261 36.36940
#
# Velocity S-wave (km/s) = 3.97091 4.12833 4.05039
# Velocity P-wave (km/s) = 5.27979 5.44916 5.36514
#
# Compressibility (1/GPa) = 0.06583255
#
# Stress axis : x y z
#
# Youngs Moduli (GPa) = 51.34576 49.59240 84.20662
#
# Poissons Ratio (x) = 0.01798 -0.28041
# Poissons Ratio (y) = 0.01862 -0.35291
# Poissons Ratio (z) = -0.17098 -0.20784
#
# Static dielectric constant tensor:
#      x y z
#    x 1.786350 0.000000 0.000000 
#    y 0.000000 1.814820 0.000000 
#    z 0.000000 0.000000 1.878610 
# 
# From -- ./inp_files/106.got.cif
#   From: 2010.05.17/outbox.cif.g08.bks.cpg/sg29_1_cif.got.tgz:106.got - 2010.06.04 01:19:37.
