data_PCOD9341100
_publ_section_title
;
Structure prediction by ZEFSAII (Michael W. Deem and Ramdas Pophale) SiO2 
 PCOD9341100
Probable space group: P C A 21
;
_chemical_formula_sum "Si O2"
_cell_formula_units_Z 32
_cell_length_a 13.247735
_cell_length_b 5.041765
_cell_length_c 18.823197
_cell_angle_alpha 90.000000
_cell_angle_beta 90.000000
_cell_angle_gamma 90.000000
_cell_volume 1257.238346
_symmetry_space_group_name_H-M "P C A 21"
_symmetry_group_IT_number 29
_symmetry_cell_setting 'orthorhombic'
loop_
_space_group_symop_operation_xyz
x,y,z
-x,-y,1/2+z
1/2-x,y,1/2+z
1/2+x,-y,z
loop_
_atom_site_type_symbol
_atom_site_label
_atom_site_fract_x
_atom_site_fract_y
_atom_site_fract_z
Si Si1 0.183553 0.568029 0.112190
Si Si2 0.870151 0.683909 0.158985
Si Si3 0.937420 0.270624 0.421467
Si Si4 0.205579 0.225578 0.905003
Si Si5 0.499009 0.409802 0.547309
Si Si6 0.172390 0.938452 0.526988
Si Si7 0.059559 0.866030 0.226563
Si Si8 0.613881 0.637434 0.308233
O O1 0.261866 0.448680 0.169320
O O2 0.112950 0.347147 0.074896
O O3 0.247165 0.715365 0.051269
O O4 0.112014 0.773388 0.153388
O O5 0.937171 0.465554 0.118034
O O6 0.940155 0.802081 0.219924
O O7 0.850576 0.902874 0.098880
O O8 0.853746 0.500967 0.414036
O O9 0.981981 0.327918 0.500029
O O10 0.028877 0.315122 0.367745
O O11 0.880353 0.999421 0.404434
O O12 0.278862 0.267685 0.838054
O O13 0.279940 0.129082 0.968327
O O14 0.569469 0.210392 0.503713
O O15 0.106581 0.668518 0.285164
O O16 0.080970 0.168034 0.244574
#
# Coordination Sequence:
#
# PCOD9341100 Si02
#       8
#     4   4   4   4   4   4   4   4
#     4  10  23  45  71 111 144 191 244 313 379 456
#     4  10  24  42  71 107 144 191 243 304 374 456
#     4  12  27  47  77 107 148 198 250 311 381 451
#     4  12  28  48  78 113 146 197 253 313 384 451
#     4  10  23  41  71 108 150 187 235 312 386 443
#     4  11  24  42  76 108 151 189 247 316 388 458
#     4  11  28  47  75 100 149 200 250 303 374 439
#     4  12  29  52  71 106 150 203 256 314 362 452
#
# _framework density 25.452611999999998
#
# number of rings (size 3 to 8) (size 9 to 14) (size 15 to 20)
#    0.000    1.000    1.250    3.000   15.750    4.000 
#    0.000    0.000    0.000    0.000    0.000    0.000 
#    0.000    0.000    0.000    0.000    0.000    0.000 
#
# Total GULP energy -179300.507063 kJ/mol
# GULP energy per Si atom -5603.140846 kJ/mol
# Density = 2.539468 g / cm^3
# Si number density = 25.452612 Si / 1000 Ang^3
#
#
#
# Elastic Constant Matrix: (Units=GPa)
#
#
# Indices 1 2 3 4 5 6 
#
# 1 125.5547 17.7461 20.4002 0.0000 0.0000 0.0000
# 2 17.7461 68.6941 2.5481 0.0000 0.0000 0.0000
# 3 20.4002 2.5481 62.4249 0.0000 0.0000 0.0000
# 4 0.0000 0.0000 0.0000 41.0597 0.0000 0.0000
# 5 0.0000 0.0000 0.0000 0.0000 43.7917 0.0000
# 6 0.0000 0.0000 0.0000 0.0000 0.0000 44.9560
#
#
#
# Elastic Compliance Matrix: (Units=1/GPa)
#
#
# Indices 1 2 3 4 5 6 
#
# 1 0.008717 -0.002150 -0.002761 0.000000 0.000000 0.000000
# 2 -0.002150 0.015109 0.000086 0.000000 0.000000 0.000000
# 3 -0.002761 0.000086 0.016918 0.000000 0.000000 0.000000
# 4 0.000000 0.000000 0.000000 0.024355 0.000000 0.000000
# 5 0.000000 0.000000 0.000000 0.000000 0.022835 0.000000
# 6 0.000000 0.000000 0.000000 0.000000 0.000000 0.022244
#
#
# Mechanical properties :
#
#
# Convention : Reuss Voigt Hill
#
# Bulk Modulus (GPa) = 32.15957 37.56250 34.86104
# Shear Modulus (GPa) = 38.40448 40.36011 39.38229
#
# Velocity S-wave (km/s) = 3.88862 3.98640 3.93781
# Velocity P-wave (km/s) = 5.72925 5.99820 5.86527
#
# Compressibility (1/GPa) = 0.03109495
#
# Stress axis : x y z
#
# Youngs Moduli (GPa) = 114.71735 66.18399 59.10855
#
# Poissons Ratio (x) = 0.14226 0.16320
# Poissons Ratio (y) = 0.24659 -0.00507
# Poissons Ratio (z) = 0.31673 -0.00567
#
# Static dielectric constant tensor:
#      x y z
#    x 2.054450 0.000000 0.000000 
#    y 0.000000 1.986560 0.000000 
#    z 0.000000 0.000000 2.027890 
# 
# From -- ./inp_files/5551.got.cif
#   From: 2010.05.17/outbox.cif.g08.bks.cpg/sg29_3_cif.got.tgz:5551.got - 2010.06.04 01:19:37.
