data_PCOD9341442
_publ_section_title
;
Structure prediction by ZEFSAII (Michael W. Deem and Ramdas Pophale) SiO2 
 PCOD9341442
Probable space group: P C A 21
;
_chemical_formula_sum "Si O2"
_cell_formula_units_Z 32
_cell_length_a 27.285175
_cell_length_b 6.456136
_cell_length_c 8.109708
_cell_angle_alpha 90.000000
_cell_angle_beta 90.000000
_cell_angle_gamma 90.000000
_cell_volume 1428.580215
_symmetry_space_group_name_H-M "P C A 21"
_symmetry_group_IT_number 29
_symmetry_cell_setting 'orthorhombic'
loop_
_space_group_symop_operation_xyz
x,y,z
-x,-y,1/2+z
1/2-x,y,1/2+z
1/2+x,-y,z
loop_
_atom_site_type_symbol
_atom_site_label
_atom_site_fract_x
_atom_site_fract_y
_atom_site_fract_z
Si Si1 0.972430 0.984827 0.550130
Si Si2 0.173202 0.573815 0.040476
Si Si3 0.277884 0.926893 0.346712
Si Si4 0.456318 0.734935 0.267386
Si Si5 0.193396 0.165241 0.169980
Si Si6 0.368810 0.957480 0.137508
Si Si7 0.408383 0.325829 0.327858
Si Si8 0.612295 0.102800 0.264922
O O1 0.936715 0.831544 0.448740
O O2 0.942822 0.083373 0.702685
O O3 0.016672 0.848048 0.617348
O O4 0.983161 0.175991 0.428786
O O5 0.134999 0.443677 0.927085
O O6 0.212123 0.704686 0.931761
O O7 0.200913 0.409733 0.158376
O O8 0.141212 0.729277 0.154029
O O9 0.226731 0.022331 0.288031
O O10 0.298310 0.081441 0.485749
O O11 0.312509 0.936358 0.186539
O O12 0.448510 0.491499 0.266528
O O13 0.400725 0.821959 0.264863
O O14 0.138543 0.115829 0.225427
O O15 0.386060 0.191216 0.177805
O O16 0.380531 0.871054 0.958250
#
# Coordination Sequence:
#
# PCOD9341442 Si02
#       8
#     4   4   4   4   4   4   4   4
#     4  11  23  40  65  94 134 176 226 290 334 410
#     4  11  21  45  70  92 136 186 215 284 356 404
#     4  11  23  42  67  97 137 173 231 283 345 410
#     4  11  23  42  65  95 133 181 225 280 348 407
#     4  11  23  42  66  98 133 178 229 283 339 416
#     4  11  23  42  66  97 136 176 223 286 337 406
#     4  11  21  44  68  93 137 181 226 277 350 414
#     4  11  23  41  65  96 136 175 225 279 345 409
#
# _framework density 22.399861999999999
#
# number of rings (size 3 to 8) (size 9 to 14) (size 15 to 20)
#    0.000    1.000    5.000    3.000    0.000    6.000 
#    2.250    0.000    0.000    0.000    0.000    0.000 
#    0.000    0.000    0.000    0.000    0.000    0.000 
#
# Total GULP energy -178710.833338 kJ/mol
# GULP energy per Si atom -5584.713542 kJ/mol
# Density = 2.234888 g / cm^3
# Si number density = 22.399862 Si / 1000 Ang^3
#
#
#
# Elastic Constant Matrix: (Units=GPa)
#
#
# Indices 1 2 3 4 5 6 
#
# 1 43.4988 3.5402 -4.1280 0.0000 0.0000 0.0000
# 2 3.5402 96.0912 9.3153 0.0000 0.0000 0.0000
# 3 -4.1280 9.3153 68.0387 0.0000 0.0000 0.0000
# 4 0.0000 0.0000 0.0000 27.2289 0.0000 0.0000
# 5 0.0000 0.0000 0.0000 0.0000 33.1846 0.0000
# 6 0.0000 0.0000 0.0000 0.0000 0.0000 24.3856
#
#
#
# Elastic Compliance Matrix: (Units=1/GPa)
#
#
# Indices 1 2 3 4 5 6 
#
# 1 0.023218 -0.001005 0.001546 0.000000 0.000000 0.000000
# 2 -0.001005 0.010590 -0.001511 0.000000 0.000000 0.000000
# 3 0.001546 -0.001511 0.014998 0.000000 0.000000 0.000000
# 4 0.000000 0.000000 0.000000 0.036726 0.000000 0.000000
# 5 0.000000 0.000000 0.000000 0.000000 0.030134 0.000000
# 6 0.000000 0.000000 0.000000 0.000000 0.000000 0.041008
#
#
# Mechanical properties :
#
#
# Convention : Reuss Voigt Hill
#
# Bulk Modulus (GPa) = 21.33728 25.00929 23.17328
# Shear Modulus (GPa) = 28.69669 30.21989 29.45829
#
# Velocity S-wave (km/s) = 3.58314 3.67701 3.63038
# Velocity P-wave (km/s) = 5.16380 5.40522 5.28589
#
# Compressibility (1/GPa) = 0.04686634
#
# Stress axis : x y z
#
# Youngs Moduli (GPa) = 43.07057 94.42608 66.67463
#
# Poissons Ratio (x) = 0.09493 -0.10310
# Poissons Ratio (y) = 0.04330 0.10074
# Poissons Ratio (z) = -0.06660 0.14267
#
# Static dielectric constant tensor:
#      x y z
#    x 1.864650 0.000000 0.000000 
#    y 0.000000 1.847260 0.000000 
#    z 0.000000 0.000000 1.855580 
# 
# From -- ./inp_files/2583.got.cif
#   From: 2010.05.17/outbox.cif.g08.bks.cpg/sg29_2_cif.got.tgz:2583.got - 2010.06.04 01:19:37.
