data_PCOD9341363
_publ_section_title
;
Structure prediction by ZEFSAII (Michael W. Deem and Ramdas Pophale) SiO2 
 PCOD9341363
Probable space group: P C A 21
;
_chemical_formula_sum "Si O2"
_cell_formula_units_Z 32
_cell_length_a 10.632292
_cell_length_b 13.087663
_cell_length_c 9.198743
_cell_angle_alpha 90.000000
_cell_angle_beta 90.000000
_cell_angle_gamma 90.000000
_cell_volume 1280.022149
_symmetry_space_group_name_H-M "P C A 21"
_symmetry_group_IT_number 29
_symmetry_cell_setting 'orthorhombic'
loop_
_space_group_symop_operation_xyz
x,y,z
-x,-y,1/2+z
1/2-x,y,1/2+z
1/2+x,-y,z
loop_
_atom_site_type_symbol
_atom_site_label
_atom_site_fract_x
_atom_site_fract_y
_atom_site_fract_z
Si Si1 0.647071 0.182305 0.324530
Si Si2 0.630457 0.511406 0.896657
Si Si3 0.442261 0.118332 0.533444
Si Si4 0.041102 0.601919 0.638271
Si Si5 0.670482 0.676173 0.354830
Si Si6 0.699505 0.298936 0.041945
Si Si7 0.512466 0.984664 0.767834
Si Si8 0.825430 0.803476 0.130851
O O1 0.528281 0.190985 0.434846
O O2 0.632344 0.250447 0.181460
O O3 0.766441 0.216460 0.417611
O O4 0.629549 0.063375 0.279219
O O5 0.531043 0.571717 0.992969
O O6 0.642239 0.399156 0.967740
O O7 0.583290 0.496205 0.732969
O O8 0.763748 0.569500 0.898817
O O9 0.438691 0.016856 0.432084
O O10 0.305102 0.154778 0.566296
O O11 0.510846 0.088696 0.681843
O O12 0.167277 0.662474 0.606190
O O13 0.940387 0.659449 0.739952
O O14 0.780516 0.736986 0.268866
O O15 0.623895 0.735315 0.497816
O O16 0.591695 0.898804 0.681838
#
# Coordination Sequence:
#
# PCOD9341363 Si02
#       8
#     4   4   4   4   4   4   4   4
#     4  10  26  48  74 106 148 188 245 309 364 454
#     4  12  28  45  71 107 152 200 250 307 366 433
#     4  10  25  51  71 112 142 191 239 312 376 454
#     4  12  27  42  73  99 147 200 249 301 362 435
#     4  12  26  46  68 108 145 197 246 301 363 434
#     4  12  25  51  70 111 149 199 250 307 375 429
#     4  10  26  48  75 106 147 189 239 311 379 450
#     4  12  25  47  76 103 148 192 246 304 369 449
#
# _framework density 24.999568
#
# number of rings (size 3 to 8) (size 9 to 14) (size 15 to 20)
#    0.750    0.000    3.750    2.250    8.750    1.000 
#    6.750    0.000    0.000    0.000    0.000    0.000 
#    0.000    0.000    0.000    0.000    0.000    0.000 
#
# Total GULP energy -179137.596205 kJ/mol
# GULP energy per Si atom -5598.049881 kJ/mol
# Density = 2.494267 g / cm^3
# Si number density = 24.999568 Si / 1000 Ang^3
#
#
#
# Elastic Constant Matrix: (Units=GPa)
#
#
# Indices 1 2 3 4 5 6 
#
# 1 52.1191 23.9458 4.9502 0.0000 0.0000 0.0000
# 2 23.9458 53.1785 24.6931 0.0000 0.0000 0.0000
# 3 4.9502 24.6931 106.1001 0.0000 0.0000 0.0000
# 4 0.0000 0.0000 0.0000 53.9278 0.0000 0.0000
# 5 0.0000 0.0000 0.0000 0.0000 54.7414 0.0000
# 6 0.0000 0.0000 0.0000 0.0000 0.0000 16.1129
#
#
#
# Elastic Compliance Matrix: (Units=1/GPa)
#
#
# Indices 1 2 3 4 5 6 
#
# 1 0.024429 -0.011740 0.001592 0.000000 0.000000 0.000000
# 2 -0.011740 0.026725 -0.005672 0.000000 0.000000 0.000000
# 3 0.001592 -0.005672 0.010671 0.000000 0.000000 0.000000
# 4 0.000000 0.000000 0.000000 0.018543 0.000000 0.000000
# 5 0.000000 0.000000 0.000000 0.000000 0.018268 0.000000
# 6 0.000000 0.000000 0.000000 0.000000 0.000000 0.062062
#
#
# Mechanical properties :
#
#
# Convention : Reuss Voigt Hill
#
# Bulk Modulus (GPa) = 33.12771 35.39733 34.26252
# Shear Modulus (GPa) = 24.70372 35.47699 30.09035
#
# Velocity S-wave (km/s) = 3.14692 3.77119 3.47311
# Velocity P-wave (km/s) = 5.14628 5.75781 5.46061
#
# Compressibility (1/GPa) = 0.03018621
#
# Stress axis : x y z
#
# Youngs Moduli (GPa) = 40.93439 37.41857 93.71342
#
# Poissons Ratio (x) = 0.43929 -0.14924
# Poissons Ratio (y) = 0.48056 0.53154
# Poissons Ratio (z) = -0.06519 0.21224
#
# Static dielectric constant tensor:
#      x y z
#    x 1.959010 0.000000 0.000000 
#    y 0.000000 2.041010 0.000000 
#    z 0.000000 0.000000 1.974610 
# 
# From -- ./inp_files/1592.got.cif
#   From: 2010.05.17/outbox.cif.g08.bks.cpg/sg29_1_cif.got.tgz:1592.got - 2010.06.04 01:19:37.
