data_PCOD9341568
_publ_section_title
;
Structure prediction by ZEFSAII (Michael W. Deem and Ramdas Pophale) SiO2 
 PCOD9341568
Probable space group: P C A 21
;
_chemical_formula_sum "Si O2"
_cell_formula_units_Z 32
_cell_length_a 12.345582
_cell_length_b 10.926556
_cell_length_c 10.461990
_cell_angle_alpha 90.000000
_cell_angle_beta 90.000000
_cell_angle_gamma 90.000000
_cell_volume 1411.266930
_symmetry_space_group_name_H-M "P C A 21"
_symmetry_group_IT_number 29
_symmetry_cell_setting 'orthorhombic'
loop_
_space_group_symop_operation_xyz
x,y,z
-x,-y,1/2+z
1/2-x,y,1/2+z
1/2+x,-y,z
loop_
_atom_site_type_symbol
_atom_site_label
_atom_site_fract_x
_atom_site_fract_y
_atom_site_fract_z
Si Si1 0.645053 0.162601 0.320370
Si Si2 0.313356 0.900755 0.097477
Si Si3 0.556799 0.302983 0.719527
Si Si4 0.068629 0.488799 0.047445
Si Si5 0.216822 0.331541 0.870183
Si Si6 0.922212 0.859008 0.211805
Si Si7 0.939280 0.716402 0.968145
Si Si8 0.289114 0.583415 0.755426
O O1 0.704355 0.105792 0.444894
O O2 0.713665 0.133046 0.191500
O O3 0.522788 0.113530 0.305663
O O4 0.642523 0.312010 0.328195
O O5 0.406045 0.798563 0.119840
O O6 0.361196 0.026017 0.152178
O O7 0.486880 0.409315 0.657189
O O8 0.667879 0.365220 0.764810
O O9 0.494178 0.242146 0.837059
O O10 0.162521 0.571140 0.112830
O O11 0.979782 0.577378 0.986709
O O12 0.122934 0.395696 0.950458
O O13 0.162823 0.232928 0.777943
O O14 0.278915 0.444379 0.802575
O O15 0.310055 0.273360 0.957625
O O16 0.975528 0.788400 0.092384
#
# Coordination Sequence:
#
# PCOD9341568 Si02
#       8
#     4   4   4   4   4   4   4   4
#     4  11  28  52  80 114 150 205 259 325 392 456
#     4  11  30  49  81 106 151 207 263 320 371 469
#     4  11  25  43  71 106 145 199 250 306 388 449
#     4  12  23  44  73 108 151 192 246 321 393 464
#     4  12  26  43  72 110 149 197 247 318 385 468
#     4  12  29  51  75 109 154 204 263 315 390 457
#     4  12  27  43  71 108 151 195 249 316 384 453
#     4  11  24  43  71 109 147 189 249 313 393 468
#
# _framework density 22.674659999999999
#
# number of rings (size 3 to 8) (size 9 to 14) (size 15 to 20)
#    0.000    0.500    3.750    3.000   14.000    0.000 
#    0.000    0.000    0.000    0.000    0.000    0.000 
#    0.000    0.000    0.000    0.000    0.000    0.000 
#
# Total GULP energy -179001.076373 kJ/mol
# GULP energy per Si atom -5593.783637 kJ/mol
# Density = 2.262305 g / cm^3
# Si number density = 22.674660 Si / 1000 Ang^3
#
#
#
# Elastic Constant Matrix: (Units=GPa)
#
#
# Indices 1 2 3 4 5 6 
#
# 1 78.0456 18.1035 24.7297 0.0000 0.0000 0.0000
# 2 18.1035 64.1064 12.2831 0.0000 0.0000 0.0000
# 3 24.7297 12.2831 94.6044 0.0000 0.0000 0.0000
# 4 0.0000 0.0000 0.0000 30.4092 0.0000 0.0000
# 5 0.0000 0.0000 0.0000 0.0000 29.9388 0.0000
# 6 0.0000 0.0000 0.0000 0.0000 0.0000 21.1285
#
#
#
# Elastic Compliance Matrix: (Units=1/GPa)
#
#
# Indices 1 2 3 4 5 6 
#
# 1 0.014699 -0.003502 -0.003388 0.000000 0.000000 0.000000
# 2 -0.003502 0.016831 -0.001270 0.000000 0.000000 0.000000
# 3 -0.003388 -0.001270 0.011621 0.000000 0.000000 0.000000
# 4 0.000000 0.000000 0.000000 0.032885 0.000000 0.000000
# 5 0.000000 0.000000 0.000000 0.000000 0.033401 0.000000
# 6 0.000000 0.000000 0.000000 0.000000 0.000000 0.047329
#
#
# Mechanical properties :
#
#
# Convention : Reuss Voigt Hill
#
# Bulk Modulus (GPa) = 37.26886 38.55435 37.91161
# Shear Modulus (GPa) = 27.46813 28.40464 27.93638
#
# Velocity S-wave (km/s) = 3.48430 3.54320 3.51387
# Velocity P-wave (km/s) = 5.71482 5.81198 5.76361
#
# Compressibility (1/GPa) = 0.02683205
#
# Stress axis : x y z
#
# Youngs Moduli (GPa) = 68.03322 59.41314 86.05307
#
# Poissons Ratio (x) = 0.20805 0.29151
# Poissons Ratio (y) = 0.23824 0.10928
# Poissons Ratio (z) = 0.23047 0.07545
#
# Static dielectric constant tensor:
#      x y z
#    x 1.820890 0.000000 0.000000 
#    y 0.000000 1.860810 0.000000 
#    z 0.000000 0.000000 1.882450 
# 
# From -- ./inp_files/3220.got.cif
#   From: 2010.05.17/outbox.cif.g08.bks.cpg/sg29_2_cif.got.tgz:3220.got - 2010.06.04 01:19:37.
