data_PCOD9341724
_publ_section_title
;
Structure prediction by ZEFSAII (Michael W. Deem and Ramdas Pophale) SiO2 
 PCOD9341724
Probable space group: P C A 21
;
_chemical_formula_sum "Si O2"
_cell_formula_units_Z 16
_cell_length_a 8.355376
_cell_length_b 4.752162
_cell_length_c 16.226257
_cell_angle_alpha 90.000000
_cell_angle_beta 90.000000
_cell_angle_gamma 90.000000
_cell_volume 644.281388
_symmetry_space_group_name_H-M "P C A 21"
_symmetry_group_IT_number 29
_symmetry_cell_setting 'orthorhombic'
loop_
_space_group_symop_operation_xyz
x,y,z
-x,-y,1/2+z
1/2-x,y,1/2+z
1/2+x,-y,z
loop_
_atom_site_type_symbol
_atom_site_label
_atom_site_fract_x
_atom_site_fract_y
_atom_site_fract_z
Si Si1 0.988972 0.914359 0.577850
Si Si2 0.053296 0.107397 0.393376
Si Si3 0.239648 0.589531 0.329140
Si Si4 0.198595 0.590434 0.140298
O O1 0.148626 0.753362 0.604979
O O2 0.850921 0.680165 0.587690
O O3 0.007261 0.030734 0.486071
O O4 0.943517 0.179217 0.634693
O O5 0.200931 0.324727 0.386747
O O6 0.907200 0.265383 0.349662
O O7 0.106609 0.825950 0.347483
O O8 0.228671 0.502959 0.234146
#
# Coordination Sequence:
#
# PCOD9341724 Si02
#       4
#     4   4   4   4
#     4  12  27  47  73 108 147 191 241 300 363 431
#     4  12  27  47  73 108 147 191 241 300 363 431
#     4  12  25  47  74 106 144 191 243 300 361 431
#     4  12  25  47  74 106 144 191 243 300 361 431
#
# _framework density 24.833870999999998
#
# number of rings (size 3 to 8) (size 9 to 14) (size 15 to 20)
#    0.000    0.000    0.000   10.500    0.000    4.000 
#    0.000    0.000    0.000    0.000    0.000    0.000 
#    0.000    0.000    0.000    0.000    0.000    0.000 
#
# Total GULP energy -89901.632728 kJ/mol
# GULP energy per Si atom -5618.852045 kJ/mol
# Density = 2.477735 g / cm^3
# Si number density = 24.833871 Si / 1000 Ang^3
#
#
#
# Elastic Constant Matrix: (Units=GPa)
#
#
# Indices 1 2 3 4 5 6 
#
# 1 66.3030 19.5274 5.7835 0.0000 0.0000 0.0000
# 2 19.5274 124.8562 29.4494 0.0000 0.0000 0.0000
# 3 5.7835 29.4494 72.6285 0.0000 0.0000 0.0000
# 4 0.0000 0.0000 0.0000 41.3313 0.0000 0.0000
# 5 0.0000 0.0000 0.0000 0.0000 39.2790 0.0000
# 6 0.0000 0.0000 0.0000 0.0000 0.0000 16.7757
#
#
#
# Elastic Compliance Matrix: (Units=1/GPa)
#
#
# Indices 1 2 3 4 5 6 
#
# 1 0.015816 -0.002407 -0.000284 0.000000 0.000000 0.000000
# 2 -0.002407 0.009222 -0.003548 0.000000 0.000000 0.000000
# 3 -0.000284 -0.003548 0.015230 0.000000 0.000000 0.000000
# 4 0.000000 0.000000 0.000000 0.024195 0.000000 0.000000
# 5 0.000000 0.000000 0.000000 0.000000 0.025459 0.000000
# 6 0.000000 0.000000 0.000000 0.000000 0.000000 0.059610
#
#
# Mechanical properties :
#
#
# Convention : Reuss Voigt Hill
#
# Bulk Modulus (GPa) = 35.98174 41.47870 38.73022
# Shear Modulus (GPa) = 29.19333 33.41236 31.30285
#
# Velocity S-wave (km/s) = 3.43234 3.67200 3.55419
# Velocity P-wave (km/s) = 5.49803 5.89210 5.69847
#
# Compressibility (1/GPa) = 0.02779188
#
# Stress axis : x y z
#
# Youngs Moduli (GPa) = 63.22784 108.43114 65.66038
#
# Poissons Ratio (x) = 0.26096 0.01862
# Poissons Ratio (y) = 0.15217 0.23295
# Poissons Ratio (z) = 0.01793 0.38470
#
# Static dielectric constant tensor:
#      x y z
#    x 2.050560 0.000000 0.000000 
#    y 0.000000 1.930250 0.000000 
#    z 0.000000 0.000000 1.866740 
# 
# From -- ./inp_files/4165.got.cif
#   From: 2010.05.17/outbox.cif.g08.bks.cpg/sg29_3_cif.got.tgz:4165.got - 2010.06.04 01:19:37.
