data_PCOD9341002
_publ_section_title
;
Structure prediction by ZEFSAII (Michael W. Deem and Ramdas Pophale) SiO2 
 PCOD9341002
Probable space group: P C A 21
;
_chemical_formula_sum "Si O2"
_cell_formula_units_Z 32
_cell_length_a 13.395061
_cell_length_b 7.598951
_cell_length_c 13.009373
_cell_angle_alpha 90.000000
_cell_angle_beta 90.000000
_cell_angle_gamma 90.000000
_cell_volume 1324.203421
_symmetry_space_group_name_H-M "P C A 21"
_symmetry_group_IT_number 29
_symmetry_cell_setting 'orthorhombic'
loop_
_space_group_symop_operation_xyz
x,y,z
-x,-y,1/2+z
1/2-x,y,1/2+z
1/2+x,-y,z
loop_
_atom_site_type_symbol
_atom_site_label
_atom_site_fract_x
_atom_site_fract_y
_atom_site_fract_z
Si Si1 0.566511 0.659228 0.595980
Si Si2 0.416879 0.194522 0.615653
Si Si3 0.611205 0.976239 0.892196
Si Si4 0.412125 0.505130 0.479560
Si Si5 0.765033 0.327697 0.356942
Si Si6 0.864012 0.290302 0.151145
Si Si7 0.533001 0.265555 0.316557
Si Si8 0.717877 0.920460 0.682667
O O1 0.484282 0.669631 0.505867
O O2 0.612010 0.461380 0.583440
O O3 0.503427 0.689485 0.701676
O O4 0.655702 0.798412 0.604090
O O5 0.394354 0.094419 0.508326
O O6 0.402436 0.397321 0.584798
O O7 0.529672 0.188150 0.655532
O O8 0.332662 0.129575 0.690705
O O9 0.499666 0.931798 0.850774
O O10 0.671214 0.888066 0.795634
O O11 0.672610 0.156057 0.891087
O O12 0.300475 0.536212 0.441742
O O13 0.470970 0.391026 0.394551
O O14 0.821770 0.380996 0.253078
O O15 0.649826 0.295757 0.336417
O O16 0.791222 0.122142 0.141583
#
# Coordination Sequence:
#
# PCOD9341002 Si02
#       8
#     4   4   4   4   4   4   4   4
#     4  10  22  44  64  97 139 173 220 296 328 411
#     4  10  23  45  63  99 139 173 224 297 329 418
#     4   9  23  44  64  94 141 170 229 283 337 409
#     4  10  23  43  64 103 132 171 233 274 347 422
#     4  11  23  43  70 100 128 190 226 277 365 419
#     4  10  23  43  65  96 135 173 230 279 345 410
#     4  10  22  46  67  93 142 174 224 294 339 414
#     4  10  23  42  69  98 128 186 228 268 356 409
#
# _framework density 24.165471
#
# number of rings (size 3 to 8) (size 9 to 14) (size 15 to 20)
#    0.000    2.000    1.250    0.000    3.500   11.000 
#    6.750    0.000    0.000    0.000    0.000    0.000 
#    0.000    0.000    0.000    0.000    0.000    0.000 
#
# Total GULP energy -178352.280954 kJ/mol
# GULP energy per Si atom -5573.508780 kJ/mol
# Density = 2.411047 g / cm^3
# Si number density = 24.165471 Si / 1000 Ang^3
#
#
#
# Elastic Constant Matrix: (Units=GPa)
#
#
# Indices 1 2 3 4 5 6 
#
# 1 145.4218 15.0902 34.7186 0.0000 0.0000 0.0000
# 2 15.0902 55.9809 -1.9432 0.0000 0.0000 0.0000
# 3 34.7186 -1.9432 43.0139 0.0000 0.0000 0.0000
# 4 0.0000 0.0000 0.0000 29.5636 0.0000 0.0000
# 5 0.0000 0.0000 0.0000 0.0000 29.9623 0.0000
# 6 0.0000 0.0000 0.0000 0.0000 0.0000 31.9346
#
#
#
# Elastic Compliance Matrix: (Units=1/GPa)
#
#
# Indices 1 2 3 4 5 6 
#
# 1 0.008894 -0.002651 -0.007299 0.000000 0.000000 0.000000
# 2 -0.002651 0.018681 0.002984 0.000000 0.000000 0.000000
# 3 -0.007299 0.002984 0.029274 0.000000 0.000000 0.000000
# 4 0.000000 0.000000 0.000000 0.033825 0.000000 0.000000
# 5 0.000000 0.000000 0.000000 0.000000 0.033375 0.000000
# 6 0.000000 0.000000 0.000000 0.000000 0.000000 0.031314
#
#
# Mechanical properties :
#
#
# Convention : Reuss Voigt Hill
#
# Bulk Modulus (GPa) = 23.30035 37.79422 30.54729
# Shear Modulus (GPa) = 27.23280 31.39548 29.31414
#
# Velocity S-wave (km/s) = 3.36062 3.60834 3.48668
# Velocity P-wave (km/s) = 4.97205 5.74751 5.37378
#
# Compressibility (1/GPa) = 0.04291781
#
# Stress axis : x y z
#
# Youngs Moduli (GPa) = 112.43371 53.52930 34.15981
#
# Poissons Ratio (x) = 0.14190 0.24932
# Poissons Ratio (y) = 0.29804 -0.10192
# Poissons Ratio (z) = 0.82061 -0.15971
#
# Static dielectric constant tensor:
#      x y z
#    x 1.960820 0.000000 0.000000 
#    y 0.000000 2.054030 0.000000 
#    z 0.000000 0.000000 1.989260 
# 
# From -- ./inp_files/4575.got.cif
#   From: 2010.05.17/outbox.cif.g08.bks.cpg/sg29_3_cif.got.tgz:4575.got - 2010.06.04 01:19:37.
