data_PCOD9341632
_publ_section_title
;
Structure prediction by ZEFSAII (Michael W. Deem and Ramdas Pophale) SiO2 
 PCOD9341632
Probable space group: P C A 21
;
_chemical_formula_sum "Si O2"
_cell_formula_units_Z 32
_cell_length_a 15.301637
_cell_length_b 8.697277
_cell_length_c 11.404628
_cell_angle_alpha 90.000000
_cell_angle_beta 90.000000
_cell_angle_gamma 90.000000
_cell_volume 1517.757267
_symmetry_space_group_name_H-M "P C A 21"
_symmetry_group_IT_number 29
_symmetry_cell_setting 'orthorhombic'
loop_
_space_group_symop_operation_xyz
x,y,z
-x,-y,1/2+z
1/2-x,y,1/2+z
1/2+x,-y,z
loop_
_atom_site_type_symbol
_atom_site_label
_atom_site_fract_x
_atom_site_fract_y
_atom_site_fract_z
Si Si1 0.035792 0.336831 0.147330
Si Si2 0.096371 0.645374 0.243009
Si Si3 0.871093 0.735296 0.057057
Si Si4 0.802917 0.202157 0.546797
Si Si5 0.627069 0.390436 0.505190
Si Si6 0.681209 0.837725 0.019563
Si Si7 0.931525 0.860453 0.294417
Si Si8 0.532418 0.204559 0.883272
O O1 0.069316 0.511080 0.153802
O O2 0.119457 0.229858 0.122156
O O3 0.989825 0.308039 0.271761
O O4 0.962211 0.310589 0.048663
O O5 0.167871 0.745564 0.176044
O O6 0.124831 0.574364 0.366728
O O7 0.016059 0.756370 0.272682
O O8 0.775449 0.763277 0.006779
O O9 0.879248 0.837916 0.173724
O O10 0.873235 0.551190 0.075744
O O11 0.951319 0.782593 0.973083
O O12 0.710641 0.282834 0.523787
O O13 0.879102 0.247429 0.453204
O O14 0.802841 0.018382 0.538168
O O15 0.627627 0.805608 0.901498
O O16 0.957468 0.033453 0.329663
#
# Coordination Sequence:
#
# PCOD9341632 Si02
#       8
#     4   4   4   4   4   4   4   4
#     4  12  25  46  71 102 141 186 233 295 358 428
#     4  12  24  47  73  99 144 187 233 296 359 429
#     4  12  26  47  70 106 147 184 240 297 361 428
#     4  11  27  46  70 105 143 183 239 295 357 431
#     4  12  27  44  74 108 139 192 237 296 364 434
#     4  11  28  45  69 107 141 188 242 295 360 434
#     4  11  25  45  73  98 142 189 235 297 356 424
#     4  11  26  46  70 103 141 189 235 297 357 424
#
# _framework density 21.083741
#
# number of rings (size 3 to 8) (size 9 to 14) (size 15 to 20)
#    0.000    0.500    5.000    1.500    8.750    3.000 
#    0.000    0.000    0.000    0.000    0.000    0.000 
#    0.000    0.000    0.000    0.000    0.000    0.000 
#
# Total GULP energy -178905.903995 kJ/mol
# GULP energy per Si atom -5590.809500 kJ/mol
# Density = 2.103575 g / cm^3
# Si number density = 21.083741 Si / 1000 Ang^3
#
#
#
# Elastic Constant Matrix: (Units=GPa)
#
#
# Indices 1 2 3 4 5 6 
#
# 1 128.6560 45.7446 15.4100 0.0000 0.0000 0.0000
# 2 45.7446 80.1839 13.1856 0.0000 0.0000 0.0000
# 3 15.4100 13.1856 72.2384 0.0000 0.0000 0.0000
# 4 0.0000 0.0000 0.0000 33.9818 0.0000 0.0000
# 5 0.0000 0.0000 0.0000 0.0000 15.6660 0.0000
# 6 0.0000 0.0000 0.0000 0.0000 0.0000 32.4156
#
#
#
# Elastic Compliance Matrix: (Units=1/GPa)
#
#
# Indices 1 2 3 4 5 6 
#
# 1 0.009836 -0.005429 -0.001107 0.000000 0.000000 0.000000
# 2 -0.005429 0.015854 -0.001736 0.000000 0.000000 0.000000
# 3 -0.001107 -0.001736 0.014396 0.000000 0.000000 0.000000
# 4 0.000000 0.000000 0.000000 0.029428 0.000000 0.000000
# 5 0.000000 0.000000 0.000000 0.000000 0.063833 0.000000
# 6 0.000000 0.000000 0.000000 0.000000 0.000000 0.030849
#
#
# Mechanical properties :
#
#
# Convention : Reuss Voigt Hill
#
# Bulk Modulus (GPa) = 42.47769 47.75097 45.11433
# Shear Modulus (GPa) = 26.51303 30.19520 28.35411
#
# Velocity S-wave (km/s) = 3.54999 3.78849 3.67118
# Velocity P-wave (km/s) = 6.08228 6.46794 6.27807
#
# Compressibility (1/GPa) = 0.02354177
#
# Stress axis : x y z
#
# Youngs Moduli (GPa) = 101.67096 63.07533 69.46353
#
# Poissons Ratio (x) = 0.34244 0.07691
# Poissons Ratio (y) = 0.55199 0.12057
# Poissons Ratio (z) = 0.11257 0.10948
#
# Static dielectric constant tensor:
#      x y z
#    x 1.742510 0.000000 0.000000 
#    y 0.000000 1.763310 0.000000 
#    z 0.000000 0.000000 1.767200 
# 
# From -- ./inp_files/3506.got.cif
#   From: 2010.05.17/outbox.cif.g08.bks.cpg/sg29_2_cif.got.tgz:3506.got - 2010.06.04 01:19:37.
