data_PCOD9341293
_publ_section_title
;
Structure prediction by ZEFSAII (Michael W. Deem and Ramdas Pophale) SiO2 
 PCOD9341293
Probable space group: P C A 21
;
_chemical_formula_sum "Si O2"
_cell_formula_units_Z 32
_cell_length_a 8.628884
_cell_length_b 8.740362
_cell_length_c 17.994301
_cell_angle_alpha 90.000000
_cell_angle_beta 90.000000
_cell_angle_gamma 90.000000
_cell_volume 1357.122441
_symmetry_space_group_name_H-M "P C A 21"
_symmetry_group_IT_number 29
_symmetry_cell_setting 'orthorhombic'
loop_
_space_group_symop_operation_xyz
x,y,z
-x,-y,1/2+z
1/2-x,y,1/2+z
1/2+x,-y,z
loop_
_atom_site_type_symbol
_atom_site_label
_atom_site_fract_x
_atom_site_fract_y
_atom_site_fract_z
Si Si1 0.009039 0.278651 0.622760
Si Si2 0.180485 0.047043 0.729089
Si Si3 0.534497 0.362171 0.458019
Si Si4 0.537214 0.660391 0.366377
Si Si5 0.323527 0.816499 0.486460
Si Si6 0.166128 0.438709 0.094223
Si Si7 0.679069 0.889361 0.895349
Si Si8 0.496586 0.221423 0.706768
O O1 0.074081 0.175276 0.689183
O O2 0.158018 0.380049 0.596636
O O3 0.944102 0.178858 0.554377
O O4 0.873463 0.402604 0.635403
O O5 0.143951 0.033232 0.816320
O O6 0.356515 0.101249 0.721700
O O7 0.146066 0.882642 0.693907
O O8 0.572661 0.491619 0.397382
O O9 0.679227 0.294382 0.503332
O O10 0.404426 0.434468 0.511741
O O11 0.465167 0.212480 0.419420
O O12 0.404035 0.734348 0.416445
O O13 0.683903 0.769420 0.380979
O O14 0.493887 0.671962 0.279706
O O15 0.281665 0.985831 0.457935
O O16 0.062678 0.315864 0.137873
#
# Coordination Sequence:
#
# PCOD9341293 Si02
#       8
#     4   4   4   4   4   4   4   4
#     4  11  25  45  69 101 140 180 232 283 344 413
#     4  10  24  45  68  98 137 181 227 288 339 411
#     4  12  26  42  71 104 138 188 227 288 352 410
#     4  11  23  45  69 100 141 177 231 288 341 416
#     4  12  24  43  71 102 138 185 228 286 346 414
#     4  11  25  46  67 102 139 180 233 282 344 415
#     4  11  25  45  69 101 141 182 233 288 347 415
#     4  10  24  45  70  98 138 181 229 287 343 410
#
# _framework density 23.5793
#
# number of rings (size 3 to 8) (size 9 to 14) (size 15 to 20)
#    0.000    1.000    2.500    3.000    5.250    2.000 
#    2.250    0.000    0.000    0.000    0.000    0.000 
#    0.000    0.000    0.000    0.000    0.000    0.000 
#
# Total GULP energy -179151.496116 kJ/mol
# GULP energy per Si atom -5598.484254 kJ/mol
# Density = 2.352563 g / cm^3
# Si number density = 23.579300 Si / 1000 Ang^3
#
#
#
# Elastic Constant Matrix: (Units=GPa)
#
#
# Indices 1 2 3 4 5 6 
#
# 1 51.4307 19.0605 14.6629 0.0000 0.0000 0.0000
# 2 19.0605 107.0175 16.5521 0.0000 0.0000 0.0000
# 3 14.6629 16.5521 53.8378 0.0000 0.0000 0.0000
# 4 0.0000 0.0000 0.0000 36.1604 0.0000 0.0000
# 5 0.0000 0.0000 0.0000 0.0000 27.4920 0.0000
# 6 0.0000 0.0000 0.0000 0.0000 0.0000 40.3557
#
#
#
# Elastic Compliance Matrix: (Units=1/GPa)
#
#
# Indices 1 2 3 4 5 6 
#
# 1 0.022046 -0.003148 -0.005037 0.000000 0.000000 0.000000
# 2 -0.003148 0.010260 -0.002297 0.000000 0.000000 0.000000
# 3 -0.005037 -0.002297 0.020652 0.000000 0.000000 0.000000
# 4 0.000000 0.000000 0.000000 0.027655 0.000000 0.000000
# 5 0.000000 0.000000 0.000000 0.000000 0.036374 0.000000
# 6 0.000000 0.000000 0.000000 0.000000 0.000000 0.024780
#
#
# Mechanical properties :
#
#
# Convention : Reuss Voigt Hill
#
# Bulk Modulus (GPa) = 31.25406 34.75967 33.00687
# Shear Modulus (GPa) = 28.83590 31.60232 30.21911
#
# Velocity S-wave (km/s) = 3.50084 3.66492 3.58382
# Velocity P-wave (km/s) = 5.44287 5.71686 5.58155
#
# Compressibility (1/GPa) = 0.03199584
#
# Stress axis : x y z
#
# Youngs Moduli (GPa) = 45.35952 97.46437 48.42077
#
# Poissons Ratio (x) = 0.30677 0.24388
# Poissons Ratio (y) = 0.14277 0.11123
# Poissons Ratio (z) = 0.22846 0.22389
#
# Static dielectric constant tensor:
#      x y z
#    x 1.977720 0.000000 0.000000 
#    y 0.000000 1.901540 0.000000 
#    z 0.000000 0.000000 1.856160 
# 
# From -- ./inp_files/5419.got.cif
#   From: 2010.05.17/outbox.cif.g08.bks.cpg/sg29_3_cif.got.tgz:5419.got - 2010.06.04 01:19:37.
