data_PCOD9341744
_publ_section_title
;
Structure prediction by ZEFSAII (Michael W. Deem and Ramdas Pophale) SiO2 
 PCOD9341744
Probable space group: P C A 21
;
_chemical_formula_sum "Si O2"
_cell_formula_units_Z 24
_cell_length_a 11.443877
_cell_length_b 7.014285
_cell_length_c 13.484374
_cell_angle_alpha 90.000000
_cell_angle_beta 90.000000
_cell_angle_gamma 90.000000
_cell_volume 1082.398991
_symmetry_space_group_name_H-M "P C A 21"
_symmetry_group_IT_number 29
_symmetry_cell_setting 'orthorhombic'
loop_
_space_group_symop_operation_xyz
x,y,z
-x,-y,1/2+z
1/2-x,y,1/2+z
1/2+x,-y,z
loop_
_atom_site_type_symbol
_atom_site_label
_atom_site_fract_x
_atom_site_fract_y
_atom_site_fract_z
Si Si1 0.446619 0.023697 0.200060
Si Si2 0.622601 0.360929 0.155557
Si Si3 0.182589 0.832047 0.531503
Si Si4 0.210765 0.118101 0.888773
Si Si5 0.470082 0.421362 0.466362
Si Si6 0.569788 0.677400 0.303341
O O1 0.545278 0.185431 0.194762
O O2 0.353897 0.075352 0.285330
O O3 0.385731 0.993406 0.094045
O O4 0.505106 0.823963 0.231003
O O5 0.743338 0.285735 0.111419
O O6 0.637117 0.518004 0.240152
O O7 0.553935 0.461927 0.065800
O O8 0.089612 0.697736 0.477375
O O9 0.270148 0.930368 0.454378
O O10 0.337739 0.203880 0.866946
O O11 0.132857 0.271062 0.947149
O O12 0.481807 0.565932 0.374982
#
# Coordination Sequence:
#
# PCOD9341744 Si02
#       6
#     4   4   4   4   4   4
#     4  12  26  50  74 110 152 194 242 310 364 446
#     4  12  27  47  75 109 145 193 245 300 370 439
#     4  12  27  46  78 108 150 195 247 301 376 439
#     4  12  27  46  78 108 150 195 247 301 376 439
#     4  12  26  50  74 108 152 192 246 312 368 444
#     4  12  27  47  75 109 145 193 245 300 370 439
#
# _framework density 22.172968999999998
#
# number of rings (size 3 to 8) (size 9 to 14) (size 15 to 20)
#    0.000    0.000    3.333    6.000    9.333    0.000 
#    0.000    0.000    0.000    0.000    0.000    0.000 
#    0.000    0.000    0.000    0.000    0.000    0.000 
#
# Total GULP energy -134566.292951 kJ/mol
# GULP energy per Si atom -5606.928873 kJ/mol
# Density = 2.212250 g / cm^3
# Si number density = 22.172969 Si / 1000 Ang^3
#
#
#
# Elastic Constant Matrix: (Units=GPa)
#
#
# Indices 1 2 3 4 5 6 
#
# 1 55.0008 4.8880 -5.8204 0.0000 0.0000 0.0000
# 2 4.8880 66.6597 13.0022 0.0000 0.0000 0.0000
# 3 -5.8204 13.0022 65.1289 0.0000 0.0000 0.0000
# 4 0.0000 0.0000 0.0000 50.8706 0.0000 0.0000
# 5 0.0000 0.0000 0.0000 0.0000 43.5772 0.0000
# 6 0.0000 0.0000 0.0000 0.0000 0.0000 27.3983
#
#
#
# Elastic Compliance Matrix: (Units=1/GPa)
#
#
# Indices 1 2 3 4 5 6 
#
# 1 0.018550 -0.001752 0.002007 0.000000 0.000000 0.000000
# 2 -0.001752 0.015775 -0.003306 0.000000 0.000000 0.000000
# 3 0.002007 -0.003306 0.016194 0.000000 0.000000 0.000000
# 4 0.000000 0.000000 0.000000 0.019658 0.000000 0.000000
# 5 0.000000 0.000000 0.000000 0.000000 0.022948 0.000000
# 6 0.000000 0.000000 0.000000 0.000000 0.000000 0.036499
#
#
# Mechanical properties :
#
#
# Convention : Reuss Voigt Hill
#
# Bulk Modulus (GPa) = 22.51350 23.43656 22.97503
# Shear Modulus (GPa) = 33.21634 36.01719 34.61676
#
# Velocity S-wave (km/s) = 3.87467 4.03472 3.95551
# Velocity P-wave (km/s) = 5.49482 5.68315 5.58978
#
# Compressibility (1/GPa) = 0.04441780
#
# Stress axis : x y z
#
# Youngs Moduli (GPa) = 53.90927 63.39215 61.75306
#
# Poissons Ratio (x) = 0.11105 -0.12397
# Poissons Ratio (y) = 0.09444 0.20414
# Poissons Ratio (z) = -0.10822 0.20956
#
# Static dielectric constant tensor:
#      x y z
#    x 1.768200 0.000000 0.000000 
#    y 0.000000 1.779680 0.000000 
#    z 0.000000 0.000000 1.782410 
# 
# From -- ./inp_files/4421.got.cif
#   From: 2010.05.17/outbox.cif.g08.bks.cpg/sg29_3_cif.got.tgz:4421.got - 2010.06.04 01:19:37.
