data_PCOD9341144
_publ_section_title
;
Structure prediction by ZEFSAII (Michael W. Deem and Ramdas Pophale) SiO2 
 PCOD9341144
Probable space group: P C A 21
;
_chemical_formula_sum "Si O2"
_cell_formula_units_Z 20
_cell_length_a 15.200663
_cell_length_b 7.546043
_cell_length_c 6.889253
_cell_angle_alpha 90.000000
_cell_angle_beta 90.000000
_cell_angle_gamma 90.000000
_cell_volume 790.230778
_symmetry_space_group_name_H-M "P C A 21"
_symmetry_group_IT_number 29
_symmetry_cell_setting 'orthorhombic'
loop_
_space_group_symop_operation_xyz
x,y,z
-x,-y,1/2+z
1/2-x,y,1/2+z
1/2+x,-y,z
loop_
_atom_site_type_symbol
_atom_site_label
_atom_site_fract_x
_atom_site_fract_y
_atom_site_fract_z
Si Si1 0.874854 0.560467 0.376070
Si Si2 0.313073 0.355713 0.971423
Si Si3 0.431085 0.812705 0.433295
Si Si4 0.890375 0.965592 0.769487
Si Si5 0.561538 0.326087 0.358864
O O1 0.786506 0.579784 0.497840
O O2 0.884814 0.350587 0.324507
O O3 0.967425 0.633874 0.454414
O O4 0.852440 0.669920 0.183970
O O5 0.324086 0.179711 0.845914
O O6 0.373751 0.510324 0.881389
O O7 0.511514 0.889436 0.311183
O O8 0.460480 0.710292 0.631289
O O9 0.379635 0.971494 0.545082
O O10 0.889013 0.142552 0.902969
#
# Coordination Sequence:
#
# PCOD9341144 Si02
#       5
#     4   4   4   4   4
#     4  12  24  46  71 109 146 203 241 318 369 453
#     4  12  25  46  72 102 154 193 254 300 384 440
#     4  10  23  43  73 108 140 196 246 307 375 441
#     4  10  23  45  69 109 136 195 245 304 365 452
#     4  10  23  46  73  98 148 189 252 303 373 442
#
# _framework density 25.309062999999998
#
# number of rings (size 3 to 8) (size 9 to 14) (size 15 to 20)
#    1.200    0.000    4.000    1.200    2.800    3.200 
#    7.200    0.000    0.000    0.000    0.000    0.000 
#    0.000    0.000    0.000    0.000    0.000    0.000 
#
# Total GULP energy -111717.865465 kJ/mol
# GULP energy per Si atom -5585.893273 kJ/mol
# Density = 2.525146 g / cm^3
# Si number density = 25.309063 Si / 1000 Ang^3
#
#
#
# Elastic Constant Matrix: (Units=GPa)
#
#
# Indices 1 2 3 4 5 6 
#
# 1 129.7856 54.6256 11.3670 0.0000 0.0000 0.0000
# 2 54.6256 162.9855 21.3607 0.0000 0.0000 0.0000
# 3 11.3670 21.3607 52.0558 0.0000 0.0000 0.0000
# 4 0.0000 0.0000 0.0000 53.8778 0.0000 0.0000
# 5 0.0000 0.0000 0.0000 0.0000 20.9683 0.0000
# 6 0.0000 0.0000 0.0000 0.0000 0.0000 25.0549
#
#
#
# Elastic Compliance Matrix: (Units=1/GPa)
#
#
# Indices 1 2 3 4 5 6 
#
# 1 0.008999 -0.002915 -0.000769 0.000000 0.000000 0.000000
# 2 -0.002915 0.007429 -0.002412 0.000000 0.000000 0.000000
# 3 -0.000769 -0.002412 0.020368 0.000000 0.000000 0.000000
# 4 0.000000 0.000000 0.000000 0.018561 0.000000 0.000000
# 5 0.000000 0.000000 0.000000 0.000000 0.047691 0.000000
# 6 0.000000 0.000000 0.000000 0.000000 0.000000 0.039912
#
#
# Mechanical properties :
#
#
# Convention : Reuss Voigt Hill
#
# Bulk Modulus (GPa) = 40.64392 57.72595 49.18494
# Shear Modulus (GPa) = 30.60856 37.14510 33.87683
#
# Velocity S-wave (km/s) = 3.48140 3.83516 3.66256
# Velocity P-wave (km/s) = 5.67927 6.51684 6.11242
#
# Compressibility (1/GPa) = 0.02460392
#
# Stress axis : x y z
#
# Youngs Moduli (GPa) = 111.11802 134.61257 49.09741
#
# Poissons Ratio (x) = 0.39246 0.03775
# Poissons Ratio (y) = 0.32396 0.11841
# Poissons Ratio (z) = 0.08543 0.32465
#
# Static dielectric constant tensor:
#      x y z
#    x 1.960100 0.000000 0.000000 
#    y 0.000000 2.073910 0.000000 
#    z 0.000000 0.000000 2.077770 
# 
# From -- ./inp_files/1642.got.cif
#   From: 2010.05.17/outbox.cif.g08.bks.cpg/sg29_1_cif.got.tgz:1642.got - 2010.06.04 01:19:37.
