data_PCOD9341430
_publ_section_title
;
Structure prediction by ZEFSAII (Michael W. Deem and Ramdas Pophale) SiO2 
 PCOD9341430
Probable space group: P C A 21
;
_chemical_formula_sum "Si O2"
_cell_formula_units_Z 28
_cell_length_a 12.912972
_cell_length_b 5.602458
_cell_length_c 14.815655
_cell_angle_alpha 90.000000
_cell_angle_beta 90.000000
_cell_angle_gamma 90.000000
_cell_volume 1071.829424
_symmetry_space_group_name_H-M "P C A 21"
_symmetry_group_IT_number 29
_symmetry_cell_setting 'orthorhombic'
loop_
_space_group_symop_operation_xyz
x,y,z
-x,-y,1/2+z
1/2-x,y,1/2+z
1/2+x,-y,z
loop_
_atom_site_type_symbol
_atom_site_label
_atom_site_fract_x
_atom_site_fract_y
_atom_site_fract_z
Si Si1 0.224101 0.138018 0.799610
Si Si2 0.245021 0.825056 0.629689
Si Si3 0.976973 0.080234 0.110305
Si Si4 0.948914 0.532140 0.357307
Si Si5 0.354796 0.446138 0.546976
Si Si6 0.821826 0.865588 0.981542
Si Si7 0.008445 0.971096 0.810540
O O1 0.256492 0.036470 0.702921
O O2 0.132708 0.962486 0.832352
O O3 0.157238 0.383407 0.804770
O O4 0.313213 0.121323 0.874255
O O5 0.123547 0.755125 0.634547
O O6 0.329843 0.622074 0.629218
O O7 0.247762 0.929678 0.528258
O O8 0.000757 0.958132 0.205289
O O9 0.073261 0.230465 0.078871
O O10 0.930075 0.905896 0.033068
O O11 0.914145 0.467105 0.458171
O O12 0.011775 0.311697 0.317659
O O13 0.016800 0.778899 0.361407
O O14 0.240817 0.366333 0.512678
#
# Coordination Sequence:
#
# PCOD9341430 Si02
#       7
#     4   4   4   4   4   4   4
#     4   8  17  34  64  87 125 168 218 268 335 397
#     4   9  20  38  60  95 129 169 219 275 343 394
#     4   9  22  40  60  99 129 170 232 274 347 409
#     4   9  19  36  67  90 128 180 216 275 345 396
#     4  11  21  40  65  95 133 180 223 286 343 417
#     4   9  19  41  60  89 130 167 222 276 337 401
#     4   9  18  39  62  93 128 176 216 278 342 396
#
# _framework density 26.123560000000001
#
# number of rings (size 3 to 8) (size 9 to 14) (size 15 to 20)
#    1.714    1.143    0.000    0.857    0.000    4.571 
#    7.714    0.000    0.000    0.000    0.000    0.000 
#    0.000    0.000    0.000    0.000    0.000    0.000 
#
# Total GULP energy -155938.801516 kJ/mol
# GULP energy per Si atom -5569.242911 kJ/mol
# Density = 2.606410 g / cm^3
# Si number density = 26.123560 Si / 1000 Ang^3
#
#
#
# Elastic Constant Matrix: (Units=GPa)
#
#
# Indices 1 2 3 4 5 6 
#
# 1 93.4532 62.1508 49.8416 0.0000 0.0000 0.0000
# 2 62.1508 122.0871 36.8671 0.0000 0.0000 0.0000
# 3 49.8416 36.8671 80.9213 0.0000 0.0000 0.0000
# 4 0.0000 0.0000 0.0000 22.9152 0.0000 0.0000
# 5 0.0000 0.0000 0.0000 0.0000 1.5586 0.0000
# 6 0.0000 0.0000 0.0000 0.0000 0.0000 46.7642
#
#
#
# Elastic Compliance Matrix: (Units=1/GPa)
#
#
# Indices 1 2 3 4 5 6 
#
# 1 0.020843 -0.007808 -0.009280 0.000000 0.000000 0.000000
# 2 -0.007808 0.012422 -0.000850 0.000000 0.000000 0.000000
# 3 -0.009280 -0.000850 0.018461 0.000000 0.000000 0.000000
# 4 0.000000 0.000000 0.000000 0.043639 0.000000 0.000000
# 5 0.000000 0.000000 0.000000 0.000000 0.641590 0.000000
# 6 0.000000 0.000000 0.000000 0.000000 0.000000 0.021384
#
#
# Mechanical properties :
#
#
# Convention : Reuss Voigt Hill
#
# Bulk Modulus (GPa) = 63.09610 66.02007 64.55809
# Shear Modulus (GPa) = 6.25391 24.08774 15.17083
#
# Velocity S-wave (km/s) = 1.54893 3.03985 2.41246
# Velocity P-wave (km/s) = 5.23491 6.13580 5.70317
#
# Compressibility (1/GPa) = 0.01584884
#
# Stress axis : x y z
#
# Youngs Moduli (GPa) = 47.97838 80.49930 54.16771
#
# Poissons Ratio (x) = 0.62853 0.50270
# Poissons Ratio (y) = 0.37461 0.04607
# Poissons Ratio (z) = 0.44526 0.06846
#
# Static dielectric constant tensor:
#      x y z
#    x 2.121910 0.000000 0.000000 
#    y 0.000000 2.155970 0.000000 
#    z 0.000000 0.000000 2.076920 
# 
# From -- ./inp_files/5183.got.cif
#   From: 2010.05.17/outbox.cif.g08.bks.cpg/sg29_3_cif.got.tgz:5183.got - 2010.06.04 01:19:37.
