data_PCOD9341320
_publ_section_title
;
Structure prediction by ZEFSAII (Michael W. Deem and Ramdas Pophale) SiO2 
 PCOD9341320
Probable space group: P C A 21
;
_chemical_formula_sum "Si O2"
_cell_formula_units_Z 32
_cell_length_a 6.974451
_cell_length_b 15.035920
_cell_length_c 11.736017
_cell_angle_alpha 90.000000
_cell_angle_beta 90.000000
_cell_angle_gamma 90.000000
_cell_volume 1230.724266
_symmetry_space_group_name_H-M "P C A 21"
_symmetry_group_IT_number 29
_symmetry_cell_setting 'orthorhombic'
loop_
_space_group_symop_operation_xyz
x,y,z
-x,-y,1/2+z
1/2-x,y,1/2+z
1/2+x,-y,z
loop_
_atom_site_type_symbol
_atom_site_label
_atom_site_fract_x
_atom_site_fract_y
_atom_site_fract_z
Si Si1 0.985390 0.711636 0.223430
Si Si2 0.843186 0.142889 0.869636
Si Si3 0.678971 0.980524 0.207581
Si Si4 0.072495 0.997023 0.536570
Si Si5 0.068649 0.344399 0.481781
Si Si6 0.665524 0.597739 0.164297
Si Si7 0.419039 0.168463 0.872581
Si Si8 0.301313 0.579832 0.285216
O O1 0.021511 0.802263 0.286995
O O2 0.110322 0.638305 0.289249
O O3 0.764458 0.685624 0.213317
O O4 0.044767 0.697936 0.090707
O O5 0.923052 0.105634 0.988109
O O6 0.643714 0.194887 0.865337
O O7 0.805256 0.049242 0.810361
O O8 0.647557 0.881418 0.257576
O O9 0.428335 0.008485 0.179048
O O10 0.676893 0.997367 0.065271
O O11 0.075594 0.087594 0.462987
O O12 0.230550 0.407339 0.541444
O O13 0.168759 0.257499 0.426588
O O14 0.931853 0.398979 0.396175
O O15 0.440599 0.605611 0.178911
O O16 0.733637 0.518031 0.247148
#
# Coordination Sequence:
#
# PCOD9341320 Si02
#       8
#     4   4   4   4   4   4   4   4
#     4  10  24  47  72 104 145 188 237 308 356 448
#     4  11  22  41  69  95 138 186 235 287 364 416
#     4  11  23  40  65  94 134 182 234 292 345 425
#     4  11  23  39  64  94 135 179 233 291 350 418
#     4  10  25  46  68 103 146 183 241 303 361 442
#     4  10  25  45  73 110 146 186 241 300 364 452
#     4  11  22  41  66  97 133 184 235 292 351 429
#     4  12  22  49  75 107 145 188 240 299 371 440
#
# _framework density 26.000951000000001
#
# number of rings (size 3 to 8) (size 9 to 14) (size 15 to 20)
#    0.750    0.500    5.000    0.750    0.000    3.000 
#    4.500    0.000    0.000    0.000    0.000    0.000 
#    0.000    0.000    0.000    0.000    0.000    0.000 
#
# Total GULP energy -178464.116914 kJ/mol
# GULP energy per Si atom -5577.003654 kJ/mol
# Density = 2.594177 g / cm^3
# Si number density = 26.000951 Si / 1000 Ang^3
#
#
#
# Elastic Constant Matrix: (Units=GPa)
#
#
# Indices 1 2 3 4 5 6 
#
# 1 113.1206 -2.6477 9.7402 0.0000 0.0000 0.0000
# 2 -2.6477 105.6262 34.4970 0.0000 0.0000 0.0000
# 3 9.7402 34.4970 100.3310 0.0000 0.0000 0.0000
# 4 0.0000 0.0000 0.0000 38.6547 0.0000 0.0000
# 5 0.0000 0.0000 0.0000 0.0000 48.2333 0.0000
# 6 0.0000 0.0000 0.0000 0.0000 0.0000 33.5599
#
#
#
# Elastic Compliance Matrix: (Units=1/GPa)
#
#
# Indices 1 2 3 4 5 6 
#
# 1 0.008945 0.000572 -0.001065 0.000000 0.000000 0.000000
# 2 0.000572 0.010702 -0.003735 0.000000 0.000000 0.000000
# 3 -0.001065 -0.003735 0.011355 0.000000 0.000000 0.000000
# 4 0.000000 0.000000 0.000000 0.025870 0.000000 0.000000
# 5 0.000000 0.000000 0.000000 0.000000 0.020733 0.000000
# 6 0.000000 0.000000 0.000000 0.000000 0.000000 0.029797
#
#
# Mechanical properties :
#
#
# Convention : Reuss Voigt Hill
#
# Bulk Modulus (GPa) = 44.35529 44.69521 44.52525
# Shear Modulus (GPa) = 40.52757 42.58880 41.55819
#
# Velocity S-wave (km/s) = 3.95232 4.05158 4.00225
# Velocity P-wave (km/s) = 6.15824 6.25413 6.20637
#
# Compressibility (1/GPa) = 0.02254523
#
# Stress axis : x y z
#
# Youngs Moduli (GPa) = 111.79153 93.44443 88.06967
#
# Poissons Ratio (x) = -0.05346 0.09380
# Poissons Ratio (y) = -0.06396 0.32895
# Poissons Ratio (z) = 0.11907 0.34902
#
# Static dielectric constant tensor:
#      x y z
#    x 2.429560 0.000000 0.000000 
#    y 0.000000 1.963020 0.000000 
#    z 0.000000 0.000000 2.102820 
# 
# From -- ./inp_files/2941.got.cif
#   From: 2010.05.17/outbox.cif.g08.bks.cpg/sg29_2_cif.got.tgz:2941.got - 2010.06.04 01:19:37.
