data_PCOD9341507
_publ_section_title
;
Structure prediction by ZEFSAII (Michael W. Deem and Ramdas Pophale) SiO2 
 PCOD9341507
Probable space group: P C A 21
;
_chemical_formula_sum "Si O2"
_cell_formula_units_Z 28
_cell_length_a 23.872267
_cell_length_b 5.015223
_cell_length_c 8.929939
_cell_angle_alpha 90.000000
_cell_angle_beta 90.000000
_cell_angle_gamma 90.000000
_cell_volume 1069.134647
_symmetry_space_group_name_H-M "P C A 21"
_symmetry_group_IT_number 29
_symmetry_cell_setting 'orthorhombic'
loop_
_space_group_symop_operation_xyz
x,y,z
-x,-y,1/2+z
1/2-x,y,1/2+z
1/2+x,-y,z
loop_
_atom_site_type_symbol
_atom_site_label
_atom_site_fract_x
_atom_site_fract_y
_atom_site_fract_z
Si Si1 0.379790 0.071686 0.924370
Si Si2 0.864307 0.446739 0.111960
Si Si3 0.743475 0.012301 0.380105
Si Si4 0.653682 0.672499 0.919642
Si Si5 0.238660 0.625420 0.126196
Si Si6 0.462555 0.263453 0.519148
Si Si7 0.970878 0.205682 0.717740
O O1 0.317328 0.110982 0.857240
O O2 0.418418 0.940870 0.798548
O O3 0.374546 0.848510 0.053485
O O4 0.397062 0.345994 0.005433
O O5 0.872210 0.487351 0.288558
O O6 0.798111 0.504652 0.090276
O O7 0.755583 0.081515 0.552749
O O8 0.738719 0.300389 0.299736
O O9 0.799397 0.855287 0.340957
O O10 0.601380 0.826670 0.988489
O O11 0.686146 0.512902 0.049895
O O12 0.491041 0.291173 0.357593
O O13 0.460009 0.535779 0.615012
O O14 0.493783 0.031409 0.611820
#
# Coordination Sequence:
#
# PCOD9341507 Si02
#       7
#     4   4   4   4   4   4   4
#     4  11  25  45  76 102 156 196 253 306 401 455
#     4  11  24  43  69 112 143 208 239 326 371 470
#     4  11  24  41  67 104 150 197 247 317 378 478
#     4  12  26  43  74 110 154 202 267 315 403 460
#     4  11  23  42  65 105 152 201 251 306 388 466
#     4  12  31  51  88 114 158 206 271 339 394 475
#     4  12  29  57  81 121 153 210 268 333 403 466
#
# _framework density 26.189402000000001
#
# number of rings (size 3 to 8) (size 9 to 14) (size 15 to 20)
#    0.000    0.571    2.857    4.286    8.000    1.143 
#    0.000    0.000    0.000    0.000    0.000    0.000 
#    0.000    0.000    0.000    0.000    0.000    0.000 
#
# Total GULP energy -156790.573536 kJ/mol
# GULP energy per Si atom -5599.663341 kJ/mol
# Density = 2.612979 g / cm^3
# Si number density = 26.189402 Si / 1000 Ang^3
#
#
#
# Elastic Constant Matrix: (Units=GPa)
#
#
# Indices 1 2 3 4 5 6 
#
# 1 103.9573 -0.9084 25.2396 0.0000 0.0000 0.0000
# 2 -0.9084 97.7789 31.2215 0.0000 0.0000 0.0000
# 3 25.2396 31.2215 123.3089 0.0000 0.0000 0.0000
# 4 0.0000 0.0000 0.0000 63.2358 0.0000 0.0000
# 5 0.0000 0.0000 0.0000 0.0000 29.2634 0.0000
# 6 0.0000 0.0000 0.0000 0.0000 0.0000 25.1517
#
#
#
# Elastic Compliance Matrix: (Units=1/GPa)
#
#
# Indices 1 2 3 4 5 6 
#
# 1 0.010183 0.000827 -0.002294 0.000000 0.000000 0.000000
# 2 0.000827 0.011194 -0.003004 0.000000 0.000000 0.000000
# 3 -0.002294 -0.003004 0.009340 0.000000 0.000000 0.000000
# 4 0.000000 0.000000 0.000000 0.015814 0.000000 0.000000
# 5 0.000000 0.000000 0.000000 0.000000 0.034172 0.000000
# 6 0.000000 0.000000 0.000000 0.000000 0.000000 0.039759
#
#
# Mechanical properties :
#
#
# Convention : Reuss Voigt Hill
#
# Bulk Modulus (GPa) = 45.92124 48.46120 47.19122
# Shear Modulus (GPa) = 36.58675 41.49635 39.04155
#
# Velocity S-wave (km/s) = 3.74171 3.98486 3.86520
# Velocity P-wave (km/s) = 6.01993 6.30210 6.16263
#
# Compressibility (1/GPa) = 0.02177642
#
# Stress axis : x y z
#
# Youngs Moduli (GPa) = 98.19835 89.33438 107.06961
#
# Poissons Ratio (x) = -0.07388 0.24560
# Poissons Ratio (y) = -0.08121 0.32159
# Poissons Ratio (z) = 0.22525 0.26832
#
# Static dielectric constant tensor:
#      x y z
#    x 2.069060 0.000000 0.000000 
#    y 0.000000 2.053450 0.000000 
#    z 0.000000 0.000000 2.035050 
# 
# From -- ./inp_files/2430.got.cif
#   From: 2010.05.17/outbox.cif.g08.bks.cpg/sg29_2_cif.got.tgz:2430.got - 2010.06.04 01:19:37.
