data_PCOD9341295
_publ_section_title
;
Structure prediction by ZEFSAII (Michael W. Deem and Ramdas Pophale) SiO2 
 PCOD9341295
Probable space group: P C A 21
;
_chemical_formula_sum "Si O2"
_cell_formula_units_Z 28
_cell_length_a 12.005003
_cell_length_b 10.855747
_cell_length_c 9.266446
_cell_angle_alpha 90.000000
_cell_angle_beta 90.000000
_cell_angle_gamma 90.000000
_cell_volume 1207.633593
_symmetry_space_group_name_H-M "P C A 21"
_symmetry_group_IT_number 29
_symmetry_cell_setting 'orthorhombic'
loop_
_space_group_symop_operation_xyz
x,y,z
-x,-y,1/2+z
1/2-x,y,1/2+z
1/2+x,-y,z
loop_
_atom_site_type_symbol
_atom_site_label
_atom_site_fract_x
_atom_site_fract_y
_atom_site_fract_z
Si Si1 0.621574 0.133805 0.260690
Si Si2 0.831889 0.282472 0.222904
Si Si3 0.144541 0.457269 0.610545
Si Si4 0.488793 0.748431 0.490085
Si Si5 0.170265 0.340388 0.907641
Si Si6 0.991041 0.820452 0.534748
Si Si7 0.676855 0.869399 0.288809
O O1 0.706509 0.248240 0.263740
O O2 0.528329 0.120937 0.384410
O O3 0.697830 0.014274 0.290094
O O4 0.560505 0.157616 0.108571
O O5 0.842693 0.396284 0.112113
O O6 0.899585 0.292814 0.371304
O O7 0.900282 0.177874 0.134855
O O8 0.157377 0.433928 0.779481
O O9 0.243833 0.393664 0.522285
O O10 0.038178 0.376724 0.560747
O O11 0.586346 0.819993 0.404172
O O12 0.218688 0.217332 0.826651
O O13 0.053761 0.312506 0.982848
O O14 0.885063 0.857486 0.633007
#
# Coordination Sequence:
#
# PCOD9341295 Si02
#       7
#     4   4   4   4   4   4   4
#     4  12  24  43  72 101 139 181 228 286 344 406
#     4  11  28  44  65 104 140 180 227 290 345 407
#     4  11  25  44  73  95 140 172 236 282 339 421
#     4  10  24  47  66 107 135 191 230 279 360 409
#     4  11  23  45  70 100 127 184 225 280 343 408
#     4  11  24  44  66 100 131 180 224 271 346 401
#     4  10  24  45  70 101 140 172 234 286 341 420
#
# _framework density 23.185839999999999
#
# number of rings (size 3 to 8) (size 9 to 14) (size 15 to 20)
#    0.000    1.143    2.857    1.714    6.000    4.571 
#    0.000    0.000    0.000    0.000    0.000    0.000 
#    0.000    0.000    0.000    0.000    0.000    0.000 
#
# Total GULP energy -156193.734346 kJ/mol
# GULP energy per Si atom -5578.347655 kJ/mol
# Density = 2.313307 g / cm^3
# Si number density = 23.185840 Si / 1000 Ang^3
#
#
#
# Elastic Constant Matrix: (Units=GPa)
#
#
# Indices 1 2 3 4 5 6 
#
# 1 63.0974 10.0328 10.6396 0.0000 0.0000 0.0000
# 2 10.0328 82.4151 8.3971 0.0000 0.0000 0.0000
# 3 10.6396 8.3971 85.8638 0.0000 0.0000 0.0000
# 4 0.0000 0.0000 0.0000 14.4071 0.0000 0.0000
# 5 0.0000 0.0000 0.0000 0.0000 15.0932 0.0000
# 6 0.0000 0.0000 0.0000 0.0000 0.0000 23.4858
#
#
#
# Elastic Compliance Matrix: (Units=1/GPa)
#
#
# Indices 1 2 3 4 5 6 
#
# 1 0.016451 -0.001813 -0.001861 0.000000 0.000000 0.000000
# 2 -0.001813 0.012456 -0.000993 0.000000 0.000000 0.000000
# 3 -0.001861 -0.000993 0.011974 0.000000 0.000000 0.000000
# 4 0.000000 0.000000 0.000000 0.069410 0.000000 0.000000
# 5 0.000000 0.000000 0.000000 0.000000 0.066255 0.000000
# 6 0.000000 0.000000 0.000000 0.000000 0.000000 0.042579
#
#
# Mechanical properties :
#
#
# Convention : Reuss Voigt Hill
#
# Bulk Modulus (GPa) = 31.70051 32.16834 31.93443
# Shear Modulus (GPa) = 20.92274 24.08435 22.50355
#
# Velocity S-wave (km/s) = 3.00724 3.22647 3.11878
# Velocity P-wave (km/s) = 5.07544 5.27109 5.17419
#
# Compressibility (1/GPa) = 0.03154524
#
# Stress axis : x y z
#
# Youngs Moduli (GPa) = 60.78797 80.28502 83.51342
#
# Poissons Ratio (x) = 0.14556 0.15543
# Poissons Ratio (y) = 0.11021 0.08297
# Poissons Ratio (z) = 0.11313 0.07976
#
# Static dielectric constant tensor:
#      x y z
#    x 1.915370 0.000000 0.000000 
#    y 0.000000 1.964270 0.000000 
#    z 0.000000 0.000000 1.860120 
# 
# From -- ./inp_files/1490.got.cif
#   From: 2010.05.17/outbox.cif.g08.bks.cpg/sg29_1_cif.got.tgz:1490.got - 2010.06.04 01:19:37.
