data_PCOD9341630
_publ_section_title
;
Structure prediction by ZEFSAII (Michael W. Deem and Ramdas Pophale) SiO2 
 PCOD9341630
Probable space group: P C A 21
;
_chemical_formula_sum "Si O2"
_cell_formula_units_Z 28
_cell_length_a 22.634561
_cell_length_b 5.150255
_cell_length_c 8.649964
_cell_angle_alpha 90.000000
_cell_angle_beta 90.000000
_cell_angle_gamma 90.000000
_cell_volume 1008.358836
_symmetry_space_group_name_H-M "P C A 21"
_symmetry_group_IT_number 29
_symmetry_cell_setting 'orthorhombic'
loop_
_space_group_symop_operation_xyz
x,y,z
-x,-y,1/2+z
1/2-x,y,1/2+z
1/2+x,-y,z
loop_
_atom_site_type_symbol
_atom_site_label
_atom_site_fract_x
_atom_site_fract_y
_atom_site_fract_z
Si Si1 0.256202 0.850196 0.094980
Si Si2 0.150291 0.231506 0.179421
Si Si3 0.130719 0.142892 0.845332
Si Si4 0.472565 0.822988 0.371294
Si Si5 0.741514 0.519189 0.829504
Si Si6 0.124426 0.039998 0.498739
Si Si7 0.973705 0.327973 0.021873
O O1 0.196297 0.999899 0.132732
O O2 0.286937 0.729131 0.245104
O O3 0.304552 0.019162 0.005351
O O4 0.248195 0.588123 0.998723
O O5 0.111082 0.153291 0.328258
O O6 0.194356 0.439900 0.255508
O O7 0.119844 0.289218 0.013939
O O8 0.098147 0.870063 0.883573
O O9 0.107512 0.177236 0.664125
O O10 0.198153 0.238879 0.821164
O O11 0.501960 0.608350 0.479502
O O12 0.486676 0.735627 0.198845
O O13 0.496251 0.108344 0.414192
O O14 0.095225 0.753108 0.502448
#
# Coordination Sequence:
#
# PCOD9341630 Si02
#       7
#     4   4   4   4   4   4   4
#     4  12  23  41  67 102 141 190 239 290 361 441
#     4  12  24  44  68 100 152 186 234 300 360 454
#     4  11  25  45  72 105 143 192 242 303 375 443
#     4  11  27  51  80 112 151 197 258 325 383 453
#     4  12  23  41  67 102 141 190 239 290 361 441
#     4  11  25  45  72 105 143 192 242 303 375 443
#     4  11  27  51  80 112 151 197 258 325 383 453
#
# _framework density 27.767893999999998
#
# number of rings (size 3 to 8) (size 9 to 14) (size 15 to 20)
#    0.000    0.571    4.286    3.429    4.000    6.857 
#    0.000    0.000    0.000    0.000    0.000    0.000 
#    0.000    0.000    0.000    0.000    0.000    0.000 
#
# Total GULP energy -156387.330156 kJ/mol
# GULP energy per Si atom -5585.261791 kJ/mol
# Density = 2.770469 g / cm^3
# Si number density = 27.767894 Si / 1000 Ang^3
#
#
#
# Elastic Constant Matrix: (Units=GPa)
#
#
# Indices 1 2 3 4 5 6 
#
# 1 108.1770 29.6550 31.6203 0.0000 0.0000 0.0000
# 2 29.6550 99.3480 23.0042 0.0000 0.0000 0.0000
# 3 31.6203 23.0042 111.1795 0.0000 0.0000 0.0000
# 4 0.0000 0.0000 0.0000 51.2207 0.0000 0.0000
# 5 0.0000 0.0000 0.0000 0.0000 47.2618 0.0000
# 6 0.0000 0.0000 0.0000 0.0000 0.0000 33.1922
#
#
#
# Elastic Compliance Matrix: (Units=1/GPa)
#
#
# Indices 1 2 3 4 5 6 
#
# 1 0.010691 -0.002612 -0.002500 0.000000 0.000000 0.000000
# 2 -0.002612 0.011210 -0.001577 0.000000 0.000000 0.000000
# 3 -0.002500 -0.001577 0.010032 0.000000 0.000000 0.000000
# 4 0.000000 0.000000 0.000000 0.019523 0.000000 0.000000
# 5 0.000000 0.000000 0.000000 0.000000 0.021159 0.000000
# 6 0.000000 0.000000 0.000000 0.000000 0.000000 0.030128
#
#
# Mechanical properties :
#
#
# Convention : Reuss Voigt Hill
#
# Bulk Modulus (GPa) = 53.89331 54.14038 54.01685
# Shear Modulus (GPa) = 40.88108 41.96326 41.42217
#
# Velocity S-wave (km/s) = 3.84114 3.89165 3.86648
# Velocity P-wave (km/s) = 6.25485 6.30342 6.27918
#
# Compressibility (1/GPa) = 0.01855518
#
# Stress axis : x y z
#
# Youngs Moduli (GPa) = 93.53648 89.20243 99.68376
#
# Poissons Ratio (x) = 0.23303 0.24922
# Poissons Ratio (y) = 0.24435 0.15716
# Poissons Ratio (z) = 0.23385 0.14064
#
# Static dielectric constant tensor:
#      x y z
#    x 2.304430 0.000000 0.000000 
#    y 0.000000 2.162770 0.000000 
#    z 0.000000 0.000000 2.256890 
# 
# From -- ./inp_files/2523.got.cif
#   From: 2010.05.17/outbox.cif.g08.bks.cpg/sg29_2_cif.got.tgz:2523.got - 2010.06.04 01:19:37.
