data_PCOD9341970
_publ_section_title
;
Structure prediction by ZEFSAII (Michael W. Deem and Ramdas Pophale) SiO2 
 PCOD9341970
Probable space group: P N C 2
;
_chemical_formula_sum "Si O2"
_cell_formula_units_Z 32
_cell_length_a 9.734484
_cell_length_b 10.904324
_cell_length_c 14.719384
_cell_angle_alpha 90.000000
_cell_angle_beta 90.000000
_cell_angle_gamma 90.000000
_cell_volume 1562.432695
_symmetry_space_group_name_H-M "P N C 2"
_symmetry_group_IT_number 30
_symmetry_cell_setting 'orthorhombic'
loop_
_space_group_symop_operation_xyz
x,y,z
-x,-y,z
-x,1/2+y,1/2+z
x,1/2-y,1/2+z
loop_
_atom_site_type_symbol
_atom_site_label
_atom_site_fract_x
_atom_site_fract_y
_atom_site_fract_z
Si Si1 0.775865 0.470814 0.507660
Si Si2 0.144743 0.863416 0.369942
Si Si3 0.552467 0.802812 0.260615
Si Si4 0.422071 0.766433 0.942133
Si Si5 0.709562 0.033384 0.214626
Si Si6 0.126814 0.441091 0.031872
Si Si7 0.419248 0.118910 0.603066
Si Si8 0.959483 0.685734 0.460835
O O1 0.643063 0.397467 0.470446
O O2 0.741330 0.502595 0.611685
O O3 0.836009 0.588107 0.453196
O O4 0.908224 0.380288 0.505509
O O5 0.287895 0.805372 0.405129
O O6 0.163024 0.911017 0.268563
O O7 0.027221 0.759620 0.376685
O O8 0.128628 0.975486 0.440561
O O9 0.522295 0.736801 0.355600
O O10 0.412925 0.866122 0.220638
O O11 0.605387 0.710796 0.185184
O O12 0.655636 0.916355 0.270523
O O13 0.497100 0.693331 0.024193
O O14 0.278641 0.439316 0.068481
O O15 0.000000 0.500000 0.087333
O O16 0.092591 0.299042 0.019227
O O17 0.500000 0.000000 0.636132
#
# Coordination Sequence:
#
# PCOD9341970 Si02
#       8
#     4   4   4   4   4   4   4   4
#     4  10  19  38  63  89 128 177 213 267 340 393
#     4   9  18  36  62  89 121 170 221 271 321 386
#     4  10  22  35  58  97 129 157 214 277 326 398
#     4  10  20  38  63  91 127 172 209 269 337 397
#     4  10  19  36  61  92 127 161 220 276 321 385
#     4  10  20  36  59  91 126 168 220 270 321 388
#     4  12  22  38  65  93 127 175 220 267 336 406
#     4   9  20  36  57  89 125 170 217 262 329 397
#
# _framework density 20.480882000000001
#
# number of rings (size 3 to 8) (size 9 to 14) (size 15 to 20)
#    0.000    2.000    2.500    1.500    1.750    0.000 
#    6.750    3.750    2.750    0.000    6.500    0.000 
#    0.000    0.000    0.000    0.000    0.000    0.000 
#
# Total GULP energy -178339.595738 kJ/mol
# GULP energy per Si atom -5573.112367 kJ/mol
# Density = 2.043427 g / cm^3
# Si number density = 20.480882 Si / 1000 Ang^3
#
#
#
# Elastic Constant Matrix: (Units=GPa)
#
#
# Indices 1 2 3 4 5 6 
#
# 1 49.2915 24.5444 8.6842 0.0000 0.0000 0.0000
# 2 24.5444 83.3889 19.1032 0.0000 0.0000 0.0000
# 3 8.6842 19.1032 73.2595 0.0000 0.0000 0.0000
# 4 0.0000 0.0000 0.0000 13.8107 0.0000 0.0000
# 5 0.0000 0.0000 0.0000 0.0000 -23.3609 0.0000
# 6 0.0000 0.0000 0.0000 0.0000 0.0000 23.8852
#
#
#
# Elastic Compliance Matrix: (Units=1/GPa)
#
#
# Indices 1 2 3 4 5 6 
#
# 1 0.023849 -0.006777 -0.001060 0.000000 0.000000 0.000000
# 2 -0.006777 0.014680 -0.003025 0.000000 0.000000 0.000000
# 3 -0.001060 -0.003025 0.014564 0.000000 0.000000 0.000000
# 4 0.000000 0.000000 0.000000 0.072408 0.000000 0.000000
# 5 0.000000 0.000000 0.000000 0.000000 -0.042806 0.000000
# 6 0.000000 0.000000 0.000000 0.000000 0.000000 0.041867
#
#
# Mechanical properties :
#
#
# Convention : Reuss Voigt Hill
#
# Bulk Modulus (GPa) = 31.87734 34.51150 33.19442
# Shear Modulus (GPa) = 31.89999 13.10753 22.50376
#
# Velocity S-wave (km/s) = 3.95086 2.53254 3.31836
# Velocity P-wave (km/s) = 6.03412 5.04370 5.56100
#
# Compressibility (1/GPa) = 0.03137025
#
# Stress axis : x y z
#
# Youngs Moduli (GPa) = 41.93114 68.12211 68.66045
#
# Poissons Ratio (x) = 0.46164 0.07277
# Poissons Ratio (y) = 0.28416 0.20767
# Poissons Ratio (z) = 0.04444 0.20604
#
# Static dielectric constant tensor:
#      x y z
#    x 1.819970 0.000000 0.000000 
#    y 0.000000 1.737690 0.000000 
#    z 0.000000 0.000000 1.707610 
# 
# From -- ./inp_files/5202.got.cif
#   From: 2010.05.17/outbox.cif.g08.bks.cpg/sg30_3_cif.got.tgz:5202.got - 2010.06.03 17:03:02.
