data_PCOD9341552
_publ_section_title
;
Structure prediction by ZEFSAII (Michael W. Deem and Ramdas Pophale) SiO2 
 PCOD9341552
Probable space group: P C A 21
;
_chemical_formula_sum "Si O2"
_cell_formula_units_Z 32
_cell_length_a 9.698520
_cell_length_b 7.814966
_cell_length_c 16.194411
_cell_angle_alpha 90.000000
_cell_angle_beta 90.000000
_cell_angle_gamma 90.000000
_cell_volume 1227.432775
_symmetry_space_group_name_H-M "P C A 21"
_symmetry_group_IT_number 29
_symmetry_cell_setting 'orthorhombic'
loop_
_space_group_symop_operation_xyz
x,y,z
-x,-y,1/2+z
1/2-x,y,1/2+z
1/2+x,-y,z
loop_
_atom_site_type_symbol
_atom_site_label
_atom_site_fract_x
_atom_site_fract_y
_atom_site_fract_z
Si Si1 0.493944 0.336698 0.563000
Si Si2 0.179228 0.834017 0.898099
Si Si3 0.820772 0.665983 0.810326
Si Si4 0.931299 0.481882 0.227673
Si Si5 0.741841 0.022529 0.729160
Si Si6 0.993945 0.163302 0.645425
Si Si7 0.568700 0.981882 0.480752
Si Si8 0.241841 0.477470 0.479265
O O1 0.553753 0.342866 0.655215
O O2 0.503488 0.150463 0.523385
O O3 0.339596 0.406653 0.551411
O O4 0.595504 0.458516 0.511467
O O5 0.192101 0.648416 0.938815
O O6 0.226637 0.842508 0.803313
O O7 0.284413 0.955656 0.949034
O O8 0.029151 0.916478 0.907825
O O9 0.715587 0.544344 0.759391
O O10 0.807899 0.851584 0.769610
O O11 0.773363 0.657492 0.905112
O O12 0.970849 0.583521 0.800600
O O13 0.996512 0.650463 0.185040
O O14 0.595504 0.958516 0.696958
O O15 0.839596 0.093347 0.657015
O O16 0.053753 0.157134 0.553210
#
# Coordination Sequence:
#
# PCOD9341552 Si02
#       8
#     4   4   4   4   4   4   4   4
#     4  11  24  41  62  90 122 158 202 249 300 359
#     4  11  24  41  63  91 123 160 202 249 301 358
#     4  11  24  41  63  91 123 160 202 249 301 358
#     4  11  24  41  62  90 122 158 202 249 300 359
#     4  11  24  41  63  91 123 160 202 249 301 358
#     4  11  24  41  62  90 122 158 202 249 300 359
#     4  11  24  41  62  90 122 158 202 249 300 359
#     4  11  24  41  63  91 123 160 202 249 301 358
#
# _framework density 26.070675999999999
#
# number of rings (size 3 to 8) (size 9 to 14) (size 15 to 20)
#    0.000    1.000    0.000    6.000    0.000   18.000 
#    0.000    0.000    0.000    0.000    0.000    0.000 
#    0.000    0.000    0.000    0.000    0.000    0.000 
#
# Total GULP energy -179719.920701 kJ/mol
# GULP energy per Si atom -5616.247522 kJ/mol
# Density = 2.601134 g / cm^3
# Si number density = 26.070676 Si / 1000 Ang^3
#
#
#
# Elastic Constant Matrix: (Units=GPa)
#
#
# Indices 1 2 3 4 5 6 
#
# 1 92.9977 15.9055 3.5508 0.0000 0.0000 0.0000
# 2 15.9055 112.8240 -4.3553 0.0000 0.0000 0.0000
# 3 3.5508 -4.3553 105.3072 0.0000 0.0000 0.0000
# 4 0.0000 0.0000 0.0000 40.4298 0.0000 0.0000
# 5 0.0000 0.0000 0.0000 0.0000 44.1265 0.0000
# 6 0.0000 0.0000 0.0000 0.0000 0.0000 32.4677
#
#
#
# Elastic Compliance Matrix: (Units=1/GPa)
#
#
# Indices 1 2 3 4 5 6 
#
# 1 0.011039 -0.001573 -0.000437 0.000000 0.000000 0.000000
# 2 -0.001573 0.009102 0.000429 0.000000 0.000000 0.000000
# 3 -0.000437 0.000429 0.009529 0.000000 0.000000 0.000000
# 4 0.000000 0.000000 0.000000 0.024734 0.000000 0.000000
# 5 0.000000 0.000000 0.000000 0.000000 0.022662 0.000000
# 6 0.000000 0.000000 0.000000 0.000000 0.000000 0.030800
#
#
# Mechanical properties :
#
#
# Convention : Reuss Voigt Hill
#
# Bulk Modulus (GPa) = 37.72560 37.92565 37.82562
# Shear Modulus (GPa) = 41.71443 43.13999 42.42721
#
# Velocity S-wave (km/s) = 4.00440 4.07225 4.03847
# Velocity P-wave (km/s) = 5.99018 6.05721 6.02379
#
# Compressibility (1/GPa) = 0.02650720
#
# Stress axis : x y z
#
# Youngs Moduli (GPa) = 90.59042 109.86955 104.94791
#
# Poissons Ratio (x) = 0.17283 0.04589
# Poissons Ratio (y) = 0.14251 -0.04507
# Poissons Ratio (z) = 0.03961 -0.04719
#
# Static dielectric constant tensor:
#      x y z
#    x 1.949010 0.000000 0.000000 
#    y 0.000000 2.029690 0.000000 
#    z 0.000000 0.000000 2.025740 
# 
# From -- ./inp_files/5009.got.cif
#   From: 2010.05.17/outbox.cif.g08.bks.cpg/sg29_3_cif.got.tgz:5009.got - 2010.06.04 01:19:37.
