data_PCOD9341640
_publ_section_title
;
Structure prediction by ZEFSAII (Michael W. Deem and Ramdas Pophale) SiO2 
 PCOD9341640
Probable space group: P C A 21
;
_chemical_formula_sum "Si O2"
_cell_formula_units_Z 28
_cell_length_a 15.428981
_cell_length_b 8.116956
_cell_length_c 8.887246
_cell_angle_alpha 90.000000
_cell_angle_beta 90.000000
_cell_angle_gamma 90.000000
_cell_volume 1113.006339
_symmetry_space_group_name_H-M "P C A 21"
_symmetry_group_IT_number 29
_symmetry_cell_setting 'orthorhombic'
loop_
_space_group_symop_operation_xyz
x,y,z
-x,-y,1/2+z
1/2-x,y,1/2+z
1/2+x,-y,z
loop_
_atom_site_type_symbol
_atom_site_label
_atom_site_fract_x
_atom_site_fract_y
_atom_site_fract_z
Si Si1 0.221503 0.397922 0.081360
Si Si2 0.742364 0.382950 0.329374
Si Si3 0.943300 0.356275 0.249324
Si Si4 0.463485 0.319970 0.435762
Si Si5 0.177385 0.935201 0.187848
Si Si6 0.018103 0.952968 0.958324
Si Si7 0.826892 0.911129 0.001788
O O1 0.208003 0.450701 0.251672
O O2 0.134399 0.335348 0.002154
O O3 0.296069 0.265248 0.060749
O O4 0.247938 0.569389 0.002127
O O5 0.840312 0.350695 0.275024
O O6 0.682824 0.233617 0.280647
O O7 0.974351 0.531589 0.318432
O O8 0.978582 0.200981 0.344770
O O9 0.973211 0.344860 0.077788
O O10 0.474430 0.132710 0.381451
O O11 0.095532 0.941308 0.078474
O O12 0.179321 0.070237 0.320881
O O13 0.260584 0.964513 0.082546
O O14 0.925514 0.947841 0.038860
#
# Coordination Sequence:
#
# PCOD9341640 Si02
#       7
#     4   4   4   4   4   4   4
#     4  11  25  47  73 108 148 200 255 312 400 452
#     4  11  25  46  77 107 149 199 253 326 377 474
#     4  11  27  48  77 117 154 204 264 322 402 464
#     4  11  26  50  77 112 159 200 261 331 388 478
#     4  12  25  50  78 111 153 205 261 320 395 465
#     4  12  27  48  75 115 157 206 260 320 390 479
#     4  12  27  47  79 110 154 202 256 325 390 472
#
# _framework density 25.157088999999999
#
# number of rings (size 3 to 8) (size 9 to 14) (size 15 to 20)
#    0.000    0.571    1.429    6.000    4.000    4.571 
#    5.143    0.000    0.000    0.000    0.000    0.000 
#    0.000    0.000    0.000    0.000    0.000    0.000 
#
# Total GULP energy -157104.072729 kJ/mol
# GULP energy per Si atom -5610.859740 kJ/mol
# Density = 2.509983 g / cm^3
# Si number density = 25.157089 Si / 1000 Ang^3
#
#
#
# Elastic Constant Matrix: (Units=GPa)
#
#
# Indices 1 2 3 4 5 6 
#
# 1 75.0563 34.2321 -14.9349 0.0000 0.0000 0.0000
# 2 34.2321 141.7070 2.3306 0.0000 0.0000 0.0000
# 3 -14.9349 2.3306 43.8680 0.0000 0.0000 0.0000
# 4 0.0000 0.0000 0.0000 31.2285 0.0000 0.0000
# 5 0.0000 0.0000 0.0000 0.0000 37.6956 0.0000
# 6 0.0000 0.0000 0.0000 0.0000 0.0000 35.7843
#
#
#
# Elastic Compliance Matrix: (Units=1/GPa)
#
#
# Indices 1 2 3 4 5 6 
#
# 1 0.016311 -0.004035 0.005768 0.000000 0.000000 0.000000
# 2 -0.004035 0.008061 -0.001802 0.000000 0.000000 0.000000
# 3 0.005768 -0.001802 0.024855 0.000000 0.000000 0.000000
# 4 0.000000 0.000000 0.000000 0.032022 0.000000 0.000000
# 5 0.000000 0.000000 0.000000 0.000000 0.026528 0.000000
# 6 0.000000 0.000000 0.000000 0.000000 0.000000 0.027945
#
#
# Mechanical properties :
#
#
# Convention : Reuss Voigt Hill
#
# Bulk Modulus (GPa) = 20.37146 33.76522 27.06834
# Shear Modulus (GPa) = 32.84607 36.87524 34.86066
#
# Velocity S-wave (km/s) = 3.61728 3.83273 3.72656
# Velocity P-wave (km/s) = 5.05585 5.74781 5.41290
#
# Compressibility (1/GPa) = 0.04908827
#
# Stress axis : x y z
#
# Youngs Moduli (GPa) = 61.30696 124.05048 40.23336
#
# Poissons Ratio (x) = 0.50057 -0.23205
# Poissons Ratio (y) = 0.24739 0.07250
# Poissons Ratio (z) = -0.35359 0.22355
#
# Static dielectric constant tensor:
#      x y z
#    x 1.942830 0.000000 0.000000 
#    y 0.000000 2.008070 0.000000 
#    z 0.000000 0.000000 1.964940 
# 
# From -- ./inp_files/2124.got.cif
#   From: 2010.05.17/outbox.cif.g08.bks.cpg/sg29_2_cif.got.tgz:2124.got - 2010.06.04 01:19:37.
