data_PCOD9341634
_publ_section_title
;
Structure prediction by ZEFSAII (Michael W. Deem and Ramdas Pophale) SiO2 
 PCOD9341634
Probable space group: P C A 21
;
_chemical_formula_sum "Si O2"
_cell_formula_units_Z 24
_cell_length_a 9.651336
_cell_length_b 8.436452
_cell_length_c 11.118208
_cell_angle_alpha 90.000000
_cell_angle_beta 90.000000
_cell_angle_gamma 90.000000
_cell_volume 905.278216
_symmetry_space_group_name_H-M "P C A 21"
_symmetry_group_IT_number 29
_symmetry_cell_setting 'orthorhombic'
loop_
_space_group_symop_operation_xyz
x,y,z
-x,-y,1/2+z
1/2-x,y,1/2+z
1/2+x,-y,z
loop_
_atom_site_type_symbol
_atom_site_label
_atom_site_fract_x
_atom_site_fract_y
_atom_site_fract_z
Si Si1 0.013155 0.531323 0.252740
Si Si2 0.772989 0.366808 0.339109
Si Si3 0.716405 0.027704 0.249886
Si Si4 0.040730 0.041660 0.577597
Si Si5 0.881465 0.803325 0.416314
Si Si6 0.838390 0.617377 0.033145
O O1 0.937503 0.392200 0.326851
O O2 0.960534 0.682409 0.329670
O O3 0.929869 0.527926 0.130662
O O4 0.176117 0.551902 0.234078
O O5 0.744552 0.182447 0.330079
O O6 0.703899 0.473690 0.442897
O O7 0.566677 0.033066 0.189215
O O8 0.819192 0.027736 0.134813
O O9 0.761369 0.879061 0.331932
O O10 0.067690 0.219699 0.532709
O O11 0.979228 0.935943 0.471463
O O12 0.810278 0.709145 0.526824
#
# Coordination Sequence:
#
# PCOD9341634 Si02
#       6
#     4   4   4   4   4   4
#     4  11  25  50  66 107 150 194 248 313 388 457
#     4  11  28  44  72 105 150 201 250 312 391 461
#     4  12  26  48  78 115 150 199 264 322 385 469
#     4  12  25  46  78 111 149 202 262 324 388 463
#     4  11  25  45  78 110 149 197 260 326 381 458
#     4  11  25  47  70 104 154 197 248 323 381 454
#
# _framework density 26.511187
#
# number of rings (size 3 to 8) (size 9 to 14) (size 15 to 20)
#    0.000    0.667    5.000    0.000    7.000    8.000 
#    0.000    0.000    0.000    0.000    0.000    0.000 
#    0.000    0.000    0.000    0.000    0.000    0.000 
#
# Total GULP energy -134063.681819 kJ/mol
# GULP energy per Si atom -5585.986742 kJ/mol
# Density = 2.645085 g / cm^3
# Si number density = 26.511187 Si / 1000 Ang^3
#
#
#
# Elastic Constant Matrix: (Units=GPa)
#
#
# Indices 1 2 3 4 5 6 
#
# 1 83.6256 -7.5042 -7.9232 0.0000 0.0000 0.0000
# 2 -7.5042 72.9240 8.5135 0.0000 0.0000 0.0000
# 3 -7.9232 8.5135 47.2981 0.0000 0.0000 0.0000
# 4 0.0000 0.0000 0.0000 40.6915 0.0000 0.0000
# 5 0.0000 0.0000 0.0000 0.0000 36.8817 0.0000
# 6 0.0000 0.0000 0.0000 0.0000 0.0000 38.7125
#
#
#
# Elastic Compliance Matrix: (Units=1/GPa)
#
#
# Indices 1 2 3 4 5 6 
#
# 1 0.012228 0.001041 0.001861 0.000000 0.000000 0.000000
# 2 0.001041 0.014096 -0.002363 0.000000 0.000000 0.000000
# 3 0.001861 -0.002363 0.021880 0.000000 0.000000 0.000000
# 4 0.000000 0.000000 0.000000 0.024575 0.000000 0.000000
# 5 0.000000 0.000000 0.000000 0.000000 0.027114 0.000000
# 6 0.000000 0.000000 0.000000 0.000000 0.000000 0.025831
#
#
# Mechanical properties :
#
#
# Convention : Reuss Voigt Hill
#
# Bulk Modulus (GPa) = 20.29154 21.11331 20.70243
# Shear Modulus (GPa) = 35.44281 37.30792 36.37536
#
# Velocity S-wave (km/s) = 3.66033 3.75541 3.70817
# Velocity P-wave (km/s) = 5.05318 5.17545 5.11468
#
# Compressibility (1/GPa) = 0.04928161
#
# Stress axis : x y z
#
# Youngs Moduli (GPa) = 81.78087 70.94275 45.70485
#
# Poissons Ratio (x) = -0.07385 -0.08506
# Poissons Ratio (y) = -0.08514 0.10799
# Poissons Ratio (z) = -0.15219 0.16762
#
# Static dielectric constant tensor:
#      x y z
#    x 2.093510 0.000000 0.000000 
#    y 0.000000 2.017790 0.000000 
#    z 0.000000 0.000000 2.248270 
# 
# From -- ./inp_files/2807.got.cif
#   From: 2010.05.17/outbox.cif.g08.bks.cpg/sg29_2_cif.got.tgz:2807.got - 2010.06.04 01:19:37.
