data_PCOD9341440
_publ_section_title
;
Structure prediction by ZEFSAII (Michael W. Deem and Ramdas Pophale) SiO2 
 PCOD9341440
Probable space group: P C A 21
;
_chemical_formula_sum "Si O2"
_cell_formula_units_Z 32
_cell_length_a 17.636481
_cell_length_b 6.795174
_cell_length_c 14.349299
_cell_angle_alpha 90.000000
_cell_angle_beta 90.000000
_cell_angle_gamma 90.000000
_cell_volume 1719.662425
_symmetry_space_group_name_H-M "P C A 21"
_symmetry_group_IT_number 29
_symmetry_cell_setting 'orthorhombic'
loop_
_space_group_symop_operation_xyz
x,y,z
-x,-y,1/2+z
1/2-x,y,1/2+z
1/2+x,-y,z
loop_
_atom_site_type_symbol
_atom_site_label
_atom_site_fract_x
_atom_site_fract_y
_atom_site_fract_z
Si Si1 0.189742 0.979343 0.312740
Si Si2 0.213229 0.643428 0.162759
Si Si3 0.290512 0.368942 0.312740
Si Si4 0.960176 0.485153 0.963465
Si Si5 0.539824 0.485153 0.162016
Si Si6 0.461343 0.224178 0.312741
Si Si7 0.286771 0.643428 0.962721
Si Si8 0.525288 0.821709 0.312740
O O1 0.203712 0.841269 0.223253
O O2 0.203712 0.841270 0.402227
O O3 0.244556 0.165790 0.312740
O O4 0.104458 0.061050 0.312740
O O5 0.265087 0.496096 0.223385
O O6 0.129810 0.547680 0.153621
O O7 0.250000 0.679249 0.062740
O O8 0.378764 0.319892 0.312740
O O9 0.265087 0.496096 0.402095
O O10 0.870190 0.452320 0.971860
O O11 0.976458 0.679083 0.901902
O O12 0.994157 0.305633 0.902887
O O13 1.000000 0.500002 0.062740
O O14 0.505843 0.305634 0.222595
O O15 0.523542 0.679084 0.223578
O O16 0.461122 0.988315 0.312740
#
# Coordination Sequence:
#
# PCOD9341440 Si02
#       8
#     4   4   4   4   4   4   4   4
#     4  11  21  44  66  90 127 172 209 261 320 376
#     4  11  23  41  65  93 130 165 214 263 318 389
#     4  11  23  41  65  91 127 171 207 263 324 378
#     4  11  23  41  66  92 129 169 211 263 321 377
#     4  11  23  41  66  92 129 169 211 263 321 377
#     4  11  23  41  65  95 127 165 219 263 320 378
#     4  11  23  41  65  93 130 165 214 263 318 389
#     4  11  21  44  66  88 129 172 211 267 320 374
#
# _framework density 18.608302999999999
#
# number of rings (size 3 to 8) (size 9 to 14) (size 15 to 20)
#    0.000    1.000    5.000    3.000    0.000    8.000 
#    4.500    0.000    0.000    0.000    0.000    0.000 
#    0.000    0.000    0.000    0.000    0.000    0.000 
#
# Total GULP energy -178917.578739 kJ/mol
# GULP energy per Si atom -5591.174336 kJ/mol
# Density = 1.856595 g / cm^3
# Si number density = 18.608303 Si / 1000 Ang^3
#
#
#
# Elastic Constant Matrix: (Units=GPa)
#
#
# Indices 1 2 3 4 5 6 
#
# 1 80.8313 12.5861 36.7004 0.0000 0.0000 0.0000
# 2 12.5861 121.0548 63.6085 0.0000 0.0000 0.0000
# 3 36.7004 63.6085 182.6825 0.0000 0.0000 0.0000
# 4 0.0000 0.0000 0.0000 1.9268 0.0000 0.0000
# 5 0.0000 0.0000 0.0000 0.0000 28.9221 0.0000
# 6 0.0000 0.0000 0.0000 0.0000 0.0000 32.6763
#
#
#
# Elastic Compliance Matrix: (Units=1/GPa)
#
#
# Indices 1 2 3 4 5 6 
#
# 1 0.013613 0.000027 -0.002744 0.000000 0.000000 0.000000
# 2 0.000027 0.010111 -0.003526 0.000000 0.000000 0.000000
# 3 -0.002744 -0.003526 0.007253 0.000000 0.000000 0.000000
# 4 0.000000 0.000000 0.000000 0.518982 0.000000 0.000000
# 5 0.000000 0.000000 0.000000 0.000000 0.034576 0.000000
# 6 0.000000 0.000000 0.000000 0.000000 0.000000 0.030603
#
#
# Mechanical properties :
#
#
# Convention : Reuss Voigt Hill
#
# Bulk Modulus (GPa) = 54.08311 67.81762 60.95037
# Shear Modulus (GPa) = 7.88907 30.81662 19.35285
#
# Velocity S-wave (km/s) = 2.06125 4.07390 3.22842
# Velocity P-wave (km/s) = 5.89848 7.65851 6.83538
#
# Compressibility (1/GPa) = 0.01849006
#
# Stress axis : x y z
#
# Youngs Moduli (GPa) = 73.45793 98.90640 137.87606
#
# Poissons Ratio (x) = -0.00262 0.37834
# Poissons Ratio (y) = -0.00195 0.48612
# Poissons Ratio (z) = 0.20158 0.34872
#
# Static dielectric constant tensor:
#      x y z
#    x 1.642250 0.000000 0.000000 
#    y 0.000000 1.631560 0.000000 
#    z 0.000000 0.000000 1.606120 
# 
# From -- ./inp_files/4788.got.cif
#   From: 2010.05.17/outbox.cif.g08.bks.cpg/sg29_3_cif.got.tgz:4788.got - 2010.06.04 01:19:37.
