data_PCOD9341118
_publ_section_title
;
Structure prediction by ZEFSAII (Michael W. Deem and Ramdas Pophale) SiO2 
 PCOD9341118
Probable space group: P C A 21
;
_chemical_formula_sum "Si O2"
_cell_formula_units_Z 24
_cell_length_a 19.983991
_cell_length_b 5.414691
_cell_length_c 9.346385
_cell_angle_alpha 90.000000
_cell_angle_beta 90.000000
_cell_angle_gamma 90.000000
_cell_volume 1011.345555
_symmetry_space_group_name_H-M "P C A 21"
_symmetry_group_IT_number 29
_symmetry_cell_setting 'orthorhombic'
loop_
_space_group_symop_operation_xyz
x,y,z
-x,-y,1/2+z
1/2-x,y,1/2+z
1/2+x,-y,z
loop_
_atom_site_type_symbol
_atom_site_label
_atom_site_fract_x
_atom_site_fract_y
_atom_site_fract_z
Si Si1 0.415825 0.864543 0.848480
Si Si2 0.390220 0.627274 0.445325
Si Si3 0.867469 0.142237 0.168819
Si Si4 0.247707 0.538835 0.568376
Si Si5 0.566049 0.876681 0.901567
Si Si6 0.663001 0.640006 0.311351
O O1 0.494771 0.871312 0.825676
O O2 0.381694 0.609567 0.797118
O O3 0.377605 0.108705 0.797208
O O4 0.406418 0.875415 0.021452
O O5 0.398099 0.646571 0.272915
O O6 0.312019 0.632109 0.480210
O O7 0.421271 0.369613 0.489444
O O8 0.426222 0.875792 0.496085
O O9 0.877250 0.914997 0.278223
O O10 0.793198 0.229416 0.130358
O O11 0.278834 0.378523 0.694587
O O12 0.198099 0.386935 0.466349
#
# Coordination Sequence:
#
# PCOD9341118 Si02
#       6
#     4   4   4   4   4   4
#     4  11  25  43  69  99 135 182 230 281 340 419
#     4  10  23  42  69  97 132 183 219 286 346 404
#     4   9  24  43  68  98 136 178 227 285 346 395
#     4  11  23  47  67 102 138 174 236 281 350 413
#     4  10  23  45  63 101 134 180 225 280 344 405
#     4  11  26  42  70 101 133 181 225 287 342 408
#
# _framework density 23.730758000000002
#
# number of rings (size 3 to 8) (size 9 to 14) (size 15 to 20)
#    1.000    0.667    1.667    1.000    4.667   10.667 
#    0.000    0.000    0.000    0.000    0.000    0.000 
#    0.000    0.000    0.000    0.000    0.000    0.000 
#
# Total GULP energy -134137.893398 kJ/mol
# GULP energy per Si atom -5589.078892 kJ/mol
# Density = 2.367675 g / cm^3
# Si number density = 23.730758 Si / 1000 Ang^3
#
#
#
# Elastic Constant Matrix: (Units=GPa)
#
#
# Indices 1 2 3 4 5 6 
#
# 1 132.9077 72.5112 14.5819 0.0000 0.0000 0.0000
# 2 72.5112 192.0999 33.4526 0.0000 0.0000 0.0000
# 3 14.5819 33.4526 81.9602 0.0000 0.0000 0.0000
# 4 0.0000 0.0000 0.0000 12.7632 0.0000 0.0000
# 5 0.0000 0.0000 0.0000 0.0000 29.2423 0.0000
# 6 0.0000 0.0000 0.0000 0.0000 0.0000 22.8524
#
#
#
# Elastic Compliance Matrix: (Units=1/GPa)
#
#
# Indices 1 2 3 4 5 6 
#
# 1 0.009480 -0.003536 -0.000243 0.000000 0.000000 0.000000
# 2 -0.003536 0.006923 -0.002197 0.000000 0.000000 0.000000
# 3 -0.000243 -0.002197 0.013141 0.000000 0.000000 0.000000
# 4 0.000000 0.000000 0.000000 0.078350 0.000000 0.000000
# 5 0.000000 0.000000 0.000000 0.000000 0.034197 0.000000
# 6 0.000000 0.000000 0.000000 0.000000 0.000000 0.043759
#
#
# Mechanical properties :
#
#
# Convention : Reuss Voigt Hill
#
# Bulk Modulus (GPa) = 56.84440 72.00658 64.42549
# Shear Modulus (GPa) = 24.55006 32.06637 28.30822
#
# Velocity S-wave (km/s) = 3.21989 3.67993 3.45757
# Velocity P-wave (km/s) = 6.15057 6.96167 6.56865
#
# Compressibility (1/GPa) = 0.01759188
#
# Stress axis : x y z
#
# Youngs Moduli (GPa) = 105.48701 144.44971 76.09848
#
# Poissons Ratio (x) = 0.51076 0.01852
# Poissons Ratio (y) = 0.37300 0.16715
# Poissons Ratio (z) = 0.02567 0.31728
#
# Static dielectric constant tensor:
#      x y z
#    x 1.837370 0.000000 0.000000 
#    y 0.000000 1.928960 0.000000 
#    z 0.000000 0.000000 1.937260 
# 
# From -- ./inp_files/3722.got.cif
#   From: 2010.05.17/outbox.cif.g08.bks.cpg/sg29_2_cif.got.tgz:3722.got - 2010.06.04 01:19:37.
