data_PCOD9341309
_publ_section_title
;
Structure prediction by ZEFSAII (Michael W. Deem and Ramdas Pophale) SiO2 
 PCOD9341309
Probable space group: P C A 21
;
_chemical_formula_sum "Si O2"
_cell_formula_units_Z 28
_cell_length_a 9.360860
_cell_length_b 13.419397
_cell_length_c 9.214367
_cell_angle_alpha 90.000000
_cell_angle_beta 90.000000
_cell_angle_gamma 90.000000
_cell_volume 1157.482030
_symmetry_space_group_name_H-M "P C A 21"
_symmetry_group_IT_number 29
_symmetry_cell_setting 'orthorhombic'
loop_
_space_group_symop_operation_xyz
x,y,z
-x,-y,1/2+z
1/2-x,y,1/2+z
1/2+x,-y,z
loop_
_atom_site_type_symbol
_atom_site_label
_atom_site_fract_x
_atom_site_fract_y
_atom_site_fract_z
Si Si1 0.521662 0.372729 0.614240
Si Si2 0.122864 0.921865 0.317996
Si Si3 0.564625 0.797892 0.485790
Si Si4 0.397218 0.994267 0.494895
Si Si5 0.817620 0.284397 0.652679
Si Si6 0.994046 0.557529 0.304829
Si Si7 0.246712 0.282558 0.726303
O O1 0.653411 0.297585 0.613328
O O2 0.527163 0.446937 0.749257
O O3 0.527583 0.441268 0.473492
O O4 0.370293 0.319125 0.618517
O O5 0.248748 0.963995 0.420443
O O6 0.161558 0.812305 0.255016
O O7 0.110756 0.988926 0.169951
O O8 0.977942 0.915630 0.414528
O O9 0.505973 0.905774 0.453223
O O10 0.422147 0.733259 0.515585
O O11 0.667633 0.759192 0.362196
O O12 0.650462 0.794857 0.637222
O O13 0.875659 0.384571 0.727304
O O14 0.856361 0.626153 0.269753
#
# Coordination Sequence:
#
# PCOD9341309 Si02
#       7
#     4   4   4   4   4   4   4
#     4  12  26  44  73 102 145 192 246 312 374 447
#     4  11  25  48  75 112 151 200 248 316 382 460
#     4  10  24  46  71 103 142 191 245 307 370 450
#     4  11  25  47  75 111 151 194 252 310 377 453
#     4  10  26  46  74 106 151 194 254 306 383 453
#     4  11  27  43  69 105 139 193 245 308 375 451
#     4  11  23  46  67  99 143 188 244 301 371 446
#
# _framework density 24.190442999999998
#
# number of rings (size 3 to 8) (size 9 to 14) (size 15 to 20)
#    0.000    1.143    1.429    2.571   10.000    6.857 
#    2.571    0.000    0.000    0.000    0.000    0.000 
#    0.000    0.000    0.000    0.000    0.000    0.000 
#
# Total GULP energy -156865.363654 kJ/mol
# GULP energy per Si atom -5602.334416 kJ/mol
# Density = 2.413538 g / cm^3
# Si number density = 24.190443 Si / 1000 Ang^3
#
#
#
# Elastic Constant Matrix: (Units=GPa)
#
#
# Indices 1 2 3 4 5 6 
#
# 1 62.8353 5.0591 -17.2618 0.0000 0.0000 0.0000
# 2 5.0591 26.9360 6.6850 0.0000 0.0000 0.0000
# 3 -17.2618 6.6850 76.1620 0.0000 0.0000 0.0000
# 4 0.0000 0.0000 0.0000 39.2770 0.0000 0.0000
# 5 0.0000 0.0000 0.0000 0.0000 32.0614 0.0000
# 6 0.0000 0.0000 0.0000 0.0000 0.0000 26.3051
#
#
#
# Elastic Compliance Matrix: (Units=1/GPa)
#
#
# Indices 1 2 3 4 5 6 
#
# 1 0.017457 -0.004356 0.004339 0.000000 0.000000 0.000000
# 2 -0.004356 0.039039 -0.004414 0.000000 0.000000 0.000000
# 3 0.004339 -0.004414 0.014501 0.000000 0.000000 0.000000
# 4 0.000000 0.000000 0.000000 0.025460 0.000000 0.000000
# 5 0.000000 0.000000 0.000000 0.000000 0.031190 0.000000
# 6 0.000000 0.000000 0.000000 0.000000 0.000000 0.038015
#
#
# Mechanical properties :
#
#
# Convention : Reuss Voigt Hill
#
# Bulk Modulus (GPa) = 16.09383 17.21088 16.65236
# Shear Modulus (GPa) = 25.61014 30.95878 28.28446
#
# Velocity S-wave (km/s) = 3.25728 3.58130 3.42313
# Velocity P-wave (km/s) = 4.56223 4.92251 4.74579
#
# Compressibility (1/GPa) = 0.06213561
#
# Stress axis : x y z
#
# Youngs Moduli (GPa) = 57.28266 25.61568 68.96213
#
# Poissons Ratio (x) = 0.11157 -0.29922
# Poissons Ratio (y) = 0.24950 0.30438
# Poissons Ratio (z) = -0.24855 0.11306
#
# Static dielectric constant tensor:
#      x y z
#    x 1.910820 0.000000 0.000000 
#    y 0.000000 1.909870 0.000000 
#    z 0.000000 0.000000 1.944100 
# 
# From -- ./inp_files/1187.got.cif
#   From: 2010.05.17/outbox.cif.g08.bks.cpg/sg29_1_cif.got.tgz:1187.got - 2010.06.04 01:19:37.
