data_PCOD9341865
_publ_section_title
;
Structure prediction by ZEFSAII (Michael W. Deem and Ramdas Pophale) SiO2 
 PCOD9341865
Probable space group: P N C 2
;
_chemical_formula_sum "Si O2"
_cell_formula_units_Z 26
_cell_length_a 16.616667
_cell_length_b 13.676837
_cell_length_c 4.870097
_cell_angle_alpha 90.000000
_cell_angle_beta 90.000000
_cell_angle_gamma 90.000000
_cell_volume 1106.795027
_symmetry_space_group_name_H-M "P N C 2"
_symmetry_group_IT_number 30
_symmetry_cell_setting 'orthorhombic'
loop_
_space_group_symop_operation_xyz
x,y,z
-x,-y,z
-x,1/2+y,1/2+z
x,1/2-y,1/2+z
loop_
_atom_site_type_symbol
_atom_site_label
_atom_site_fract_x
_atom_site_fract_y
_atom_site_fract_z
Si Si1 0.720144 0.592008 0.054550
Si Si2 0.105883 0.320246 0.095223
Si Si3 0.443746 0.188886 0.641564
Si Si4 0.500000 0.000000 0.308037
Si Si5 0.235162 0.818066 0.398823
Si Si6 0.943298 0.319798 0.880020
Si Si7 0.328982 0.520666 0.562522
O O1 0.652521 0.670678 0.138139
O O2 0.698074 0.499381 0.251669
O O3 0.812360 0.620390 0.077313
O O4 0.704238 0.570823 0.736333
O O5 0.106508 0.225202 0.897585
O O6 0.023598 0.372707 0.990211
O O7 0.466326 0.280137 0.446953
O O8 0.481770 0.092431 0.506175
O O9 0.576254 0.019067 0.114223
O O10 0.242531 0.779552 0.708793
O O11 0.145206 0.864945 0.399616
O O12 0.293742 0.889556 0.235618
O O13 0.944265 0.277644 0.572610
#
# Coordination Sequence:
#
# PCOD9341865 Si02
#       7
#     4   4   4   2   4   4   4
#     4  11  22  38  58  88 123 158 202 253 317 392
#     4  10  18  32  57  85 115 153 197 242 295 367
#     4  11  23  40  64  90 121 165 211 262 327 388
#     4  10  26  44  62  92 130 164 218 282 328 394
#     4  10  20  38  62  86 113 153 208 255 304 380
#     4   8  16  30  53  83 112 145 188 242 293 349
#     4  11  24  40  60  84 122 164 200 265 335 375
#
# _framework density 23.491250000000001
#
# number of rings (size 3 to 8) (size 9 to 14) (size 15 to 20)
#    0.000    1.846    0.000    4.615    0.000    6.769 
#    0.000    0.769    0.000    1.846    0.000    0.000 
#    0.000    0.000    0.000    0.000    0.000    0.000 
#
# Total GULP energy -145098.805876 kJ/mol
# GULP energy per Si atom -5580.723303 kJ/mol
# Density = 2.343778 g / cm^3
# Si number density = 23.491250 Si / 1000 Ang^3
#
#
#
# Elastic Constant Matrix: (Units=GPa)
#
#
# Indices 1 2 3 4 5 6 
#
# 1 128.4052 32.4182 3.1529 0.0000 0.0000 0.0000
# 2 32.4182 54.5230 6.6241 0.0000 0.0000 0.0000
# 3 3.1529 6.6241 97.9024 0.0000 0.0000 0.0000
# 4 0.0000 0.0000 0.0000 24.1533 0.0000 0.0000
# 5 0.0000 0.0000 0.0000 0.0000 24.2264 0.0000
# 6 0.0000 0.0000 0.0000 0.0000 0.0000 20.4202
#
#
#
# Elastic Compliance Matrix: (Units=1/GPa)
#
#
# Indices 1 2 3 4 5 6 
#
# 1 0.009164 -0.005458 0.000074 0.000000 0.000000 0.000000
# 2 -0.005458 0.021743 -0.001295 0.000000 0.000000 0.000000
# 3 0.000074 -0.001295 0.010300 0.000000 0.000000 0.000000
# 4 0.000000 0.000000 0.000000 0.041402 0.000000 0.000000
# 5 0.000000 0.000000 0.000000 0.000000 0.041277 0.000000
# 6 0.000000 0.000000 0.000000 0.000000 0.000000 0.048971
#
#
# Mechanical properties :
#
#
# Convention : Reuss Voigt Hill
#
# Bulk Modulus (GPa) = 35.90809 40.58010 38.24409
# Shear Modulus (GPa) = 25.57571 29.66901 27.62236
#
# Velocity S-wave (km/s) = 3.30318 3.55770 3.43280
# Velocity P-wave (km/s) = 5.46506 5.84708 5.65930
#
# Compressibility (1/GPa) = 0.02784888
#
# Stress axis : x y z
#
# Youngs Moduli (GPa) = 109.12368 45.99124 97.09195
#
# Poissons Ratio (x) = 0.25100 -0.00720
# Poissons Ratio (y) = 0.59556 0.12577
# Poissons Ratio (z) = -0.00809 0.05958
#
# Static dielectric constant tensor:
#      x y z
#    x 1.947950 0.000000 0.000000 
#    y 0.000000 1.940430 0.000000 
#    z 0.000000 0.000000 1.820580 
# 
# From -- ./inp_files/995.got.cif
#   From: 2010.05.17/outbox.cif.g08.bks.cpg/sg30_1_cif.got.tgz:995.got - 2010.06.03 17:03:02.
