data_PCOD9341202
_publ_section_title
;
Structure prediction by ZEFSAII (Michael W. Deem and Ramdas Pophale) SiO2 
 PCOD9341202
Probable space group: P C A 21
;
_chemical_formula_sum "Si O2"
_cell_formula_units_Z 24
_cell_length_a 10.144732
_cell_length_b 9.893505
_cell_length_c 10.025024
_cell_angle_alpha 90.000000
_cell_angle_beta 90.000000
_cell_angle_gamma 90.000000
_cell_volume 1006.181150
_symmetry_space_group_name_H-M "P C A 21"
_symmetry_group_IT_number 29
_symmetry_cell_setting 'orthorhombic'
loop_
_space_group_symop_operation_xyz
x,y,z
-x,-y,1/2+z
1/2-x,y,1/2+z
1/2+x,-y,z
loop_
_atom_site_type_symbol
_atom_site_label
_atom_site_fract_x
_atom_site_fract_y
_atom_site_fract_z
Si Si1 0.503503 0.293374 0.130840
Si Si2 0.956728 0.133484 0.234361
Si Si3 0.851935 0.507971 0.489943
Si Si4 0.747415 0.372805 0.738364
Si Si5 0.707285 0.780172 0.127437
Si Si6 0.074398 0.989731 0.003898
O O1 0.598216 0.333975 0.253872
O O2 0.354807 0.257745 0.162658
O O3 0.519169 0.419392 0.028240
O O4 0.570172 0.162432 0.060786
O O5 0.102632 0.200496 0.247392
O O6 0.843686 0.242605 0.249811
O O7 0.942520 0.020646 0.346914
O O8 0.963619 0.070957 0.086944
O O9 0.748662 0.433156 0.589970
O O10 0.805258 0.481480 0.341749
O O11 0.853644 0.661461 0.536173
O O12 0.699799 0.921551 0.047472
#
# Coordination Sequence:
#
# PCOD9341202 Si02
#       6
#     4   4   4   4   4   4
#     4  10  24  48  74 110 153 207 254 323 393 475
#     4  10  23  48  76 113 152 208 254 325 389 474
#     4  10  24  48  77 111 153 206 260 320 399 464
#     4  10  23  47  79 103 158 201 261 314 399 472
#     4  10  26  47  79 115 154 203 267 326 393 476
#     4  10  24  48  77 106 162 197 260 318 397 463
#
# _framework density 23.852567000000001
#
# number of rings (size 3 to 8) (size 9 to 14) (size 15 to 20)
#    2.000    0.000    1.667    0.000    4.667    2.667 
#   12.000    0.000    0.000    0.000    0.000    0.000 
#    0.000    0.000    0.000    0.000    0.000    0.000 
#
# Total GULP energy -133973.904849 kJ/mol
# GULP energy per Si atom -5582.246035 kJ/mol
# Density = 2.379828 g / cm^3
# Si number density = 23.852567 Si / 1000 Ang^3
#
#
#
# Elastic Constant Matrix: (Units=GPa)
#
#
# Indices 1 2 3 4 5 6 
#
# 1 154.5263 39.3624 16.0162 0.0000 0.0000 0.0000
# 2 39.3624 102.8790 -0.9157 0.0000 0.0000 0.0000
# 3 16.0162 -0.9157 56.4646 0.0000 0.0000 0.0000
# 4 0.0000 0.0000 0.0000 32.4601 0.0000 0.0000
# 5 0.0000 0.0000 0.0000 0.0000 15.9388 0.0000
# 6 0.0000 0.0000 0.0000 0.0000 0.0000 28.7273
#
#
#
# Elastic Compliance Matrix: (Units=1/GPa)
#
#
# Indices 1 2 3 4 5 6 
#
# 1 0.007423 -0.002859 -0.002152 0.000000 0.000000 0.000000
# 2 -0.002859 0.010823 0.000987 0.000000 0.000000 0.000000
# 3 -0.002152 0.000987 0.018337 0.000000 0.000000 0.000000
# 4 0.000000 0.000000 0.000000 0.030807 0.000000 0.000000
# 5 0.000000 0.000000 0.000000 0.000000 0.062740 0.000000
# 6 0.000000 0.000000 0.000000 0.000000 0.000000 0.034810
#
#
# Mechanical properties :
#
#
# Convention : Reuss Voigt Hill
#
# Bulk Modulus (GPa) = 35.04683 46.97729 41.01206
# Shear Modulus (GPa) = 27.39736 32.71903 30.05820
#
# Velocity S-wave (km/s) = 3.39280 3.70769 3.55373
# Velocity P-wave (km/s) = 5.48389 6.16984 5.83695
#
# Compressibility (1/GPa) = 0.02853325
#
# Stress axis : x y z
#
# Youngs Moduli (GPa) = 134.72136 92.39694 54.53580
#
# Poissons Ratio (x) = 0.26418 0.11735
# Poissons Ratio (y) = 0.38519 -0.05380
# Poissons Ratio (z) = 0.28990 -0.09115
#
# Static dielectric constant tensor:
#      x y z
#    x 1.956730 0.000000 0.000000 
#    y 0.000000 1.908640 0.000000 
#    z 0.000000 0.000000 1.880420 
# 
# From -- ./inp_files/2828.got.cif
#   From: 2010.05.17/outbox.cif.g08.bks.cpg/sg29_2_cif.got.tgz:2828.got - 2010.06.04 01:19:37.
