data_PCOD9341852
_publ_section_title
;
Structure prediction by ZEFSAII (Michael W. Deem and Ramdas Pophale) SiO2 
 PCOD9341852
Probable space group: P N C 2
;
_chemical_formula_sum "Si O2"
_cell_formula_units_Z 20
_cell_length_a 5.560248
_cell_length_b 9.342569
_cell_length_c 15.388730
_cell_angle_alpha 90.000000
_cell_angle_beta 90.000000
_cell_angle_gamma 90.000000
_cell_volume 799.398366
_symmetry_space_group_name_H-M "P N C 2"
_symmetry_group_IT_number 30
_symmetry_cell_setting 'orthorhombic'
loop_
_space_group_symop_operation_xyz
x,y,z
-x,-y,z
-x,1/2+y,1/2+z
x,1/2-y,1/2+z
loop_
_atom_site_type_symbol
_atom_site_label
_atom_site_fract_x
_atom_site_fract_y
_atom_site_fract_z
Si Si1 0.691717 0.240186 0.375000
Si Si2 0.459204 0.832611 0.686217
Si Si3 0.750206 0.007486 0.013614
Si Si4 0.959154 0.658612 0.126398
Si Si5 0.809800 0.801411 0.431831
O O1 0.624209 0.314222 0.284774
O O2 0.730408 0.356545 0.451067
O O3 0.452672 0.152458 0.400002
O O4 0.957204 0.170623 0.372274
O O5 0.726685 0.769480 0.671062
O O6 0.228143 0.776885 0.631995
O O7 0.500000 0.000000 0.663567
O O8 0.500000 0.000000 0.063487
O O9 0.772317 0.869777 0.949149
O O10 0.000000 0.000000 0.064323
O O11 0.000000 0.500000 0.166269
O O12 0.875484 0.641480 0.027150
#
# Coordination Sequence:
#
# PCOD9341852 Si02
#       5
#     4   4   4   4   4
#     4  10  18  30  51  76  96 120 159 206 253 293
#     4  10  19  32  49  72 103 127 154 203 257 300
#     4   8  15  25  42  68  93 112 144 189 237 279
#     4  10  21  33  47  71 103 136 162 194 245 299
#     4  10  18  30  47  71  99 127 162 196 238 295
#
# _framework density 25.018813999999999
#
# number of rings (size 3 to 8) (size 9 to 14) (size 15 to 20)
#    0.000    2.400    0.000    4.200    0.000    5.600 
#    0.000    0.000    0.000    0.000    0.000   42.000 
#    0.000    0.000    0.000    0.000    0.000    0.000 
#
# Total GULP energy -111565.119510 kJ/mol
# GULP energy per Si atom -5578.255976 kJ/mol
# Density = 2.496187 g / cm^3
# Si number density = 25.018814 Si / 1000 Ang^3
#
#
#
# Elastic Constant Matrix: (Units=GPa)
#
#
# Indices 1 2 3 4 5 6 
#
# 1 340.1198 42.5714 43.8093 0.0000 0.0000 0.0000
# 2 42.5714 55.9274 11.8978 0.0000 0.0000 0.0000
# 3 43.8093 11.8978 69.9407 0.0000 0.0000 0.0000
# 4 0.0000 0.0000 0.0000 4.2319 0.0000 0.0000
# 5 0.0000 0.0000 0.0000 0.0000 47.8172 0.0000
# 6 0.0000 0.0000 0.0000 0.0000 0.0000 0.1329
#
#
#
# Elastic Compliance Matrix: (Units=1/GPa)
#
#
# Indices 1 2 3 4 5 6 
#
# 1 0.003451 -0.002248 -0.001779 0.000000 0.000000 0.000000
# 2 -0.002248 0.020016 -0.001997 0.000000 0.000000 0.000000
# 3 -0.001779 -0.001997 0.015752 0.000000 0.000000 0.000000
# 4 0.000000 0.000000 0.000000 0.236301 0.000000 0.000000
# 5 0.000000 0.000000 0.000000 0.000000 0.020913 0.000000
# 6 0.000000 0.000000 0.000000 0.000000 0.000000 7.522616
#
#
# Mechanical properties :
#
#
# Convention : Reuss Voigt Hill
#
# Bulk Modulus (GPa) = 36.80404 73.61610 55.21007
# Shear Modulus (GPa) = 0.63774 34.95037 17.79406
#
# Velocity S-wave (km/s) = 0.50543 3.74165 2.66978
# Velocity P-wave (km/s) = 3.88370 6.93937 5.62307
#
# Compressibility (1/GPa) = 0.02717093
#
# Stress axis : x y z
#
# Youngs Moduli (GPa) = 289.79820 49.95902 63.48474
#
# Poissons Ratio (x) = 0.11232 0.11294
# Poissons Ratio (y) = 0.65152 0.12677
# Poissons Ratio (z) = 0.51555 0.09976
#
# Static dielectric constant tensor:
#      x y z
#    x 2.154040 0.000000 0.000000 
#    y 0.000000 2.044550 0.000000 
#    z 0.000000 0.000000 1.882830 
# 
# From -- ./inp_files/3063.got.cif
#   From: 2010.05.17/outbox.cif.g08.bks.cpg/sg30_2_cif.got.tgz:3063.got - 2010.06.03 17:03:02.
