data_PCOD9341685
_publ_section_title
;
Structure prediction by ZEFSAII (Michael W. Deem and Ramdas Pophale) SiO2 
 PCOD9341685
Probable space group: P C A 21
;
_chemical_formula_sum "Si O2"
_cell_formula_units_Z 20
_cell_length_a 10.344255
_cell_length_b 8.964251
_cell_length_c 8.337806
_cell_angle_alpha 90.000000
_cell_angle_beta 90.000000
_cell_angle_gamma 90.000000
_cell_volume 773.152229
_symmetry_space_group_name_H-M "P C A 21"
_symmetry_group_IT_number 29
_symmetry_cell_setting 'orthorhombic'
loop_
_space_group_symop_operation_xyz
x,y,z
-x,-y,1/2+z
1/2-x,y,1/2+z
1/2+x,-y,z
loop_
_atom_site_type_symbol
_atom_site_label
_atom_site_fract_x
_atom_site_fract_y
_atom_site_fract_z
Si Si1 0.805994 0.784367 0.606530
Si Si2 0.701353 0.126908 0.161078
Si Si3 0.059434 0.264771 0.761365
Si Si4 0.697746 0.331648 0.900790
Si Si5 0.077006 0.436650 0.369956
O O1 0.871438 0.777120 0.431775
O O2 0.660191 0.722804 0.614569
O O3 0.881612 0.685119 0.736550
O O4 0.780059 0.951363 0.671278
O O5 0.556005 0.152226 0.224028
O O6 0.783615 0.272680 0.220247
O O7 0.721423 0.166345 0.974482
O O8 0.996801 0.424463 0.786119
O O9 0.794672 0.470193 0.927068
O O10 0.553415 0.371397 0.952161
#
# Coordination Sequence:
#
# PCOD9341685 Si02
#       5
#     4   4   4   4   4
#     4  12  28  49  80 111 161 208 269 327 413 472
#     4  11  29  49  78 115 163 207 266 332 408 483
#     4  11  29  48  77 114 153 209 270 330 402 480
#     4  11  27  49  79 116 157 207 265 327 397 475
#     4  11  27  47  82 108 156 201 266 322 394 470
#
# _framework density 25.868127000000001
#
# number of rings (size 3 to 8) (size 9 to 14) (size 15 to 20)
#    0.000    0.800    2.000    1.200   19.600    0.000 
#    0.000    0.000    0.000    0.000    0.000    0.000 
#    0.000    0.000    0.000    0.000    0.000    0.000 
#
# Total GULP energy -111551.403617 kJ/mol
# GULP energy per Si atom -5577.570181 kJ/mol
# Density = 2.580925 g / cm^3
# Si number density = 25.868127 Si / 1000 Ang^3
#
#
#
# Elastic Constant Matrix: (Units=GPa)
#
#
# Indices 1 2 3 4 5 6 
#
# 1 167.6273 39.8776 11.2221 0.0000 0.0000 0.0000
# 2 39.8776 162.0997 6.0911 0.0000 0.0000 0.0000
# 3 11.2221 6.0911 28.4951 0.0000 0.0000 0.0000
# 4 0.0000 0.0000 0.0000 43.4128 0.0000 0.0000
# 5 0.0000 0.0000 0.0000 0.0000 -81.4349 0.0000
# 6 0.0000 0.0000 0.0000 0.0000 0.0000 19.3640
#
#
#
# Elastic Compliance Matrix: (Units=1/GPa)
#
#
# Indices 1 2 3 4 5 6 
#
# 1 0.006474 -0.001509 -0.002227 0.000000 0.000000 0.000000
# 2 -0.001509 0.006571 -0.000810 0.000000 0.000000 0.000000
# 3 -0.002227 -0.000810 0.036144 0.000000 0.000000 0.000000
# 4 0.000000 0.000000 0.000000 0.023035 0.000000 0.000000
# 5 0.000000 0.000000 0.000000 0.000000 -0.012280 0.000000
# 6 0.000000 0.000000 0.000000 0.000000 0.000000 0.051642
#
#
# Mechanical properties :
#
#
# Convention : Reuss Voigt Hill
#
# Bulk Modulus (GPa) = 24.94015 52.51153 38.72584
# Shear Modulus (GPa) = 37.30141 16.33713 26.81927
#
# Velocity S-wave (km/s) = 3.80147 2.51580 3.22338
# Velocity P-wave (km/s) = 5.37870 5.36496 5.37183
#
# Compressibility (1/GPa) = 0.04009599
#
# Stress axis : x y z
#
# Youngs Moduli (GPa) = 154.47223 152.19109 27.66716
#
# Poissons Ratio (x) = 0.22964 0.06161
# Poissons Ratio (y) = 0.23308 0.02242
# Poissons Ratio (z) = 0.34400 0.12332
#
# Static dielectric constant tensor:
#      x y z
#    x 2.269040 0.000000 0.000000 
#    y 0.000000 2.028970 0.000000 
#    z 0.000000 0.000000 2.121230 
# 
# From -- ./inp_files/1345.got.cif
#   From: 2010.05.17/outbox.cif.g08.bks.cpg/sg29_1_cif.got.tgz:1345.got - 2010.06.04 01:19:37.
