data_PCOD9341655
_publ_section_title
;
Structure prediction by ZEFSAII (Michael W. Deem and Ramdas Pophale) SiO2 
 PCOD9341655
Probable space group: P C A 21
;
_chemical_formula_sum "Si O2"
_cell_formula_units_Z 20
_cell_length_a 9.461315
_cell_length_b 8.521326
_cell_length_c 9.345111
_cell_angle_alpha 90.000000
_cell_angle_beta 90.000000
_cell_angle_gamma 90.000000
_cell_volume 753.430412
_symmetry_space_group_name_H-M "P C A 21"
_symmetry_group_IT_number 29
_symmetry_cell_setting 'orthorhombic'
loop_
_space_group_symop_operation_xyz
x,y,z
-x,-y,1/2+z
1/2-x,y,1/2+z
1/2+x,-y,z
loop_
_atom_site_type_symbol
_atom_site_label
_atom_site_fract_x
_atom_site_fract_y
_atom_site_fract_z
Si Si1 0.365512 0.039727 0.529590
Si Si2 0.040187 0.724756 0.110861
Si Si3 0.274803 0.515790 0.492788
Si Si4 0.127045 0.805662 0.407586
Si Si5 0.736598 0.690490 0.229573
O O1 0.463656 0.142419 0.424437
O O2 0.318337 0.144500 0.666657
O O3 0.476979 0.906666 0.572675
O O4 0.236761 0.941835 0.457263
O O5 0.149088 0.749389 0.244240
O O6 0.895053 0.663036 0.171602
O O7 0.095021 0.637332 0.967741
O O8 0.152613 0.646447 0.497912
O O9 0.339286 0.443199 0.637077
O O10 0.236121 0.371773 0.390486
#
# Coordination Sequence:
#
# PCOD9341655 Si02
#       5
#     4   4   4   4   4
#     4  11  26  47  76 112 152 204 260 320 386 470
#     4  11  26  47  73 110 151 202 256 319 391 458
#     4  11  27  47  74 110 155 197 256 323 392 461
#     4  11  25  49  73 113 154 199 256 322 387 463
#     4  12  26  48  74 111 148 206 256 316 392 464
#
# _framework density 26.545252999999999
#
# number of rings (size 3 to 8) (size 9 to 14) (size 15 to 20)
#    0.000    0.800    4.000    1.200   11.200    0.000 
#    0.000    0.000    0.000    0.000    0.000    0.000 
#    0.000    0.000    0.000    0.000    0.000    0.000 
#
# Total GULP energy -111487.225217 kJ/mol
# GULP energy per Si atom -5574.361261 kJ/mol
# Density = 2.648483 g / cm^3
# Si number density = 26.545253 Si / 1000 Ang^3
#
#
#
# Elastic Constant Matrix: (Units=GPa)
#
#
# Indices 1 2 3 4 5 6 
#
# 1 109.6390 29.2824 2.7573 0.0000 0.0000 0.0000
# 2 29.2824 117.9785 16.1006 0.0000 0.0000 0.0000
# 3 2.7573 16.1006 91.1896 0.0000 0.0000 0.0000
# 4 0.0000 0.0000 0.0000 54.6700 0.0000 0.0000
# 5 0.0000 0.0000 0.0000 0.0000 27.9036 0.0000
# 6 0.0000 0.0000 0.0000 0.0000 0.0000 21.5193
#
#
#
# Elastic Compliance Matrix: (Units=1/GPa)
#
#
# Indices 1 2 3 4 5 6 
#
# 1 0.009770 -0.002443 0.000136 0.000000 0.000000 0.000000
# 2 -0.002443 0.009297 -0.001568 0.000000 0.000000 0.000000
# 3 0.000136 -0.001568 0.011239 0.000000 0.000000 0.000000
# 4 0.000000 0.000000 0.000000 0.018292 0.000000 0.000000
# 5 0.000000 0.000000 0.000000 0.000000 0.035838 0.000000
# 6 0.000000 0.000000 0.000000 0.000000 0.000000 0.046470
#
#
# Mechanical properties :
#
#
# Convention : Reuss Voigt Hill
#
# Bulk Modulus (GPa) = 44.33537 46.12084 45.22811
# Shear Modulus (GPa) = 34.20607 38.86305 36.53456
#
# Velocity S-wave (km/s) = 3.59359 3.83042 3.71389
# Velocity P-wave (km/s) = 5.82723 6.08070 5.95531
#
# Compressibility (1/GPa) = 0.02255535
#
# Stress axis : x y z
#
# Youngs Moduli (GPa) = 102.35388 107.56714 88.97734
#
# Poissons Ratio (x) = 0.26284 -0.01210
# Poissons Ratio (y) = 0.25010 0.13947
# Poissons Ratio (z) = -0.01392 0.16861
#
# Static dielectric constant tensor:
#      x y z
#    x 2.067400 0.000000 0.000000 
#    y 0.000000 2.245170 0.000000 
#    z 0.000000 0.000000 2.268580 
# 
# From -- ./inp_files/1377.got.cif
#   From: 2010.05.17/outbox.cif.g08.bks.cpg/sg29_1_cif.got.tgz:1377.got - 2010.06.04 01:19:37.
