data_PCOD9341114
_publ_section_title
;
Structure prediction by ZEFSAII (Michael W. Deem and Ramdas Pophale) SiO2 
 PCOD9341114
Probable space group: P C A 21
;
_chemical_formula_sum "Si O2"
_cell_formula_units_Z 28
_cell_length_a 13.672496
_cell_length_b 4.894246
_cell_length_c 14.594868
_cell_angle_alpha 90.000000
_cell_angle_beta 90.000000
_cell_angle_gamma 90.000000
_cell_volume 976.638344
_symmetry_space_group_name_H-M "P C A 21"
_symmetry_group_IT_number 29
_symmetry_cell_setting 'orthorhombic'
loop_
_space_group_symop_operation_xyz
x,y,z
-x,-y,1/2+z
1/2-x,y,1/2+z
1/2+x,-y,z
loop_
_atom_site_type_symbol
_atom_site_label
_atom_site_fract_x
_atom_site_fract_y
_atom_site_fract_z
Si Si1 0.724654 0.544838 0.221260
Si Si2 0.532178 0.691348 0.264484
Si Si3 0.107990 0.773346 0.065937
Si Si4 0.713527 0.881808 0.565068
Si Si5 0.443981 0.646546 0.066801
Si Si6 0.465121 0.178961 0.373481
Si Si7 0.777624 0.540775 0.409515
O O1 0.646637 0.759791 0.260818
O O2 0.657541 0.366903 0.154354
O O3 0.752663 0.392040 0.314493
O O4 0.803184 0.694114 0.155690
O O5 0.485031 0.742429 0.165699
O O6 0.513422 0.388038 0.301840
O O7 0.485972 0.880169 0.340262
O O8 0.168418 0.060404 0.066633
O O9 0.994775 0.666161 0.065929
O O10 0.157454 0.640443 0.976489
O O11 0.657512 0.169896 0.564715
O O12 0.697855 0.688768 0.475478
O O13 0.492197 0.765424 0.973967
O O14 0.350145 0.229021 0.372216
#
# Coordination Sequence:
#
# PCOD9341114 Si02
#       7
#     4   4   4   4   4   4   4
#     4  10  23  42  67  98 136 185 241 306 368 449
#     4  11  26  45  71 108 144 194 245 305 377 443
#     4   9  23  41  63 101 136 184 234 316 371 442
#     4  11  23  43  70  97 138 194 247 305 383 436
#     4  10  24  46  69 104 146 196 251 317 372 458
#     4  11  26  45  71 108 144 194 245 305 377 443
#     4  10  23  42  67  98 136 185 241 306 368 449
#
# _framework density 28.669771000000001
#
# number of rings (size 3 to 8) (size 9 to 14) (size 15 to 20)
#    0.000    1.714    0.000    2.571   12.000    2.286 
#    0.000    0.000    0.000    0.000    0.000    0.000 
#    0.000    0.000    0.000    0.000    0.000    0.000 
#
# Total GULP energy -156495.158818 kJ/mol
# GULP energy per Si atom -5589.112815 kJ/mol
# Density = 2.860452 g / cm^3
# Si number density = 28.669771 Si / 1000 Ang^3
#
#
#
# Elastic Constant Matrix: (Units=GPa)
#
#
# Indices 1 2 3 4 5 6 
#
# 1 111.1615 13.2431 43.1759 0.0000 0.0000 0.0000
# 2 13.2431 98.5894 30.3870 0.0000 0.0000 0.0000
# 3 43.1759 30.3870 227.6664 0.0000 0.0000 0.0000
# 4 0.0000 0.0000 0.0000 37.2398 0.0000 0.0000
# 5 0.0000 0.0000 0.0000 0.0000 47.7752 0.0000
# 6 0.0000 0.0000 0.0000 0.0000 0.0000 34.0048
#
#
#
# Elastic Compliance Matrix: (Units=1/GPa)
#
#
# Indices 1 2 3 4 5 6 
#
# 1 0.009767 -0.000773 -0.001749 0.000000 0.000000 0.000000
# 2 -0.000773 0.010639 -0.001273 0.000000 0.000000 0.000000
# 3 -0.001749 -0.001273 0.004894 0.000000 0.000000 0.000000
# 4 0.000000 0.000000 0.000000 0.026853 0.000000 0.000000
# 5 0.000000 0.000000 0.000000 0.000000 0.020931 0.000000
# 6 0.000000 0.000000 0.000000 0.000000 0.000000 0.029408
#
#
# Mechanical properties :
#
#
# Convention : Reuss Voigt Hill
#
# Bulk Modulus (GPa) = 56.46592 67.89213 62.17902
# Shear Modulus (GPa) = 43.10820 47.17804 45.14312
#
# Velocity S-wave (km/s) = 3.88185 4.06096 3.97241
# Velocity P-wave (km/s) = 6.31108 6.76171 6.54027
#
# Compressibility (1/GPa) = 0.01770980
#
# Stress axis : x y z
#
# Youngs Moduli (GPa) = 102.38142 93.99017 204.32801
#
# Poissons Ratio (x) = 0.07264 0.35741
# Poissons Ratio (y) = 0.07913 0.26021
# Poissons Ratio (z) = 0.17908 0.11970
#
# Static dielectric constant tensor:
#      x y z
#    x 2.474380 0.000000 0.000000 
#    y 0.000000 2.294120 0.000000 
#    z 0.000000 0.000000 2.298200 
# 
# From -- ./inp_files/4656.got.cif
#   From: 2010.05.17/outbox.cif.g08.bks.cpg/sg29_3_cif.got.tgz:4656.got - 2010.06.04 01:19:37.
