data_PCOD9341902
_publ_section_title
;
Structure prediction by ZEFSAII (Michael W. Deem and Ramdas Pophale) SiO2 
 PCOD9341902
Probable space group: P N C 2
;
_chemical_formula_sum "Si O2"
_cell_formula_units_Z 28
_cell_length_a 16.830630
_cell_length_b 9.454078
_cell_length_c 8.792087
_cell_angle_alpha 90.000000
_cell_angle_beta 90.000000
_cell_angle_gamma 90.000000
_cell_volume 1398.980080
_symmetry_space_group_name_H-M "P N C 2"
_symmetry_group_IT_number 30
_symmetry_cell_setting 'orthorhombic'
loop_
_space_group_symop_operation_xyz
x,y,z
-x,-y,z
-x,1/2+y,1/2+z
x,1/2-y,1/2+z
loop_
_atom_site_type_symbol
_atom_site_label
_atom_site_fract_x
_atom_site_fract_y
_atom_site_fract_z
Si Si1 0.215665 0.594005 0.905930
Si Si2 0.500000 0.000000 0.140047
Si Si3 0.078231 0.093727 0.905741
Si Si4 0.605775 0.090209 0.402117
Si Si5 0.922244 0.905084 0.269195
Si Si6 0.217475 0.904366 0.771951
Si Si7 0.607682 0.407736 0.400905
Si Si8 0.500000 0.500000 0.143703
O O1 0.305064 0.555483 0.853859
O O2 0.152220 0.482703 0.846089
O O3 0.197154 0.748759 0.837522
O O4 0.217265 0.600211 0.089140
O O5 0.454295 0.903105 0.261193
O O6 0.427552 0.021525 0.020341
O O7 0.067797 0.249142 0.836806
O O8 0.153455 0.015758 0.831625
O O9 0.088974 0.102622 0.087524
O O10 0.000000 0.000000 0.875273
O O11 0.609531 0.249273 0.470252
O O12 0.571361 0.976755 0.522790
O O13 0.000000 0.000000 0.299478
O O14 0.305447 0.939371 0.835880
O O15 0.545156 0.401002 0.262574
#
# Coordination Sequence:
#
# PCOD9341902 Si02
#       8
#     4   2   4   4   4   4   4   2
#     4  11  23  40  68  97 130 172 219 270 326 388
#     4  10  22  34  60  88 118 162 210 266 314 384
#     4  11  25  45  70 100 136 172 213 262 318 383
#     4  10  21  37  60  86 120 164 211 264 320 382
#     4  11  25  45  70 100 136 172 213 262 318 383
#     4  11  23  40  68  97 130 172 219 270 326 388
#     4  10  21  37  60  86 120 164 211 264 320 382
#     4  10  18  38  56  84 122 154 214 258 314 376
#
# _framework density 20.014581
#
# number of rings (size 3 to 8) (size 9 to 14) (size 15 to 20)
#    0.000    1.429    1.429    3.429    8.000    4.571 
#    0.000    8.571    0.000    0.000    0.000    0.000 
#    0.000    0.000    0.000    0.000    0.000    0.000 
#
# Total GULP energy -155955.110001 kJ/mol
# GULP energy per Si atom -5569.825357 kJ/mol
# Density = 1.996903 g / cm^3
# Si number density = 20.014581 Si / 1000 Ang^3
#
#
#
# Elastic Constant Matrix: (Units=GPa)
#
#
# Indices 1 2 3 4 5 6 
#
# 1 134.7831 86.3228 56.4856 0.0000 0.0000 0.0000
# 2 86.3228 111.4381 57.9575 0.0000 0.0000 0.0000
# 3 56.4856 57.9575 93.8473 0.0000 0.0000 0.0000
# 4 0.0000 0.0000 0.0000 39.6111 0.0000 0.0000
# 5 0.0000 0.0000 0.0000 0.0000 26.4849 0.0000
# 6 0.0000 0.0000 0.0000 0.0000 0.0000 -1.7642
#
#
#
# Elastic Compliance Matrix: (Units=1/GPa)
#
#
# Indices 1 2 3 4 5 6 
#
# 1 0.015196 -0.010333 -0.002765 0.000000 0.000000 0.000000
# 2 -0.010333 0.020246 -0.006284 0.000000 0.000000 0.000000
# 3 -0.002765 -0.006284 0.016201 0.000000 0.000000 0.000000
# 4 0.000000 0.000000 0.000000 0.025245 0.000000 0.000000
# 5 0.000000 0.000000 0.000000 0.000000 0.037757 0.000000
# 6 0.000000 0.000000 0.000000 0.000000 0.000000 -0.566831
#
#
# Mechanical properties :
#
#
# Convention : Reuss Voigt Hill
#
# Bulk Modulus (GPa) = 77.64800 82.40004 80.02402
# Shear Modulus (GPa) = -12.22110 22.15321 4.96605
#
# Velocity S-wave (km/s) = -2.47373 3.33055 1.57690
# Velocity P-wave (km/s) = 5.54263 7.48662 6.58674
#
# Compressibility (1/GPa) = 0.01287863
#
# Stress axis : x y z
#
# Youngs Moduli (GPa) = 65.80654 49.39170 61.72643
#
# Poissons Ratio (x) = 0.51038 0.17066
# Poissons Ratio (y) = 0.68000 0.38789
# Poissons Ratio (z) = 0.18194 0.31038
#
# Static dielectric constant tensor:
#      x y z
#    x 1.702200 0.000000 0.000000 
#    y 0.000000 1.650290 0.000000 
#    z 0.000000 0.000000 1.731980 
# 
# From -- ./inp_files/2785.got.cif
#   From: 2010.05.17/outbox.cif.g08.bks.cpg/sg30_2_cif.got.tgz:2785.got - 2010.06.03 17:03:02.
