data_PCOD9341761
_publ_section_title
;
Structure prediction by ZEFSAII (Michael W. Deem and Ramdas Pophale) SiO2 
 PCOD9341761
Probable space group: P C A 21
;
_chemical_formula_sum "Si O2"
_cell_formula_units_Z 20
_cell_length_a 7.799478
_cell_length_b 10.800790
_cell_length_c 8.739142
_cell_angle_alpha 90.000000
_cell_angle_beta 90.000000
_cell_angle_gamma 90.000000
_cell_volume 736.189901
_symmetry_space_group_name_H-M "P C A 21"
_symmetry_group_IT_number 29
_symmetry_cell_setting 'orthorhombic'
loop_
_space_group_symop_operation_xyz
x,y,z
-x,-y,1/2+z
1/2-x,y,1/2+z
1/2+x,-y,z
loop_
_atom_site_type_symbol
_atom_site_label
_atom_site_fract_x
_atom_site_fract_y
_atom_site_fract_z
Si Si1 0.934187 0.132185 0.003990
Si Si2 0.344069 0.378802 0.219577
Si Si3 0.639518 0.237664 0.817290
Si Si4 0.167074 0.137931 0.519575
Si Si5 0.354736 0.537590 0.918525
O O1 0.886352 0.232236 0.135470
O O2 0.804589 0.154272 0.864253
O O3 0.135075 0.133633 0.968612
O O4 0.888173 0.997869 0.073415
O O5 0.485709 0.388228 0.351677
O O6 0.173543 0.421955 0.304289
O O7 0.341702 0.245702 0.144638
O O8 0.371368 0.478698 0.084351
O O9 0.472847 0.176870 0.893391
O O10 0.693058 0.370715 0.889055
#
# Coordination Sequence:
#
# PCOD9341761 Si02
#       5
#     4   4   4   4   4
#     4  12  30  50  83 115 161 215 273 337 413 481
#     4  12  28  48  80 117 161 213 272 333 411 491
#     4  12  29  54  80 119 163 211 273 341 403 492
#     4  12  29  49  79 119 160 215 268 337 411 488
#     4  12  28  51  80 120 161 214 270 340 410 490
#
# _framework density 27.166906999999998
#
# number of rings (size 3 to 8) (size 9 to 14) (size 15 to 20)
#    0.000    0.000    2.000    6.000   14.000    1.600 
#    0.000    0.000    0.000    0.000    0.000    0.000 
#    0.000    0.000    0.000    0.000    0.000    0.000 
#
# Total GULP energy -112387.526709 kJ/mol
# GULP energy per Si atom -5619.376335 kJ/mol
# Density = 2.710507 g / cm^3
# Si number density = 27.166907 Si / 1000 Ang^3
#
#
#
# Elastic Constant Matrix: (Units=GPa)
#
#
# Indices 1 2 3 4 5 6 
#
# 1 203.0628 48.4181 43.3375 0.0000 0.0000 0.0000
# 2 48.4181 144.9132 28.0961 0.0000 0.0000 0.0000
# 3 43.3375 28.0961 121.5195 0.0000 0.0000 0.0000
# 4 0.0000 0.0000 0.0000 45.2309 0.0000 0.0000
# 5 0.0000 0.0000 0.0000 0.0000 50.9575 0.0000
# 6 0.0000 0.0000 0.0000 0.0000 0.0000 49.9893
#
#
#
# Elastic Compliance Matrix: (Units=1/GPa)
#
#
# Indices 1 2 3 4 5 6 
#
# 1 0.005651 -0.001568 -0.001653 0.000000 0.000000 0.000000
# 2 -0.001568 0.007659 -0.001212 0.000000 0.000000 0.000000
# 3 -0.001653 -0.001212 0.009099 0.000000 0.000000 0.000000
# 4 0.000000 0.000000 0.000000 0.022109 0.000000 0.000000
# 5 0.000000 0.000000 0.000000 0.000000 0.019624 0.000000
# 6 0.000000 0.000000 0.000000 0.000000 0.000000 0.020004
#
#
# Mechanical properties :
#
#
# Convention : Reuss Voigt Hill
#
# Bulk Modulus (GPa) = 73.83056 78.79989 76.31522
# Shear Modulus (GPa) = 51.26824 52.54514 51.90669
#
# Velocity S-wave (km/s) = 4.34886 4.40268 4.37585
# Velocity P-wave (km/s) = 7.24240 7.41037 7.32687
#
# Compressibility (1/GPa) = 0.01354453
#
# Stress axis : x y z
#
# Youngs Moduli (GPa) = 176.95532 130.55816 109.90471
#
# Poissons Ratio (x) = 0.20467 0.18166
# Poissons Ratio (y) = 0.27741 0.13319
# Poissons Ratio (z) = 0.29249 0.15821
#
# Static dielectric constant tensor:
#      x y z
#    x 2.125120 0.000000 0.000000 
#    y 0.000000 2.209080 0.000000 
#    z 0.000000 0.000000 2.024680 
# 
# From -- ./inp_files/1100.got.cif
#   From: 2010.05.17/outbox.cif.g08.bks.cpg/sg29_1_cif.got.tgz:1100.got - 2010.06.04 01:19:37.
