data_PCOD9341846
_publ_section_title
;
Structure prediction by ZEFSAII (Michael W. Deem and Ramdas Pophale) SiO2 
 PCOD9341846
Probable space group: P N C 2
;
_chemical_formula_sum "Si O2"
_cell_formula_units_Z 32
_cell_length_a 9.238447
_cell_length_b 7.534298
_cell_length_c 18.802071
_cell_angle_alpha 90.000000
_cell_angle_beta 90.000000
_cell_angle_gamma 90.000000
_cell_volume 1308.722152
_symmetry_space_group_name_H-M "P N C 2"
_symmetry_group_IT_number 30
_symmetry_cell_setting 'orthorhombic'
loop_
_space_group_symop_operation_xyz
x,y,z
-x,-y,z
-x,1/2+y,1/2+z
x,1/2-y,1/2+z
loop_
_atom_site_type_symbol
_atom_site_label
_atom_site_fract_x
_atom_site_fract_y
_atom_site_fract_z
Si Si1 0.269769 0.396122 0.173430
Si Si2 0.983402 0.750000 0.771134
Si Si3 0.269769 0.103878 0.368838
Si Si4 0.236714 0.680467 0.673296
Si Si5 0.763286 0.319533 0.368972
Si Si6 0.480294 0.750000 0.771134
Si Si7 0.864319 0.224334 0.021134
Si Si8 0.811313 0.843343 0.521134
O O1 0.124463 0.338392 0.214569
O O2 0.259790 0.607264 0.168978
O O3 0.410848 0.337799 0.215264
O O4 0.269435 0.312262 0.095032
O O5 0.875537 0.661608 0.827699
O O6 0.097246 0.643401 0.721720
O O7 0.097246 0.856599 0.820547
O O8 0.410848 0.162200 0.327004
O O9 0.269435 0.187738 0.447235
O O10 0.259790 0.892736 0.373290
O O11 0.373436 0.627801 0.721882
O O12 0.202630 0.635122 0.591844
O O13 0.626563 0.372199 0.320386
O O14 0.797370 0.364878 0.450424
O O15 0.835958 0.440101 0.021134
O O16 0.038966 0.232883 0.021134
#
# Coordination Sequence:
#
# PCOD9341846 Si02
#       8
#     4   4   4   4   4   4   4   4
#     4  10  19  33  51  77 107 131 166 210 253 305
#     4  10  18  28  50  80 102 136 166 196 260 308
#     4  10  19  33  51  77 107 131 166 210 253 305
#     4  10  19  33  51  77 107 131 166 210 253 305
#     4  10  19  33  51  77 107 131 166 210 253 305
#     4  10  22  32  46  76 106 144 170 188 256 312
#     4   9  16  29  53  79 102 126 157 216 277 301
#     4   9  16  29  53  79 102 126 157 216 277 301
#
# _framework density 24.451331
#
# number of rings (size 3 to 8) (size 9 to 14) (size 15 to 20)
#    0.000    2.250    2.500    1.500    0.000    1.000 
#    0.000    3.750    0.000    0.000    0.000  122.500 
#    0.000    0.000    0.000    0.000    0.000    0.000 
#
# Total GULP energy -178857.290805 kJ/mol
# GULP energy per Si atom -5589.290338 kJ/mol
# Density = 2.439568 g / cm^3
# Si number density = 24.451331 Si / 1000 Ang^3
#
#
#
# Elastic Constant Matrix: (Units=GPa)
#
#
# Indices 1 2 3 4 5 6 
#
# 1 200.4377 32.1137 107.7417 0.0000 0.0000 0.0000
# 2 32.1137 44.4301 24.1541 0.0000 0.0000 0.0000
# 3 107.7417 24.1541 290.5628 0.0000 0.0000 0.0000
# 4 0.0000 0.0000 0.0000 25.2052 0.0000 0.0000
# 5 0.0000 0.0000 0.0000 0.0000 22.4275 0.0000
# 6 0.0000 0.0000 0.0000 0.0000 0.0000 30.1489
#
#
#
# Elastic Compliance Matrix: (Units=1/GPa)
#
#
# Indices 1 2 3 4 5 6 
#
# 1 0.006764 -0.003692 -0.002201 0.000000 0.000000 0.000000
# 2 -0.003692 0.025588 -0.000758 0.000000 0.000000 0.000000
# 3 -0.002201 -0.000758 0.004321 0.000000 0.000000 0.000000
# 4 0.000000 0.000000 0.000000 0.039674 0.000000 0.000000
# 5 0.000000 0.000000 0.000000 0.000000 0.044588 0.000000
# 6 0.000000 0.000000 0.000000 0.000000 0.000000 0.033169
#
#
# Mechanical properties :
#
#
# Convention : Reuss Voigt Hill
#
# Bulk Modulus (GPa) = 42.78998 95.93885 69.36441
# Shear Modulus (GPa) = 28.53940 40.31773 34.42856
#
# Velocity S-wave (km/s) = 3.42013 4.06507 3.75646
# Velocity P-wave (km/s) = 5.75625 7.83293 6.87347
#
# Compressibility (1/GPa) = 0.02336996
#
# Stress axis : x y z
#
# Youngs Moduli (GPa) = 147.84569 39.08079 231.43902
#
# Poissons Ratio (x) = 0.14429 0.50942
# Poissons Ratio (y) = 0.54588 0.17544
# Poissons Ratio (z) = 0.32543 0.02962
#
# Static dielectric constant tensor:
#      x y z
#    x 1.887570 0.000000 0.000000 
#    y 0.000000 2.074720 0.000000 
#    z 0.000000 0.000000 1.944470 
# 
# From -- ./inp_files/6457.got.cif
#   From: 2010.05.17/outbox.cif.g08.bks.cpg/sg30_4_cif.got.tgz:6457.got - 2010.06.03 17:03:02.
