data_PCOD9341091
_publ_section_title
;
Structure prediction by ZEFSAII (Michael W. Deem and Ramdas Pophale) SiO2 
 PCOD9341091
Probable space group: P C A 21
;
_chemical_formula_sum "Si O2"
_cell_formula_units_Z 28
_cell_length_a 20.449701
_cell_length_b 5.147846
_cell_length_c 10.580056
_cell_angle_alpha 90.000000
_cell_angle_beta 90.000000
_cell_angle_gamma 90.000000
_cell_volume 1113.782719
_symmetry_space_group_name_H-M "P C A 21"
_symmetry_group_IT_number 29
_symmetry_cell_setting 'orthorhombic'
loop_
_space_group_symop_operation_xyz
x,y,z
-x,-y,1/2+z
1/2-x,y,1/2+z
1/2+x,-y,z
loop_
_atom_site_type_symbol
_atom_site_label
_atom_site_fract_x
_atom_site_fract_y
_atom_site_fract_z
Si Si1 0.781043 0.701925 0.444440
Si Si2 0.907170 0.495002 0.589754
Si Si3 0.808026 0.484504 0.124751
Si Si4 0.629157 0.882872 0.770303
Si Si5 0.698018 0.299058 0.278036
Si Si6 0.122275 0.899812 0.486225
Si Si7 0.526916 0.980740 0.981469
O O1 0.846788 0.568216 0.498122
O O2 0.735882 0.719227 0.568366
O O3 0.810397 0.944057 0.365916
O O4 0.738412 0.513043 0.356985
O O5 0.868935 0.413233 0.717045
O O6 0.952386 0.751152 0.579522
O O7 0.948472 0.251642 0.539109
O O8 0.853888 0.583870 0.236599
O O9 0.751592 0.276803 0.163572
O O10 0.858872 0.398236 0.017283
O O11 0.565273 0.931575 0.850649
O O12 0.626973 0.002868 0.631795
O O13 0.672746 0.063672 0.368612
O O14 0.049283 0.967679 0.451031
#
# Coordination Sequence:
#
# PCOD9341091 Si02
#       7
#     4   4   4   4   4   4   4
#     4   8  18  43  68 100 135 179 233 294 360 411
#     4  10  23  49  67 100 139 186 233 288 348 413
#     4   9  20  43  68  99 137 175 237 294 360 414
#     4  10  23  41  65  97 136 182 228 291 346 418
#     4   9  20  44  67 102 137 175 235 297 352 418
#     4  11  25  40  68 105 131 189 232 288 353 423
#     4  11  27  44  71  97 143 190 234 280 349 419
#
# _framework density 25.139554
#
# number of rings (size 3 to 8) (size 9 to 14) (size 15 to 20)
#    0.000    2.286    0.000    0.000   10.000    1.143 
#   33.429    0.000    0.000    0.000    0.000    0.000 
#    0.000    0.000    0.000    0.000    0.000    0.000 
#
# Total GULP energy -155964.156466 kJ/mol
# GULP energy per Si atom -5570.148445 kJ/mol
# Density = 2.508234 g / cm^3
# Si number density = 25.139554 Si / 1000 Ang^3
#
#
#
# Elastic Constant Matrix: (Units=GPa)
#
#
# Indices 1 2 3 4 5 6 
#
# 1 118.2378 15.3780 40.2823 0.0000 0.0000 0.0000
# 2 15.3780 78.6545 9.8681 0.0000 0.0000 0.0000
# 3 40.2823 9.8681 98.7225 0.0000 0.0000 0.0000
# 4 0.0000 0.0000 0.0000 39.1504 0.0000 0.0000
# 5 0.0000 0.0000 0.0000 0.0000 30.5781 0.0000
# 6 0.0000 0.0000 0.0000 0.0000 0.0000 10.7311
#
#
#
# Elastic Compliance Matrix: (Units=1/GPa)
#
#
# Indices 1 2 3 4 5 6 
#
# 1 0.009986 -0.001459 -0.003929 0.000000 0.000000 0.000000
# 2 -0.001459 0.013089 -0.000713 0.000000 0.000000 0.000000
# 3 -0.003929 -0.000713 0.011804 0.000000 0.000000 0.000000
# 4 0.000000 0.000000 0.000000 0.025543 0.000000 0.000000
# 5 0.000000 0.000000 0.000000 0.000000 0.032703 0.000000
# 6 0.000000 0.000000 0.000000 0.000000 0.000000 0.093187
#
#
# Mechanical properties :
#
#
# Convention : Reuss Voigt Hill
#
# Bulk Modulus (GPa) = 44.09904 47.40794 45.75349
# Shear Modulus (GPa) = 24.26340 31.43101 27.84721
#
# Velocity S-wave (km/s) = 3.11005 3.53974 3.33183
# Velocity P-wave (km/s) = 5.52054 5.96701 5.74811
#
# Compressibility (1/GPa) = 0.02267623
#
# Stress axis : x y z
#
# Youngs Moduli (GPa) = 100.14215 76.40240 84.71929
#
# Poissons Ratio (x) = 0.11151 0.33283
# Poissons Ratio (y) = 0.14615 0.06039
# Poissons Ratio (z) = 0.39343 0.05446
#
# Static dielectric constant tensor:
#      x y z
#    x 1.970690 0.000000 0.000000 
#    y 0.000000 2.184690 0.000000 
#    z 0.000000 0.000000 2.334410 
# 
# From -- ./inp_files/3745.got.cif
#   From: 2010.05.17/outbox.cif.g08.bks.cpg/sg29_2_cif.got.tgz:3745.got - 2010.06.04 01:19:37.
