data_PCOD9341068
_publ_section_title
;
Structure prediction by ZEFSAII (Michael W. Deem and Ramdas Pophale) SiO2 
 PCOD9341068
Probable space group: P C A 21
;
_chemical_formula_sum "Si O2"
_cell_formula_units_Z 28
_cell_length_a 27.061755
_cell_length_b 10.041261
_cell_length_c 4.780127
_cell_angle_alpha 90.000000
_cell_angle_beta 90.000000
_cell_angle_gamma 90.000000
_cell_volume 1298.923724
_symmetry_space_group_name_H-M "P C A 21"
_symmetry_group_IT_number 29
_symmetry_cell_setting 'orthorhombic'
loop_
_space_group_symop_operation_xyz
x,y,z
-x,-y,1/2+z
1/2-x,y,1/2+z
1/2+x,-y,z
loop_
_atom_site_type_symbol
_atom_site_label
_atom_site_fract_x
_atom_site_fract_y
_atom_site_fract_z
Si Si1 0.655824 0.411434 0.514130
Si Si2 0.376679 0.126144 0.541292
Si Si3 0.218399 0.799479 0.777110
Si Si4 0.155824 0.411419 0.992261
Si Si5 0.281600 0.200509 0.229276
Si Si6 0.376680 0.873839 0.965092
Si Si7 0.534880 0.000004 0.753182
O O1 0.701625 0.348204 0.687547
O O2 0.670728 0.500009 0.253197
O O3 0.627667 0.282266 0.379596
O O4 0.628870 0.500007 0.753196
O O5 0.372333 0.282249 0.626789
O O6 0.328959 0.123151 0.340501
O O7 0.427545 0.109343 0.373164
O O8 0.375541 0.999992 0.753192
O O9 0.232697 0.826908 0.093940
O O10 0.171039 0.876832 0.665890
O O11 0.201625 0.348191 0.818842
O O12 0.267304 0.173081 0.912444
O O13 0.427548 0.890640 0.133208
O O14 0.500002 0.952124 0.503179
#
# Coordination Sequence:
#
# PCOD9341068 Si02
#       7
#     4   4   4   4   4   4   4
#     4  10  23  40  64  96 138 187 221 273 319 390
#     4  10  26  43  70 100 138 168 232 276 336 402
#     4  10  23  38  62  97 140 188 222 267 318 395
#     4  10  23  40  64  96 138 187 221 273 319 390
#     4  10  23  38  62  97 140 188 222 267 318 395
#     4  10  26  43  70 100 138 168 232 276 336 402
#     4  12  26  46  76 100 122 166 226 288 344 412
#
# _framework density 21.556308000000001
#
# number of rings (size 3 to 8) (size 9 to 14) (size 15 to 20)
#    1.714    0.000    1.429    1.714    8.000    4.571 
#    0.000    0.000    0.000    3.429    0.000    0.000 
#    0.000    0.000    0.000    0.000    0.000    0.000 
#
# Total GULP energy -155893.752496 kJ/mol
# GULP energy per Si atom -5567.634018 kJ/mol
# Density = 2.150724 g / cm^3
# Si number density = 21.556308 Si / 1000 Ang^3
#
#
#
# Elastic Constant Matrix: (Units=GPa)
#
#
# Indices 1 2 3 4 5 6 
#
# 1 100.8467 27.5005 15.3264 0.0000 0.0000 0.0000
# 2 27.5005 123.5519 30.7873 0.0000 0.0000 0.0000
# 3 15.3264 30.7873 68.6418 0.0000 0.0000 0.0000
# 4 0.0000 0.0000 0.0000 38.7482 0.0000 0.0000
# 5 0.0000 0.0000 0.0000 0.0000 61.4195 0.0000
# 6 0.0000 0.0000 0.0000 0.0000 0.0000 12.2354
#
#
#
# Elastic Compliance Matrix: (Units=1/GPa)
#
#
# Indices 1 2 3 4 5 6 
#
# 1 0.010690 -0.002009 -0.001486 0.000000 0.000000 0.000000
# 2 -0.002009 0.009490 -0.003808 0.000000 0.000000 0.000000
# 3 -0.001486 -0.003808 0.016608 0.000000 0.000000 0.000000
# 4 0.000000 0.000000 0.000000 0.025808 0.000000 0.000000
# 5 0.000000 0.000000 0.000000 0.000000 0.016281 0.000000
# 6 0.000000 0.000000 0.000000 0.000000 0.000000 0.081730
#
#
# Mechanical properties :
#
#
# Convention : Reuss Voigt Hill
#
# Bulk Modulus (GPa) = 45.08093 48.91876 46.99984
# Shear Modulus (GPa) = 27.38134 37.10904 32.24519
#
# Velocity S-wave (km/s) = 3.56789 4.15359 3.87183
# Velocity P-wave (km/s) = 6.15886 6.76357 6.46828
#
# Compressibility (1/GPa) = 0.02218233
#
# Stress axis : x y z
#
# Youngs Moduli (GPa) = 93.54791 105.37617 60.21201
#
# Poissons Ratio (x) = 0.21172 0.08945
# Poissons Ratio (y) = 0.18795 0.22927
# Poissons Ratio (z) = 0.13898 0.40125
#
# Static dielectric constant tensor:
#      x y z
#    x 1.764580 0.000000 0.000000 
#    y 0.000000 1.943560 0.000000 
#    z 0.000000 0.000000 1.853860 
# 
# From -- ./inp_files/879.got.cif
#   From: 2010.05.17/outbox.cif.g08.bks.cpg/sg29_1_cif.got.tgz:879.got - 2010.06.04 01:19:37.
