data_PCOD9341738
_publ_section_title
;
Structure prediction by ZEFSAII (Michael W. Deem and Ramdas Pophale) SiO2 
 PCOD9341738
Probable space group: P C A 21
;
_chemical_formula_sum "Si O2"
_cell_formula_units_Z 24
_cell_length_a 4.686562
_cell_length_b 15.582177
_cell_length_c 13.405716
_cell_angle_alpha 90.000000
_cell_angle_beta 90.000000
_cell_angle_gamma 90.000000
_cell_volume 978.977059
_symmetry_space_group_name_H-M "P C A 21"
_symmetry_group_IT_number 29
_symmetry_cell_setting 'orthorhombic'
loop_
_space_group_symop_operation_xyz
x,y,z
-x,-y,1/2+z
1/2-x,y,1/2+z
1/2+x,-y,z
loop_
_atom_site_type_symbol
_atom_site_label
_atom_site_fract_x
_atom_site_fract_y
_atom_site_fract_z
Si Si1 0.281691 0.445064 0.485020
Si Si2 0.456183 0.058214 0.227914
Si Si3 0.950755 0.658862 0.293995
Si Si4 0.956912 0.823463 0.411087
Si Si5 0.061849 0.819553 0.051468
Si Si6 0.427363 0.668006 0.154734
O O1 0.449088 0.535363 0.494618
O O2 0.346101 0.406804 0.376986
O O3 0.410381 0.385337 0.570406
O O4 0.374672 0.108555 0.327449
O O5 0.420340 0.118459 0.132342
O O6 0.284969 0.969725 0.225367
O O7 0.078387 0.740650 0.352806
O O8 0.682796 0.693162 0.229826
O O9 0.191812 0.619751 0.222256
O O10 0.691132 0.791807 0.477406
O O11 0.198651 0.862746 0.482016
O O12 0.240364 0.744393 0.106193
#
# Coordination Sequence:
#
# PCOD9341738 Si02
#       6
#     4   4   4   4   4   4
#     4  12  28  47  71 109 150 188 242 314 372 435
#     4  12  28  47  71 109 150 188 242 314 372 435
#     4  12  26  45  77 106 143 194 247 300 367 447
#     4  12  26  45  77 106 143 194 247 300 367 447
#     4  12  26  46  76 107 144 195 251 299 367 447
#     4  12  26  46  76 107 144 195 251 299 367 447
#
# _framework density 24.515383
#
# number of rings (size 3 to 8) (size 9 to 14) (size 15 to 20)
#    0.000    0.000    3.333    6.000    4.667    8.000 
#    0.000    0.000    0.000    0.000    0.000    0.000 
#    0.000    0.000    0.000    0.000    0.000    0.000 
#
# Total GULP energy -134502.771837 kJ/mol
# GULP energy per Si atom -5604.282160 kJ/mol
# Density = 2.445958 g / cm^3
# Si number density = 24.515383 Si / 1000 Ang^3
#
#
#
# Elastic Constant Matrix: (Units=GPa)
#
#
# Indices 1 2 3 4 5 6 
#
# 1 96.0144 -2.6762 37.7861 0.0000 0.0000 0.0000
# 2 -2.6762 52.9425 34.3658 0.0000 0.0000 0.0000
# 3 37.7861 34.3658 147.6921 0.0000 0.0000 0.0000
# 4 0.0000 0.0000 0.0000 29.7917 0.0000 0.0000
# 5 0.0000 0.0000 0.0000 0.0000 39.5864 0.0000
# 6 0.0000 0.0000 0.0000 0.0000 0.0000 36.4049
#
#
#
# Elastic Compliance Matrix: (Units=1/GPa)
#
#
# Indices 1 2 3 4 5 6 
#
# 1 0.011987 0.003059 -0.003779 0.000000 0.000000 0.000000
# 2 0.003059 0.023029 -0.006141 0.000000 0.000000 0.000000
# 3 -0.003779 -0.006141 0.009167 0.000000 0.000000 0.000000
# 4 0.000000 0.000000 0.000000 0.033566 0.000000 0.000000
# 5 0.000000 0.000000 0.000000 0.000000 0.025261 0.000000
# 6 0.000000 0.000000 0.000000 0.000000 0.000000 0.027469
#
#
# Mechanical properties :
#
#
# Convention : Reuss Voigt Hill
#
# Bulk Modulus (GPa) = 32.82867 48.40007 40.61437
# Shear Modulus (GPa) = 32.39276 36.30151 34.34713
#
# Velocity S-wave (km/s) = 3.63895 3.85224 3.74711
# Velocity P-wave (km/s) = 5.57459 6.29063 5.94340
#
# Compressibility (1/GPa) = 0.03046118
#
# Stress axis : x y z
#
# Youngs Moduli (GPa) = 83.42078 43.42287 109.09247
#
# Poissons Ratio (x) = -0.13282 0.41222
# Poissons Ratio (y) = -0.25516 0.66995
# Poissons Ratio (z) = 0.31522 0.26667
#
# Static dielectric constant tensor:
#      x y z
#    x 1.892080 0.000000 0.000000 
#    y 0.000000 1.916700 0.000000 
#    z 0.000000 0.000000 1.928640 
# 
# From -- ./inp_files/2681.got.cif
#   From: 2010.05.17/outbox.cif.g08.bks.cpg/sg29_2_cif.got.tgz:2681.got - 2010.06.04 01:19:37.
