data_PCOD9341433
_publ_section_title
;
Structure prediction by ZEFSAII (Michael W. Deem and Ramdas Pophale) SiO2 
 PCOD9341433
Probable space group: P C A 21
;
_chemical_formula_sum "Si O2"
_cell_formula_units_Z 28
_cell_length_a 13.085613
_cell_length_b 7.361857
_cell_length_c 11.510324
_cell_angle_alpha 90.000000
_cell_angle_beta 90.000000
_cell_angle_gamma 90.000000
_cell_volume 1108.840291
_symmetry_space_group_name_H-M "P C A 21"
_symmetry_group_IT_number 29
_symmetry_cell_setting 'orthorhombic'
loop_
_space_group_symop_operation_xyz
x,y,z
-x,-y,1/2+z
1/2-x,y,1/2+z
1/2+x,-y,z
loop_
_atom_site_type_symbol
_atom_site_label
_atom_site_fract_x
_atom_site_fract_y
_atom_site_fract_z
Si Si1 0.468518 0.695023 0.645360
Si Si2 0.229547 0.542307 0.825091
Si Si3 0.408290 0.270367 0.603367
Si Si4 0.990767 0.612181 0.390255
Si Si5 0.256594 0.744037 0.577380
Si Si6 0.898901 0.747160 0.845823
Si Si7 0.178283 0.129997 0.567792
O O1 0.440354 0.483658 0.618504
O O2 0.450801 0.701323 0.783447
O O3 0.377565 0.797488 0.579408
O O4 0.583333 0.764812 0.625621
O O5 0.119586 0.456546 0.848989
O O6 0.232960 0.632350 0.696388
O O7 0.301582 0.369870 0.809389
O O8 0.258660 0.649333 0.948629
O O9 0.474854 0.238493 0.489194
O O10 0.443070 0.182808 0.724739
O O11 0.288827 0.231125 0.576468
O O12 0.039431 0.412200 0.411922
O O13 0.195687 0.926064 0.604526
O O14 0.857564 0.889174 0.934837
#
# Coordination Sequence:
#
# PCOD9341433 Si02
#       7
#     4   4   4   4   4   4   4
#     4  11  24  48  69 109 143 194 251 310 365 462
#     4  12  23  47  69 107 143 200 246 317 364 460
#     4  11  22  42  73 107 133 190 260 309 349 460
#     4  11  21  40  80  99 139 181 262 312 361 424
#     4  12  28  47  69 109 161 192 248 307 402 454
#     4  11  22  41  72 104 138 185 260 304 360 443
#     4  12  26  45  74 103 155 196 235 321 385 449
#
# _framework density 25.251608999999998
#
# number of rings (size 3 to 8) (size 9 to 14) (size 15 to 20)
#    0.000    0.571    7.143    0.857    4.000    0.000 
#    7.714    1.429    0.000    0.000    0.000    0.000 
#    0.000    0.000    0.000    0.000    0.000    0.000 
#
# Total GULP energy -156191.795094 kJ/mol
# GULP energy per Si atom -5578.278396 kJ/mol
# Density = 2.519414 g / cm^3
# Si number density = 25.251609 Si / 1000 Ang^3
#
#
#
# Elastic Constant Matrix: (Units=GPa)
#
#
# Indices 1 2 3 4 5 6 
#
# 1 62.6762 16.9328 1.8694 0.0000 0.0000 0.0000
# 2 16.9328 52.2988 17.9304 0.0000 0.0000 0.0000
# 3 1.8694 17.9304 152.3071 0.0000 0.0000 0.0000
# 4 0.0000 0.0000 0.0000 28.4866 0.0000 0.0000
# 5 0.0000 0.0000 0.0000 0.0000 40.5023 0.0000
# 6 0.0000 0.0000 0.0000 0.0000 0.0000 26.7557
#
#
#
# Elastic Compliance Matrix: (Units=1/GPa)
#
#
# Indices 1 2 3 4 5 6 
#
# 1 0.017517 -0.005833 0.000472 0.000000 0.000000 0.000000
# 2 -0.005833 0.021868 -0.002503 0.000000 0.000000 0.000000
# 3 0.000472 -0.002503 0.006855 0.000000 0.000000 0.000000
# 4 0.000000 0.000000 0.000000 0.035104 0.000000 0.000000
# 5 0.000000 0.000000 0.000000 0.000000 0.024690 0.000000
# 6 0.000000 0.000000 0.000000 0.000000 0.000000 0.037375
#
#
# Mechanical properties :
#
#
# Convention : Reuss Voigt Hill
#
# Bulk Modulus (GPa) = 32.77558 37.86080 35.31819
# Shear Modulus (GPa) = 29.53216 34.51890 32.02553
#
# Velocity S-wave (km/s) = 3.42353 3.70130 3.56512
# Velocity P-wave (km/s) = 5.35118 5.76994 5.56450
#
# Compressibility (1/GPa) = 0.03051052
#
# Stress axis : x y z
#
# Youngs Moduli (GPa) = 57.08783 45.72976 145.88885
#
# Poissons Ratio (x) = 0.26675 -0.06882
# Poissons Ratio (y) = 0.33300 0.36513
# Poissons Ratio (z) = -0.02693 0.11445
#
# Static dielectric constant tensor:
#      x y z
#    x 2.045520 0.000000 0.000000 
#    y 0.000000 1.985680 0.000000 
#    z 0.000000 0.000000 2.183670 
# 
# From -- ./inp_files/3427.got.cif
#   From: 2010.05.17/outbox.cif.g08.bks.cpg/sg29_2_cif.got.tgz:3427.got - 2010.06.04 01:19:37.
