data_PCOD9341360
_publ_section_title
;
Structure prediction by ZEFSAII (Michael W. Deem and Ramdas Pophale) SiO2 
 PCOD9341360
Probable space group: P C A 21
;
_chemical_formula_sum "Si O2"
_cell_formula_units_Z 28
_cell_length_a 26.494868
_cell_length_b 8.646400
_cell_length_c 5.396270
_cell_angle_alpha 90.000000
_cell_angle_beta 90.000000
_cell_angle_gamma 90.000000
_cell_volume 1236.205736
_symmetry_space_group_name_H-M "P C A 21"
_symmetry_group_IT_number 29
_symmetry_cell_setting 'orthorhombic'
loop_
_space_group_symop_operation_xyz
x,y,z
-x,-y,1/2+z
1/2-x,y,1/2+z
1/2+x,-y,z
loop_
_atom_site_type_symbol
_atom_site_label
_atom_site_fract_x
_atom_site_fract_y
_atom_site_fract_z
Si Si1 0.561773 0.129939 0.769770
Si Si2 0.508593 0.404102 0.254748
Si Si3 0.880649 0.274572 0.648725
Si Si4 0.725105 0.795789 0.364523
Si Si5 0.722601 0.423952 0.315110
Si Si6 0.379247 0.061208 0.867094
Si Si7 0.458963 0.166054 0.531767
O O1 0.510969 0.201716 0.669185
O O2 0.586487 0.007715 0.584359
O O3 0.603160 0.252367 0.860786
O O4 0.541879 0.018215 0.988500
O O5 0.499751 0.514629 0.490991
O O6 0.565845 0.335121 0.258623
O O7 0.466200 0.270746 0.291553
O O8 0.833744 0.376494 0.732450
O O9 0.866785 0.098467 0.723398
O O10 0.762783 0.848308 0.583654
O O11 0.725236 0.609874 0.342312
O O12 0.671275 0.857621 0.451348
O O13 0.741393 0.368570 0.586905
O O14 0.409610 0.183329 0.696707
#
# Coordination Sequence:
#
# PCOD9341360 Si02
#       7
#     4   4   4   4   4   4   4
#     4  11  21  41  68 100 142 185 232 283 349 419
#     4  12  28  44  66 104 145 191 233 288 344 426
#     4  11  26  44  67 106 139 180 238 292 345 418
#     4  10  25  49  69 100 136 177 235 291 351 424
#     4  10  25  48  73  96 134 185 230 288 357 416
#     4  11  25  41  72 102 134 189 226 293 351 416
#     4  11  22  41  65  98 144 187 226 279 349 423
#
# _framework density 22.649953
#
# number of rings (size 3 to 8) (size 9 to 14) (size 15 to 20)
#    0.000    1.143    2.857    1.714   10.000    1.143 
#    2.571    0.000    0.000    0.000    0.000    0.000 
#    0.000    0.000    0.000    0.000    0.000    0.000 
#
# Total GULP energy -156214.763291 kJ/mol
# GULP energy per Si atom -5579.098689 kJ/mol
# Density = 2.259840 g / cm^3
# Si number density = 22.649953 Si / 1000 Ang^3
#
#
#
# Elastic Constant Matrix: (Units=GPa)
#
#
# Indices 1 2 3 4 5 6 
#
# 1 52.6314 9.1125 -5.5480 0.0000 0.0000 0.0000
# 2 9.1125 34.5668 22.1349 0.0000 0.0000 0.0000
# 3 -5.5480 22.1349 66.1353 0.0000 0.0000 0.0000
# 4 0.0000 0.0000 0.0000 29.1718 0.0000 0.0000
# 5 0.0000 0.0000 0.0000 0.0000 20.2807 0.0000
# 6 0.0000 0.0000 0.0000 0.0000 0.0000 37.1947
#
#
#
# Elastic Compliance Matrix: (Units=1/GPa)
#
#
# Indices 1 2 3 4 5 6 
#
# 1 0.020949 -0.008461 0.004589 0.000000 0.000000 0.000000
# 2 -0.008461 0.040239 -0.014177 0.000000 0.000000 0.000000
# 3 0.004589 -0.014177 0.020251 0.000000 0.000000 0.000000
# 4 0.000000 0.000000 0.000000 0.034280 0.000000 0.000000
# 5 0.000000 0.000000 0.000000 0.000000 0.049308 0.000000
# 6 0.000000 0.000000 0.000000 0.000000 0.000000 0.026886
#
#
# Mechanical properties :
#
#
# Convention : Reuss Voigt Hill
#
# Bulk Modulus (GPa) = 22.05594 22.74804 22.40199
# Shear Modulus (GPa) = 20.56572 25.83839 23.20206
#
# Velocity S-wave (km/s) = 3.01654 3.38119 3.20406
# Velocity P-wave (km/s) = 4.67884 5.03075 4.85798
#
# Compressibility (1/GPa) = 0.04533926
#
# Stress axis : x y z
#
# Youngs Moduli (GPa) = 47.73536 24.85173 49.38139
#
# Poissons Ratio (x) = 0.21028 -0.22663
# Poissons Ratio (y) = 0.40391 0.70010
# Poissons Ratio (z) = -0.21907 0.35233
#
# Static dielectric constant tensor:
#      x y z
#    x 1.843840 0.000000 0.000000 
#    y 0.000000 1.879820 0.000000 
#    z 0.000000 0.000000 2.008830 
# 
# From -- ./inp_files/658.got.cif
#   From: 2010.05.17/outbox.cif.g08.bks.cpg/sg29_1_cif.got.tgz:658.got - 2010.06.04 01:19:37.
