data_PCOD9341979
_publ_section_title
;
Structure prediction by ZEFSAII (Michael W. Deem and Ramdas Pophale) SiO2 
 PCOD9341979
Probable space group: P N C 2
;
_chemical_formula_sum "Si O2"
_cell_formula_units_Z 22
_cell_length_a 9.730338
_cell_length_b 18.705823
_cell_length_c 5.428835
_cell_angle_alpha 90.000000
_cell_angle_beta 90.000000
_cell_angle_gamma 90.000000
_cell_volume 988.123867
_symmetry_space_group_name_H-M "P N C 2"
_symmetry_group_IT_number 30
_symmetry_cell_setting 'orthorhombic'
loop_
_space_group_symop_operation_xyz
x,y,z
-x,-y,z
-x,1/2+y,1/2+z
x,1/2-y,1/2+z
loop_
_atom_site_type_symbol
_atom_site_label
_atom_site_fract_x
_atom_site_fract_y
_atom_site_fract_z
Si Si1 0.371489 0.218280 0.649000
Si Si2 0.891663 0.814393 0.123047
Si Si3 0.004018 0.376823 0.110346
Si Si4 0.776378 0.007360 0.629900
Si Si5 0.500000 0.500000 0.814509
Si Si6 0.347520 0.413642 0.481016
O O1 0.430225 0.237024 0.381946
O O2 0.211215 0.244840 0.622009
O O3 0.376968 0.137397 0.746193
O O4 0.769196 0.872826 0.129896
O O5 0.973082 0.835745 0.871924
O O6 0.983672 0.828088 0.364726
O O7 0.862140 0.420449 0.114220
O O8 0.119311 0.440121 0.088863
O O9 0.717215 0.988346 0.898192
O O10 0.639912 0.007476 0.466285
O O11 0.477040 0.430799 0.644096
#
# Coordination Sequence:
#
# PCOD9341979 Si02
#       6
#     4   4   4   4   2   4
#     4  10  20  35  61  90 123 158 211 279 313 363
#     4  10  19  37  59  91 118 153 214 270 315 370
#     4  10  21  36  62  87 127 156 209 263 333 372
#     4  10  22  36  56  89 132 170 204 263 321 394
#     4  12  22  38  58  88 144 170 218 254 324 396
#     4  10  22  36  57  92 130 169 212 260 323 378
#
# _framework density 22.264415
#
# number of rings (size 3 to 8) (size 9 to 14) (size 15 to 20)
#    0.000    1.818    1.818    3.818    5.091    1.455 
#    0.000    0.000    0.000    0.000    0.000   50.909 
#    0.000    0.000    0.000    0.000    0.000    0.000 
#
# Total GULP energy -122578.589229 kJ/mol
# GULP energy per Si atom -5571.754056 kJ/mol
# Density = 2.221374 g / cm^3
# Si number density = 22.264415 Si / 1000 Ang^3
#
#
#
# Elastic Constant Matrix: (Units=GPa)
#
#
# Indices 1 2 3 4 5 6 
#
# 1 93.7552 41.4948 30.7812 0.0000 0.0000 0.0000
# 2 41.4948 77.7302 33.9777 0.0000 0.0000 0.0000
# 3 30.7812 33.9777 113.2076 0.0000 0.0000 0.0000
# 4 0.0000 0.0000 0.0000 44.3843 0.0000 0.0000
# 5 0.0000 0.0000 0.0000 0.0000 22.9336 0.0000
# 6 0.0000 0.0000 0.0000 0.0000 0.0000 26.6030
#
#
#
# Elastic Compliance Matrix: (Units=1/GPa)
#
#
# Indices 1 2 3 4 5 6 
#
# 1 0.014290 -0.006826 -0.001837 0.000000 0.000000 0.000000
# 2 -0.006826 0.018068 -0.003567 0.000000 0.000000 0.000000
# 3 -0.001837 -0.003567 0.010403 0.000000 0.000000 0.000000
# 4 0.000000 0.000000 0.000000 0.022530 0.000000 0.000000
# 5 0.000000 0.000000 0.000000 0.000000 0.043604 0.000000
# 6 0.000000 0.000000 0.000000 0.000000 0.000000 0.037590
#
#
# Mechanical properties :
#
#
# Convention : Reuss Voigt Hill
#
# Bulk Modulus (GPa) = 54.63721 55.24448 54.94085
# Shear Modulus (GPa) = 28.24135 30.68012 29.46073
#
# Velocity S-wave (km/s) = 3.56540 3.71615 3.64156
# Velocity P-wave (km/s) = 6.44537 6.57874 6.51240
#
# Compressibility (1/GPa) = 0.01830254
#
# Stress axis : x y z
#
# Youngs Moduli (GPa) = 69.97876 55.34675 96.12285
#
# Poissons Ratio (x) = 0.37777 0.17657
# Poissons Ratio (y) = 0.47764 0.34287
# Poissons Ratio (z) = 0.12854 0.19742
#
# Static dielectric constant tensor:
#      x y z
#    x 1.805800 0.000000 0.000000 
#    y 0.000000 1.944550 0.000000 
#    z 0.000000 0.000000 1.977670 
# 
# From -- ./inp_files/472.got.cif
#   From: 2010.05.17/outbox.cif.g08.bks.cpg/sg30_1_cif.got.tgz:472.got - 2010.06.03 17:03:02.
