data_PCOD9341584
_publ_section_title
;
Structure prediction by ZEFSAII (Michael W. Deem and Ramdas Pophale) SiO2 
 PCOD9341584
Probable space group: P C A 21
;
_chemical_formula_sum "Si O2"
_cell_formula_units_Z 28
_cell_length_a 15.491830
_cell_length_b 9.555415
_cell_length_c 8.311821
_cell_angle_alpha 90.000000
_cell_angle_beta 90.000000
_cell_angle_gamma 90.000000
_cell_volume 1230.406050
_symmetry_space_group_name_H-M "P C A 21"
_symmetry_group_IT_number 29
_symmetry_cell_setting 'orthorhombic'
loop_
_space_group_symop_operation_xyz
x,y,z
-x,-y,1/2+z
1/2-x,y,1/2+z
1/2+x,-y,z
loop_
_atom_site_type_symbol
_atom_site_label
_atom_site_fract_x
_atom_site_fract_y
_atom_site_fract_z
Si Si1 0.572923 0.102587 0.421780
Si Si2 0.331472 0.453361 0.231552
Si Si3 0.992261 0.319305 0.656450
Si Si4 0.136404 0.425476 0.113645
Si Si5 0.421856 0.108766 0.651423
Si Si6 0.800803 0.240155 0.136671
Si Si7 0.137157 0.845444 0.977644
O O1 0.525856 0.213784 0.304851
O O2 0.517192 0.086665 0.581725
O O3 0.661765 0.165374 0.481039
O O4 0.585214 0.960544 0.325155
O O5 0.406525 0.357360 0.154796
O O6 0.230396 0.423990 0.198785
O O7 0.348293 0.454394 0.423218
O O8 0.340734 0.606972 0.155292
O O9 0.934579 0.461015 0.673358
O O10 0.953761 0.234479 0.503700
O O11 0.100941 0.269406 0.137286
O O12 0.366659 0.004793 0.537106
O O13 0.827759 0.164299 0.299352
O O14 0.699366 0.238630 0.101278
#
# Coordination Sequence:
#
# PCOD9341584 Si02
#       7
#     4   4   4   4   4   4   4
#     4  11  25  47  76 103 149 196 254 304 386 455
#     4  12  26  45  77 108 155 189 257 315 375 445
#     4  11  24  47  74 107 142 201 244 309 376 449
#     4  12  27  48  72 113 152 193 252 318 380 448
#     4  11  25  49  68 112 150 189 253 313 377 454
#     4  12  23  45  76 106 139 204 245 309 361 470
#     4  11  24  45  75 103 147 192 253 294 379 451
#
# _framework density 22.756713000000001
#
# number of rings (size 3 to 8) (size 9 to 14) (size 15 to 20)
#    0.000    0.571    4.286    3.429    2.000    2.286 
#   12.857    0.000    0.000    0.000    0.000    0.000 
#    0.000    0.000    0.000    0.000    0.000    0.000 
#
# Total GULP energy -156641.269974 kJ/mol
# GULP energy per Si atom -5594.331070 kJ/mol
# Density = 2.270492 g / cm^3
# Si number density = 22.756713 Si / 1000 Ang^3
#
#
#
# Elastic Constant Matrix: (Units=GPa)
#
#
# Indices 1 2 3 4 5 6 
#
# 1 55.4250 -0.1111 5.9338 0.0000 0.0000 0.0000
# 2 -0.1111 106.7057 13.9836 0.0000 0.0000 0.0000
# 3 5.9338 13.9836 59.4672 0.0000 0.0000 0.0000
# 4 0.0000 0.0000 0.0000 33.9274 0.0000 0.0000
# 5 0.0000 0.0000 0.0000 0.0000 35.8719 0.0000
# 6 0.0000 0.0000 0.0000 0.0000 0.0000 24.3751
#
#
#
# Elastic Compliance Matrix: (Units=1/GPa)
#
#
# Indices 1 2 3 4 5 6 
#
# 1 0.018245 0.000266 -0.001883 0.000000 0.000000 0.000000
# 2 0.000266 0.009673 -0.002301 0.000000 0.000000 0.000000
# 3 -0.001883 -0.002301 0.017545 0.000000 0.000000 0.000000
# 4 0.000000 0.000000 0.000000 0.029475 0.000000 0.000000
# 5 0.000000 0.000000 0.000000 0.000000 0.027877 0.000000
# 6 0.000000 0.000000 0.000000 0.000000 0.000000 0.041025
#
#
# Mechanical properties :
#
#
# Convention : Reuss Voigt Hill
#
# Bulk Modulus (GPa) = 26.57731 29.02339 27.80035
# Shear Modulus (GPa) = 30.44716 32.28765 31.36740
#
# Velocity S-wave (km/s) = 3.66176 3.77081 3.71668
# Velocity P-wave (km/s) = 5.43895 5.63384 5.53725
#
# Compressibility (1/GPa) = 0.03762609
#
# Stress axis : x y z
#
# Youngs Moduli (GPa) = 54.81100 103.37606 56.99631
#
# Poissons Ratio (x) = -0.02747 0.10732
# Poissons Ratio (y) = -0.01457 0.13116
# Poissons Ratio (z) = 0.10321 0.23789
#
# Static dielectric constant tensor:
#      x y z
#    x 1.927390 0.000000 0.000000 
#    y 0.000000 1.852050 0.000000 
#    z 0.000000 0.000000 1.840950 
# 
# From -- ./inp_files/1769.got.cif
#   From: 2010.05.17/outbox.cif.g08.bks.cpg/sg29_1_cif.got.tgz:1769.got - 2010.06.04 01:19:37.
