data_PCOD9341722
_publ_section_title
;
Structure prediction by ZEFSAII (Michael W. Deem and Ramdas Pophale) SiO2 
 PCOD9341722
Probable space group: P C A 21
;
_chemical_formula_sum "Si O2"
_cell_formula_units_Z 20
_cell_length_a 9.063037
_cell_length_b 12.745285
_cell_length_c 7.494203
_cell_angle_alpha 90.000000
_cell_angle_beta 90.000000
_cell_angle_gamma 90.000000
_cell_volume 865.662804
_symmetry_space_group_name_H-M "P C A 21"
_symmetry_group_IT_number 29
_symmetry_cell_setting 'orthorhombic'
loop_
_space_group_symop_operation_xyz
x,y,z
-x,-y,1/2+z
1/2-x,y,1/2+z
1/2+x,-y,z
loop_
_atom_site_type_symbol
_atom_site_label
_atom_site_fract_x
_atom_site_fract_y
_atom_site_fract_z
Si Si1 0.970608 0.268533 0.476000
Si Si2 0.459541 0.882723 0.772440
Si Si3 0.381077 0.901319 0.181387
Si Si4 0.575161 0.558782 0.241669
Si Si5 0.219197 0.562353 0.530651
O O1 0.020545 0.215733 0.660561
O O2 0.935793 0.179330 0.331162
O O3 0.822612 0.336214 0.516754
O O4 0.085946 0.345048 0.378043
O O5 0.296084 0.901820 0.690747
O O6 0.557753 0.984146 0.730757
O O7 0.437990 0.869700 0.984395
O O8 0.676754 0.538306 0.070638
O O9 0.406659 0.564615 0.180588
O O10 0.623348 0.457134 0.354199
#
# Coordination Sequence:
#
# PCOD9341722 Si02
#       5
#     4   4   4   4   4
#     4  12  26  46  80 107 152 213 248 313 400 450
#     4  12  25  48  76 112 147 197 253 316 385 466
#     4  12  25  48  78 108 151 195 253 315 384 468
#     4  12  25  47  73 107 154 201 261 322 373 467
#     4  12  25  47  73 108 154 202 263 314 384 459
#
# _framework density 23.103684000000001
#
# number of rings (size 3 to 8) (size 9 to 14) (size 15 to 20)
#    0.000    0.000    8.000    1.200    0.000    0.000 
#    7.200    0.000    0.000    0.000    0.000    0.000 
#    0.000    0.000    0.000    0.000    0.000    0.000 
#
# Total GULP energy -111849.517585 kJ/mol
# GULP energy per Si atom -5592.475879 kJ/mol
# Density = 2.305110 g / cm^3
# Si number density = 23.103684 Si / 1000 Ang^3
#
#
#
# Elastic Constant Matrix: (Units=GPa)
#
#
# Indices 1 2 3 4 5 6 
#
# 1 34.8573 23.2906 20.8121 0.0000 0.0000 0.0000
# 2 23.2906 101.5209 34.7358 0.0000 0.0000 0.0000
# 3 20.8121 34.7358 145.2709 0.0000 0.0000 0.0000
# 4 0.0000 0.0000 0.0000 59.7292 0.0000 0.0000
# 5 0.0000 0.0000 0.0000 0.0000 39.0580 0.0000
# 6 0.0000 0.0000 0.0000 0.0000 0.0000 35.5238
#
#
#
# Elastic Compliance Matrix: (Units=1/GPa)
#
#
# Indices 1 2 3 4 5 6 
#
# 1 0.035364 -0.006948 -0.003405 0.000000 0.000000 0.000000
# 2 -0.006948 0.012093 -0.001896 0.000000 0.000000 0.000000
# 3 -0.003405 -0.001896 0.007825 0.000000 0.000000 0.000000
# 4 0.000000 0.000000 0.000000 0.016742 0.000000 0.000000
# 5 0.000000 0.000000 0.000000 0.000000 0.025603 0.000000
# 6 0.000000 0.000000 0.000000 0.000000 0.000000 0.028150
#
#
# Mechanical properties :
#
#
# Convention : Reuss Voigt Hill
#
# Bulk Modulus (GPa) = 32.48512 48.81401 40.64957
# Shear Modulus (GPa) = 31.14554 40.38290 35.76422
#
# Velocity S-wave (km/s) = 3.67560 4.18532 3.93872
# Velocity P-wave (km/s) = 5.66608 6.67308 6.19009
#
# Compressibility (1/GPa) = 0.03078332
#
# Stress axis : x y z
#
# Youngs Moduli (GPa) = 28.27743 82.69279 127.79713
#
# Poissons Ratio (x) = 0.57455 0.43515
# Poissons Ratio (y) = 0.19647 0.24232
# Poissons Ratio (z) = 0.09629 0.15680
#
# Static dielectric constant tensor:
#      x y z
#    x 1.891160 0.000000 0.000000 
#    y 0.000000 1.865270 0.000000 
#    z 0.000000 0.000000 2.028600 
# 
# From -- ./inp_files/1098.got.cif
#   From: 2010.05.17/outbox.cif.g08.bks.cpg/sg29_1_cif.got.tgz:1098.got - 2010.06.04 01:19:37.
