data_PCOD9341349
_publ_section_title
;
Structure prediction by ZEFSAII (Michael W. Deem and Ramdas Pophale) SiO2 
 PCOD9341349
Probable space group: P C A 21
;
_chemical_formula_sum "Si O2"
_cell_formula_units_Z 24
_cell_length_a 10.903151
_cell_length_b 10.954695
_cell_length_c 8.915722
_cell_angle_alpha 90.000000
_cell_angle_beta 90.000000
_cell_angle_gamma 90.000000
_cell_volume 1064.900021
_symmetry_space_group_name_H-M "P C A 21"
_symmetry_group_IT_number 29
_symmetry_cell_setting 'orthorhombic'
loop_
_space_group_symop_operation_xyz
x,y,z
-x,-y,1/2+z
1/2-x,y,1/2+z
1/2+x,-y,z
loop_
_atom_site_type_symbol
_atom_site_label
_atom_site_fract_x
_atom_site_fract_y
_atom_site_fract_z
Si Si1 0.221092 0.819048 0.844280
Si Si2 0.924731 0.199901 0.636640
Si Si3 0.325151 0.233445 0.502574
Si Si4 0.465411 0.635535 0.188280
Si Si5 0.652981 0.920681 0.708070
Si Si6 0.094765 0.408449 0.493687
O O1 0.360566 0.792896 0.797910
O O2 0.136750 0.718271 0.765575
O O3 0.184941 0.950656 0.778715
O O4 0.185181 0.816582 0.018023
O O5 0.020043 0.087290 0.630089
O O6 0.003487 0.315771 0.582200
O O7 0.441064 0.282453 0.592718
O O8 0.353904 0.179557 0.340281
O O9 0.256069 0.126959 0.594734
O O10 0.226370 0.342906 0.487577
O O11 0.405707 0.533634 0.083566
O O12 0.542477 0.577187 0.326015
#
# Coordination Sequence:
#
# PCOD9341349 Si02
#       6
#     4   4   4   4   4   4
#     4  11  26  44  70 104 142 183 243 292 356 421
#     4  10  26  45  65 104 138 185 234 291 357 418
#     4  11  24  47  70 104 139 191 233 290 363 414
#     4  11  26  44  71 102 140 185 233 295 350 420
#     4  11  25  44  74  98 145 184 238 292 356 430
#     4  10  25  46  68 102 142 182 239 286 354 425
#
# _framework density 22.537324999999999
#
# number of rings (size 3 to 8) (size 9 to 14) (size 15 to 20)
#    0.000    1.333    1.667    1.000   14.000    0.000 
#    0.000    0.000    0.000    0.000    0.000    0.000 
#    0.000    0.000    0.000    0.000    0.000    0.000 
#
# Total GULP energy -134422.059142 kJ/mol
# GULP energy per Si atom -5600.919131 kJ/mol
# Density = 2.248603 g / cm^3
# Si number density = 22.537325 Si / 1000 Ang^3
#
#
#
# Elastic Constant Matrix: (Units=GPa)
#
#
# Indices 1 2 3 4 5 6 
#
# 1 59.7054 1.5278 7.7368 0.0000 0.0000 0.0000
# 2 1.5278 47.7529 18.0018 0.0000 0.0000 0.0000
# 3 7.7368 18.0018 86.6593 0.0000 0.0000 0.0000
# 4 0.0000 0.0000 0.0000 37.6437 0.0000 0.0000
# 5 0.0000 0.0000 0.0000 0.0000 37.5199 0.0000
# 6 0.0000 0.0000 0.0000 0.0000 0.0000 11.6497
#
#
#
# Elastic Compliance Matrix: (Units=1/GPa)
#
#
# Indices 1 2 3 4 5 6 
#
# 1 0.016945 0.000031 -0.001519 0.000000 0.000000 0.000000
# 2 0.000031 0.022720 -0.004722 0.000000 0.000000 0.000000
# 3 -0.001519 -0.004722 0.012656 0.000000 0.000000 0.000000
# 4 0.000000 0.000000 0.000000 0.026565 0.000000 0.000000
# 5 0.000000 0.000000 0.000000 0.000000 0.026653 0.000000
# 6 0.000000 0.000000 0.000000 0.000000 0.000000 0.085839
#
#
# Mechanical properties :
#
#
# Convention : Reuss Voigt Hill
#
# Bulk Modulus (GPa) = 25.06306 27.62782 26.34544
# Shear Modulus (GPa) = 23.03088 28.48607 25.75847
#
# Velocity S-wave (km/s) = 3.20018 3.55907 3.38439
# Velocity P-wave (km/s) = 4.97993 5.40135 5.19492
#
# Compressibility (1/GPa) = 0.03989936
#
# Stress axis : x y z
#
# Youngs Moduli (GPa) = 59.01449 44.01322 79.01341
#
# Poissons Ratio (x) = -0.00135 0.12004
# Poissons Ratio (y) = -0.00180 0.37314
# Poissons Ratio (z) = 0.08965 0.20785
#
# Static dielectric constant tensor:
#      x y z
#    x 1.799030 0.000000 0.000000 
#    y 0.000000 1.791110 0.000000 
#    z 0.000000 0.000000 1.836820 
# 
# From -- ./inp_files/1414.got.cif
#   From: 2010.05.17/outbox.cif.g08.bks.cpg/sg29_1_cif.got.tgz:1414.got - 2010.06.04 01:19:37.
