data_PCOD9341247
_publ_section_title
;
Structure prediction by ZEFSAII (Michael W. Deem and Ramdas Pophale) SiO2 
 PCOD9341247
Probable space group: P C A 21
;
_chemical_formula_sum "Si O2"
_cell_formula_units_Z 32
_cell_length_a 31.037851
_cell_length_b 7.574555
_cell_length_c 5.610665
_cell_angle_alpha 90.000000
_cell_angle_beta 90.000000
_cell_angle_gamma 90.000000
_cell_volume 1319.055612
_symmetry_space_group_name_H-M "P C A 21"
_symmetry_group_IT_number 29
_symmetry_cell_setting 'orthorhombic'
loop_
_space_group_symop_operation_xyz
x,y,z
-x,-y,1/2+z
1/2-x,y,1/2+z
1/2+x,-y,z
loop_
_atom_site_type_symbol
_atom_site_label
_atom_site_fract_x
_atom_site_fract_y
_atom_site_fract_z
Si Si1 0.398548 0.894428 0.766610
Si Si2 0.229292 0.332414 0.174132
Si Si3 0.061449 0.736060 0.870748
Si Si4 0.739765 0.267343 0.744595
Si Si5 0.847398 0.153156 0.162073
Si Si6 0.945162 0.659835 0.342323
Si Si7 0.644283 0.812050 0.934776
Si Si8 0.971466 0.840764 0.849524
O O1 0.419673 0.730208 0.636614
O O2 0.381882 0.048776 0.593934
O O3 0.439800 0.993181 0.875087
O O4 0.353502 0.837762 0.881772
O O5 0.242039 0.271489 0.442883
O O6 0.237223 0.544432 0.203455
O O7 0.181505 0.281439 0.086309
O O8 0.103714 0.792182 0.726388
O O9 0.043870 0.545266 0.818335
O O10 0.022689 0.874415 0.851480
O O11 0.745979 0.174844 0.488082
O O12 0.688145 0.281719 0.763779
O O13 0.838321 0.950605 0.236361
O O14 0.892820 0.683641 0.337209
O O15 0.961038 0.740007 0.597558
O O16 0.963065 0.740585 0.098064
#
# Coordination Sequence:
#
# PCOD9341247 Si02
#       8
#     4   4   4   4   4   4   4   4
#     4  10  25  44  68 104 141 196 231 299 351 441
#     4  10  24  42  70  99 127 176 229 287 353 425
#     4  11  27  40  75 104 144 194 243 301 356 434
#     4  10  25  46  69  99 138 173 230 297 352 426
#     4  11  25  45  70 104 142 186 236 293 368 428
#     4  11  25  45  71 103 143 192 240 303 351 431
#     4  10  24  45  68  97 141 181 236 284 366 426
#     4  11  25  47  69 104 150 188 249 290 365 423
#
# _framework density 24.259781
#
# number of rings (size 3 to 8) (size 9 to 14) (size 15 to 20)
#    0.000    1.500    1.250    0.750   14.000    2.000 
#    2.250    0.000    0.000    0.000    0.000    0.000 
#    0.000    0.000    0.000    0.000    0.000    0.000 
#
# Total GULP energy -178385.047195 kJ/mol
# GULP energy per Si atom -5574.532725 kJ/mol
# Density = 2.420456 g / cm^3
# Si number density = 24.259781 Si / 1000 Ang^3
#
#
#
# Elastic Constant Matrix: (Units=GPa)
#
#
# Indices 1 2 3 4 5 6 
#
# 1 92.4538 -7.4816 12.7209 0.0000 0.0000 0.0000
# 2 -7.4816 38.5688 3.6207 0.0000 0.0000 0.0000
# 3 12.7209 3.6207 104.6862 0.0000 0.0000 0.0000
# 4 0.0000 0.0000 0.0000 20.9340 0.0000 0.0000
# 5 0.0000 0.0000 0.0000 0.0000 40.6991 0.0000
# 6 0.0000 0.0000 0.0000 0.0000 0.0000 30.2064
#
#
#
# Elastic Compliance Matrix: (Units=1/GPa)
#
#
# Indices 1 2 3 4 5 6 
#
# 1 0.011201 0.002308 -0.001441 0.000000 0.000000 0.000000
# 2 0.002308 0.026488 -0.001197 0.000000 0.000000 0.000000
# 3 -0.001441 -0.001197 0.009769 0.000000 0.000000 0.000000
# 4 0.000000 0.000000 0.000000 0.047769 0.000000 0.000000
# 5 0.000000 0.000000 0.000000 0.000000 0.024571 0.000000
# 6 0.000000 0.000000 0.000000 0.000000 0.000000 0.033106
#
#
# Mechanical properties :
#
#
# Convention : Reuss Voigt Hill
#
# Bulk Modulus (GPa) = 21.36797 28.15874 24.76336
# Shear Modulus (GPa) = 29.55753 33.49116 31.52435
#
# Velocity S-wave (km/s) = 3.49431 3.71957 3.60870
# Velocity P-wave (km/s) = 5.01073 5.48446 5.25294
#
# Compressibility (1/GPa) = 0.04679901
#
# Stress axis : x y z
#
# Youngs Moduli (GPa) = 89.27569 37.75330 102.36632
#
# Poissons Ratio (x) = -0.08714 0.14750
# Poissons Ratio (y) = -0.20606 0.12249
# Poissons Ratio (z) = 0.12864 0.04517
#
# Static dielectric constant tensor:
#      x y z
#    x 1.956520 0.000000 0.000000 
#    y 0.000000 1.884270 0.000000 
#    z 0.000000 0.000000 2.341040 
# 
# From -- ./inp_files/919.got.cif
#   From: 2010.05.17/outbox.cif.g08.bks.cpg/sg29_1_cif.got.tgz:919.got - 2010.06.04 01:19:37.
