data_PCOD9341556
_publ_section_title
;
Structure prediction by ZEFSAII (Michael W. Deem and Ramdas Pophale) SiO2 
 PCOD9341556
Probable space group: P C A 21
;
_chemical_formula_sum "Si O2"
_cell_formula_units_Z 32
_cell_length_a 17.963299
_cell_length_b 5.469861
_cell_length_c 12.678019
_cell_angle_alpha 90.000000
_cell_angle_beta 90.000000
_cell_angle_gamma 90.000000
_cell_volume 1245.700926
_symmetry_space_group_name_H-M "P C A 21"
_symmetry_group_IT_number 29
_symmetry_cell_setting 'orthorhombic'
loop_
_space_group_symop_operation_xyz
x,y,z
-x,-y,1/2+z
1/2-x,y,1/2+z
1/2+x,-y,z
loop_
_atom_site_type_symbol
_atom_site_label
_atom_site_fract_x
_atom_site_fract_y
_atom_site_fract_z
Si Si1 0.686786 0.700492 0.730170
Si Si2 0.313214 0.299506 0.583945
Si Si3 0.020524 0.961938 0.907058
Si Si4 0.094223 0.682868 0.407058
Si Si5 0.228184 0.993831 0.407058
Si Si6 0.557949 0.660394 0.589132
Si Si7 0.557950 0.660394 0.224984
Si Si8 0.154860 0.649551 0.907057
O O1 0.750000 0.581098 0.657057
O O2 0.735891 0.876957 0.805050
O O3 0.619337 0.802850 0.659185
O O4 0.644527 0.508541 0.803799
O O5 0.264109 0.123040 0.509065
O O6 0.380664 0.197150 0.654930
O O7 0.355473 0.491455 0.510315
O O8 0.987602 0.836603 0.802248
O O9 0.106736 0.894399 0.907058
O O10 0.992974 0.238091 0.907058
O O11 0.987601 0.836603 0.011867
O O12 0.103614 0.522249 0.511462
O O13 0.103615 0.522246 0.302655
O O14 0.140949 0.935572 0.407057
O O15 0.258860 0.718557 0.407057
O O16 0.499999 0.500002 0.657058
#
# Coordination Sequence:
#
# PCOD9341556 Si02
#       8
#     4   4   4   4   4   4   4   4
#     4  11  24  44  69  95 136 179 228 279 352 411
#     4  11  24  44  69  95 136 179 228 279 352 411
#     4  11  24  43  68 103 140 181 227 294 341 415
#     4  11  26  44  71 103 145 180 239 291 350 416
#     4  11  26  44  67 101 135 176 231 293 339 410
#     4  11  24  44  70 101 142 186 230 287 358 416
#     4  11  24  44  70 101 142 186 230 287 358 416
#     4  11  24  41  68  97 134 175 231 282 344 413
#
# _framework density 25.688347
#
# number of rings (size 3 to 8) (size 9 to 14) (size 15 to 20)
#    0.000    1.000    2.500    3.000    3.500   10.000 
#    0.000    0.000    0.000    0.000    0.000    0.000 
#    0.000    0.000    0.000    0.000    0.000    0.000 
#
# Total GULP energy -179116.632671 kJ/mol
# GULP energy per Si atom -5597.394771 kJ/mol
# Density = 2.562988 g / cm^3
# Si number density = 25.688347 Si / 1000 Ang^3
#
#
#
# Elastic Constant Matrix: (Units=GPa)
#
#
# Indices 1 2 3 4 5 6 
#
# 1 122.9437 10.6630 50.3064 0.0000 0.0000 0.0000
# 2 10.6630 41.7657 18.4716 0.0000 0.0000 0.0000
# 3 50.3064 18.4716 130.3488 0.0000 0.0000 0.0000
# 4 0.0000 0.0000 0.0000 2.0524 0.0000 0.0000
# 5 0.0000 0.0000 0.0000 0.0000 23.4176 0.0000
# 6 0.0000 0.0000 0.0000 0.0000 0.0000 56.9999
#
#
#
# Elastic Compliance Matrix: (Units=1/GPa)
#
#
# Indices 1 2 3 4 5 6 
#
# 1 0.009689 -0.000875 -0.003615 0.000000 0.000000 0.000000
# 2 -0.000875 0.025623 -0.003293 0.000000 0.000000 0.000000
# 3 -0.003615 -0.003293 0.009534 0.000000 0.000000 0.000000
# 4 0.000000 0.000000 0.000000 0.487246 0.000000 0.000000
# 5 0.000000 0.000000 0.000000 0.000000 0.042703 0.000000
# 6 0.000000 0.000000 0.000000 0.000000 0.000000 0.017544
#
#
# Mechanical properties :
#
#
# Convention : Reuss Voigt Hill
#
# Bulk Modulus (GPa) = 34.15452 50.43782 42.29617
# Shear Modulus (GPa) = 8.09500 30.86843 19.48172
#
# Velocity S-wave (km/s) = 1.77710 3.47024 2.75687
# Velocity P-wave (km/s) = 4.18752 5.97779 5.16088
#
# Compressibility (1/GPa) = 0.02927870
#
# Stress axis : x y z
#
# Youngs Moduli (GPa) = 103.20952 39.02747 104.89048
#
# Poissons Ratio (x) = 0.03414 0.37922
# Poissons Ratio (y) = 0.09028 0.34545
# Poissons Ratio (z) = 0.37314 0.12853
#
# Static dielectric constant tensor:
#      x y z
#    x 1.986820 0.000000 0.000000 
#    y 0.000000 1.947990 0.000000 
#    z 0.000000 0.000000 2.019730 
# 
# From -- ./inp_files/3908.got.cif
#   From: 2010.05.17/outbox.cif.g08.bks.cpg/sg29_2_cif.got.tgz:3908.got - 2010.06.04 01:19:37.
