data_PCOD9341158
_publ_section_title
;
Structure prediction by ZEFSAII (Michael W. Deem and Ramdas Pophale) SiO2 
 PCOD9341158
Probable space group: P C A 21
;
_chemical_formula_sum "Si O2"
_cell_formula_units_Z 28
_cell_length_a 22.544771
_cell_length_b 5.559307
_cell_length_c 8.651330
_cell_angle_alpha 90.000000
_cell_angle_beta 90.000000
_cell_angle_gamma 90.000000
_cell_volume 1084.299766
_symmetry_space_group_name_H-M "P C A 21"
_symmetry_group_IT_number 29
_symmetry_cell_setting 'orthorhombic'
loop_
_space_group_symop_operation_xyz
x,y,z
-x,-y,1/2+z
1/2-x,y,1/2+z
1/2+x,-y,z
loop_
_atom_site_type_symbol
_atom_site_label
_atom_site_fract_x
_atom_site_fract_y
_atom_site_fract_z
Si Si1 0.333710 0.035606 0.792850
Si Si2 0.043938 0.988469 0.738765
Si Si3 0.879365 0.452137 0.891509
Si Si4 0.997641 0.346964 0.489921
Si Si5 0.715402 0.978735 0.962317
Si Si6 0.391242 0.356433 0.430164
Si Si7 0.845830 0.282714 0.190039
O O1 0.362974 0.303181 0.797208
O O2 0.297961 0.953582 0.638361
O O3 0.283995 0.056117 0.926643
O O4 0.377383 0.809542 0.812000
O O5 0.008971 0.156988 0.624340
O O6 0.069277 0.127601 0.888217
O O7 0.104206 0.914809 0.650809
O O8 0.009148 0.774090 0.820076
O O9 0.943716 0.492309 0.968518
O O10 0.829430 0.408142 0.028369
O O11 0.935911 0.480686 0.527773
O O12 0.674623 0.738974 0.960750
O O13 0.692347 0.159734 0.827404
O O14 0.381003 0.508359 0.276819
#
# Coordination Sequence:
#
# PCOD9341158 Si02
#       7
#     4   4   4   4   4   4   4
#     4  12  31  50  83 114 156 206 267 340 401 481
#     4  10  23  44  68 110 151 213 249 323 384 475
#     4  12  28  50  78 119 156 211 266 332 399 490
#     4  11  25  45  75 111 164 209 269 315 409 474
#     4  11  28  53  77 112 153 202 273 331 411 481
#     4  10  24  44  77 108 151 207 253 324 391 467
#     4  10  23  48  76 102 153 206 261 319 403 468
#
# _framework density 25.823119999999999
#
# number of rings (size 3 to 8) (size 9 to 14) (size 15 to 20)
#    0.000    1.143    1.429    1.714   12.000    4.571 
#    0.000    0.000    0.000    0.000    0.000    0.000 
#    0.000    0.000    0.000    0.000    0.000    0.000 
#
# Total GULP energy -156289.834131 kJ/mol
# GULP energy per Si atom -5581.779790 kJ/mol
# Density = 2.576434 g / cm^3
# Si number density = 25.823120 Si / 1000 Ang^3
#
#
#
# Elastic Constant Matrix: (Units=GPa)
#
#
# Indices 1 2 3 4 5 6 
#
# 1 102.2225 56.3292 42.4954 0.0000 0.0000 0.0000
# 2 56.3292 130.3424 46.4205 0.0000 0.0000 0.0000
# 3 42.4954 46.4205 30.2622 0.0000 0.0000 0.0000
# 4 0.0000 0.0000 0.0000 43.0690 0.0000 0.0000
# 5 0.0000 0.0000 0.0000 0.0000 34.9248 0.0000
# 6 0.0000 0.0000 0.0000 0.0000 0.0000 28.2591
#
#
#
# Elastic Compliance Matrix: (Units=1/GPa)
#
#
# Indices 1 2 3 4 5 6 
#
# 1 0.024259 0.003633 -0.039638 0.000000 0.000000 0.000000
# 2 0.003633 0.017454 -0.031876 0.000000 0.000000 0.000000
# 3 -0.039638 -0.031876 0.137601 0.000000 0.000000 0.000000
# 4 0.000000 0.000000 0.000000 0.023219 0.000000 0.000000
# 5 0.000000 0.000000 0.000000 0.000000 0.028633 0.000000
# 6 0.000000 0.000000 0.000000 0.000000 0.000000 0.035387
#
#
# Mechanical properties :
#
#
# Convention : Reuss Voigt Hill
#
# Bulk Modulus (GPa) = 22.96043 61.47970 42.22006
# Shear Modulus (GPa) = 11.99527 29.08938 20.54233
#
# Velocity S-wave (km/s) = 2.15760 3.35996 2.82352
# Velocity P-wave (km/s) = 3.88815 6.23796 5.19759
#
# Compressibility (1/GPa) = 0.04355319
#
# Stress axis : x y z
#
# Youngs Moduli (GPa) = 41.22248 57.29242 7.26739
#
# Poissons Ratio (x) = -0.20815 0.28806
# Poissons Ratio (y) = -0.14976 0.23165
# Poissons Ratio (z) = 1.63397 1.82623
#
# Static dielectric constant tensor:
#      x y z
#    x 1.987290 0.000000 0.000000 
#    y 0.000000 2.087310 0.000000 
#    z 0.000000 0.000000 2.136270 
# 
# From -- ./inp_files/2418.got.cif
#   From: 2010.05.17/outbox.cif.g08.bks.cpg/sg29_2_cif.got.tgz:2418.got - 2010.06.04 01:19:37.
