data_PCOD9341022
_publ_section_title
;
Structure prediction by ZEFSAII (Michael W. Deem and Ramdas Pophale) SiO2 
 PCOD9341022
Probable space group: P C A 21
;
_chemical_formula_sum "Si O2"
_cell_formula_units_Z 16
_cell_length_a 21.758701
_cell_length_b 4.983456
_cell_length_c 5.545532
_cell_angle_alpha 90.000000
_cell_angle_beta 90.000000
_cell_angle_gamma 90.000000
_cell_volume 601.321605
_symmetry_space_group_name_H-M "P C A 21"
_symmetry_group_IT_number 29
_symmetry_cell_setting 'orthorhombic'
loop_
_space_group_symop_operation_xyz
x,y,z
-x,-y,1/2+z
1/2-x,y,1/2+z
1/2+x,-y,z
loop_
_atom_site_type_symbol
_atom_site_label
_atom_site_fract_x
_atom_site_fract_y
_atom_site_fract_z
Si Si1 0.942807 0.709795 0.125000
Si Si2 0.260350 0.407976 0.453217
Si Si3 0.152304 0.096101 0.243431
Si Si4 0.923523 0.233904 0.442116
O O1 0.913640 0.438038 0.225190
O O2 0.937829 0.946898 0.320809
O O3 0.906952 0.799920 0.885728
O O4 0.014734 0.668959 0.073190
O O5 0.240646 0.556411 0.698444
O O6 0.209968 0.166020 0.416808
O O7 0.323997 0.265447 0.513984
O O8 0.131497 0.813564 0.131651
#
# Coordination Sequence:
#
# PCOD9341022 Si02
#       4
#     4   4   4   4
#     4  12  26  46  73 110 152 202 258 324 401 471
#     4   8  18  40  72 104 146 200 254 308 390 452
#     4  10  22  44  74 106 156 194 264 316 392 468
#     4  12  26  46  73 110 152 202 258 324 401 471
#
# _framework density 26.608056999999999
#
# number of rings (size 3 to 8) (size 9 to 14) (size 15 to 20)
#    1.500    0.000    2.500    3.000    0.000    0.000 
#    0.000    2.500    0.000    0.000    0.000    0.000 
#    0.000    0.000    0.000    0.000    0.000    0.000 
#
# Total GULP energy -89484.016108 kJ/mol
# GULP energy per Si atom -5592.751007 kJ/mol
# Density = 2.654750 g / cm^3
# Si number density = 26.608057 Si / 1000 Ang^3
#
#
#
# Elastic Constant Matrix: (Units=GPa)
#
#
# Indices 1 2 3 4 5 6 
#
# 1 97.1998 10.3159 22.8034 0.0000 0.0000 0.0000
# 2 10.3159 83.9136 29.1649 0.0000 0.0000 0.0000
# 3 22.8034 29.1649 157.4726 0.0000 0.0000 0.0000
# 4 0.0000 0.0000 0.0000 44.6667 0.0000 0.0000
# 5 0.0000 0.0000 0.0000 0.0000 54.9092 0.0000
# 6 0.0000 0.0000 0.0000 0.0000 0.0000 25.4939
#
#
#
# Elastic Compliance Matrix: (Units=1/GPa)
#
#
# Indices 1 2 3 4 5 6 
#
# 1 0.010704 -0.000831 -0.001396 0.000000 0.000000 0.000000
# 2 -0.000831 0.012801 -0.002251 0.000000 0.000000 0.000000
# 3 -0.001396 -0.002251 0.006969 0.000000 0.000000 0.000000
# 4 0.000000 0.000000 0.000000 0.022388 0.000000 0.000000
# 5 0.000000 0.000000 0.000000 0.000000 0.018212 0.000000
# 6 0.000000 0.000000 0.000000 0.000000 0.000000 0.039225
#
#
# Mechanical properties :
#
#
# Convention : Reuss Voigt Hill
#
# Bulk Modulus (GPa) = 46.46914 51.46162 48.96538
# Shear Modulus (GPa) = 39.54839 43.43408 41.49123
#
# Velocity S-wave (km/s) = 3.85948 4.04464 3.95314
# Velocity P-wave (km/s) = 6.11253 6.41831 6.26729
#
# Compressibility (1/GPa) = 0.02151966
#
# Stress axis : x y z
#
# Youngs Moduli (GPa) = 93.42492 78.11677 143.48618
#
# Poissons Ratio (x) = 0.06489 0.20033
# Poissons Ratio (y) = 0.07760 0.32293
# Poissons Ratio (z) = 0.13044 0.17581
#
# Static dielectric constant tensor:
#      x y z
#    x 2.021030 0.000000 0.000000 
#    y 0.000000 2.017530 0.000000 
#    z 0.000000 0.000000 2.129370 
# 
# From -- ./inp_files/606.got.cif
#   From: 2010.05.17/outbox.cif.g08.bks.cpg/sg29_1_cif.got.tgz:606.got - 2010.06.04 01:19:37.
