data_PCOD9341587
_publ_section_title
;
Structure prediction by ZEFSAII (Michael W. Deem and Ramdas Pophale) SiO2 
 PCOD9341587
Probable space group: P C A 21
;
_chemical_formula_sum "Si O2"
_cell_formula_units_Z 16
_cell_length_a 15.145914
_cell_length_b 6.740938
_cell_length_c 6.808767
_cell_angle_alpha 90.000000
_cell_angle_beta 90.000000
_cell_angle_gamma 90.000000
_cell_volume 695.159227
_symmetry_space_group_name_H-M "P C A 21"
_symmetry_group_IT_number 29
_symmetry_cell_setting 'orthorhombic'
loop_
_space_group_symop_operation_xyz
x,y,z
-x,-y,1/2+z
1/2-x,y,1/2+z
1/2+x,-y,z
loop_
_atom_site_type_symbol
_atom_site_label
_atom_site_fract_x
_atom_site_fract_y
_atom_site_fract_z
Si Si1 0.172671 0.747913 0.559010
Si Si2 0.057652 0.705715 0.173019
Si Si3 0.130161 0.414701 0.835318
Si Si4 0.152948 0.983141 0.925586
O O1 0.112044 0.699694 0.374716
O O2 0.187471 0.548845 0.687243
O O3 0.127486 0.898308 0.712563
O O4 0.260796 0.859866 0.491437
O O5 0.957121 0.654666 0.217983
O O6 0.096397 0.549822 0.015240
O O7 0.076662 0.920656 0.076519
O O8 0.173426 0.214094 0.913560
#
# Coordination Sequence:
#
# PCOD9341587 Si02
#       4
#     4   4   4   4
#     4  11  24  49  65 108 147 180 248 293 357 447
#     4  11  24  46  69 106 144 183 250 291 360 438
#     4  11  26  45  77 102 145 195 231 314 364 422
#     4  11  26  44  71 106 142 190 239 300 367 435
#
# _framework density 23.016310000000001
#
# number of rings (size 3 to 8) (size 9 to 14) (size 15 to 20)
#    0.000    1.000    5.000    0.000    3.500    6.000 
#    0.000    0.000    0.000    0.000    0.000    0.000 
#    0.000    0.000    0.000    0.000    0.000    0.000 
#
# Total GULP energy -89556.180677 kJ/mol
# GULP energy per Si atom -5597.261292 kJ/mol
# Density = 2.296392 g / cm^3
# Si number density = 23.016310 Si / 1000 Ang^3
#
#
#
# Elastic Constant Matrix: (Units=GPa)
#
#
# Indices 1 2 3 4 5 6 
#
# 1 91.4516 35.5202 20.9601 0.0000 0.0000 0.0000
# 2 35.5202 155.9524 40.2905 0.0000 0.0000 0.0000
# 3 20.9601 40.2905 117.6157 0.0000 0.0000 0.0000
# 4 0.0000 0.0000 0.0000 17.5182 0.0000 0.0000
# 5 0.0000 0.0000 0.0000 0.0000 36.4776 0.0000
# 6 0.0000 0.0000 0.0000 0.0000 0.0000 28.9451
#
#
#
# Elastic Compliance Matrix: (Units=1/GPa)
#
#
# Indices 1 2 3 4 5 6 
#
# 1 0.012185 -0.002429 -0.001339 0.000000 0.000000 0.000000
# 2 -0.002429 0.007519 -0.002143 0.000000 0.000000 0.000000
# 3 -0.001339 -0.002143 0.009475 0.000000 0.000000 0.000000
# 4 0.000000 0.000000 0.000000 0.057083 0.000000 0.000000
# 5 0.000000 0.000000 0.000000 0.000000 0.027414 0.000000
# 6 0.000000 0.000000 0.000000 0.000000 0.000000 0.034548
#
#
# Mechanical properties :
#
#
# Convention : Reuss Voigt Hill
#
# Bulk Modulus (GPa) = 57.61555 62.06235 59.83895
# Shear Modulus (GPa) = 30.15070 34.47143 32.31106
#
# Velocity S-wave (km/s) = 3.62328 3.87421 3.75084
# Velocity P-wave (km/s) = 6.52618 6.85826 6.69428
#
# Compressibility (1/GPa) = 0.01735642
#
# Stress axis : x y z
#
# Youngs Moduli (GPa) = 82.06621 132.99409 105.54099
#
# Poissons Ratio (x) = 0.32309 0.14135
# Poissons Ratio (y) = 0.19937 0.22616
# Poissons Ratio (z) = 0.10991 0.28498
#
# Static dielectric constant tensor:
#      x y z
#    x 1.866620 0.000000 0.000000 
#    y 0.000000 1.886020 0.000000 
#    z 0.000000 0.000000 1.862750 
# 
# From -- ./inp_files/304.got.cif
#   From: 2010.05.17/outbox.cif.g08.bks.cpg/sg29_1_cif.got.tgz:304.got - 2010.06.04 01:19:37.
