data_PCOD9341511
_publ_section_title
;
Structure prediction by ZEFSAII (Michael W. Deem and Ramdas Pophale) SiO2 
 PCOD9341511
Probable space group: P C A 21
;
_chemical_formula_sum "Si O2"
_cell_formula_units_Z 32
_cell_length_a 14.493096
_cell_length_b 10.601725
_cell_length_c 8.877095
_cell_angle_alpha 90.000000
_cell_angle_beta 90.000000
_cell_angle_gamma 90.000000
_cell_volume 1363.981787
_symmetry_space_group_name_H-M "P C A 21"
_symmetry_group_IT_number 29
_symmetry_cell_setting 'orthorhombic'
loop_
_space_group_symop_operation_xyz
x,y,z
-x,-y,1/2+z
1/2-x,y,1/2+z
1/2+x,-y,z
loop_
_atom_site_type_symbol
_atom_site_label
_atom_site_fract_x
_atom_site_fract_y
_atom_site_fract_z
Si Si1 0.558353 0.622282 0.745110
Si Si2 0.750660 0.885383 0.094873
Si Si3 0.936342 0.145528 0.805941
Si Si4 0.044106 0.383639 0.387751
Si Si5 0.382490 0.786617 0.294698
Si Si6 0.277709 0.814900 0.597805
Si Si7 0.934714 0.988264 0.110240
Si Si8 0.252520 0.292152 0.844402
O O1 0.512103 0.746591 0.814863
O O2 0.506798 0.506628 0.824103
O O3 0.535859 0.618353 0.568113
O O4 0.668527 0.630161 0.771545
O O5 0.724842 0.841021 0.260858
O O6 0.733381 0.033326 0.068026
O O7 0.862250 0.877006 0.083046
O O8 0.713981 0.768651 0.998200
O O9 0.839228 0.197290 0.748883
O O10 0.935760 0.070157 0.960379
O O11 0.967437 0.060242 0.663589
O O12 0.983047 0.272690 0.312298
O O13 0.652808 0.630761 0.353293
O O14 0.329021 0.763149 0.450970
O O15 0.318444 0.750436 0.150437
O O16 0.397360 0.933722 0.254554
#
# Coordination Sequence:
#
# PCOD9341511 Si02
#       8
#     4   4   4   4   4   4   4   4
#     4  12  30  53  78 113 149 206 269 319 388 449
#     4  11  23  43  69 112 155 197 246 305 387 459
#     4  12  24  43  73 113 155 200 256 314 392 467
#     4  12  30  55  78 110 152 206 267 324 380 457
#     4  11  25  48  71 109 154 200 255 315 385 459
#     4  11  23  42  74 114 157 202 243 317 390 477
#     4  11  24  40  69 112 157 200 247 319 390 463
#     4  12  25  48  76 107 153 195 255 319 372 461
#
# _framework density 23.460723000000002
#
# number of rings (size 3 to 8) (size 9 to 14) (size 15 to 20)
#    0.000    0.500    3.750    4.500    8.750    1.000 
#    2.250    0.000    0.000    0.000    0.000    0.000 
#    0.000    0.000    0.000    0.000    0.000    0.000 
#
# Total GULP energy -178774.558441 kJ/mol
# GULP energy per Si atom -5586.704951 kJ/mol
# Density = 2.340733 g / cm^3
# Si number density = 23.460723 Si / 1000 Ang^3
#
#
#
# Elastic Constant Matrix: (Units=GPa)
#
#
# Indices 1 2 3 4 5 6 
#
# 1 123.1081 26.6689 37.1680 0.0000 0.0000 0.0000
# 2 26.6689 54.2544 30.8782 0.0000 0.0000 0.0000
# 3 37.1680 30.8782 80.0690 0.0000 0.0000 0.0000
# 4 0.0000 0.0000 0.0000 30.6295 0.0000 0.0000
# 5 0.0000 0.0000 0.0000 0.0000 43.8268 0.0000
# 6 0.0000 0.0000 0.0000 0.0000 0.0000 29.8736
#
#
#
# Elastic Compliance Matrix: (Units=1/GPa)
#
#
# Indices 1 2 3 4 5 6 
#
# 1 0.009779 -0.002849 -0.003441 0.000000 0.000000 0.000000
# 2 -0.002849 0.024445 -0.008105 0.000000 0.000000 0.000000
# 3 -0.003441 -0.008105 0.017212 0.000000 0.000000 0.000000
# 4 0.000000 0.000000 0.000000 0.032648 0.000000 0.000000
# 5 0.000000 0.000000 0.000000 0.000000 0.022817 0.000000
# 6 0.000000 0.000000 0.000000 0.000000 0.000000 0.033474
#
#
# Mechanical properties :
#
#
# Convention : Reuss Voigt Hill
#
# Bulk Modulus (GPa) = 44.15516 49.65130 46.90323
# Shear Modulus (GPa) = 28.29461 31.71374 30.00418
#
# Velocity S-wave (km/s) = 3.47658 3.68064 3.58007
# Velocity P-wave (km/s) = 5.91415 6.26677 6.09301
#
# Compressibility (1/GPa) = 0.02264741
#
# Stress axis : x y z
#
# Youngs Moduli (GPa) = 102.26157 40.90898 58.09917
#
# Poissons Ratio (x) = 0.11653 0.19991
# Poissons Ratio (y) = 0.29129 0.47087
# Poissons Ratio (z) = 0.35186 0.33155
#
# Static dielectric constant tensor:
#      x y z
#    x 1.928120 0.000000 0.000000 
#    y 0.000000 1.914900 0.000000 
#    z 0.000000 0.000000 1.896700 
# 
# From -- ./inp_files/1857.got.cif
#   From: 2010.05.17/outbox.cif.g08.bks.cpg/sg29_1_cif.got.tgz:1857.got - 2010.06.04 01:19:37.
