data_PCOD9341962
_publ_section_title
;
Structure prediction by ZEFSAII (Michael W. Deem and Ramdas Pophale) SiO2 
 PCOD9341962
Probable space group: P N C 2
;
_chemical_formula_sum "Si O2"
_cell_formula_units_Z 32
_cell_length_a 11.034684
_cell_length_b 25.839331
_cell_length_c 5.471595
_cell_angle_alpha 90.000000
_cell_angle_beta 90.000000
_cell_angle_gamma 90.000000
_cell_volume 1560.109603
_symmetry_space_group_name_H-M "P N C 2"
_symmetry_group_IT_number 30
_symmetry_cell_setting 'orthorhombic'
loop_
_space_group_symop_operation_xyz
x,y,z
-x,-y,z
-x,1/2+y,1/2+z
x,1/2-y,1/2+z
loop_
_atom_site_type_symbol
_atom_site_label
_atom_site_fract_x
_atom_site_fract_y
_atom_site_fract_z
Si Si1 0.162192 0.120647 0.815680
Si Si2 0.485807 0.938280 0.095232
Si Si3 0.236085 0.262703 0.390404
Si Si4 0.380228 0.433908 0.093454
Si Si5 0.069542 0.608823 0.018153
Si Si6 0.908100 0.962878 0.169899
Si Si7 0.036703 0.722277 0.864969
Si Si8 0.277198 0.538844 0.929782
O O1 0.198132 0.177642 0.894367
O O2 0.256378 0.098728 0.618239
O O3 0.021240 0.121021 0.739922
O O4 0.169280 0.077147 0.019328
O O5 0.564461 0.920464 0.329668
O O6 0.351132 0.933062 0.211349
O O7 0.500000 0.000000 0.084325
O O8 0.535231 0.919997 0.830194
O O9 0.302483 0.247965 0.637441
O O10 0.111426 0.228219 0.376800
O O11 0.354998 0.496790 0.086620
O O12 0.078282 0.663174 0.877750
O O13 0.196923 0.581103 0.073069
O O14 0.991666 0.569319 0.853576
O O15 0.816928 0.000155 0.305232
O O16 0.000000 0.000000 0.017761
O O17 0.076485 0.749069 0.613723
#
# Coordination Sequence:
#
# PCOD9341962 Si02
#       8
#     4   4   4   4   4   4   4   4
#     4  12  22  33  58  85 121 155 195 237 309 353
#     4  10  21  41  57  78 109 156 209 242 275 332
#     4  10  20  34  55  79 116 148 191 236 286 361
#     4  11  23  37  60  81 113 154 200 247 280 337
#     4  11  22  36  55  88 126 154 193 243 305 375
#     4  10  22  34  49  82 126 160 187 233 294 365
#     4  10  19  36  54  79 117 154 192 233 286 360
#     4  10  22  40  58  86 121 164 200 244 301 355
#
# _framework density 20.511379999999999
#
# number of rings (size 3 to 8) (size 9 to 14) (size 15 to 20)
#    0.000    1.500    3.750    4.125    1.750    0.000 
#    2.250    0.000    0.000    0.000    0.000    5.250 
#    0.000    0.000    0.000    0.000    0.000    0.000 
#
# Total GULP energy -178424.176173 kJ/mol
# GULP energy per Si atom -5575.755505 kJ/mol
# Density = 2.046470 g / cm^3
# Si number density = 20.511380 Si / 1000 Ang^3
#
#
#
# Elastic Constant Matrix: (Units=GPa)
#
#
# Indices 1 2 3 4 5 6 
#
# 1 124.3198 -63.6931 31.4207 0.0000 0.0000 0.0000
# 2 -63.6931 210.0049 17.9579 0.0000 0.0000 0.0000
# 3 31.4207 17.9579 126.9483 0.0000 0.0000 0.0000
# 4 0.0000 0.0000 0.0000 824.1194 0.0000 0.0000
# 5 0.0000 0.0000 0.0000 0.0000 17.2451 0.0000
# 6 0.0000 0.0000 0.0000 0.0000 0.0000 6.3377
#
#
#
# Elastic Compliance Matrix: (Units=1/GPa)
#
#
# Indices 1 2 3 4 5 6 
#
# 1 0.010620 0.003488 -0.003122 0.000000 0.000000 0.000000
# 2 0.003488 0.005966 -0.001707 0.000000 0.000000 0.000000
# 3 -0.003122 -0.001707 0.008891 0.000000 0.000000 0.000000
# 4 0.000000 0.000000 0.000000 0.001213 0.000000 0.000000
# 5 0.000000 0.000000 0.000000 0.000000 0.057987 0.000000
# 6 0.000000 0.000000 0.000000 0.000000 0.000000 0.157785
#
#
# Mechanical properties :
#
#
# Convention : Reuss Voigt Hill
#
# Bulk Modulus (GPa) = 43.87037 48.07155 45.97096
# Shear Modulus (GPa) = 19.78292 201.24629 110.51460
#
# Velocity S-wave (km/s) = 3.10898 9.91602 7.34824
# Velocity P-wave (km/s) = 5.85854 12.43345 9.71888
#
# Compressibility (1/GPa) = 0.02279443
#
# Stress axis : x y z
#
# Youngs Moduli (GPa) = 94.16438 167.62731 112.46834
#
# Poissons Ratio (x) = -0.58466 0.35111
# Poissons Ratio (y) = -0.32843 0.19200
# Poissons Ratio (z) = 0.29397 0.28617
#
# Static dielectric constant tensor:
#      x y z
#    x 1.837650 0.000000 0.000000 
#    y 0.000000 1.645780 0.000000 
#    z 0.000000 0.000000 1.849760 
# 
# From -- ./inp_files/831.got.cif
#   From: 2010.05.17/outbox.cif.g08.bks.cpg/sg30_1_cif.got.tgz:831.got - 2010.06.03 17:03:02.
