data_PCOD9341418
_publ_section_title
;
Structure prediction by ZEFSAII (Michael W. Deem and Ramdas Pophale) SiO2 
 PCOD9341418
Probable space group: P C A 21
;
_chemical_formula_sum "Si O2"
_cell_formula_units_Z 32
_cell_length_a 17.982522
_cell_length_b 10.457294
_cell_length_c 7.887097
_cell_angle_alpha 90.000000
_cell_angle_beta 90.000000
_cell_angle_gamma 90.000000
_cell_volume 1483.156913
_symmetry_space_group_name_H-M "P C A 21"
_symmetry_group_IT_number 29
_symmetry_cell_setting 'orthorhombic'
loop_
_space_group_symop_operation_xyz
x,y,z
-x,-y,1/2+z
1/2-x,y,1/2+z
1/2+x,-y,z
loop_
_atom_site_type_symbol
_atom_site_label
_atom_site_fract_x
_atom_site_fract_y
_atom_site_fract_z
Si Si1 0.916511 0.622214 0.498680
Si Si2 0.365655 0.778220 0.961792
Si Si3 0.496844 0.620613 0.639208
Si Si4 0.782478 0.221889 0.320489
Si Si5 0.280279 0.477726 0.315833
Si Si6 0.925819 0.129628 0.492461
Si Si7 0.633990 0.520918 0.459225
Si Si8 0.009344 0.127536 0.129717
O O1 0.961520 0.618744 0.318910
O O2 0.832123 0.604014 0.439340
O O3 0.944950 0.502223 0.608824
O O4 0.938440 0.751191 0.593574
O O5 0.317354 0.783841 0.134578
O O6 0.386135 0.628798 0.936212
O O7 0.439651 0.857283 0.998665
O O8 0.303488 0.819713 0.827138
O O9 0.451709 0.748541 0.601713
O O10 0.561789 0.603817 0.497328
O O11 0.783401 0.372555 0.371258
O O12 0.840204 0.145666 0.437368
O O13 0.317314 0.473256 0.132122
O O14 0.194292 0.438425 0.320886
O O15 0.973005 0.131679 0.316082
O O16 0.946850 0.001363 0.590141
#
# Coordination Sequence:
#
# PCOD9341418 Si02
#       8
#     4   4   4   4   4   4   4   4
#     4  11  21  36  58  85 115 148 187 233 282 334
#     4   9  18  34  55  81 112 143 184 233 277 333
#     4  11  21  36  58  85 115 148 187 233 282 334
#     4   9  18  34  55  81 112 143 184 233 277 333
#     4   9  18  33  53  82 114 144 183 232 282 331
#     4  11  23  40  58  84 117 151 192 236 284 339
#     4   9  18  33  53  82 114 144 183 232 282 331
#     4  11  23  40  58  84 117 151 192 236 284 339
#
# _framework density 21.575599
#
# number of rings (size 3 to 8) (size 9 to 14) (size 15 to 20)
#    0.000    2.000    2.500    1.500    0.000    4.000 
#    0.000    1.250    0.000    0.000    0.000    0.000 
#    0.000    0.000    0.000    0.000    0.000    0.000 
#
# Total GULP energy -178977.432759 kJ/mol
# GULP energy per Si atom -5593.044774 kJ/mol
# Density = 2.152649 g / cm^3
# Si number density = 21.575599 Si / 1000 Ang^3
#
#
#
# Elastic Constant Matrix: (Units=GPa)
#
#
# Indices 1 2 3 4 5 6 
#
# 1 100.5631 19.5388 -0.8178 0.0000 0.0000 0.0000
# 2 19.5388 106.1980 17.8910 0.0000 0.0000 0.0000
# 3 -0.8178 17.8910 80.1501 0.0000 0.0000 0.0000
# 4 0.0000 0.0000 0.0000 23.0397 0.0000 0.0000
# 5 0.0000 0.0000 0.0000 0.0000 42.8043 0.0000
# 6 0.0000 0.0000 0.0000 0.0000 0.0000 28.7480
#
#
#
# Elastic Compliance Matrix: (Units=1/GPa)
#
#
# Indices 1 2 3 4 5 6 
#
# 1 0.010336 -0.001994 0.000551 0.000000 0.000000 0.000000
# 2 -0.001994 0.010169 -0.002290 0.000000 0.000000 0.000000
# 3 0.000551 -0.002290 0.012993 0.000000 0.000000 0.000000
# 4 0.000000 0.000000 0.000000 0.043403 0.000000 0.000000
# 5 0.000000 0.000000 0.000000 0.000000 0.023362 0.000000
# 6 0.000000 0.000000 0.000000 0.000000 0.000000 0.034785
#
#
# Mechanical properties :
#
#
# Convention : Reuss Voigt Hill
#
# Bulk Modulus (GPa) = 38.41654 40.01502 39.21578
# Shear Modulus (GPa) = 33.07010 35.60503 34.33756
#
# Velocity S-wave (km/s) = 3.91929 4.06673 3.99369
# Velocity P-wave (km/s) = 6.19074 6.37477 6.28343
#
# Compressibility (1/GPa) = 0.02603046
#
# Stress axis : x y z
#
# Youngs Moduli (GPa) = 96.74926 98.33656 76.96193
#
# Poissons Ratio (x) = 0.19613 -0.04238
# Poissons Ratio (y) = 0.19296 0.17627
# Poissons Ratio (z) = -0.05328 0.22522
#
# Static dielectric constant tensor:
#      x y z
#    x 1.797400 0.000000 0.000000 
#    y 0.000000 1.701300 0.000000 
#    z 0.000000 0.000000 1.891320 
# 
# From -- ./inp_files/2187.got.cif
#   From: 2010.05.17/outbox.cif.g08.bks.cpg/sg29_2_cif.got.tgz:2187.got - 2010.06.04 01:19:37.
