data_PCOD9341200
_publ_section_title
;
Structure prediction by ZEFSAII (Michael W. Deem and Ramdas Pophale) SiO2 
 PCOD9341200
Probable space group: P C A 21
;
_chemical_formula_sum "Si O2"
_cell_formula_units_Z 24
_cell_length_a 11.495950
_cell_length_b 8.088236
_cell_length_c 11.811933
_cell_angle_alpha 90.000000
_cell_angle_beta 90.000000
_cell_angle_gamma 90.000000
_cell_volume 1098.296642
_symmetry_space_group_name_H-M "P C A 21"
_symmetry_group_IT_number 29
_symmetry_cell_setting 'orthorhombic'
loop_
_space_group_symop_operation_xyz
x,y,z
-x,-y,1/2+z
1/2-x,y,1/2+z
1/2+x,-y,z
loop_
_atom_site_type_symbol
_atom_site_label
_atom_site_fract_x
_atom_site_fract_y
_atom_site_fract_z
Si Si1 0.947610 0.685629 0.933430
Si Si2 0.452507 0.138168 0.173507
Si Si3 0.822352 0.153527 0.828230
Si Si4 0.508771 0.325952 0.498729
Si Si5 0.094262 0.772065 0.724526
Si Si6 0.795165 0.799297 0.377156
O O1 0.003869 0.505834 0.944043
O O2 0.811713 0.678621 0.901545
O O3 0.012383 0.781616 0.833702
O O4 0.958733 0.778768 0.052233
O O5 0.577019 0.128154 0.235215
O O6 0.364796 0.229764 0.260258
O O7 0.405302 0.951699 0.165629
O O8 0.884944 0.238026 0.934084
O O9 0.722201 0.263380 0.770509
O O10 0.760958 0.982462 0.866886
O O11 0.540356 0.345880 0.630108
O O12 0.392623 0.220425 0.474386
#
# Coordination Sequence:
#
# PCOD9341200 Si02
#       6
#     4   4   4   4   4   4
#     4  12  27  44  72 106 148 188 237 303 370 427
#     4  10  24  45  72 105 136 190 244 295 354 439
#     4  10  23  47  74  99 139 191 247 292 355 435
#     4  11  28  43  72 107 147 188 241 304 373 427
#     4  11  26  43  72 102 139 190 242 293 364 428
#     4  10  24  48  70 101 141 189 245 297 354 434
#
# _framework density 21.85202
#
# number of rings (size 3 to 8) (size 9 to 14) (size 15 to 20)
#    0.000    1.333    1.667    1.000   16.333    0.000 
#    0.000    0.000    0.000    0.000    0.000    0.000 
#    0.000    0.000    0.000    0.000    0.000    0.000 
#
# Total GULP energy -134228.894185 kJ/mol
# GULP energy per Si atom -5592.870591 kJ/mol
# Density = 2.180228 g / cm^3
# Si number density = 21.852020 Si / 1000 Ang^3
#
#
#
# Elastic Constant Matrix: (Units=GPa)
#
#
# Indices 1 2 3 4 5 6 
#
# 1 124.0208 16.4685 41.2060 0.0000 0.0000 0.0000
# 2 16.4685 60.3382 28.6063 0.0000 0.0000 0.0000
# 3 41.2060 28.6063 108.4735 0.0000 0.0000 0.0000
# 4 0.0000 0.0000 0.0000 26.8043 0.0000 0.0000
# 5 0.0000 0.0000 0.0000 0.0000 12.7429 0.0000
# 6 0.0000 0.0000 0.0000 0.0000 0.0000 15.3993
#
#
#
# Elastic Compliance Matrix: (Units=1/GPa)
#
#
# Indices 1 2 3 4 5 6 
#
# 1 0.009279 -0.000985 -0.003265 0.000000 0.000000 0.000000
# 2 -0.000985 0.019046 -0.004649 0.000000 0.000000 0.000000
# 3 -0.003265 -0.004649 0.011685 0.000000 0.000000 0.000000
# 4 0.000000 0.000000 0.000000 0.037307 0.000000 0.000000
# 5 0.000000 0.000000 0.000000 0.000000 0.078475 0.000000
# 6 0.000000 0.000000 0.000000 0.000000 0.000000 0.064938
#
#
# Mechanical properties :
#
#
# Convention : Reuss Voigt Hill
#
# Bulk Modulus (GPa) = 45.01857 51.71044 48.36450
# Shear Modulus (GPa) = 20.33088 24.75941 22.54515
#
# Velocity S-wave (km/s) = 3.05354 3.36973 3.21552
# Velocity P-wave (km/s) = 5.75138 6.23341 5.99724
#
# Compressibility (1/GPa) = 0.02221306
#
# Stress axis : x y z
#
# Youngs Moduli (GPa) = 107.77343 52.50463 85.57904
#
# Poissons Ratio (x) = 0.05169 0.27942
# Poissons Ratio (y) = 0.10611 0.39784
# Poissons Ratio (z) = 0.35189 0.24408
#
# Static dielectric constant tensor:
#      x y z
#    x 1.790570 0.000000 0.000000 
#    y 0.000000 1.807420 0.000000 
#    z 0.000000 0.000000 1.788750 
# 
# From -- ./inp_files/3071.got.cif
#   From: 2010.05.17/outbox.cif.g08.bks.cpg/sg29_2_cif.got.tgz:3071.got - 2010.06.04 01:19:37.
