data_PCOD9341644
_publ_section_title
;
Structure prediction by ZEFSAII (Michael W. Deem and Ramdas Pophale) SiO2 
 PCOD9341644
Probable space group: P C A 21
;
_chemical_formula_sum "Si O2"
_cell_formula_units_Z 24
_cell_length_a 11.144604
_cell_length_b 10.702618
_cell_length_c 9.135941
_cell_angle_alpha 90.000000
_cell_angle_beta 90.000000
_cell_angle_gamma 90.000000
_cell_volume 1089.702513
_symmetry_space_group_name_H-M "P C A 21"
_symmetry_group_IT_number 29
_symmetry_cell_setting 'orthorhombic'
loop_
_space_group_symop_operation_xyz
x,y,z
-x,-y,1/2+z
1/2-x,y,1/2+z
1/2+x,-y,z
loop_
_atom_site_type_symbol
_atom_site_label
_atom_site_fract_x
_atom_site_fract_y
_atom_site_fract_z
Si Si1 0.625416 0.210667 0.569540
Si Si2 0.001252 0.745933 0.058574
Si Si3 0.780611 0.420604 0.444735
Si Si4 0.283473 0.406006 0.181085
Si Si5 0.112344 0.183828 0.258059
Si Si6 0.833407 0.095828 0.760630
O O1 0.663194 0.342542 0.494161
O O2 0.494807 0.206637 0.641692
O O3 0.717800 0.169097 0.697645
O O4 0.646508 0.117951 0.432665
O O5 0.911499 0.650809 0.138786
O O6 0.055586 0.843461 0.173266
O O7 0.939331 0.814529 0.922532
O O8 0.109041 0.666021 0.988400
O O9 0.782408 0.547872 0.535714
O O10 0.785742 0.469836 0.280495
O O11 0.205829 0.296189 0.249968
O O12 0.172822 0.050614 0.227856
#
# Coordination Sequence:
#
# PCOD9341644 Si02
#       6
#     4   4   4   4   4   4
#     4  11  25  49  73 102 141 192 235 295 366 418
#     4  11  26  48  68 109 138 191 238 290 360 416
#     4  11  25  47  71  97 143 184 236 288 354 428
#     4  12  27  43  72 106 139 184 235 293 349 429
#     4  12  27  44  72 106 144 187 232 302 354 425
#     4  11  26  45  76 100 143 186 240 294 355 440
#
# _framework density 22.024357999999999
#
# number of rings (size 3 to 8) (size 9 to 14) (size 15 to 20)
#    0.000    0.667    1.667    6.000   11.667    0.000 
#    0.000    0.000    0.000    0.000    0.000    0.000 
#    0.000    0.000    0.000    0.000    0.000    0.000 
#
# Total GULP energy -134322.377417 kJ/mol
# GULP energy per Si atom -5596.765726 kJ/mol
# Density = 2.197423 g / cm^3
# Si number density = 22.024358 Si / 1000 Ang^3
#
#
#
# Elastic Constant Matrix: (Units=GPa)
#
#
# Indices 1 2 3 4 5 6 
#
# 1 48.3186 18.9208 26.2012 0.0000 0.0000 0.0000
# 2 18.9208 108.0201 12.7340 0.0000 0.0000 0.0000
# 3 26.2012 12.7340 81.0466 0.0000 0.0000 0.0000
# 4 0.0000 0.0000 0.0000 33.4412 0.0000 0.0000
# 5 0.0000 0.0000 0.0000 0.0000 26.8110 0.0000
# 6 0.0000 0.0000 0.0000 0.0000 0.0000 22.4957
#
#
#
# Elastic Compliance Matrix: (Units=1/GPa)
#
#
# Indices 1 2 3 4 5 6 
#
# 1 0.026468 -0.003696 -0.007976 0.000000 0.000000 0.000000
# 2 -0.003696 0.009948 -0.000368 0.000000 0.000000 0.000000
# 3 -0.007976 -0.000368 0.014975 0.000000 0.000000 0.000000
# 4 0.000000 0.000000 0.000000 0.029903 0.000000 0.000000
# 5 0.000000 0.000000 0.000000 0.000000 0.037298 0.000000
# 6 0.000000 0.000000 0.000000 0.000000 0.000000 0.044453
#
#
# Mechanical properties :
#
#
# Convention : Reuss Voigt Hill
#
# Bulk Modulus (GPa) = 36.61517 39.23305 37.92411
# Shear Modulus (GPa) = 25.48026 28.51820 26.99923
#
# Velocity S-wave (km/s) = 3.40503 3.60230 3.50506
# Velocity P-wave (km/s) = 5.66745 5.92910 5.79975
#
# Compressibility (1/GPa) = 0.02731108
#
# Stress axis : x y z
#
# Youngs Moduli (GPa) = 37.78089 100.51938 66.77789
#
# Poissons Ratio (x) = 0.37151 0.53263
# Poissons Ratio (y) = 0.13964 0.02459
# Poissons Ratio (z) = 0.30135 0.03701
#
# Static dielectric constant tensor:
#      x y z
#    x 1.776990 0.000000 0.000000 
#    y 0.000000 1.782620 0.000000 
#    z 0.000000 0.000000 1.856290 
# 
# From -- ./inp_files/1392.got.cif
#   From: 2010.05.17/outbox.cif.g08.bks.cpg/sg29_1_cif.got.tgz:1392.got - 2010.06.04 01:19:37.
