data_PCOD9341691
_publ_section_title
;
Structure prediction by ZEFSAII (Michael W. Deem and Ramdas Pophale) SiO2 
 PCOD9341691
Probable space group: P C A 21
;
_chemical_formula_sum "Si O2"
_cell_formula_units_Z 32
_cell_length_a 8.673078
_cell_length_b 11.037178
_cell_length_c 13.477145
_cell_angle_alpha 90.000000
_cell_angle_beta 90.000000
_cell_angle_gamma 90.000000
_cell_volume 1290.117302
_symmetry_space_group_name_H-M "P C A 21"
_symmetry_group_IT_number 29
_symmetry_cell_setting 'orthorhombic'
loop_
_space_group_symop_operation_xyz
x,y,z
-x,-y,1/2+z
1/2-x,y,1/2+z
1/2+x,-y,z
loop_
_atom_site_type_symbol
_atom_site_label
_atom_site_fract_x
_atom_site_fract_y
_atom_site_fract_z
Si Si1 0.258384 0.764291 0.648820
Si Si2 0.227053 0.352234 0.853561
Si Si3 0.944227 0.052063 0.012807
Si Si4 0.056009 0.585066 0.787940
Si Si5 0.523566 0.862105 0.788553
Si Si6 0.012129 0.560969 0.106922
Si Si7 0.819616 0.657739 0.565667
Si Si8 0.756763 0.903522 0.627252
O O1 0.159816 0.844455 0.570067
O O2 0.150709 0.680307 0.720074
O O3 0.369652 0.840617 0.723019
O O4 0.374255 0.672469 0.591002
O O5 0.168804 0.492504 0.846140
O O6 0.412422 0.351970 0.841936
O O7 0.107257 0.269474 0.792418
O O8 0.201984 0.289013 0.958667
O O9 0.093948 0.035305 0.081018
O O10 0.858932 0.925749 0.034947
O O11 0.980451 0.084452 0.897692
O O12 0.963091 0.493731 0.715606
O O13 0.654633 0.934838 0.724505
O O14 0.048373 0.439195 0.047825
O O15 0.834700 0.588562 0.094106
O O16 0.824931 0.768154 0.640419
#
# Coordination Sequence:
#
# PCOD9341691 Si02
#       8
#     4   4   4   4   4   4   4   4
#     4  12  25  46  75 113 156 204 260 325 384 474
#     4  12  23  41  68 112 148 206 256 320 386 479
#     4  12  30  52  83 113 152 210 276 318 407 468
#     4  12  22  41  68 106 159 202 256 318 397 461
#     4  12  26  52  80 111 160 200 264 334 391 472
#     4  12  22  40  70 103 150 205 239 309 394 448
#     4  12  25  42  72 110 156 196 256 319 385 466
#     4  12  27  54  78 112 155 205 263 339 388 466
#
# _framework density 24.803946
#
# number of rings (size 3 to 8) (size 9 to 14) (size 15 to 20)
#    0.000    0.000    6.250    3.750    0.000    5.000 
#    2.250    0.000    0.000    0.000    0.000    0.000 
#    0.000    0.000    0.000    0.000    0.000    0.000 
#
# Total GULP energy -178342.026216 kJ/mol
# GULP energy per Si atom -5573.188319 kJ/mol
# Density = 2.474749 g / cm^3
# Si number density = 24.803946 Si / 1000 Ang^3
#
#
#
# Elastic Constant Matrix: (Units=GPa)
#
#
# Indices 1 2 3 4 5 6 
#
# 1 113.3602 39.3829 5.7237 0.0000 0.0000 0.0000
# 2 39.3829 71.7912 33.4990 0.0000 0.0000 0.0000
# 3 5.7237 33.4990 82.9791 0.0000 0.0000 0.0000
# 4 0.0000 0.0000 0.0000 9.7127 0.0000 0.0000
# 5 0.0000 0.0000 0.0000 0.0000 16.6857 0.0000
# 6 0.0000 0.0000 0.0000 0.0000 0.0000 29.6144
#
#
#
# Elastic Compliance Matrix: (Units=1/GPa)
#
#
# Indices 1 2 3 4 5 6 
#
# 1 0.011188 -0.007119 0.002102 0.000000 0.000000 0.000000
# 2 -0.007119 0.021691 -0.008266 0.000000 0.000000 0.000000
# 3 0.002102 -0.008266 0.015243 0.000000 0.000000 0.000000
# 4 0.000000 0.000000 0.000000 0.102958 0.000000 0.000000
# 5 0.000000 0.000000 0.000000 0.000000 0.059932 0.000000
# 6 0.000000 0.000000 0.000000 0.000000 0.000000 0.033767
#
#
# Mechanical properties :
#
#
# Convention : Reuss Voigt Hill
#
# Bulk Modulus (GPa) = 46.38605 47.26018 46.82311
# Shear Modulus (GPa) = 17.95136 23.83756 20.89446
#
# Velocity S-wave (km/s) = 2.69314 3.10343 2.90554
# Velocity P-wave (km/s) = 5.33032 5.65124 5.49313
#
# Compressibility (1/GPa) = 0.02155821
#
# Stress axis : x y z
#
# Youngs Moduli (GPa) = 89.37845 46.10135 65.60304
#
# Poissons Ratio (x) = 0.32817 -0.13790
# Poissons Ratio (y) = 0.63624 0.54227
# Poissons Ratio (z) = -0.18788 0.38107
#
# Static dielectric constant tensor:
#      x y z
#    x 2.153430 0.000000 0.000000 
#    y 0.000000 2.209720 0.000000 
#    z 0.000000 0.000000 2.092690 
# 
# From -- ./inp_files/4318.got.cif
#   From: 2010.05.17/outbox.cif.g08.bks.cpg/sg29_3_cif.got.tgz:4318.got - 2010.06.04 01:19:37.
