data_PCOD9341955
_publ_section_title
;
Structure prediction by ZEFSAII (Michael W. Deem and Ramdas Pophale) SiO2 
 PCOD9341955
Probable space group: P N C 2
;
_chemical_formula_sum "Si O2"
_cell_formula_units_Z 20
_cell_length_a 6.902159
_cell_length_b 21.241991
_cell_length_c 5.245100
_cell_angle_alpha 90.000000
_cell_angle_beta 90.000000
_cell_angle_gamma 90.000000
_cell_volume 769.013480
_symmetry_space_group_name_H-M "P N C 2"
_symmetry_group_IT_number 30
_symmetry_cell_setting 'orthorhombic'
loop_
_space_group_symop_operation_xyz
x,y,z
-x,-y,z
-x,1/2+y,1/2+z
x,1/2-y,1/2+z
loop_
_atom_site_type_symbol
_atom_site_label
_atom_site_fract_x
_atom_site_fract_y
_atom_site_fract_z
Si Si1 0.917905 0.570110 0.810540
Si Si2 0.780833 0.970642 0.815230
Si Si3 0.457713 0.213652 0.819301
Si Si4 0.251952 0.892831 0.948312
Si Si5 0.997096 0.211000 0.773399
O O1 0.773033 0.570305 0.570421
O O2 0.000000 0.500000 0.836874
O O3 0.115167 0.604330 0.703967
O O4 0.780606 0.571467 0.061263
O O5 0.677024 0.038487 0.851661
O O6 0.000000 0.000000 0.828373
O O7 0.506018 0.267869 0.027864
O O8 0.569432 0.154114 0.932139
O O9 0.226943 0.205891 0.804655
O O10 0.101954 0.857072 0.758904
O O11 0.940797 0.247887 0.029961
#
# Coordination Sequence:
#
# PCOD9341955 Si02
#       5
#     4   4   4   4   4
#     4   8  16  28  45  74 102 125 166 217 252 298
#     4   8  16  28  45  74 102 125 166 217 252 298
#     4  10  22  37  53  81 114 140 181 232 267 316
#     4  10  19  34  62  78 104 154 183 208 280 338
#     4  10  22  37  53  81 114 140 181 232 267 316
#
# _framework density 26.007346999999999
#
# number of rings (size 3 to 8) (size 9 to 14) (size 15 to 20)
#    0.000    3.200    0.000    1.200    0.000   12.800 
#    0.000    0.000    0.000   21.600    0.000    0.000 
#    0.000    0.000    0.000    0.000    0.000    0.000 
#
# Total GULP energy -111414.617530 kJ/mol
# GULP energy per Si atom -5570.730876 kJ/mol
# Density = 2.594815 g / cm^3
# Si number density = 26.007347 Si / 1000 Ang^3
#
#
#
# Elastic Constant Matrix: (Units=GPa)
#
#
# Indices 1 2 3 4 5 6 
#
# 1 102.8220 34.3686 9.2396 0.0000 0.0000 0.0000
# 2 34.3686 90.9820 35.9623 0.0000 0.0000 0.0000
# 3 9.2396 35.9623 227.5439 0.0000 0.0000 0.0000
# 4 0.0000 0.0000 0.0000 -7.5420 0.0000 0.0000
# 5 0.0000 0.0000 0.0000 0.0000 -1.6207 0.0000
# 6 0.0000 0.0000 0.0000 0.0000 0.0000 51.8390
#
#
#
# Elastic Compliance Matrix: (Units=1/GPa)
#
#
# Indices 1 2 3 4 5 6 
#
# 1 0.011142 -0.004299 0.000227 0.000000 0.000000 0.000000
# 2 -0.004299 0.013382 -0.001940 0.000000 0.000000 0.000000
# 3 0.000227 -0.001940 0.004692 0.000000 0.000000 0.000000
# 4 0.000000 0.000000 0.000000 -0.132591 0.000000 0.000000
# 5 0.000000 0.000000 0.000000 0.000000 -0.617001 0.000000
# 6 0.000000 0.000000 0.000000 0.000000 0.000000 0.019291
#
#
# Mechanical properties :
#
#
# Convention : Reuss Voigt Hill
#
# Bulk Modulus (GPa) = 58.16655 64.49879 61.33267
# Shear Modulus (GPa) = -7.31710 31.32041 12.00165
#
# Velocity S-wave (km/s) = -1.67916 3.47405 2.15052
# Velocity P-wave (km/s) = 4.31909 6.39892 5.45897
#
# Compressibility (1/GPa) = 0.01719201
#
# Stress axis : x y z
#
# Youngs Moduli (GPa) = 89.75071 74.72742 213.11904
#
# Poissons Ratio (x) = 0.32122 -0.04837
# Poissons Ratio (y) = 0.38580 0.41354
# Poissons Ratio (z) = -0.02037 0.14500
#
# Static dielectric constant tensor:
#      x y z
#    x 2.099550 0.000000 0.000000 
#    y 0.000000 2.316820 0.000000 
#    z 0.000000 0.000000 2.276970 
# 
# From -- ./inp_files/392.got.cif
#   From: 2010.05.17/outbox.cif.g08.bks.cpg/sg30_1_cif.got.tgz:392.got - 2010.06.03 17:03:02.
