data_PCOD9341166
_publ_section_title
;
Structure prediction by ZEFSAII (Michael W. Deem and Ramdas Pophale) SiO2 
 PCOD9341166
Probable space group: P C A 21
;
_chemical_formula_sum "Si O2"
_cell_formula_units_Z 20
_cell_length_a 14.791576
_cell_length_b 5.171087
_cell_length_c 10.120504
_cell_angle_alpha 90.000000
_cell_angle_beta 90.000000
_cell_angle_gamma 90.000000
_cell_volume 774.102437
_symmetry_space_group_name_H-M "P C A 21"
_symmetry_group_IT_number 29
_symmetry_cell_setting 'orthorhombic'
loop_
_space_group_symop_operation_xyz
x,y,z
-x,-y,1/2+z
1/2-x,y,1/2+z
1/2+x,-y,z
loop_
_atom_site_type_symbol
_atom_site_label
_atom_site_fract_x
_atom_site_fract_y
_atom_site_fract_z
Si Si1 0.387665 0.004053 0.694250
Si Si2 0.451979 0.675952 0.149207
Si Si3 0.194609 0.212267 0.950306
Si Si4 0.739645 0.296461 0.792798
Si Si5 0.988354 0.301655 0.872040
O O1 0.322481 0.753011 0.693402
O O2 0.427695 0.949828 0.841029
O O3 0.486681 0.064675 0.631874
O O4 0.321861 0.191637 0.608359
O O5 0.353755 0.705852 0.210947
O O6 0.508937 0.497821 0.249055
O O7 0.451046 0.563436 0.002806
O O8 0.245491 0.453263 0.885489
O O9 0.092725 0.231474 0.893273
O O10 0.234980 0.951468 0.889651
#
# Coordination Sequence:
#
# PCOD9341166 Si02
#       5
#     4   4   4   4   4
#     4  11  25  43  76 102 151 202 249 311 386 448
#     4  10  24  46  70 110 149 201 254 317 376 463
#     4  10  25  46  70 105 151 185 255 314 368 455
#     4  11  25  47  69 108 148 195 252 317 374 453
#     4  10  23  44  73 105 149 201 248 309 386 445
#
# _framework density 25.836375
#
# number of rings (size 3 to 8) (size 9 to 14) (size 15 to 20)
#    0.000    1.600    2.000    0.000   14.000    0.000 
#    3.600    0.000    0.000    0.000    0.000    0.000 
#    0.000    0.000    0.000    0.000    0.000    0.000 
#
# Total GULP energy -111386.343645 kJ/mol
# GULP energy per Si atom -5569.317182 kJ/mol
# Density = 2.577757 g / cm^3
# Si number density = 25.836375 Si / 1000 Ang^3
#
#
#
# Elastic Constant Matrix: (Units=GPa)
#
#
# Indices 1 2 3 4 5 6 
#
# 1 135.1030 19.3096 29.6981 0.0000 0.0000 0.0000
# 2 19.3096 134.5476 71.7209 0.0000 0.0000 0.0000
# 3 29.6981 71.7209 141.8544 0.0000 0.0000 0.0000
# 4 0.0000 0.0000 0.0000 46.5613 0.0000 0.0000
# 5 0.0000 0.0000 0.0000 0.0000 11.6522 0.0000
# 6 0.0000 0.0000 0.0000 0.0000 0.0000 6.4997
#
#
#
# Elastic Compliance Matrix: (Units=1/GPa)
#
#
# Indices 1 2 3 4 5 6 
#
# 1 0.007770 -0.000339 -0.001455 0.000000 0.000000 0.000000
# 2 -0.000339 0.010189 -0.005081 0.000000 0.000000 0.000000
# 3 -0.001455 -0.005081 0.009923 0.000000 0.000000 0.000000
# 4 0.000000 0.000000 0.000000 0.021477 0.000000 0.000000
# 5 0.000000 0.000000 0.000000 0.000000 0.085821 0.000000
# 6 0.000000 0.000000 0.000000 0.000000 0.000000 0.153854
#
#
# Mechanical properties :
#
#
# Convention : Reuss Voigt Hill
#
# Bulk Modulus (GPa) = 70.76176 72.55137 71.65656
# Shear Modulus (GPa) = 16.26045 32.32774 24.29410
#
# Velocity S-wave (km/s) = 2.51143 3.54114 3.06977
# Velocity P-wave (km/s) = 5.98812 6.69788 6.35292
#
# Compressibility (1/GPa) = 0.01413193
#
# Stress axis : x y z
#
# Youngs Moduli (GPa) = 128.69791 98.14277 100.77787
#
# Poissons Ratio (x) = 0.03332 0.14664
# Poissons Ratio (y) = 0.04369 0.51201
# Poissons Ratio (z) = 0.18727 0.49862
#
# Static dielectric constant tensor:
#      x y z
#    x 2.041910 0.000000 0.000000 
#    y 0.000000 2.146080 0.000000 
#    z 0.000000 0.000000 2.177770 
# 
# From -- ./inp_files/1963.got.cif
#   From: 2010.05.17/outbox.cif.g08.bks.cpg/sg29_1_cif.got.tgz:1963.got - 2010.06.04 01:19:37.
