data_PCOD9341834
_publ_section_title
;
Structure prediction by ZEFSAII (Michael W. Deem and Ramdas Pophale) SiO2 
 PCOD9341834
Probable space group: P N C 2
;
_chemical_formula_sum "Si O2"
_cell_formula_units_Z 32
_cell_length_a 8.212342
_cell_length_b 14.704039
_cell_length_c 12.534840
_cell_angle_alpha 90.000000
_cell_angle_beta 90.000000
_cell_angle_gamma 90.000000
_cell_volume 1513.639553
_symmetry_space_group_name_H-M "P N C 2"
_symmetry_group_IT_number 30
_symmetry_cell_setting 'orthorhombic'
loop_
_space_group_symop_operation_xyz
x,y,z
-x,-y,z
-x,1/2+y,1/2+z
x,1/2-y,1/2+z
loop_
_atom_site_type_symbol
_atom_site_label
_atom_site_fract_x
_atom_site_fract_y
_atom_site_fract_z
Si Si1 0.280927 0.852267 0.070320
Si Si2 0.403780 0.097195 0.962789
Si Si3 0.851931 0.384528 0.351081
Si Si4 0.808919 0.907809 0.775134
Si Si5 0.591461 0.901000 0.329480
Si Si6 0.185592 0.464431 0.650590
Si Si7 0.602314 0.230929 0.725153
Si Si8 0.398171 0.405694 0.079457
O O1 0.254374 0.770446 0.148940
O O2 0.287683 0.942682 0.140499
O O3 0.459176 0.842200 0.018039
O O4 0.151701 0.869117 0.977593
O O5 0.335116 0.130809 0.850054
O O6 0.500000 0.000000 0.948511
O O7 0.251664 0.086870 0.044415
O O8 0.825854 0.490140 0.322557
O O9 0.697283 0.331197 0.307846
O O10 0.022845 0.357985 0.299249
O O11 0.763424 0.915167 0.651755
O O12 0.751720 0.912411 0.255152
O O13 0.488599 0.816820 0.279639
O O14 0.625963 0.884132 0.454955
O O15 0.500000 0.000000 0.326494
O O16 0.000000 0.500000 0.652201
O O17 0.494728 0.170912 0.645207
O O18 0.500000 0.500000 0.087096
#
# Coordination Sequence:
#
# PCOD9341834 Si02
#       8
#     4   4   4   4   4   4   4   4
#     4  11  21  38  66  97 128 168 230 277 328 402
#     4  10  17  32  66  95 120 164 217 275 327 393
#     4  11  23  38  65  99 133 176 220 287 347 402
#     4  11  21  41  64  98 135 168 226 279 355 407
#     4  11  23  46  68  96 135 183 238 279 345 424
#     4  11  20  38  65  96 130 169 215 277 346 398
#     4  12  23  43  67  97 131 179 237 286 330 419
#     4  11  24  43  67  94 132 185 231 285 343 415
#
# _framework density 21.141095
#
# number of rings (size 3 to 8) (size 9 to 14) (size 15 to 20)
#    0.000    1.000    6.250    3.000    0.000    0.000 
#    4.500    1.250    0.000    0.000    0.000    0.000 
#    0.000    0.000    0.000    0.000    0.000    0.000 
#
# Total GULP energy -178562.149023 kJ/mol
# GULP energy per Si atom -5580.067157 kJ/mol
# Density = 2.109298 g / cm^3
# Si number density = 21.141095 Si / 1000 Ang^3
#
#
#
# Elastic Constant Matrix: (Units=GPa)
#
#
# Indices 1 2 3 4 5 6 
#
# 1 120.4242 17.3090 61.5275 0.0000 0.0000 0.0000
# 2 17.3090 67.1426 37.8948 0.0000 0.0000 0.0000
# 3 61.5275 37.8948 181.5380 0.0000 0.0000 0.0000
# 4 0.0000 0.0000 0.0000 19.3102 0.0000 0.0000
# 5 0.0000 0.0000 0.0000 0.0000 8.2798 0.0000
# 6 0.0000 0.0000 0.0000 0.0000 0.0000 17.2202
#
#
#
# Elastic Compliance Matrix: (Units=1/GPa)
#
#
# Indices 1 2 3 4 5 6 
#
# 1 0.010077 -0.000760 -0.003257 0.000000 0.000000 0.000000
# 2 -0.000760 0.016940 -0.003279 0.000000 0.000000 0.000000
# 3 -0.003257 -0.003279 0.007297 0.000000 0.000000 0.000000
# 4 0.000000 0.000000 0.000000 0.051786 0.000000 0.000000
# 5 0.000000 0.000000 0.000000 0.000000 0.120776 0.000000
# 6 0.000000 0.000000 0.000000 0.000000 0.000000 0.058071
#
#
# Mechanical properties :
#
#
# Convention : Reuss Voigt Hill
#
# Bulk Modulus (GPa) = 50.70085 66.95192 58.82638
# Shear Modulus (GPa) = 17.47566 25.78692 21.63129
#
# Velocity S-wave (km/s) = 2.87822 3.49629 3.20220
# Velocity P-wave (km/s) = 5.92281 6.93084 6.44656
#
# Compressibility (1/GPa) = 0.01972354
#
# Stress axis : x y z
#
# Youngs Moduli (GPa) = 99.23437 59.03204 137.04855
#
# Poissons Ratio (x) = 0.04485 0.44634
# Poissons Ratio (y) = 0.07539 0.44933
# Poissons Ratio (z) = 0.32319 0.19354
#
# Static dielectric constant tensor:
#      x y z
#    x 1.836000 0.000000 0.000000 
#    y 0.000000 1.804200 0.000000 
#    z 0.000000 0.000000 1.774520 
# 
# From -- ./inp_files/3787.got.cif
#   From: 2010.05.17/outbox.cif.g08.bks.cpg/sg30_2_cif.got.tgz:3787.got - 2010.06.03 17:03:02.
