data_PCOD9341330
_publ_section_title
;
Structure prediction by ZEFSAII (Michael W. Deem and Ramdas Pophale) SiO2 
 PCOD9341330
Probable space group: P C A 21
;
_chemical_formula_sum "Si O2"
_cell_formula_units_Z 28
_cell_length_a 14.225973
_cell_length_b 7.985347
_cell_length_c 9.244436
_cell_angle_alpha 90.000000
_cell_angle_beta 90.000000
_cell_angle_gamma 90.000000
_cell_volume 1050.161743
_symmetry_space_group_name_H-M "P C A 21"
_symmetry_group_IT_number 29
_symmetry_cell_setting 'orthorhombic'
loop_
_space_group_symop_operation_xyz
x,y,z
-x,-y,1/2+z
1/2-x,y,1/2+z
1/2+x,-y,z
loop_
_atom_site_type_symbol
_atom_site_label
_atom_site_fract_x
_atom_site_fract_y
_atom_site_fract_z
Si Si1 0.599517 0.433131 0.773310
Si Si2 0.272993 0.397914 0.627917
Si Si3 0.478707 0.036879 0.053691
Si Si4 0.178019 0.912248 0.772349
Si Si5 0.968180 0.324470 0.956793
Si Si6 0.643437 0.263814 0.177695
Si Si7 0.815212 0.816889 0.878445
O O1 0.692795 0.536083 0.736389
O O2 0.628515 0.252315 0.836965
O O3 0.558027 0.396056 0.613278
O O4 0.531538 0.547410 0.867058
O O5 0.340480 0.555468 0.606034
O O6 0.221643 0.320951 0.490817
O O7 0.324647 0.254874 0.717819
O O8 0.400866 0.003847 0.178402
O O9 0.416576 0.123053 0.929747
O O10 0.511507 0.858473 0.990040
O O11 0.058909 0.847288 0.118467
O O12 0.236368 0.038326 0.871606
O O13 0.258531 0.834316 0.668945
O O14 0.879564 0.294112 0.849048
#
# Coordination Sequence:
#
# PCOD9341330 Si02
#       7
#     4   4   4   4   4   4   4
#     4  10  25  51  80 122 164 223 283 347 430 514
#     4  11  26  48  82 113 168 220 277 349 431 511
#     4  11  25  51  83 124 172 214 296 350 422 522
#     4  10  24  52  83 116 170 224 282 349 431 508
#     4  11  24  51  81 121 171 218 278 360 419 515
#     4  11  25  51  80 124 166 229 277 359 428 507
#     4  12  23  50  81 120 163 224 283 352 427 515
#
# _framework density 26.662559999999999
#
# number of rings (size 3 to 8) (size 9 to 14) (size 15 to 20)
#    0.000    1.143    2.857    1.714    0.000    2.286 
#   18.000    1.429    0.000    0.000    0.000    0.000 
#    0.000    0.000    0.000    0.000    0.000    0.000 
#
# Total GULP energy -157312.501194 kJ/mol
# GULP energy per Si atom -5618.303614 kJ/mol
# Density = 2.660187 g / cm^3
# Si number density = 26.662560 Si / 1000 Ang^3
#
#
#
# Elastic Constant Matrix: (Units=GPa)
#
#
# Indices 1 2 3 4 5 6 
#
# 1 153.4672 79.8954 56.1710 0.0000 0.0000 0.0000
# 2 79.8954 157.1794 51.3220 0.0000 0.0000 0.0000
# 3 56.1710 51.3220 84.0108 0.0000 0.0000 0.0000
# 4 0.0000 0.0000 0.0000 57.3989 0.0000 0.0000
# 5 0.0000 0.0000 0.0000 0.0000 51.1387 0.0000
# 6 0.0000 0.0000 0.0000 0.0000 0.0000 58.0325
#
#
#
# Elastic Compliance Matrix: (Units=1/GPa)
#
#
# Indices 1 2 3 4 5 6 
#
# 1 0.010060 -0.003644 -0.004500 0.000000 0.000000 0.000000
# 2 -0.003644 0.009268 -0.003225 0.000000 0.000000 0.000000
# 3 -0.004500 -0.003225 0.016882 0.000000 0.000000 0.000000
# 4 0.000000 0.000000 0.000000 0.017422 0.000000 0.000000
# 5 0.000000 0.000000 0.000000 0.000000 0.019555 0.000000
# 6 0.000000 0.000000 0.000000 0.000000 0.000000 0.017232
#
#
# Mechanical properties :
#
#
# Convention : Reuss Voigt Hill
#
# Bulk Modulus (GPa) = 74.23183 85.49269 79.86226
# Shear Modulus (GPa) = 42.49964 47.13196 44.81580
#
# Velocity S-wave (km/s) = 3.99680 4.20899 4.10427
# Velocity P-wave (km/s) = 7.01434 7.46693 7.24417
#
# Compressibility (1/GPa) = 0.01347131
#
# Stress axis : x y z
#
# Youngs Moduli (GPa) = 99.39879 107.90276 59.23394
#
# Poissons Ratio (x) = 0.39324 0.26657
# Poissons Ratio (y) = 0.36225 0.19102
# Poissons Ratio (z) = 0.44732 0.34797
#
# Static dielectric constant tensor:
#      x y z
#    x 2.037030 0.000000 0.000000 
#    y 0.000000 2.080890 0.000000 
#    z 0.000000 0.000000 2.093060 
# 
# From -- ./inp_files/2237.got.cif
#   From: 2010.05.17/outbox.cif.g08.bks.cpg/sg29_2_cif.got.tgz:2237.got - 2010.06.04 01:19:37.
