data_PCOD9341694
_publ_section_title
;
Structure prediction by ZEFSAII (Michael W. Deem and Ramdas Pophale) SiO2 
 PCOD9341694
Probable space group: P C A 21
;
_chemical_formula_sum "Si O2"
_cell_formula_units_Z 20
_cell_length_a 14.436308
_cell_length_b 8.257057
_cell_length_c 7.263915
_cell_angle_alpha 90.000000
_cell_angle_beta 90.000000
_cell_angle_gamma 90.000000
_cell_volume 865.868968
_symmetry_space_group_name_H-M "P C A 21"
_symmetry_group_IT_number 29
_symmetry_cell_setting 'orthorhombic'
loop_
_space_group_symop_operation_xyz
x,y,z
-x,-y,1/2+z
1/2-x,y,1/2+z
1/2+x,-y,z
loop_
_atom_site_type_symbol
_atom_site_label
_atom_site_fract_x
_atom_site_fract_y
_atom_site_fract_z
Si Si1 0.870362 0.041034 0.509530
Si Si2 0.462978 0.826700 0.039569
Si Si3 0.927048 0.359395 0.681155
Si Si4 0.071851 0.333112 0.376028
Si Si5 0.319727 0.057845 0.098370
O O1 0.864543 0.226884 0.574201
O O2 0.974959 0.988640 0.548130
O O3 0.790770 0.940517 0.611855
O O4 0.855154 0.978142 0.303270
O O5 0.499905 0.741867 0.225088
O O6 0.357987 0.889713 0.011415
O O7 0.477538 0.726077 0.854627
O O8 0.879930 0.519539 0.765762
O O9 0.006770 0.403974 0.536378
O O10 0.138769 0.206007 0.480592
#
# Coordination Sequence:
#
# PCOD9341694 Si02
#       5
#     4   4   4   4   4
#     4  12  24  44  71 106 144 194 257 304 356 446
#     4  12  22  44  74 100 140 192 254 292 364 444
#     4  12  24  44  72 106 147 193 239 310 377 431
#     4  12  24  44  72 106 147 193 239 310 377 431
#     4  12  24  44  71 106 144 194 257 304 356 446
#
# _framework density 23.098185000000001
#
# number of rings (size 3 to 8) (size 9 to 14) (size 15 to 20)
#    0.000    0.000    8.000    3.600    0.000    0.000 
#    0.000   10.000    0.000    0.000    0.000    0.000 
#    0.000    0.000    0.000    0.000    0.000    0.000 
#
# Total GULP energy -111470.487575 kJ/mol
# GULP energy per Si atom -5573.524379 kJ/mol
# Density = 2.304561 g / cm^3
# Si number density = 23.098185 Si / 1000 Ang^3
#
#
#
# Elastic Constant Matrix: (Units=GPa)
#
#
# Indices 1 2 3 4 5 6 
#
# 1 57.3570 16.5247 11.7884 0.0000 0.0000 0.0000
# 2 16.5247 120.2744 60.1987 0.0000 0.0000 0.0000
# 3 11.7884 60.1987 147.7109 0.0000 0.0000 0.0000
# 4 0.0000 0.0000 0.0000 55.4772 0.0000 0.0000
# 5 0.0000 0.0000 0.0000 0.0000 24.1357 0.0000
# 6 0.0000 0.0000 0.0000 0.0000 0.0000 15.9637
#
#
#
# Elastic Compliance Matrix: (Units=1/GPa)
#
#
# Indices 1 2 3 4 5 6 
#
# 1 0.018188 -0.002227 -0.000544 0.000000 0.000000 0.000000
# 2 -0.002227 0.010717 -0.004190 0.000000 0.000000 0.000000
# 3 -0.000544 -0.004190 0.008521 0.000000 0.000000 0.000000
# 4 0.000000 0.000000 0.000000 0.018025 0.000000 0.000000
# 5 0.000000 0.000000 0.000000 0.000000 0.041432 0.000000
# 6 0.000000 0.000000 0.000000 0.000000 0.000000 0.062642
#
#
# Mechanical properties :
#
#
# Convention : Reuss Voigt Hill
#
# Bulk Modulus (GPa) = 42.54434 55.81843 49.18139
# Shear Modulus (GPa) = 27.58118 34.90402 31.24260
#
# Velocity S-wave (km/s) = 3.45930 3.89152 3.68176
# Velocity P-wave (km/s) = 5.86639 6.66409 6.27793
#
# Compressibility (1/GPa) = 0.02350489
#
# Stress axis : x y z
#
# Youngs Moduli (GPa) = 54.98143 93.30587 117.35616
#
# Poissons Ratio (x) = 0.20775 0.06386
# Poissons Ratio (y) = 0.12242 0.49174
# Poissons Ratio (z) = 0.02992 0.39096
#
# Static dielectric constant tensor:
#      x y z
#    x 1.898590 0.000000 0.000000 
#    y 0.000000 1.934330 0.000000 
#    z 0.000000 0.000000 1.976590 
# 
# From -- ./inp_files/1654.got.cif
#   From: 2010.05.17/outbox.cif.g08.bks.cpg/sg29_1_cif.got.tgz:1654.got - 2010.06.04 01:19:37.
