data_PCOD9341264
_publ_section_title
;
Structure prediction by ZEFSAII (Michael W. Deem and Ramdas Pophale) SiO2 
 PCOD9341264
Probable space group: P C A 21
;
_chemical_formula_sum "Si O2"
_cell_formula_units_Z 28
_cell_length_a 9.329088
_cell_length_b 14.142171
_cell_length_c 9.109824
_cell_angle_alpha 90.000000
_cell_angle_beta 90.000000
_cell_angle_gamma 90.000000
_cell_volume 1201.891491
_symmetry_space_group_name_H-M "P C A 21"
_symmetry_group_IT_number 29
_symmetry_cell_setting 'orthorhombic'
loop_
_space_group_symop_operation_xyz
x,y,z
-x,-y,1/2+z
1/2-x,y,1/2+z
1/2+x,-y,z
loop_
_atom_site_type_symbol
_atom_site_label
_atom_site_fract_x
_atom_site_fract_y
_atom_site_fract_z
Si Si1 0.034929 0.628460 0.369350
Si Si2 0.270349 0.496067 0.462327
Si Si3 0.851614 0.815574 0.949577
Si Si4 0.101506 0.895292 0.788631
Si Si5 0.527439 0.628442 0.554835
Si Si6 0.402199 0.115032 0.281519
Si Si7 0.654342 0.182786 0.465920
O O1 0.153808 0.544744 0.353685
O O2 0.102318 0.708727 0.471319
O O3 0.883894 0.584916 0.418968
O O4 0.008720 0.672923 0.210985
O O5 0.382190 0.578042 0.504572
O O6 0.155503 0.448815 0.574154
O O7 0.689925 0.821696 0.894311
O O8 0.937442 0.877097 0.830903
O O9 0.910671 0.708733 0.949872
O O10 0.873426 0.857401 0.112756
O O11 0.185819 0.831520 0.907242
O O12 0.133061 0.862962 0.623975
O O13 0.136118 0.005325 0.804660
O O14 0.562762 0.129820 0.339830
#
# Coordination Sequence:
#
# PCOD9341264 Si02
#       7
#     4   4   4   4   4   4   4
#     4  11  23  45  68 103 139 179 234 281 352 414
#     4  10  24  43  70 101 134 188 224 292 340 420
#     4  12  26  45  72 102 142 183 233 292 349 420
#     4  12  26  45  70 104 137 187 234 287 352 419
#     4  11  23  45  68 102 138 179 234 281 353 413
#     4  12  24  46  70 103 141 183 233 290 351 418
#     4  12  26  45  72 101 143 183 232 293 349 420
#
# _framework density 23.296612
#
# number of rings (size 3 to 8) (size 9 to 14) (size 15 to 20)
#    0.000    0.571    1.429    6.857    2.000    0.000 
#   10.286    0.000    0.000    0.000    0.000    0.000 
#    0.000    0.000    0.000    0.000    0.000    0.000 
#
# Total GULP energy -156540.318883 kJ/mol
# GULP energy per Si atom -5590.725674 kJ/mol
# Density = 2.324359 g / cm^3
# Si number density = 23.296612 Si / 1000 Ang^3
#
#
#
# Elastic Constant Matrix: (Units=GPa)
#
#
# Indices 1 2 3 4 5 6 
#
# 1 109.7952 24.2684 -13.0373 0.0000 0.0000 0.0000
# 2 24.2684 99.8279 13.7782 0.0000 0.0000 0.0000
# 3 -13.0373 13.7782 44.2058 0.0000 0.0000 0.0000
# 4 0.0000 0.0000 0.0000 36.7564 0.0000 0.0000
# 5 0.0000 0.0000 0.0000 0.0000 29.3749 0.0000
# 6 0.0000 0.0000 0.0000 0.0000 0.0000 43.4651
#
#
#
# Elastic Compliance Matrix: (Units=1/GPa)
#
#
# Indices 1 2 3 4 5 6 
#
# 1 0.010251 -0.003040 0.003971 0.000000 0.000000 0.000000
# 2 -0.003040 0.011369 -0.004440 0.000000 0.000000 0.000000
# 3 0.003971 -0.004440 0.025176 0.000000 0.000000 0.000000
# 4 0.000000 0.000000 0.000000 0.027206 0.000000 0.000000
# 5 0.000000 0.000000 0.000000 0.000000 0.034043 0.000000
# 6 0.000000 0.000000 0.000000 0.000000 0.000000 0.023007
#
#
# Mechanical properties :
#
#
# Convention : Reuss Voigt Hill
#
# Bulk Modulus (GPa) = 25.13944 33.76082 29.45013
# Shear Modulus (GPa) = 33.04014 37.17392 35.10703
#
# Velocity S-wave (km/s) = 3.77004 3.99893 3.88617
# Velocity P-wave (km/s) = 5.45576 5.98708 5.72758
#
# Compressibility (1/GPa) = 0.03977814
#
# Stress axis : x y z
#
# Youngs Moduli (GPa) = 97.54790 87.95735 39.71959
#
# Poissons Ratio (x) = 0.26741 -0.15772
# Poissons Ratio (y) = 0.29656 0.17636
# Poissons Ratio (z) = -0.38736 0.39055
#
# Static dielectric constant tensor:
#      x y z
#    x 1.813530 0.000000 0.000000 
#    y 0.000000 1.895730 0.000000 
#    z 0.000000 0.000000 1.837170 
# 
# From -- ./inp_files/1189.got.cif
#   From: 2010.05.17/outbox.cif.g08.bks.cpg/sg29_1_cif.got.tgz:1189.got - 2010.06.04 01:19:37.
