data_PCOD9341789
_publ_section_title
;
Structure prediction by ZEFSAII (Michael W. Deem and Ramdas Pophale) SiO2 
 PCOD9341789
Probable space group: P C A 21
;
_chemical_formula_sum "Si O2"
_cell_formula_units_Z 24
_cell_length_a 12.000000
_cell_length_b 6.000000
_cell_length_c 15.000000
_cell_angle_alpha 90.000000
_cell_angle_beta 90.000000
_cell_angle_gamma 90.000000
_cell_volume 1080.000000
_symmetry_space_group_name_H-M "P C A 21"
_symmetry_group_IT_number 29
_symmetry_cell_setting 'orthorhombic'
loop_
_space_group_symop_operation_xyz
x,y,z
-x,-y,1/2+z
1/2-x,y,1/2+z
1/2+x,-y,z
loop_
_atom_site_type_symbol
_atom_site_label
_atom_site_fract_x
_atom_site_fract_y
_atom_site_fract_z
Si Si1 0.911466 0.953437 0.412050
Si Si2 0.059259 0.137891 0.574638
Si Si3 0.766324 0.601126 0.497059
Si Si4 0.756272 0.293829 0.332664
Si Si5 0.969053 0.176214 0.239222
Si Si6 0.886262 0.443896 0.671405
O O1 0.875156 0.718509 0.453091
O O2 0.793086 0.065726 0.382165
O O3 0.979817 0.995078 0.320092
O O4 0.977970 0.071187 0.492534
O O5 0.173754 0.226980 0.532858
O O6 0.995901 0.328499 0.631023
O O7 0.072905 0.941394 0.648164
O O8 0.722471 0.452786 0.414566
O O9 0.805583 0.472039 0.585979
O O10 0.875427 0.341054 0.282417
O O11 0.670248 0.305675 0.251446
O O12 0.077494 0.317397 0.212812
#
# Coordination Sequence:
#
# PCOD9341789 Si02
#       6
#     4   4   4   4   4   4
#     4  10  25  47  67 107 144 183 238 294 361 427
#     4  12  26  46  75 107 143 191 241 299 363 431
#     4  12  26  46  72 103 148 190 237 297 366 428
#     4  10  26  46  68 105 143 188 242 291 361 426
#     4  10  25  44  70 109 141 183 246 293 363 428
#     4  12  24  45  76 101 147 187 244 300 354 434
#
# _framework density 22.222221999999999
#
# number of rings (size 3 to 8) (size 9 to 14) (size 15 to 20)
#    1.000    0.000    3.333    2.000    7.000    4.000 
#    0.000    0.000    0.000    0.000    0.000    0.000 
#    0.000    0.000    0.000    0.000    0.000    0.000 
#
# Total GULP energy -133917.316790 kJ/mol
# GULP energy per Si atom -5579.888200 kJ/mol
# Density = 2.217164 g / cm^3
# Si number density = 22.222222 Si / 1000 Ang^3
#
#
#
# Elastic Constant Matrix: (Units=GPa)
#
#
# Indices 1 2 3 4 5 6 
#
# 1 45.9446 8.2076 38.4768 0.0000 0.0000 0.0000
# 2 8.2076 28.4721 33.3028 0.0000 0.0000 0.0000
# 3 38.4768 33.3028 197.7630 0.0000 0.0000 0.0000
# 4 0.0000 0.0000 0.0000 47.2875 0.0000 0.0000
# 5 0.0000 0.0000 0.0000 0.0000 44.4575 0.0000
# 6 0.0000 0.0000 0.0000 0.0000 0.0000 32.1508
#
#
#
# Elastic Compliance Matrix: (Units=1/GPa)
#
#
# Indices 1 2 3 4 5 6 
#
# 1 0.026091 -0.001972 -0.004744 0.000000 0.000000 0.000000
# 2 -0.001972 0.043886 -0.007007 0.000000 0.000000 0.000000
# 3 -0.004744 -0.007007 0.007159 0.000000 0.000000 0.000000
# 4 0.000000 0.000000 0.000000 0.021147 0.000000 0.000000
# 5 0.000000 0.000000 0.000000 0.000000 0.022493 0.000000
# 6 0.000000 0.000000 0.000000 0.000000 0.000000 0.031103
#
#
# Mechanical properties :
#
#
# Convention : Reuss Voigt Hill
#
# Bulk Modulus (GPa) = 20.12458 48.01712 34.07085
# Shear Modulus (GPa) = 25.52466 37.59202 31.55834
#
# Velocity S-wave (km/s) = 3.39279 4.11742 3.77254
# Velocity P-wave (km/s) = 4.94204 6.65273 5.86014
#
# Compressibility (1/GPa) = 0.04969049
#
# Stress axis : x y z
#
# Youngs Moduli (GPa) = 38.32796 22.78636 139.67521
#
# Poissons Ratio (x) = 0.04494 0.66263
# Poissons Ratio (y) = 0.07558 0.97865
# Poissons Ratio (z) = 0.18183 0.15965
#
# Static dielectric constant tensor:
#      x y z
#    x 1.821490 0.000000 0.000000 
#    y 0.000000 1.865960 0.000000 
#    z 0.000000 0.000000 1.755950 
# 
# From -- ./inp_files/3396.got.cif
#   From: 2010.05.17/outbox.ucp.g08.bks.cvg/sg29_2_cif.got.tgz:3396.got - 2010.06.11 15:24:14.
