data_PCOD9341752
_publ_section_title
;
Structure prediction by ZEFSAII (Michael W. Deem and Ramdas Pophale) SiO2 
 PCOD9341752
Probable space group: P C A 21
;
_chemical_formula_sum "Si O2"
_cell_formula_units_Z 20
_cell_length_a 11.719892
_cell_length_b 9.491916
_cell_length_c 6.753570
_cell_angle_alpha 90.000000
_cell_angle_beta 90.000000
_cell_angle_gamma 90.000000
_cell_volume 751.295697
_symmetry_space_group_name_H-M "P C A 21"
_symmetry_group_IT_number 29
_symmetry_cell_setting 'orthorhombic'
loop_
_space_group_symop_operation_xyz
x,y,z
-x,-y,1/2+z
1/2-x,y,1/2+z
1/2+x,-y,z
loop_
_atom_site_type_symbol
_atom_site_label
_atom_site_fract_x
_atom_site_fract_y
_atom_site_fract_z
Si Si1 0.751379 0.387486 0.611870
Si Si2 0.865198 0.858221 0.878564
Si Si3 0.066529 0.863566 0.560654
Si Si4 0.284584 0.394175 0.356588
Si Si5 0.498410 0.296291 0.195377
O O1 0.649242 0.268627 0.614525
O O2 0.762008 0.574790 0.608321
O O3 0.747002 0.429304 0.362720
O O4 0.877513 0.326371 0.618148
O O5 0.748337 0.773772 0.841468
O O6 0.956432 0.882230 0.701891
O O7 0.928516 0.737792 0.002488
O O8 0.858571 0.997021 0.015197
O O9 0.013389 0.828582 0.348403
O O10 0.422422 0.407687 0.317904
#
# Coordination Sequence:
#
# PCOD9341752 Si02
#       5
#     4   4   4   4   4
#     4  12  27  48  78 112 154 208 262 330 392 476
#     4  12  28  51  80 115 158 208 265 327 402 480
#     4  12  28  51  80 115 158 208 265 327 402 480
#     4  12  27  48  78 112 154 208 262 330 392 476
#     4  12  28  50  76 114 162 204 264 326 400 470
#
# _framework density 26.620674999999999
#
# number of rings (size 3 to 8) (size 9 to 14) (size 15 to 20)
#    0.000    0.000    6.000    2.400    8.400    3.200 
#    0.000    0.000    0.000    0.000    0.000    0.000 
#    0.000    0.000    0.000    0.000    0.000    0.000 
#
# Total GULP energy -111511.727356 kJ/mol
# GULP energy per Si atom -5575.586368 kJ/mol
# Density = 2.656009 g / cm^3
# Si number density = 26.620675 Si / 1000 Ang^3
#
#
#
# Elastic Constant Matrix: (Units=GPa)
#
#
# Indices 1 2 3 4 5 6 
#
# 1 94.1983 23.7340 18.2787 0.0000 0.0000 0.0000
# 2 23.7340 126.0097 41.4656 0.0000 0.0000 0.0000
# 3 18.2787 41.4656 156.3571 0.0000 0.0000 0.0000
# 4 0.0000 0.0000 0.0000 46.4470 0.0000 0.0000
# 5 0.0000 0.0000 0.0000 0.0000 50.4578 0.0000
# 6 0.0000 0.0000 0.0000 0.0000 0.0000 38.7426
#
#
#
# Elastic Compliance Matrix: (Units=1/GPa)
#
#
# Indices 1 2 3 4 5 6 
#
# 1 0.011241 -0.001846 -0.000825 0.000000 0.000000 0.000000
# 2 -0.001846 0.008998 -0.002170 0.000000 0.000000 0.000000
# 3 -0.000825 -0.002170 0.007068 0.000000 0.000000 0.000000
# 4 0.000000 0.000000 0.000000 0.021530 0.000000 0.000000
# 5 0.000000 0.000000 0.000000 0.000000 0.019819 0.000000
# 6 0.000000 0.000000 0.000000 0.000000 0.000000 0.025811
#
#
# Mechanical properties :
#
#
# Convention : Reuss Voigt Hill
#
# Bulk Modulus (GPa) = 56.73885 60.39128 58.56507
# Shear Modulus (GPa) = 45.44509 46.66859 46.05684
#
# Velocity S-wave (km/s) = 4.13623 4.19154 4.16398
# Velocity P-wave (km/s) = 6.64615 6.79415 6.72056
#
# Compressibility (1/GPa) = 0.01762461
#
# Stress axis : x y z
#
# Youngs Moduli (GPa) = 88.96006 111.13848 141.49075
#
# Poissons Ratio (x) = 0.20515 0.11667
# Poissons Ratio (y) = 0.16421 0.30709
# Poissons Ratio (z) = 0.07335 0.24122
#
# Static dielectric constant tensor:
#      x y z
#    x 2.010710 0.000000 0.000000 
#    y 0.000000 2.210970 0.000000 
#    z 0.000000 0.000000 2.241000 
# 
# From -- ./inp_files/1359.got.cif
#   From: 2010.05.17/outbox.cif.g08.bks.cpg/sg29_1_cif.got.tgz:1359.got - 2010.06.04 01:19:37.
