data_PCOD9341133
_publ_section_title
;
Structure prediction by ZEFSAII (Michael W. Deem and Ramdas Pophale) SiO2 
 PCOD9341133
Probable space group: P C A 21
;
_chemical_formula_sum "Si O2"
_cell_formula_units_Z 24
_cell_length_a 9.793835
_cell_length_b 7.377238
_cell_length_c 14.761011
_cell_angle_alpha 90.000000
_cell_angle_beta 90.000000
_cell_angle_gamma 90.000000
_cell_volume 1066.504474
_symmetry_space_group_name_H-M "P C A 21"
_symmetry_group_IT_number 29
_symmetry_cell_setting 'orthorhombic'
loop_
_space_group_symop_operation_xyz
x,y,z
-x,-y,1/2+z
1/2-x,y,1/2+z
1/2+x,-y,z
loop_
_atom_site_type_symbol
_atom_site_label
_atom_site_fract_x
_atom_site_fract_y
_atom_site_fract_z
Si Si1 0.379051 0.590200 0.943320
Si Si2 0.463654 0.076054 0.743806
Si Si3 0.536346 0.923946 0.025594
Si Si4 0.826684 0.789678 0.243388
Si Si5 0.673316 0.789678 0.526013
Si Si6 0.379054 0.590199 0.326081
O O1 0.499998 0.500001 0.884700
O O2 0.249997 0.653207 0.884701
O O3 0.442201 0.753537 0.000176
O O4 0.325547 0.420608 0.001908
O O5 0.454704 0.064191 0.634700
O O6 0.311279 0.114842 0.777961
O O7 0.557797 0.246465 0.769224
O O8 0.539051 0.895061 0.777876
O O9 0.688720 0.885156 0.991440
O O10 0.460949 0.104941 0.991525
O O11 0.827461 0.805352 0.134700
O O12 0.825548 0.579393 0.267494
#
# Coordination Sequence:
#
# PCOD9341133 Si02
#       6
#     4   4   4   4   4   4
#     4  12  25  42  61  93 129 165 204 251 313 368
#     4  10  23  43  66  91 122 164 210 255 305 366
#     4  10  23  43  66  91 122 164 210 255 305 366
#     4  10  23  43  66  92 122 163 211 255 304 365
#     4  10  23  43  66  92 122 163 211 255 304 365
#     4  12  25  42  61  93 129 165 204 251 313 368
#
# _framework density 22.503422
#
# number of rings (size 3 to 8) (size 9 to 14) (size 15 to 20)
#    0.000    1.333    3.333    1.000    4.667    2.667 
#    0.000    0.000    0.000    0.000    0.000    0.000 
#    0.000    0.000    0.000    0.000    0.000    0.000 
#
# Total GULP energy -134323.898067 kJ/mol
# GULP energy per Si atom -5596.829086 kJ/mol
# Density = 2.245220 g / cm^3
# Si number density = 22.503422 Si / 1000 Ang^3
#
#
#
# Elastic Constant Matrix: (Units=GPa)
#
#
# Indices 1 2 3 4 5 6 
#
# 1 101.6165 -7.6044 18.3428 0.0000 0.0000 0.0000
# 2 -7.6044 68.3314 -0.8246 0.0000 0.0000 0.0000
# 3 18.3428 -0.8246 24.5758 0.0000 0.0000 0.0000
# 4 0.0000 0.0000 0.0000 20.4752 0.0000 0.0000
# 5 0.0000 0.0000 0.0000 0.0000 30.0712 0.0000
# 6 0.0000 0.0000 0.0000 0.0000 0.0000 36.2063
#
#
#
# Elastic Compliance Matrix: (Units=1/GPa)
#
#
# Indices 1 2 3 4 5 6 
#
# 1 0.011466 0.001173 -0.008519 0.000000 0.000000 0.000000
# 2 0.001173 0.014761 -0.000380 0.000000 0.000000 0.000000
# 3 -0.008519 -0.000380 0.047036 0.000000 0.000000 0.000000
# 4 0.000000 0.000000 0.000000 0.048839 0.000000 0.000000
# 5 0.000000 0.000000 0.000000 0.000000 0.033254 0.000000
# 6 0.000000 0.000000 0.000000 0.000000 0.000000 0.027620
#
#
# Mechanical properties :
#
#
# Convention : Reuss Voigt Hill
#
# Bulk Modulus (GPa) = 17.29780 23.81681 20.55730
# Shear Modulus (GPa) = 22.96750 29.65788 26.31269
#
# Velocity S-wave (km/s) = 3.19818 3.63427 3.42318
# Velocity P-wave (km/s) = 4.61966 5.31198 4.97787
#
# Compressibility (1/GPa) = 0.05781082
#
# Stress axis : x y z
#
# Youngs Moduli (GPa) = 87.21073 67.74818 21.26030
#
# Poissons Ratio (x) = -0.07949 0.18112
# Poissons Ratio (y) = -0.10232 0.00809
# Poissons Ratio (z) = 0.74294 0.02577
#
# Static dielectric constant tensor:
#      x y z
#    x 1.831830 0.000000 0.000000 
#    y 0.000000 1.790850 0.000000 
#    z 0.000000 0.000000 1.869280 
# 
# From -- ./inp_files/4195.got.cif
#   From: 2010.05.17/outbox.cif.g08.bks.cpg/sg29_3_cif.got.tgz:4195.got - 2010.06.04 01:19:37.
