data_PCOD9341212
_publ_section_title
;
Structure prediction by ZEFSAII (Michael W. Deem and Ramdas Pophale) SiO2 
 PCOD9341212
Probable space group: P C A 21
;
_chemical_formula_sum "Si O2"
_cell_formula_units_Z 20
_cell_length_a 10.514038
_cell_length_b 5.340933
_cell_length_c 15.317419
_cell_angle_alpha 90.000000
_cell_angle_beta 90.000000
_cell_angle_gamma 90.000000
_cell_volume 860.146179
_symmetry_space_group_name_H-M "P C A 21"
_symmetry_group_IT_number 29
_symmetry_cell_setting 'orthorhombic'
loop_
_space_group_symop_operation_xyz
x,y,z
-x,-y,1/2+z
1/2-x,y,1/2+z
1/2+x,-y,z
loop_
_atom_site_type_symbol
_atom_site_label
_atom_site_fract_x
_atom_site_fract_y
_atom_site_fract_z
Si Si1 0.815466 0.644544 0.837510
Si Si2 0.674563 0.445374 0.991291
Si Si3 0.481997 0.930536 0.577996
Si Si4 0.395105 0.844796 0.918164
Si Si5 0.755187 0.792471 0.147322
O O1 0.902388 0.401927 0.858322
O O2 0.767656 0.661594 0.739519
O O3 0.886112 0.900097 0.863962
O O4 0.696389 0.604571 0.903518
O O5 0.545527 0.333265 0.029813
O O6 0.741846 0.595267 0.068757
O O7 0.758963 0.200105 0.966221
O O8 0.606558 0.914103 0.637402
O O9 0.508387 0.120394 0.498045
O O10 0.359526 0.012435 0.632284
#
# Coordination Sequence:
#
# PCOD9341212 Si02
#       5
#     4   4   4   4   4
#     4  10  24  51  72 112 154 204 265 318 395 464
#     4  10  24  48  76 108 160 205 258 321 399 462
#     4  12  24  49  80 112 164 209 268 322 413 468
#     4  10  23  50  74 108 152 206 253 320 389 468
#     4  12  27  48  78 120 154 214 262 339 388 490
#
# _framework density 23.251860000000001
#
# number of rings (size 3 to 8) (size 9 to 14) (size 15 to 20)
#    1.200    0.000    4.000    0.000    8.400    0.000 
#   10.800    0.000    0.000    0.000    0.000    0.000 
#    0.000    0.000    0.000    0.000    0.000    0.000 
#
# Total GULP energy -111733.154369 kJ/mol
# GULP energy per Si atom -5586.657718 kJ/mol
# Density = 2.319894 g / cm^3
# Si number density = 23.251860 Si / 1000 Ang^3
#
#
#
# Elastic Constant Matrix: (Units=GPa)
#
#
# Indices 1 2 3 4 5 6 
#
# 1 98.7689 28.9216 32.0197 0.0000 0.0000 0.0000
# 2 28.9216 133.2014 33.0259 0.0000 0.0000 0.0000
# 3 32.0197 33.0259 154.0296 0.0000 0.0000 0.0000
# 4 0.0000 0.0000 0.0000 25.7670 0.0000 0.0000
# 5 0.0000 0.0000 0.0000 0.0000 11.0021 0.0000
# 6 0.0000 0.0000 0.0000 0.0000 0.0000 31.9372
#
#
#
# Elastic Compliance Matrix: (Units=1/GPa)
#
#
# Indices 1 2 3 4 5 6 
#
# 1 0.011331 -0.001982 -0.001931 0.000000 0.000000 0.000000
# 2 -0.001982 0.008275 -0.001362 0.000000 0.000000 0.000000
# 3 -0.001931 -0.001362 0.007186 0.000000 0.000000 0.000000
# 4 0.000000 0.000000 0.000000 0.038809 0.000000 0.000000
# 5 0.000000 0.000000 0.000000 0.000000 0.090892 0.000000
# 6 0.000000 0.000000 0.000000 0.000000 0.000000 0.031311
#
#
# Mechanical properties :
#
#
# Convention : Reuss Voigt Hill
#
# Bulk Modulus (GPa) = 61.56566 63.77049 62.66807
# Shear Modulus (GPa) = 24.53772 33.21012 28.87392
#
# Velocity S-wave (km/s) = 3.25206 3.78336 3.52773
# Velocity P-wave (km/s) = 6.37467 6.82426 6.60329
#
# Compressibility (1/GPa) = 0.01624282
#
# Stress axis : x y z
#
# Youngs Moduli (GPa) = 88.25541 120.83895 139.16511
#
# Poissons Ratio (x) = 0.23945 0.26867
# Poissons Ratio (y) = 0.17488 0.18960
# Poissons Ratio (z) = 0.17038 0.16464
#
# Static dielectric constant tensor:
#      x y z
#    x 1.932340 0.000000 0.000000 
#    y 0.000000 1.933020 0.000000 
#    z 0.000000 0.000000 1.821280 
# 
# From -- ./inp_files/4430.got.cif
#   From: 2010.05.17/outbox.cif.g08.bks.cpg/sg29_3_cif.got.tgz:4430.got - 2010.06.04 01:19:37.
