data_PCOD9341659
_publ_section_title
;
Structure prediction by ZEFSAII (Michael W. Deem and Ramdas Pophale) SiO2 
 PCOD9341659
Probable space group: P C A 21
;
_chemical_formula_sum "Si O2"
_cell_formula_units_Z 20
_cell_length_a 17.198332
_cell_length_b 5.095420
_cell_length_c 9.092267
_cell_angle_alpha 90.000000
_cell_angle_beta 90.000000
_cell_angle_gamma 90.000000
_cell_volume 796.780132
_symmetry_space_group_name_H-M "P C A 21"
_symmetry_group_IT_number 29
_symmetry_cell_setting 'orthorhombic'
loop_
_space_group_symop_operation_xyz
x,y,z
-x,-y,1/2+z
1/2-x,y,1/2+z
1/2+x,-y,z
loop_
_atom_site_type_symbol
_atom_site_label
_atom_site_fract_x
_atom_site_fract_y
_atom_site_fract_z
Si Si1 0.314645 0.703633 0.885910
Si Si2 0.570016 0.542105 0.940049
Si Si3 0.710468 0.805913 0.858203
Si Si4 0.896416 0.152499 0.177459
Si Si5 0.461941 0.812071 0.708084
O O1 0.272085 0.432211 0.842516
O O2 0.373329 0.816108 0.761803
O O3 0.252764 0.932754 0.908129
O O4 0.361337 0.693271 0.039601
O O5 0.645172 0.716331 0.975222
O O6 0.601850 0.330870 0.821930
O O7 0.507670 0.705623 0.849530
O O8 0.535080 0.390516 0.075473
O O9 0.658974 0.901170 0.716610
O O10 0.985525 0.056571 0.158104
#
# Coordination Sequence:
#
# PCOD9341659 Si02
#       5
#     4   4   4   4   4
#     4  12  28  48  80 112 154 207 260 318 393 458
#     4  11  25  51  74 116 155 203 258 321 385 463
#     4  11  28  47  75 114 156 200 254 325 384 464
#     4  11  26  50  76 113 157 203 262 325 380 474
#     4  11  27  46  81 111 158 207 264 315 394 457
#
# _framework density 25.101029
#
# number of rings (size 3 to 8) (size 9 to 14) (size 15 to 20)
#    0.000    0.800    2.000    2.400   16.800    1.600 
#    0.000    0.000    0.000    0.000    0.000    0.000 
#    0.000    0.000    0.000    0.000    0.000    0.000 
#
# Total GULP energy -112005.598256 kJ/mol
# GULP energy per Si atom -5600.279913 kJ/mol
# Density = 2.504390 g / cm^3
# Si number density = 25.101029 Si / 1000 Ang^3
#
#
#
# Elastic Constant Matrix: (Units=GPa)
#
#
# Indices 1 2 3 4 5 6 
#
# 1 80.9543 18.7317 -0.0961 0.0000 0.0000 0.0000
# 2 18.7317 111.2006 10.5302 0.0000 0.0000 0.0000
# 3 -0.0961 10.5302 79.3497 0.0000 0.0000 0.0000
# 4 0.0000 0.0000 0.0000 33.7786 0.0000 0.0000
# 5 0.0000 0.0000 0.0000 0.0000 18.9543 0.0000
# 6 0.0000 0.0000 0.0000 0.0000 0.0000 6.3033
#
#
#
# Elastic Compliance Matrix: (Units=1/GPa)
#
#
# Indices 1 2 3 4 5 6 
#
# 1 0.012861 -0.002196 0.000307 0.000000 0.000000 0.000000
# 2 -0.002196 0.009482 -0.001261 0.000000 0.000000 0.000000
# 3 0.000307 -0.001261 0.012770 0.000000 0.000000 0.000000
# 4 0.000000 0.000000 0.000000 0.029605 0.000000 0.000000
# 5 0.000000 0.000000 0.000000 0.000000 0.052759 0.000000
# 6 0.000000 0.000000 0.000000 0.000000 0.000000 0.158646
#
#
# Mechanical properties :
#
#
# Convention : Reuss Voigt Hill
#
# Bulk Modulus (GPa) = 34.70525 36.64846 35.67685
# Shear Modulus (GPa) = 17.12177 27.96317 22.54247
#
# Velocity S-wave (km/s) = 2.61456 3.34132 3.00003
# Velocity P-wave (km/s) = 4.79279 5.43305 5.12293
#
# Compressibility (1/GPa) = 0.02881409
#
# Stress axis : x y z
#
# Youngs Moduli (GPa) = 77.75429 105.46296 78.30761
#
# Poissons Ratio (x) = 0.23154 -0.02404
# Poissons Ratio (y) = 0.17071 0.09874
# Poissons Ratio (z) = -0.02387 0.13299
#
# Static dielectric constant tensor:
#      x y z
#    x 2.033880 0.000000 0.000000 
#    y 0.000000 1.977990 0.000000 
#    z 0.000000 0.000000 1.945210 
# 
# From -- ./inp_files/1944.got.cif
#   From: 2010.05.17/outbox.cif.g08.bks.cpg/sg29_1_cif.got.tgz:1944.got - 2010.06.04 01:19:37.
