data_PCOD9341109
_publ_section_title
;
Structure prediction by ZEFSAII (Michael W. Deem and Ramdas Pophale) SiO2 
 PCOD9341109
Probable space group: P C A 21
;
_chemical_formula_sum "Si O2"
_cell_formula_units_Z 20
_cell_length_a 17.659164
_cell_length_b 5.089309
_cell_length_c 7.946114
_cell_angle_alpha 90.000000
_cell_angle_beta 90.000000
_cell_angle_gamma 90.000000
_cell_volume 714.140645
_symmetry_space_group_name_H-M "P C A 21"
_symmetry_group_IT_number 29
_symmetry_cell_setting 'orthorhombic'
loop_
_space_group_symop_operation_xyz
x,y,z
-x,-y,1/2+z
1/2-x,y,1/2+z
1/2+x,-y,z
loop_
_atom_site_type_symbol
_atom_site_label
_atom_site_fract_x
_atom_site_fract_y
_atom_site_fract_z
Si Si1 0.742125 0.034991 0.721150
Si Si2 0.411116 0.726125 0.336912
Si Si3 0.846518 0.760039 0.981366
Si Si4 0.621371 0.361713 0.178681
Si Si5 0.496742 0.019672 0.596615
O O1 0.668680 0.209627 0.755290
O O2 0.802961 0.208385 0.622206
O O3 0.795298 0.966807 0.878481
O O4 0.708937 0.762232 0.644561
O O5 0.404823 0.527348 0.494402
O O6 0.441926 0.984752 0.436288
O O7 0.473172 0.715638 0.187298
O O8 0.862232 0.539210 0.840712
O O9 0.926884 0.861313 0.049267
O O10 0.556952 0.148782 0.222974
#
# Coordination Sequence:
#
# PCOD9341109 Si02
#       5
#     4   4   4   4   4
#     4  11  22  42  68 100 142 189 235 303 369 441
#     4   9  20  41  67  99 139 187 241 298 368 436
#     4  11  23  40  67  99 141 182 244 295 363 435
#     4  10  23  42  66 101 139 183 242 296 369 438
#     4   9  20  41  64  99 137 187 238 302 361 442
#
# _framework density 28.005686000000001
#
# number of rings (size 3 to 8) (size 9 to 14) (size 15 to 20)
#    1.200    0.800    2.000    1.200    2.800    0.000 
#    3.600    8.000    0.000    0.000    0.000    0.000 
#    0.000    0.000    0.000    0.000    0.000    0.000 
#
# Total GULP energy -111428.462931 kJ/mol
# GULP energy per Si atom -5571.423147 kJ/mol
# Density = 2.794194 g / cm^3
# Si number density = 28.005686 Si / 1000 Ang^3
#
#
#
# Elastic Constant Matrix: (Units=GPa)
#
#
# Indices 1 2 3 4 5 6 
#
# 1 201.9105 61.9813 63.4244 0.0000 0.0000 0.0000
# 2 61.9813 79.7063 48.7534 0.0000 0.0000 0.0000
# 3 63.4244 48.7534 103.6337 0.0000 0.0000 0.0000
# 4 0.0000 0.0000 0.0000 45.1647 0.0000 0.0000
# 5 0.0000 0.0000 0.0000 0.0000 28.5549 0.0000
# 6 0.0000 0.0000 0.0000 0.0000 0.0000 10.0003
#
#
#
# Elastic Compliance Matrix: (Units=1/GPa)
#
#
# Indices 1 2 3 4 5 6 
#
# 1 0.006902 -0.003908 -0.002385 0.000000 0.000000 0.000000
# 2 -0.003908 0.019827 -0.006936 0.000000 0.000000 0.000000
# 3 -0.002385 -0.006936 0.014372 0.000000 0.000000 0.000000
# 4 0.000000 0.000000 0.000000 0.022141 0.000000 0.000000
# 5 0.000000 0.000000 0.000000 0.000000 0.035020 0.000000
# 6 0.000000 0.000000 0.000000 0.000000 0.000000 0.099997
#
#
# Mechanical properties :
#
#
# Convention : Reuss Voigt Hill
#
# Bulk Modulus (GPa) = 68.29310 81.50764 74.90037
# Shear Modulus (GPa) = 21.77708 30.81672 26.29690
#
# Velocity S-wave (km/s) = 2.79156 3.32079 3.06761
# Velocity P-wave (km/s) = 5.90159 6.62349 6.27294
#
# Compressibility (1/GPa) = 0.01464277
#
# Stress axis : x y z
#
# Youngs Moduli (GPa) = 144.89423 50.43563 69.57853
#
# Poissons Ratio (x) = 0.19709 0.16598
# Poissons Ratio (y) = 0.56621 0.48260
# Poissons Ratio (z) = 0.34564 0.34982
#
# Static dielectric constant tensor:
#      x y z
#    x 2.092930 0.000000 0.000000 
#    y 0.000000 2.197680 0.000000 
#    z 0.000000 0.000000 2.389920 
# 
# From -- ./inp_files/1984.got.cif
#   From: 2010.05.17/outbox.cif.g08.bks.cpg/sg29_1_cif.got.tgz:1984.got - 2010.06.04 01:19:37.
