data_PCOD9341393
_publ_section_title
;
Structure prediction by ZEFSAII (Michael W. Deem and Ramdas Pophale) SiO2 
 PCOD9341393
Probable space group: P C A 21
;
_chemical_formula_sum "Si O2"
_cell_formula_units_Z 32
_cell_length_a 9.737952
_cell_length_b 13.730214
_cell_length_c 8.455455
_cell_angle_alpha 90.000000
_cell_angle_beta 90.000000
_cell_angle_gamma 90.000000
_cell_volume 1130.529549
_symmetry_space_group_name_H-M "P C A 21"
_symmetry_group_IT_number 29
_symmetry_cell_setting 'orthorhombic'
loop_
_space_group_symop_operation_xyz
x,y,z
-x,-y,1/2+z
1/2-x,y,1/2+z
1/2+x,-y,z
loop_
_atom_site_type_symbol
_atom_site_label
_atom_site_fract_x
_atom_site_fract_y
_atom_site_fract_z
Si Si1 0.531135 0.144248 0.813970
Si Si2 0.399913 0.502170 0.708062
Si Si3 0.207104 0.215648 0.089633
Si Si4 0.553207 0.108393 0.185865
Si Si5 0.214860 0.723393 0.343780
Si Si6 0.846002 0.642137 0.305375
Si Si7 0.675585 0.401507 0.606840
Si Si8 0.798491 0.976260 0.183891
O O1 0.636283 0.230980 0.845764
O O2 0.341771 0.976185 0.741702
O O3 0.605914 0.074086 0.682370
O O4 0.255663 0.104140 0.052349
O O5 0.512709 0.580327 0.786353
O O6 0.526437 0.439359 0.633019
O O7 0.296245 0.422858 0.794802
O O8 0.302094 0.529706 0.555519
O O9 0.410138 0.089808 0.271550
O O10 0.329577 0.283792 0.155959
O O11 0.149062 0.283769 0.952664
O O12 0.103492 0.190714 0.235428
O O13 0.618618 0.207786 0.243667
O O14 0.534343 0.099259 0.994444
O O15 0.169859 0.700779 0.519323
O O16 0.238225 0.617818 0.268198
#
# Coordination Sequence:
#
# PCOD9341393 Si02
#       8
#     4   4   4   4   4   4   4   4
#     4  11  25  48  78 120 170 221 277 341 415 499
#     4  10  27  52  82 124 168 222 278 359 451 503
#     4  12  27  50  83 127 169 222 286 352 418 512
#     4  11  25  48  79 118 167 220 269 339 416 495
#     4  11  25  47  79 116 160 216 280 338 414 502
#     4  11  28  51  85 121 168 218 285 356 434 520
#     4  11  25  48  81 116 164 212 280 346 420 519
#     4  11  26  46  75 122 164 219 269 341 410 496
#
# _framework density 28.305320999999999
#
# number of rings (size 3 to 8) (size 9 to 14) (size 15 to 20)
#    0.000    1.000    2.500    1.500    5.250   10.000 
#    0.000    0.000    0.000    0.000    0.000    0.000 
#    0.000    0.000    0.000    0.000    0.000    0.000 
#
# Total GULP energy -178326.176968 kJ/mol
# GULP energy per Si atom -5572.693030 kJ/mol
# Density = 2.824090 g / cm^3
# Si number density = 28.305321 Si / 1000 Ang^3
#
#
#
# Elastic Constant Matrix: (Units=GPa)
#
#
# Indices 1 2 3 4 5 6 
#
# 1 257.4033 48.3733 57.2001 0.0000 0.0000 0.0000
# 2 48.3733 119.8091 72.1029 0.0000 0.0000 0.0000
# 3 57.2001 72.1029 130.8825 0.0000 0.0000 0.0000
# 4 0.0000 0.0000 0.0000 56.4288 0.0000 0.0000
# 5 0.0000 0.0000 0.0000 0.0000 0.4548 0.0000
# 6 0.0000 0.0000 0.0000 0.0000 0.0000 35.7763
#
#
#
# Elastic Compliance Matrix: (Units=1/GPa)
#
#
# Indices 1 2 3 4 5 6 
#
# 1 0.004370 -0.000920 -0.001403 0.000000 0.000000 0.000000
# 2 -0.000920 0.012680 -0.006583 0.000000 0.000000 0.000000
# 3 -0.001403 -0.006583 0.011880 0.000000 0.000000 0.000000
# 4 0.000000 0.000000 0.000000 0.017721 0.000000 0.000000
# 5 0.000000 0.000000 0.000000 0.000000 2.198905 0.000000
# 6 0.000000 0.000000 0.000000 0.000000 0.000000 0.027951
#
#
# Mechanical properties :
#
#
# Convention : Reuss Voigt Hill
#
# Bulk Modulus (GPa) = 89.94779 95.93862 92.94320
# Shear Modulus (GPa) = 2.17862 40.55990 21.36926
#
# Velocity S-wave (km/s) = 0.87827 3.78953 2.75063
# Velocity P-wave (km/s) = 5.73369 7.28801 6.55707
#
# Compressibility (1/GPa) = 0.01111756
#
# Stress axis : x y z
#
# Youngs Moduli (GPa) = 228.85474 78.86446 84.17330
#
# Poissons Ratio (x) = 0.07255 0.11808
# Poissons Ratio (y) = 0.21054 0.55414
# Poissons Ratio (z) = 0.32105 0.51919
#
# Static dielectric constant tensor:
#      x y z
#    x 4.975770 0.000000 0.000000 
#    y 0.000000 2.866000 0.000000 
#    z 0.000000 0.000000 2.471970 
# 
# From -- ./inp_files/2971.got.cif
#   From: 2010.05.17/outbox.cif.g08.bks.cpg/sg29_2_cif.got.tgz:2971.got - 2010.06.04 01:19:37.
