data_PCOD9341476
_publ_section_title
;
Structure prediction by ZEFSAII (Michael W. Deem and Ramdas Pophale) SiO2 
 PCOD9341476
Probable space group: P C A 21
;
_chemical_formula_sum "Si O2"
_cell_formula_units_Z 28
_cell_length_a 11.363918
_cell_length_b 11.478617
_cell_length_c 9.197379
_cell_angle_alpha 90.000000
_cell_angle_beta 90.000000
_cell_angle_gamma 90.000000
_cell_volume 1199.725085
_symmetry_space_group_name_H-M "P C A 21"
_symmetry_group_IT_number 29
_symmetry_cell_setting 'orthorhombic'
loop_
_space_group_symop_operation_xyz
x,y,z
-x,-y,1/2+z
1/2-x,y,1/2+z
1/2+x,-y,z
loop_
_atom_site_type_symbol
_atom_site_label
_atom_site_fract_x
_atom_site_fract_y
_atom_site_fract_z
Si Si1 0.123137 0.388084 0.598500
Si Si2 0.477729 0.764348 0.394832
Si Si3 0.343828 0.059690 0.493836
Si Si4 0.289045 0.839462 0.946820
Si Si5 0.174910 0.317746 0.912964
Si Si6 0.465177 0.996651 0.783760
Si Si7 0.048745 0.649133 0.598248
O O1 0.171001 0.323734 0.740703
O O2 0.222293 0.396460 0.475312
O O3 0.091429 0.520212 0.633981
O O4 0.017691 0.312200 0.530571
O O5 0.337513 0.789389 0.397393
O O6 0.547630 0.886197 0.381213
O O7 0.505484 0.698387 0.246104
O O8 0.302727 0.191137 0.483303
O O9 0.441002 0.038707 0.620065
O O10 0.248332 0.960518 0.524025
O O11 0.405303 0.041099 0.335951
O O12 0.354693 0.742132 0.041416
O O13 0.378526 0.890155 0.824896
O O14 0.049181 0.357531 0.973530
#
# Coordination Sequence:
#
# PCOD9341476 Si02
#       7
#     4   4   4   4   4   4   4
#     4  12  30  47  78 106 151 202 256 314 375 449
#     4  11  25  48  72 111 151 193 250 311 376 455
#     4  11  25  42  73 103 150 188 246 304 383 445
#     4  11  25  42  77 110 150 193 242 311 379 454
#     4  12  27  52  76 108 148 199 254 315 382 457
#     4  11  22  45  67 108 145 190 239 305 378 447
#     4  12  26  50  75 110 151 195 261 308 383 451
#
# _framework density 23.338678999999999
#
# number of rings (size 3 to 8) (size 9 to 14) (size 15 to 20)
#    0.000    0.571    2.857    3.429   10.000    2.286 
#    0.000    0.000    0.000    0.000    0.000    0.000 
#    0.000    0.000    0.000    0.000    0.000    0.000 
#
# Total GULP energy -156590.676827 kJ/mol
# GULP energy per Si atom -5592.524172 kJ/mol
# Density = 2.328556 g / cm^3
# Si number density = 23.338679 Si / 1000 Ang^3
#
#
#
# Elastic Constant Matrix: (Units=GPa)
#
#
# Indices 1 2 3 4 5 6 
#
# 1 76.9468 11.7806 16.2649 0.0000 0.0000 0.0000
# 2 11.7806 116.3708 28.6785 0.0000 0.0000 0.0000
# 3 16.2649 28.6785 92.4202 0.0000 0.0000 0.0000
# 4 0.0000 0.0000 0.0000 33.5505 0.0000 0.0000
# 5 0.0000 0.0000 0.0000 0.0000 27.2092 0.0000
# 6 0.0000 0.0000 0.0000 0.0000 0.0000 26.9975
#
#
#
# Elastic Compliance Matrix: (Units=1/GPa)
#
#
# Indices 1 2 3 4 5 6 
#
# 1 0.013575 -0.000851 -0.002125 0.000000 0.000000 0.000000
# 2 -0.000851 0.009358 -0.002754 0.000000 0.000000 0.000000
# 3 -0.002125 -0.002754 0.012049 0.000000 0.000000 0.000000
# 4 0.000000 0.000000 0.000000 0.029806 0.000000 0.000000
# 5 0.000000 0.000000 0.000000 0.000000 0.036752 0.000000
# 6 0.000000 0.000000 0.000000 0.000000 0.000000 0.037041
#
#
# Mechanical properties :
#
#
# Convention : Reuss Voigt Hill
#
# Bulk Modulus (GPa) = 42.51258 44.35399 43.43329
# Shear Modulus (GPa) = 31.66930 32.81901 32.24416
#
# Velocity S-wave (km/s) = 3.68767 3.75401 3.72099
# Velocity P-wave (km/s) = 6.03216 6.15109 6.09191
#
# Compressibility (1/GPa) = 0.02352245
#
# Stress axis : x y z
#
# Youngs Moduli (GPa) = 73.66249 106.85973 82.99590
#
# Poissons Ratio (x) = 0.09089 0.17638
# Poissons Ratio (y) = 0.06265 0.22858
# Poissons Ratio (z) = 0.15655 0.29431
#
# Static dielectric constant tensor:
#      x y z
#    x 1.913590 0.000000 0.000000 
#    y 0.000000 1.881960 0.000000 
#    z 0.000000 0.000000 1.853030 
# 
# From -- ./inp_files/1484.got.cif
#   From: 2010.05.17/outbox.cif.g08.bks.cpg/sg29_1_cif.got.tgz:1484.got - 2010.06.04 01:19:37.
