data_PCOD9341406
_publ_section_title
;
Structure prediction by ZEFSAII (Michael W. Deem and Ramdas Pophale) SiO2 
 PCOD9341406
Probable space group: P C A 21
;
_chemical_formula_sum "Si O2"
_cell_formula_units_Z 32
_cell_length_a 14.782742
_cell_length_b 8.836324
_cell_length_c 11.438301
_cell_angle_alpha 90.000000
_cell_angle_beta 90.000000
_cell_angle_gamma 90.000000
_cell_volume 1494.129188
_symmetry_space_group_name_H-M "P C A 21"
_symmetry_group_IT_number 29
_symmetry_cell_setting 'orthorhombic'
loop_
_space_group_symop_operation_xyz
x,y,z
-x,-y,1/2+z
1/2-x,y,1/2+z
1/2+x,-y,z
loop_
_atom_site_type_symbol
_atom_site_label
_atom_site_fract_x
_atom_site_fract_y
_atom_site_fract_z
Si Si1 0.374170 0.296796 0.191370
Si Si2 0.129060 0.785713 0.486792
Si Si3 0.682325 0.620778 0.200957
Si Si4 0.094071 0.602368 0.835676
Si Si5 0.096190 0.439824 0.450822
Si Si6 0.939914 0.138453 0.735741
Si Si7 0.486921 0.186980 0.664765
Si Si8 0.309156 0.694004 0.562704
O O1 0.267300 0.265170 0.200953
O O2 0.382353 0.457373 0.258498
O O3 0.455479 0.195142 0.241510
O O4 0.390686 0.320904 0.053756
O O5 0.118000 0.605069 0.498074
O O6 0.117748 0.821604 0.350782
O O7 0.224150 0.807871 0.551946
O O8 0.044381 0.859665 0.552172
O O9 0.654369 0.590370 0.334926
O O10 0.592751 0.692355 0.142114
O O11 0.704982 0.463058 0.134663
O O12 0.007147 0.559072 0.912048
O O13 0.059051 0.735940 0.752139
O O14 0.169072 0.650562 0.928552
O O15 0.891771 0.223044 0.627589
O O16 0.942267 0.959696 0.719959
#
# Coordination Sequence:
#
# PCOD9341406 Si02
#       8
#     4   4   4   4   4   4   4   4
#     4  12  23  42  70  98 130 175 229 283 338 396
#     4  12  24  43  73  98 134 175 230 282 335 400
#     4  11  24  41  68 102 133 174 228 291 336 399
#     4  11  22  40  68  98 129 172 220 292 332 393
#     4  11  20  40  67 102 131 166 223 287 341 384
#     4  12  28  45  66 100 140 187 224 270 343 419
#     4  11  27  45  64  97 143 179 224 267 341 407
#     4  12  24  42  72 101 132 170 234 288 342 388
#
# _framework density 21.417159000000002
#
# number of rings (size 3 to 8) (size 9 to 14) (size 15 to 20)
#    0.000    0.500    6.250    2.250    3.500    1.000 
#    0.000    0.000    0.000    0.000    0.000    0.000 
#    0.000    0.000    0.000    0.000    0.000    0.000 
#
# Total GULP energy -178842.808012 kJ/mol
# GULP energy per Si atom -5588.837750 kJ/mol
# Density = 2.136841 g / cm^3
# Si number density = 21.417159 Si / 1000 Ang^3
#
#
#
# Elastic Constant Matrix: (Units=GPa)
#
#
# Indices 1 2 3 4 5 6 
#
# 1 105.6662 -3.5995 31.6996 0.0000 0.0000 0.0000
# 2 -3.5995 34.3284 11.0234 0.0000 0.0000 0.0000
# 3 31.6996 11.0234 77.3629 0.0000 0.0000 0.0000
# 4 0.0000 0.0000 0.0000 12.0364 0.0000 0.0000
# 5 0.0000 0.0000 0.0000 0.0000 33.6177 0.0000
# 6 0.0000 0.0000 0.0000 0.0000 0.0000 8.0471
#
#
#
# Elastic Compliance Matrix: (Units=1/GPa)
#
#
# Indices 1 2 3 4 5 6 
#
# 1 0.011029 0.002733 -0.004909 0.000000 0.000000 0.000000
# 2 0.002733 0.031204 -0.005566 0.000000 0.000000 0.000000
# 3 -0.004909 -0.005566 0.015731 0.000000 0.000000 0.000000
# 4 0.000000 0.000000 0.000000 0.083082 0.000000 0.000000
# 5 0.000000 0.000000 0.000000 0.000000 0.029746 0.000000
# 6 0.000000 0.000000 0.000000 0.000000 0.000000 0.124268
#
#
# Mechanical properties :
#
#
# Convention : Reuss Voigt Hill
#
# Bulk Modulus (GPa) = 23.54032 32.84495 28.19263
# Shear Modulus (GPa) = 15.39863 22.62250 19.01056
#
# Velocity S-wave (km/s) = 2.68430 3.25357 2.98255
# Velocity P-wave (km/s) = 4.54120 5.42986 5.00529
#
# Compressibility (1/GPa) = 0.04248031
#
# Stress axis : x y z
#
# Youngs Moduli (GPa) = 90.66623 32.04682 63.57055
#
# Poissons Ratio (x) = -0.08758 0.31205
# Poissons Ratio (y) = -0.24777 0.35384
# Poissons Ratio (z) = 0.44506 0.17837
#
# Static dielectric constant tensor:
#      x y z
#    x 1.862280 0.000000 0.000000 
#    y 0.000000 1.729600 0.000000 
#    z 0.000000 0.000000 1.792020 
# 
# From -- ./inp_files/3485.got.cif
#   From: 2010.05.17/outbox.cif.g08.bks.cpg/sg29_2_cif.got.tgz:3485.got - 2010.06.04 01:19:37.
