data_PCOD9341628
_publ_section_title
;
Structure prediction by ZEFSAII (Michael W. Deem and Ramdas Pophale) SiO2 
 PCOD9341628
Probable space group: P C A 21
;
_chemical_formula_sum "Si O2"
_cell_formula_units_Z 32
_cell_length_a 8.644742
_cell_length_b 16.453197
_cell_length_c 8.805549
_cell_angle_alpha 90.000000
_cell_angle_beta 90.000000
_cell_angle_gamma 90.000000
_cell_volume 1252.445314
_symmetry_space_group_name_H-M "P C A 21"
_symmetry_group_IT_number 29
_symmetry_cell_setting 'orthorhombic'
loop_
_space_group_symop_operation_xyz
x,y,z
-x,-y,1/2+z
1/2-x,y,1/2+z
1/2+x,-y,z
loop_
_atom_site_type_symbol
_atom_site_label
_atom_site_fract_x
_atom_site_fract_y
_atom_site_fract_z
Si Si1 0.407562 0.822224 0.608120
Si Si2 0.443050 0.441959 0.972818
Si Si3 0.572748 0.968537 0.715545
Si Si4 0.414075 0.270352 0.882783
Si Si5 0.611968 0.910694 0.056707
Si Si6 0.652610 0.308075 0.617625
Si Si7 0.288132 0.526888 0.257613
Si Si8 0.433615 0.256975 0.394664
O O1 0.423907 0.915806 0.656386
O O2 0.528549 0.808301 0.471829
O O3 0.254728 0.770116 0.569683
O O4 0.467285 0.778293 0.759161
O O5 0.426607 0.346225 0.996393
O O6 0.612794 0.459896 0.910931
O O7 0.344974 0.469869 0.824023
O O8 0.385755 0.484417 0.124499
O O9 0.594108 0.956077 0.894495
O O10 0.725931 0.932297 0.636625
O O11 0.527666 0.058530 0.663539
O O12 0.537558 0.286521 0.753517
O O13 0.237250 0.273085 0.832676
O O14 0.595916 0.815902 0.016020
O O15 0.747142 0.384596 0.684045
O O16 0.534248 0.326153 0.478288
#
# Coordination Sequence:
#
# PCOD9341628 Si02
#       8
#     4   4   4   4   4   4   4   4
#     4  11  25  45  71 105 142 183 235 293 359 424
#     4  11  27  43  69 101 137 188 236 299 362 428
#     4  11  25  47  73 107 146 191 235 300 351 429
#     4  11  25  44  72 100 137 190 235 293 357 429
#     4  11  25  46  72 106 143 190 237 292 357 426
#     4  11  27  43  71 102 140 189 234 301 359 429
#     4  11  27  45  68 101 140 186 242 297 362 430
#     4  11  25  45  72 102 141 185 238 295 351 431
#
# _framework density 25.550018999999999
#
# number of rings (size 3 to 8) (size 9 to 14) (size 15 to 20)
#    0.000    1.000    1.250    3.000   17.500    1.000 
#    0.000    0.000    0.000    0.000    0.000    0.000 
#    0.000    0.000    0.000    0.000    0.000    0.000 
#
# Total GULP energy -179115.295920 kJ/mol
# GULP energy per Si atom -5597.352998 kJ/mol
# Density = 2.549187 g / cm^3
# Si number density = 25.550019 Si / 1000 Ang^3
#
#
#
# Elastic Constant Matrix: (Units=GPa)
#
#
# Indices 1 2 3 4 5 6 
#
# 1 92.0148 0.9312 15.4106 0.0000 0.0000 0.0000
# 2 0.9312 50.4080 18.6387 0.0000 0.0000 0.0000
# 3 15.4106 18.6387 104.5894 0.0000 0.0000 0.0000
# 4 0.0000 0.0000 0.0000 42.1621 0.0000 0.0000
# 5 0.0000 0.0000 0.0000 0.0000 39.8495 0.0000
# 6 0.0000 0.0000 0.0000 0.0000 0.0000 22.3128
#
#
#
# Elastic Compliance Matrix: (Units=1/GPa)
#
#
# Indices 1 2 3 4 5 6 
#
# 1 0.011151 0.000430 -0.001720 0.000000 0.000000 0.000000
# 2 0.000430 0.021254 -0.003851 0.000000 0.000000 0.000000
# 3 -0.001720 -0.003851 0.010501 0.000000 0.000000 0.000000
# 4 0.000000 0.000000 0.000000 0.023718 0.000000 0.000000
# 5 0.000000 0.000000 0.000000 0.000000 0.025094 0.000000
# 6 0.000000 0.000000 0.000000 0.000000 0.000000 0.044817
#
#
# Mechanical properties :
#
#
# Convention : Reuss Voigt Hill
#
# Bulk Modulus (GPa) = 30.65155 35.21924 32.93539
# Shear Modulus (GPa) = 31.70726 35.00036 33.35381
#
# Velocity S-wave (km/s) = 3.52659 3.70520 3.61700
# Velocity P-wave (km/s) = 5.34838 5.66736 5.51018
#
# Compressibility (1/GPa) = 0.03262478
#
# Stress axis : x y z
#
# Youngs Moduli (GPa) = 89.67417 47.04977 95.23031
#
# Poissons Ratio (x) = -0.02023 0.16377
# Poissons Ratio (y) = -0.03855 0.36673
# Poissons Ratio (z) = 0.15421 0.18119
#
# Static dielectric constant tensor:
#      x y z
#    x 2.144130 0.000000 0.000000 
#    y 0.000000 2.049140 0.000000 
#    z 0.000000 0.000000 1.935990 
# 
# From -- ./inp_files/1279.got.cif
#   From: 2010.05.17/outbox.cif.g08.bks.cpg/sg29_1_cif.got.tgz:1279.got - 2010.06.04 01:19:37.
