data_PCOD9341679
_publ_section_title
;
Structure prediction by ZEFSAII (Michael W. Deem and Ramdas Pophale) SiO2 
 PCOD9341679
Probable space group: P C A 21
;
_chemical_formula_sum "Si O2"
_cell_formula_units_Z 20
_cell_length_a 8.442428
_cell_length_b 9.327413
_cell_length_c 10.002525
_cell_angle_alpha 90.000000
_cell_angle_beta 90.000000
_cell_angle_gamma 90.000000
_cell_volume 787.658960
_symmetry_space_group_name_H-M "P C A 21"
_symmetry_group_IT_number 29
_symmetry_cell_setting 'orthorhombic'
loop_
_space_group_symop_operation_xyz
x,y,z
-x,-y,1/2+z
1/2-x,y,1/2+z
1/2+x,-y,z
loop_
_atom_site_type_symbol
_atom_site_label
_atom_site_fract_x
_atom_site_fract_y
_atom_site_fract_z
Si Si1 0.143508 0.712149 0.744440
Si Si2 0.488948 0.580728 0.775167
Si Si3 0.428617 0.067336 0.894027
Si Si4 0.800601 0.828886 0.163811
Si Si5 0.007442 0.776261 0.489848
O O1 0.309109 0.635581 0.770912
O O2 0.013905 0.584709 0.748544
O O3 0.073916 0.835519 0.840232
O O4 0.151242 0.768053 0.593065
O O5 0.606792 0.680335 0.689101
O O6 0.532028 0.623068 0.926526
O O7 0.277252 0.112427 0.802779
O O8 0.408351 0.086978 0.054563
O O9 0.457399 0.897347 0.879057
O O10 0.642201 0.816360 0.076990
#
# Coordination Sequence:
#
# PCOD9341679 Si02
#       5
#     4   4   4   4   4
#     4  11  29  50  78 117 155 216 266 336 405 482
#     4  12  28  50  80 111 160 209 272 331 402 479
#     4  11  27  49  80 117 166 201 275 318 413 467
#     4  11  26  50  80 112 159 211 259 332 388 479
#     4  11  28  47  78 115 158 207 272 325 404 473
#
# _framework density 25.3917
#
# number of rings (size 3 to 8) (size 9 to 14) (size 15 to 20)
#    0.000    0.800    2.000    2.400   16.800    0.000 
#    0.000    0.000    0.000    0.000    0.000    0.000 
#    0.000    0.000    0.000    0.000    0.000    0.000 
#
# Total GULP energy -111822.554273 kJ/mol
# GULP energy per Si atom -5591.127714 kJ/mol
# Density = 2.533391 g / cm^3
# Si number density = 25.391700 Si / 1000 Ang^3
#
#
#
# Elastic Constant Matrix: (Units=GPa)
#
#
# Indices 1 2 3 4 5 6 
#
# 1 112.2750 33.0036 9.6197 0.0000 0.0000 0.0000
# 2 33.0036 146.5115 35.2023 0.0000 0.0000 0.0000
# 3 9.6197 35.2023 101.9784 0.0000 0.0000 0.0000
# 4 0.0000 0.0000 0.0000 34.0674 0.0000 0.0000
# 5 0.0000 0.0000 0.0000 0.0000 22.1185 0.0000
# 6 0.0000 0.0000 0.0000 0.0000 0.0000 38.1822
#
#
#
# Elastic Compliance Matrix: (Units=1/GPa)
#
#
# Indices 1 2 3 4 5 6 
#
# 1 0.009541 -0.002108 -0.000172 0.000000 0.000000 0.000000
# 2 -0.002108 0.007908 -0.002531 0.000000 0.000000 0.000000
# 3 -0.000172 -0.002531 0.010696 0.000000 0.000000 0.000000
# 4 0.000000 0.000000 0.000000 0.029354 0.000000 0.000000
# 5 0.000000 0.000000 0.000000 0.000000 0.045211 0.000000
# 6 0.000000 0.000000 0.000000 0.000000 0.000000 0.026190
#
#
# Mechanical properties :
#
#
# Convention : Reuss Voigt Hill
#
# Bulk Modulus (GPa) = 53.98760 57.37958 55.68359
# Shear Modulus (GPa) = 34.55494 37.73624 36.14559
#
# Velocity S-wave (km/s) = 3.69301 3.85926 3.77705
# Velocity P-wave (km/s) = 6.28430 6.51961 6.40304
#
# Compressibility (1/GPa) = 0.01852277
#
# Stress axis : x y z
#
# Youngs Moduli (GPa) = 104.80998 126.44841 93.49310
#
# Poissons Ratio (x) = 0.26653 0.01612
# Poissons Ratio (y) = 0.22092 0.23664
# Poissons Ratio (z) = 0.01807 0.32005
#
# Static dielectric constant tensor:
#      x y z
#    x 2.035000 0.000000 0.000000 
#    y 0.000000 1.984640 0.000000 
#    z 0.000000 0.000000 2.120520 
# 
# From -- ./inp_files/2767.got.cif
#   From: 2010.05.17/outbox.cif.g08.bks.cpg/sg29_2_cif.got.tgz:2767.got - 2010.06.04 01:19:37.
