data_PCOD9341888
_publ_section_title
;
Structure prediction by ZEFSAII (Michael W. Deem and Ramdas Pophale) SiO2 
 PCOD9341888
Probable space group: P N C 2
;
_chemical_formula_sum "Si O2"
_cell_formula_units_Z 20
_cell_length_a 20.801274
_cell_length_b 7.344231
_cell_length_c 5.540792
_cell_angle_alpha 90.000000
_cell_angle_beta 90.000000
_cell_angle_gamma 90.000000
_cell_volume 846.463255
_symmetry_space_group_name_H-M "P N C 2"
_symmetry_group_IT_number 30
_symmetry_cell_setting 'orthorhombic'
loop_
_space_group_symop_operation_xyz
x,y,z
-x,-y,z
-x,1/2+y,1/2+z
x,1/2-y,1/2+z
loop_
_atom_site_type_symbol
_atom_site_label
_atom_site_fract_x
_atom_site_fract_y
_atom_site_fract_z
Si Si1 0.241732 0.048817 0.432770
Si Si2 0.879882 0.149065 0.432769
Si Si3 0.559801 0.864391 0.932770
Si Si4 0.294154 0.464769 0.432770
Si Si5 0.021811 0.210358 0.932769
O O1 0.267516 0.255494 0.432770
O O2 0.268499 0.961421 0.678940
O O3 0.164892 0.027540 0.432769
O O4 0.268499 0.961421 0.186601
O O5 0.863587 0.250000 0.682769
O O6 0.957688 0.161653 0.432769
O O7 0.557488 0.750000 0.182770
O O8 0.500000 0.000000 0.932769
O O9 0.629035 0.962066 0.932770
O O10 0.056495 0.250000 0.682769
O O11 0.000000 0.000000 0.932769
#
# Coordination Sequence:
#
# PCOD9341888 Si02
#       5
#     4   4   4   4   4
#     4  10  18  35  63  85 116 167 201 257 311 389
#     4  10  21  37  60  90 132 155 211 262 317 368
#     4  12  23  43  66  94 133 168 221 275 329 400
#     4  10  19  37  64  82 121 162 211 248 332 377
#     4  10  21  40  70  93 135 174 217 267 325 384
#
# _framework density 23.627725000000002
#
# number of rings (size 3 to 8) (size 9 to 14) (size 15 to 20)
#    0.000    1.600    4.000    2.400    0.000    0.000 
#    0.000    6.000  105.600    0.000    0.000    0.000 
#    0.000    0.000    0.000    0.000    0.000    0.000 
#
# Total GULP energy -111706.563049 kJ/mol
# GULP energy per Si atom -5585.328152 kJ/mol
# Density = 2.357395 g / cm^3
# Si number density = 23.627725 Si / 1000 Ang^3
#
#
#
# Elastic Constant Matrix: (Units=GPa)
#
#
# Indices 1 2 3 4 5 6 
#
# 1 184.7767 46.1241 50.0627 0.0000 0.0000 0.0000
# 2 46.1241 60.1166 31.4456 0.0000 0.0000 0.0000
# 3 50.0627 31.4456 301.4465 0.0000 0.0000 0.0000
# 4 0.0000 0.0000 0.0000 13.6359 0.0000 0.0000
# 5 0.0000 0.0000 0.0000 0.0000 49.9870 0.0000
# 6 0.0000 0.0000 0.0000 0.0000 0.0000 45.2960
#
#
#
# Elastic Compliance Matrix: (Units=1/GPa)
#
#
# Indices 1 2 3 4 5 6 
#
# 1 0.006801 -0.004895 -0.000619 0.000000 0.000000 0.000000
# 2 -0.004895 0.021117 -0.001390 0.000000 0.000000 0.000000
# 3 -0.000619 -0.001390 0.003565 0.000000 0.000000 0.000000
# 4 0.000000 0.000000 0.000000 0.073336 0.000000 0.000000
# 5 0.000000 0.000000 0.000000 0.000000 0.020005 0.000000
# 6 0.000000 0.000000 0.000000 0.000000 0.000000 0.022077
#
#
# Mechanical properties :
#
#
# Convention : Reuss Voigt Hill
#
# Bulk Modulus (GPa) = 56.57292 89.06719 72.82005
# Shear Modulus (GPa) = 30.01194 49.69761 39.85477
#
# Velocity S-wave (km/s) = 3.56785 4.59122 4.11150
# Velocity P-wave (km/s) = 6.40064 8.11687 7.30930
#
# Compressibility (1/GPa) = 0.01767630
#
# Stress axis : x y z
#
# Youngs Moduli (GPa) = 147.02788 47.35578 280.49509
#
# Poissons Ratio (x) = 0.23179 0.17362
# Poissons Ratio (y) = 0.71964 0.38987
# Poissons Ratio (z) = 0.09100 0.06582
#
# Static dielectric constant tensor:
#      x y z
#    x 1.838770 0.000000 0.000000 
#    y 0.000000 1.916620 0.000000 
#    z 0.000000 0.000000 1.966360 
# 
# From -- ./inp_files/988.got.cif
#   From: 2010.05.17/outbox.cif.g08.bks.cpg/sg30_1_cif.got.tgz:988.got - 2010.06.03 17:03:02.
