data_PCOD9341960
_publ_section_title
;
Structure prediction by ZEFSAII (Michael W. Deem and Ramdas Pophale) SiO2 
 PCOD9341960
Probable space group: P N C 2
;
_chemical_formula_sum "Si O2"
_cell_formula_units_Z 24
_cell_length_a 5.089423
_cell_length_b 8.003631
_cell_length_c 28.117873
_cell_angle_alpha 90.000000
_cell_angle_beta 90.000000
_cell_angle_gamma 90.000000
_cell_volume 1145.349606
_symmetry_space_group_name_H-M "P N C 2"
_symmetry_group_IT_number 30
_symmetry_cell_setting 'orthorhombic'
loop_
_space_group_symop_operation_xyz
x,y,z
-x,-y,z
-x,1/2+y,1/2+z
x,1/2-y,1/2+z
loop_
_atom_site_type_symbol
_atom_site_label
_atom_site_fract_x
_atom_site_fract_y
_atom_site_fract_z
Si Si1 0.540190 0.199663 0.229910
Si Si2 0.382381 0.683738 0.018262
Si Si3 0.246444 0.617816 0.319160
Si Si4 0.112677 0.311709 0.570260
Si Si5 0.962045 0.798294 0.178672
Si Si6 0.246086 0.617713 0.425945
O O1 0.674117 0.248582 0.279502
O O2 0.251275 0.265323 0.216736
O O3 0.746642 0.263760 0.190398
O O4 0.500000 0.000000 0.228134
O O5 0.500000 0.500000 0.016690
O O6 0.614398 0.793954 0.042199
O O7 0.116950 0.698076 0.048562
O O8 0.303230 0.747492 0.966090
O O9 0.500000 0.500000 0.321673
O O10 0.198021 0.686174 0.372569
O O11 0.000000 0.500000 0.306953
O O12 0.141491 0.267755 0.625806
O O13 0.000000 0.500000 0.567052
O O14 0.000000 0.000000 0.182812
O O15 0.500000 0.500000 0.424310
O O16 0.000000 0.500000 0.438991
#
# Coordination Sequence:
#
# PCOD9341960 Si02
#       6
#     4   4   4   4   4   4
#     4  10  19  35  58  83 112 146 187 235 285 334
#     4  12  24  38  58  89 122 147 187 249 304 341
#     4  10  21  37  57  84 115 147 188 235 282 339
#     4  11  22  40  63  83 112 159 204 234 279 351
#     4   9  19  35  57  83 109 146 196 237 270 334
#     4  10  21  39  61  82 110 153 198 232 277 351
#
# _framework density 20.954298999999999
#
# number of rings (size 3 to 8) (size 9 to 14) (size 15 to 20)
#    0.000    1.667    0.000    5.500    0.000    3.333 
#    0.000    8.333    0.000   10.000    0.000    0.000 
#    0.000    0.000    0.000    0.000    0.000    0.000 
#
# Total GULP energy -134033.386948 kJ/mol
# GULP energy per Si atom -5584.724456 kJ/mol
# Density = 2.090661 g / cm^3
# Si number density = 20.954299 Si / 1000 Ang^3
#
#
#
# Elastic Constant Matrix: (Units=GPa)
#
#
# Indices 1 2 3 4 5 6 
#
# 1 150.1235 23.7701 44.1228 0.0000 0.0000 0.0000
# 2 23.7701 38.8660 29.2640 0.0000 0.0000 0.0000
# 3 44.1228 29.2640 124.8148 0.0000 0.0000 0.0000
# 4 0.0000 0.0000 0.0000 18.2173 0.0000 0.0000
# 5 0.0000 0.0000 0.0000 0.0000 36.7656 0.0000
# 6 0.0000 0.0000 0.0000 0.0000 0.0000 24.9250
#
#
#
# Elastic Compliance Matrix: (Units=1/GPa)
#
#
# Indices 1 2 3 4 5 6 
#
# 1 0.007758 -0.003254 -0.001980 0.000000 0.000000 0.000000
# 2 -0.003254 0.032610 -0.006495 0.000000 0.000000 0.000000
# 3 -0.001980 -0.006495 0.010235 0.000000 0.000000 0.000000
# 4 0.000000 0.000000 0.000000 0.054893 0.000000 0.000000
# 5 0.000000 0.000000 0.000000 0.000000 0.027199 0.000000
# 6 0.000000 0.000000 0.000000 0.000000 0.000000 0.040120
#
#
# Mechanical properties :
#
#
# Convention : Reuss Voigt Hill
#
# Bulk Modulus (GPa) = 36.83973 56.45755 46.64864
# Shear Modulus (GPa) = 24.35189 30.42474 27.38831
#
# Velocity S-wave (km/s) = 3.41272 3.81459 3.61924
# Velocity P-wave (km/s) = 5.75743 6.81198 6.30679
#
# Compressibility (1/GPa) = 0.02714461
#
# Stress axis : x y z
#
# Youngs Moduli (GPa) = 128.89441 30.66504 97.70806
#
# Poissons Ratio (x) = 0.09980 0.19342
# Poissons Ratio (y) = 0.41947 0.63465
# Poissons Ratio (z) = 0.25516 0.19918
#
# Static dielectric constant tensor:
#      x y z
#    x 1.730870 0.000000 0.000000 
#    y 0.000000 1.760440 0.000000 
#    z 0.000000 0.000000 1.788910 
# 
# From -- ./inp_files/7491.got.cif
#   From: 2010.05.17/outbox.cif.g08.bks.cpg/sg30_4_cif.got.tgz:7491.got - 2010.06.03 17:03:02.
