data_PCOD9341233
_publ_section_title
;
Structure prediction by ZEFSAII (Michael W. Deem and Ramdas Pophale) SiO2 
 PCOD9341233
Probable space group: P C A 21
;
_chemical_formula_sum "Si O2"
_cell_formula_units_Z 32
_cell_length_a 9.971102
_cell_length_b 10.396266
_cell_length_c 14.092827
_cell_angle_alpha 90.000000
_cell_angle_beta 90.000000
_cell_angle_gamma 90.000000
_cell_volume 1460.893856
_symmetry_space_group_name_H-M "P C A 21"
_symmetry_group_IT_number 29
_symmetry_cell_setting 'orthorhombic'
loop_
_space_group_symop_operation_xyz
x,y,z
-x,-y,1/2+z
1/2-x,y,1/2+z
1/2+x,-y,z
loop_
_atom_site_type_symbol
_atom_site_label
_atom_site_fract_x
_atom_site_fract_y
_atom_site_fract_z
Si Si1 0.309532 0.121340 0.125000
Si Si2 0.455339 0.012249 0.710205
Si Si3 0.122109 0.322012 0.408283
Si Si4 0.067265 0.496906 0.229322
Si Si5 0.676016 0.586981 0.616466
Si Si6 0.355503 0.151683 0.431914
Si Si7 0.895278 0.236219 0.838637
Si Si8 0.897330 0.142378 0.371182
O O1 0.442556 0.033015 0.127145
O O2 0.347223 0.266384 0.151679
O O3 0.194765 0.056754 0.188778
O O4 0.224982 0.141891 0.029514
O O5 0.436925 0.885958 0.774586
O O6 0.532398 0.122514 0.768822
O O7 0.069889 0.403567 0.319973
O O8 0.157241 0.405434 0.502122
O O9 0.252728 0.242364 0.374437
O O10 0.005990 0.218896 0.433330
O O11 0.180294 0.457674 0.153573
O O12 0.092259 0.635869 0.277002
O O13 0.930440 0.499564 0.170798
O O14 0.498390 0.222878 0.425135
O O15 0.370093 0.003938 0.402104
O O16 0.742467 0.216132 0.869587
#
# Coordination Sequence:
#
# PCOD9341233 Si02
#       8
#     4   4   4   4   4   4   4   4
#     4  11  24  42  68 102 146 179 235 309 367 442
#     4  11  22  41  67 102 142 184 237 296 372 440
#     4  11  26  47  70 103 147 189 245 311 369 441
#     4  12  25  46  75  94 147 198 243 311 364 429
#     4  11  27  47  70 107 138 195 252 301 372 445
#     4  10  24  41  68  97 144 182 231 306 374 432
#     4  11  23  40  65 102 131 191 249 287 360 443
#     4  11  23  40  67 101 137 186 234 295 370 442
#
# _framework density 21.904395000000001
#
# number of rings (size 3 to 8) (size 9 to 14) (size 15 to 20)
#    0.000    1.000    2.500    3.750    8.750    4.000 
#    0.000    0.000    0.000    0.000    0.000    0.000 
#    0.000    0.000    0.000    0.000    0.000    0.000 
#
# Total GULP energy -178735.171871 kJ/mol
# GULP energy per Si atom -5585.474121 kJ/mol
# Density = 2.185454 g / cm^3
# Si number density = 21.904395 Si / 1000 Ang^3
#
#
#
# Elastic Constant Matrix: (Units=GPa)
#
#
# Indices 1 2 3 4 5 6 
#
# 1 96.5134 16.7884 8.5484 0.0000 0.0000 0.0000
# 2 16.7884 62.7854 26.3397 0.0000 0.0000 0.0000
# 3 8.5484 26.3397 86.1754 0.0000 0.0000 0.0000
# 4 0.0000 0.0000 0.0000 25.4847 0.0000 0.0000
# 5 0.0000 0.0000 0.0000 0.0000 34.4477 0.0000
# 6 0.0000 0.0000 0.0000 0.0000 0.0000 37.5079
#
#
#
# Elastic Compliance Matrix: (Units=1/GPa)
#
#
# Indices 1 2 3 4 5 6 
#
# 1 0.010870 -0.002815 -0.000218 0.000000 0.000000 0.000000
# 2 -0.002815 0.018999 -0.005528 0.000000 0.000000 0.000000
# 3 -0.000218 -0.005528 0.013315 0.000000 0.000000 0.000000
# 4 0.000000 0.000000 0.000000 0.039239 0.000000 0.000000
# 5 0.000000 0.000000 0.000000 0.000000 0.029030 0.000000
# 6 0.000000 0.000000 0.000000 0.000000 0.000000 0.026661
#
#
# Mechanical properties :
#
#
# Convention : Reuss Voigt Hill
#
# Bulk Modulus (GPa) = 38.36863 38.75857 38.56360
# Shear Modulus (GPa) = 30.50192 32.40790 31.45491
#
# Velocity S-wave (km/s) = 3.73567 3.85062 3.79358
# Velocity P-wave (km/s) = 6.01344 6.12393 6.06894
#
# Compressibility (1/GPa) = 0.02606296
#
# Stress axis : x y z
#
# Youngs Moduli (GPa) = 91.99410 52.63406 75.10074
#
# Poissons Ratio (x) = 0.14818 0.01636
# Poissons Ratio (y) = 0.25899 0.41515
# Poissons Ratio (z) = 0.02004 0.29095
#
# Static dielectric constant tensor:
#      x y z
#    x 1.816600 0.000000 0.000000 
#    y 0.000000 1.812040 0.000000 
#    z 0.000000 0.000000 1.883120 
# 
# From -- ./inp_files/4346.got.cif
#   From: 2010.05.17/outbox.cif.g08.bks.cpg/sg29_3_cif.got.tgz:4346.got - 2010.06.04 01:19:37.
