data_PCOD9341207
_publ_section_title
;
Structure prediction by ZEFSAII (Michael W. Deem and Ramdas Pophale) SiO2 
 PCOD9341207
Probable space group: P C A 21
;
_chemical_formula_sum "Si O2"
_cell_formula_units_Z 20
_cell_length_a 9.250015
_cell_length_b 7.065106
_cell_length_c 13.357568
_cell_angle_alpha 90.000000
_cell_angle_beta 90.000000
_cell_angle_gamma 90.000000
_cell_volume 872.948278
_symmetry_space_group_name_H-M "P C A 21"
_symmetry_group_IT_number 29
_symmetry_cell_setting 'orthorhombic'
loop_
_space_group_symop_operation_xyz
x,y,z
-x,-y,1/2+z
1/2-x,y,1/2+z
1/2+x,-y,z
loop_
_atom_site_type_symbol
_atom_site_label
_atom_site_fract_x
_atom_site_fract_y
_atom_site_fract_z
Si Si1 0.971919 0.973835 0.599130
Si Si2 0.288301 0.555949 0.811834
Si Si3 0.070905 0.285588 0.721365
Si Si4 0.839230 0.853821 0.812109
Si Si5 0.790078 0.145187 0.974938
O O1 0.839839 0.038230 0.529933
O O2 0.062545 0.167539 0.619799
O O3 0.912513 0.900567 0.706113
O O4 0.080659 0.819576 0.553344
O O5 0.163531 0.477455 0.737653
O O6 0.407685 0.674922 0.752854
O O7 0.367203 0.361392 0.844336
O O8 0.241354 0.676751 0.907874
O O9 0.165279 0.147693 0.792712
O O10 0.866238 0.001845 0.897529
#
# Coordination Sequence:
#
# PCOD9341207 Si02
#       5
#     4   4   4   4   4
#     4  12  25  48  74 114 149 196 255 305 384 445
#     4  10  24  46  73 101 148 195 244 294 383 430
#     4  10  23  48  70 107 143 205 230 308 375 440
#     4  10  25  48  72 103 155 192 239 312 377 429
#     4  12  25  44  79 105 147 198 252 309 363 460
#
# _framework density 22.910865999999999
#
# number of rings (size 3 to 8) (size 9 to 14) (size 15 to 20)
#    1.200    0.000    4.000    1.200    2.800    1.600 
#   10.800    0.000    0.000    0.000    0.000    0.000 
#    0.000    0.000    0.000    0.000    0.000    0.000 
#
# Total GULP energy -111492.379824 kJ/mol
# GULP energy per Si atom -5574.618991 kJ/mol
# Density = 2.285872 g / cm^3
# Si number density = 22.910866 Si / 1000 Ang^3
#
#
#
# Elastic Constant Matrix: (Units=GPa)
#
#
# Indices 1 2 3 4 5 6 
#
# 1 62.7036 -31.7154 0.6525 0.0000 0.0000 0.0000
# 2 -31.7154 51.7717 11.6478 0.0000 0.0000 0.0000
# 3 0.6525 11.6478 63.5282 0.0000 0.0000 0.0000
# 4 0.0000 0.0000 0.0000 33.2372 0.0000 0.0000
# 5 0.0000 0.0000 0.0000 0.0000 38.9438 0.0000
# 6 0.0000 0.0000 0.0000 0.0000 0.0000 33.2093
#
#
#
# Elastic Compliance Matrix: (Units=1/GPa)
#
#
# Indices 1 2 3 4 5 6 
#
# 1 0.023652 0.015170 -0.003024 0.000000 0.000000 0.000000
# 2 0.015170 0.029876 -0.005634 0.000000 0.000000 0.000000
# 3 -0.003024 -0.005634 0.016805 0.000000 0.000000 0.000000
# 4 0.000000 0.000000 0.000000 0.030087 0.000000 0.000000
# 5 0.000000 0.000000 0.000000 0.000000 0.025678 0.000000
# 6 0.000000 0.000000 0.000000 0.000000 0.000000 0.030112
#
#
# Mechanical properties :
#
#
# Convention : Reuss Voigt Hill
#
# Bulk Modulus (GPa) = 11.99650 15.46370 13.73010
# Shear Modulus (GPa) = 29.24454 34.23930 31.74192
#
# Velocity S-wave (km/s) = 3.57662 3.87001 3.72620
# Velocity P-wave (km/s) = 4.72269 5.17045 4.95163
#
# Compressibility (1/GPa) = 0.08335763
#
# Stress axis : x y z
#
# Youngs Moduli (GPa) = 42.27897 33.47159 59.50610
#
# Poissons Ratio (x) = -0.50776 0.17996
# Poissons Ratio (y) = -0.64137 0.33523
# Poissons Ratio (z) = 0.12786 0.18856
#
# Static dielectric constant tensor:
#      x y z
#    x 1.918980 0.000000 0.000000 
#    y 0.000000 1.895020 0.000000 
#    z 0.000000 0.000000 1.843740 
# 
# From -- ./inp_files/2751.got.cif
#   From: 2010.05.17/outbox.cif.g08.bks.cpg/sg29_2_cif.got.tgz:2751.got - 2010.06.04 01:19:37.
