data_PCOD9341783
_publ_section_title
;
Structure prediction by ZEFSAII (Michael W. Deem and Ramdas Pophale) SiO2 
 PCOD9341783
Probable space group: P C A 21
;
_chemical_formula_sum "Si O2"
_cell_formula_units_Z 24
_cell_length_a 15.000000
_cell_length_b 6.000000
_cell_length_c 12.000000
_cell_angle_alpha 90.000000
_cell_angle_beta 90.000000
_cell_angle_gamma 90.000000
_cell_volume 1080.000000
_symmetry_space_group_name_H-M "P C A 21"
_symmetry_group_IT_number 29
_symmetry_cell_setting 'orthorhombic'
loop_
_space_group_symop_operation_xyz
x,y,z
-x,-y,1/2+z
1/2-x,y,1/2+z
1/2+x,-y,z
loop_
_atom_site_type_symbol
_atom_site_label
_atom_site_fract_x
_atom_site_fract_y
_atom_site_fract_z
Si Si1 0.189972 0.781238 0.022010
Si Si2 0.847649 0.986017 0.743915
Si Si3 0.046548 0.862570 0.685909
Si Si4 0.376804 0.690304 0.953716
Si Si5 0.548554 0.449900 0.897402
Si Si6 0.173485 0.153372 0.830854
O O1 0.198139 0.864779 0.147703
O O2 0.275524 0.631308 0.988489
O O3 0.092836 0.677877 0.000924
O O4 0.191606 0.977456 0.930107
O O5 0.872273 0.135405 0.851428
O O6 0.772146 0.806439 0.779727
O O7 0.940772 0.906403 0.691976
O O8 0.078069 0.797538 0.563264
O O9 0.060971 0.675728 0.780618
O O10 0.109538 0.058321 0.733124
O O11 0.445126 0.498858 0.917137
O O12 0.612453 0.660899 0.885617
#
# Coordination Sequence:
#
# PCOD9341783 Si02
#       6
#     4   4   4   4   4   4
#     4  10  24  45  69  97 140 175 228 289 340 411
#     4  11  23  44  74  94 139 185 221 284 348 406
#     4  11  24  44  67  99 138 176 227 287 339 409
#     4  11  24  45  68 101 135 179 229 278 342 413
#     4  11  25  43  69 101 136 178 234 284 343 406
#     4  10  22  47  65 100 132 179 227 280 346 407
#
# _framework density 22.222221999999999
#
# number of rings (size 3 to 8) (size 9 to 14) (size 15 to 20)
#    0.000    1.333    3.333    1.000    7.000    0.000 
#    6.000    0.000    0.000    0.000    0.000    0.000 
#    0.000    0.000    0.000    0.000    0.000    0.000 
#
# Total GULP energy -134042.499853 kJ/mol
# GULP energy per Si atom -5585.104161 kJ/mol
# Density = 2.217164 g / cm^3
# Si number density = 22.222222 Si / 1000 Ang^3
#
#
#
# Elastic Constant Matrix: (Units=GPa)
#
#
# Indices 1 2 3 4 5 6 
#
# 1 136.9028 10.6359 -4.0051 0.0000 0.0000 0.0000
# 2 10.6359 10.9875 -7.5868 0.0000 0.0000 0.0000
# 3 -4.0051 -7.5868 93.2912 0.0000 0.0000 0.0000
# 4 0.0000 0.0000 0.0000 10.2205 0.0000 0.0000
# 5 0.0000 0.0000 0.0000 0.0000 57.7151 0.0000
# 6 0.0000 0.0000 0.0000 0.0000 0.0000 37.2955
#
#
#
# Elastic Compliance Matrix: (Units=1/GPa)
#
#
# Indices 1 2 3 4 5 6 
#
# 1 0.007906 -0.007860 -0.000300 0.000000 0.000000 0.000000
# 2 -0.007860 0.104242 0.008140 0.000000 0.000000 0.000000
# 3 -0.000300 0.008140 0.011368 0.000000 0.000000 0.000000
# 4 0.000000 0.000000 0.000000 0.097843 0.000000 0.000000
# 5 0.000000 0.000000 0.000000 0.000000 0.017326 0.000000
# 6 0.000000 0.000000 0.000000 0.000000 0.000000 0.026813
#
#
# Mechanical properties :
#
#
# Convention : Reuss Voigt Hill
#
# Bulk Modulus (GPa) = 8.09877 26.58550 17.34213
# Shear Modulus (GPa) = 16.30272 37.18873 26.74573
#
# Velocity S-wave (km/s) = 2.71148 4.09527 3.47300
# Velocity P-wave (km/s) = 3.66814 5.86098 4.88909
#
# Compressibility (1/GPa) = 0.12347560
#
# Stress axis : x y z
#
# Youngs Moduli (GPa) = 126.48064 9.59311 87.96445
#
# Poissons Ratio (x) = 0.07541 0.02637
# Poissons Ratio (y) = 0.99418 -0.71602
# Poissons Ratio (z) = 0.03792 -0.07809
#
# Static dielectric constant tensor:
#      x y z
#    x 1.789530 0.000000 0.000000 
#    y 0.000000 1.895080 0.000000 
#    z 0.000000 0.000000 1.761160 
# 
# From -- ./inp_files/3339.got.cif
#   From: 2010.05.17/outbox.ucp.g08.bks.cvg/sg29_2_cif.got.tgz:3339.got - 2010.06.11 15:24:14.
