data_PCOD9341572
_publ_section_title
;
Structure prediction by ZEFSAII (Michael W. Deem and Ramdas Pophale) SiO2 
 PCOD9341572
Probable space group: P C A 21
;
_chemical_formula_sum "Si O2"
_cell_formula_units_Z 24
_cell_length_a 8.497427
_cell_length_b 13.777513
_cell_length_c 9.532118
_cell_angle_alpha 90.000000
_cell_angle_beta 90.000000
_cell_angle_gamma 90.000000
_cell_volume 1115.957568
_symmetry_space_group_name_H-M "P C A 21"
_symmetry_group_IT_number 29
_symmetry_cell_setting 'orthorhombic'
loop_
_space_group_symop_operation_xyz
x,y,z
-x,-y,1/2+z
1/2-x,y,1/2+z
1/2+x,-y,z
loop_
_atom_site_type_symbol
_atom_site_label
_atom_site_fract_x
_atom_site_fract_y
_atom_site_fract_z
Si Si1 0.057436 0.791662 0.368390
Si Si2 0.428778 0.076023 0.144579
Si Si3 0.568835 0.865969 0.140640
Si Si4 0.060342 0.580537 0.305902
Si Si5 0.371760 0.573470 0.483197
Si Si6 0.572451 0.210400 0.914634
O O1 0.004072 0.692096 0.294672
O O2 0.246667 0.799665 0.363107
O O3 0.978296 0.884713 0.296913
O O4 0.997409 0.791415 0.526960
O O5 0.248318 0.103007 0.116234
O O6 0.462663 0.962713 0.132892
O O7 0.539899 0.136668 0.040376
O O8 0.545279 0.818963 0.291814
O O9 0.196832 0.586237 0.423543
O O10 0.115021 0.549666 0.149078
O O11 0.941867 0.506206 0.377765
O O12 0.451540 0.678425 0.459993
#
# Coordination Sequence:
#
# PCOD9341572 Si02
#       6
#     4   4   4   4   4   4
#     4  11  24  44  69  97 136 179 229 281 346 408
#     4  12  24  46  63 102 135 178 233 280 350 404
#     4  12  26  40  71  96 137 182 225 290 338 418
#     4  11  25  45  72 102 140 181 230 285 349 416
#     4  11  25  45  72 102 140 181 230 285 349 416
#     4  11  24  44  69  97 136 179 229 281 346 408
#
# _framework density 21.506194000000001
#
# number of rings (size 3 to 8) (size 9 to 14) (size 15 to 20)
#    0.000    0.667    1.667    6.000    9.333    2.667 
#    0.000    0.000    0.000    0.000    0.000    0.000 
#    0.000    0.000    0.000    0.000    0.000    0.000 
#
# Total GULP energy -134208.994337 kJ/mol
# GULP energy per Si atom -5592.041431 kJ/mol
# Density = 2.145725 g / cm^3
# Si number density = 21.506194 Si / 1000 Ang^3
#
#
#
# Elastic Constant Matrix: (Units=GPa)
#
#
# Indices 1 2 3 4 5 6 
#
# 1 56.9183 25.5179 -7.8723 0.0000 0.0000 0.0000
# 2 25.5179 63.2745 11.5802 0.0000 0.0000 0.0000
# 3 -7.8723 11.5802 80.2485 0.0000 0.0000 0.0000
# 4 0.0000 0.0000 0.0000 35.6287 0.0000 0.0000
# 5 0.0000 0.0000 0.0000 0.0000 32.8022 0.0000
# 6 0.0000 0.0000 0.0000 0.0000 0.0000 22.0514
#
#
#
# Elastic Compliance Matrix: (Units=1/GPa)
#
#
# Indices 1 2 3 4 5 6 
#
# 1 0.022415 -0.009698 0.003598 0.000000 0.000000 0.000000
# 2 -0.009698 0.020429 -0.003899 0.000000 0.000000 0.000000
# 3 0.003598 -0.003899 0.013377 0.000000 0.000000 0.000000
# 4 0.000000 0.000000 0.000000 0.028067 0.000000 0.000000
# 5 0.000000 0.000000 0.000000 0.000000 0.030486 0.000000
# 6 0.000000 0.000000 0.000000 0.000000 0.000000 0.045349
#
#
# Mechanical properties :
#
#
# Convention : Reuss Voigt Hill
#
# Bulk Modulus (GPa) = 27.60732 28.76587 28.18659
# Shear Modulus (GPa) = 26.01532 29.51084 27.76308
#
# Velocity S-wave (km/s) = 3.48180 3.70834 3.59686
# Velocity P-wave (km/s) = 5.38783 5.63386 5.51222
#
# Compressibility (1/GPa) = 0.03622227
#
# Stress axis : x y z
#
# Youngs Moduli (GPa) = 44.61371 48.95019 74.75534
#
# Poissons Ratio (x) = 0.47472 -0.26899
# Poissons Ratio (y) = 0.43267 0.29150
# Poissons Ratio (z) = -0.16054 0.19087
#
# Static dielectric constant tensor:
#      x y z
#    x 1.745330 0.000000 0.000000 
#    y 0.000000 1.784910 0.000000 
#    z 0.000000 0.000000 1.771110 
# 
# From -- ./inp_files/1123.got.cif
#   From: 2010.05.17/outbox.cif.g08.bks.cpg/sg29_1_cif.got.tgz:1123.got - 2010.06.04 01:19:37.
