data_PCOD9341892
_publ_section_title
;
Structure prediction by ZEFSAII (Michael W. Deem and Ramdas Pophale) SiO2 
 PCOD9341892
Probable space group: P N C 2
;
_chemical_formula_sum "Si O2"
_cell_formula_units_Z 30
_cell_length_a 6.205620
_cell_length_b 18.868302
_cell_length_c 11.890374
_cell_angle_alpha 90.000000
_cell_angle_beta 90.000000
_cell_angle_gamma 90.000000
_cell_volume 1392.238092
_symmetry_space_group_name_H-M "P N C 2"
_symmetry_group_IT_number 30
_symmetry_cell_setting 'orthorhombic'
loop_
_space_group_symop_operation_xyz
x,y,z
-x,-y,z
-x,1/2+y,1/2+z
x,1/2-y,1/2+z
loop_
_atom_site_type_symbol
_atom_site_label
_atom_site_fract_x
_atom_site_fract_y
_atom_site_fract_z
Si Si1 0.092290 0.282755 0.277770
Si Si2 0.623015 0.425712 0.292907
Si Si3 0.431287 0.186133 0.961302
Si Si4 0.646777 0.856831 0.212795
Si Si5 0.000000 0.500000 0.225925
Si Si6 0.278995 0.695585 0.868083
Si Si7 0.301362 0.394734 0.113049
Si Si8 0.911821 0.579211 0.890653
O O1 0.204463 0.303645 0.396032
O O2 0.217454 0.212668 0.241802
O O3 0.157448 0.336481 0.178287
O O4 0.850637 0.257188 0.300130
O O5 0.500000 0.500000 0.316588
O O6 0.554807 0.369946 0.384624
O O7 0.533636 0.396568 0.172696
O O8 0.876550 0.440712 0.295972
O O9 0.569228 0.260010 0.955512
O O10 0.399052 0.150566 0.081644
O O11 0.427093 0.847636 0.281726
O O12 0.796314 0.917099 0.268558
O O13 0.186464 0.467358 0.151417
O O14 0.100703 0.638251 0.908235
O O15 0.271274 0.396614 0.980532
O O16 0.000000 0.500000 0.909690
#
# Coordination Sequence:
#
# PCOD9341892 Si02
#       8
#     4   4   4   4   2   4   4   4
#     4   9  21  38  65  96 127 159 215 278 333 392
#     4   9  20  38  62  96 128 162 216 269 335 387
#     4  10  21  42  65  94 130 173 215 278 338 394
#     4  10  24  41  64  92 131 173 220 270 327 400
#     4  10  18  36  58  96 124 158 206 262 324 384
#     4  10  23  40  64  98 127 170 223 273 333 402
#     4  10  20  36  64  92 127 163 206 274 323 388
#     4  11  25  45  62  96 134 182 223 269 339 418
#
# _framework density 21.548037000000001
#
# number of rings (size 3 to 8) (size 9 to 14) (size 15 to 20)
#    0.000    2.133    0.667    0.800    7.467    2.667 
#    4.800    0.000    5.867    0.000    0.000    0.000 
#    0.000    0.000    0.000    0.000    0.000    0.000 
#
# Total GULP energy -167282.968532 kJ/mol
# GULP energy per Si atom -5576.098951 kJ/mol
# Density = 2.149899 g / cm^3
# Si number density = 21.548037 Si / 1000 Ang^3
#
#
#
# Elastic Constant Matrix: (Units=GPa)
#
#
# Indices 1 2 3 4 5 6 
#
# 1 78.2200 18.7837 43.2154 0.0000 0.0000 0.0000
# 2 18.7837 82.8834 30.3459 0.0000 0.0000 0.0000
# 3 43.2154 30.3459 120.8498 0.0000 0.0000 0.0000
# 4 0.0000 0.0000 0.0000 17.2529 0.0000 0.0000
# 5 0.0000 0.0000 0.0000 0.0000 1.0200 0.0000
# 6 0.0000 0.0000 0.0000 0.0000 0.0000 35.0149
#
#
#
# Elastic Compliance Matrix: (Units=1/GPa)
#
#
# Indices 1 2 3 4 5 6 
#
# 1 0.016147 -0.001702 -0.005347 0.000000 0.000000 0.000000
# 2 -0.001702 0.013466 -0.002773 0.000000 0.000000 0.000000
# 3 -0.005347 -0.002773 0.010883 0.000000 0.000000 0.000000
# 4 0.000000 0.000000 0.000000 0.057961 0.000000 0.000000
# 5 0.000000 0.000000 0.000000 0.000000 0.980361 0.000000
# 6 0.000000 0.000000 0.000000 0.000000 0.000000 0.028559
#
#
# Mechanical properties :
#
#
# Convention : Reuss Voigt Hill
#
# Bulk Modulus (GPa) = 47.95401 51.84925 49.90163
# Shear Modulus (GPa) = 4.40928 23.29811 13.85369
#
# Velocity S-wave (km/s) = 1.43203 3.29175 2.53834
# Velocity P-wave (km/s) = 5.00370 6.20983 5.63910
#
# Compressibility (1/GPa) = 0.02085331
#
# Stress axis : x y z
#
# Youngs Moduli (GPa) = 61.93039 74.26097 91.88634
#
# Poissons Ratio (x) = 0.12638 0.49130
# Poissons Ratio (y) = 0.10539 0.25479
# Poissons Ratio (z) = 0.33113 0.20591
#
# Static dielectric constant tensor:
#      x y z
#    x 1.884640 0.000000 0.000000 
#    y 0.000000 1.888720 0.000000 
#    z 0.000000 0.000000 1.802850 
# 
# From -- ./inp_files/3235.got.cif
#   From: 2010.05.17/outbox.cif.g08.bks.cpg/sg30_2_cif.got.tgz:3235.got - 2010.06.03 17:03:02.
