data_PCOD9341837
_publ_section_title
;
Structure prediction by ZEFSAII (Michael W. Deem and Ramdas Pophale) SiO2 
 PCOD9341837
Probable space group: P N C 2
;
_chemical_formula_sum "Si O2"
_cell_formula_units_Z 32
_cell_length_a 9.385770
_cell_length_b 11.141672
_cell_length_c 13.792189
_cell_angle_alpha 90.000000
_cell_angle_beta 90.000000
_cell_angle_gamma 90.000000
_cell_volume 1442.292936
_symmetry_space_group_name_H-M "P N C 2"
_symmetry_group_IT_number 30
_symmetry_cell_setting 'orthorhombic'
loop_
_space_group_symop_operation_xyz
x,y,z
-x,-y,z
-x,1/2+y,1/2+z
x,1/2-y,1/2+z
loop_
_atom_site_type_symbol
_atom_site_label
_atom_site_fract_x
_atom_site_fract_y
_atom_site_fract_z
Si Si1 0.622251 0.161318 0.541950
Si Si2 0.602377 0.194602 0.753632
Si Si3 0.279533 0.484752 0.875853
Si Si4 0.086219 0.380810 0.429079
Si Si5 0.360300 0.959752 0.164806
Si Si6 0.622400 0.776713 0.921541
Si Si7 0.880898 0.170116 0.092360
Si Si8 0.110133 0.712126 0.814878
O O1 0.602313 0.117431 0.654026
O O2 0.636394 0.061679 0.457743
O O3 0.493249 0.246952 0.505677
O O4 0.773969 0.232096 0.545380
O O5 0.608581 0.326269 0.704458
O O6 0.471139 0.190065 0.826566
O O7 0.748300 0.201609 0.817030
O O8 0.340863 0.471463 0.766231
O O9 0.288565 0.348791 0.912794
O O10 0.149361 0.578968 0.855073
O O11 0.255966 0.376976 0.430811
O O12 0.000000 0.500000 0.398188
O O13 0.020642 0.348627 0.532631
O O14 0.022067 0.275335 0.362813
O O15 0.218284 0.947698 0.103159
O O16 0.500000 0.000000 0.109897
O O17 0.919138 0.202366 0.201222
#
# Coordination Sequence:
#
# PCOD9341837 Si02
#       8
#     4   4   4   4   4   4   4   4
#     4  10  18  36  66  98 128 146 203 274 325 373
#     4   9  19  34  62  97 123 158 202 258 325 373
#     4  10  17  35  69  94 125 146 203 275 326 361
#     4  12  27  45  58  84 135 179 212 251 306 385
#     4   9  14  29  62  94 119 145 196 268 323 356
#     4  12  22  37  63  96 130 162 206 269 311 370
#     4   9  21  40  62  87 121 171 204 252 312 385
#     4   9  20  43  67  86 122 162 209 259 322 379
#
# _framework density 22.186893000000001
#
# number of rings (size 3 to 8) (size 9 to 14) (size 15 to 20)
#    0.000    2.500    5.000    0.375    0.000    3.500 
#    4.500    9.375    0.000    0.000    0.000    0.000 
#    0.000    0.000    0.000    0.000    0.000    0.000 
#
# Total GULP energy -178192.894036 kJ/mol
# GULP energy per Si atom -5568.527939 kJ/mol
# Density = 2.213639 g / cm^3
# Si number density = 22.186893 Si / 1000 Ang^3
#
#
#
# Elastic Constant Matrix: (Units=GPa)
#
#
# Indices 1 2 3 4 5 6 
#
# 1 115.0837 11.6332 47.8601 0.0000 0.0000 0.0000
# 2 11.6332 32.7726 10.7480 0.0000 0.0000 0.0000
# 3 47.8601 10.7480 106.0134 0.0000 0.0000 0.0000
# 4 0.0000 0.0000 0.0000 8.4752 0.0000 0.0000
# 5 0.0000 0.0000 0.0000 0.0000 29.9078 0.0000
# 6 0.0000 0.0000 0.0000 0.0000 0.0000 30.6509
#
#
#
# Elastic Compliance Matrix: (Units=1/GPa)
#
#
# Indices 1 2 3 4 5 6 
#
# 1 0.010867 -0.002326 -0.004670 0.000000 0.000000 0.000000
# 2 -0.002326 0.032060 -0.002200 0.000000 0.000000 0.000000
# 3 -0.004670 -0.002200 0.011764 0.000000 0.000000 0.000000
# 4 0.000000 0.000000 0.000000 0.117992 0.000000 0.000000
# 5 0.000000 0.000000 0.000000 0.000000 0.033436 0.000000
# 6 0.000000 0.000000 0.000000 0.000000 0.000000 0.032625
#
#
# Mechanical properties :
#
#
# Convention : Reuss Voigt Hill
#
# Bulk Modulus (GPa) = 27.54904 43.81691 35.68298
# Shear Modulus (GPa) = 18.57104 26.04867 22.30985
#
# Velocity S-wave (km/s) = 2.89628 3.43017 3.17447
# Velocity P-wave (km/s) = 4.86090 5.95650 5.43637
#
# Compressibility (1/GPa) = 0.03629890
#
# Stress axis : x y z
#
# Youngs Moduli (GPa) = 92.02578 31.19106 85.00420
#
# Poissons Ratio (x) = 0.07254 0.39696
# Poissons Ratio (y) = 0.21402 0.18705
# Poissons Ratio (z) = 0.42975 0.06863
#
# Static dielectric constant tensor:
#      x y z
#    x 1.812100 0.000000 0.000000 
#    y 0.000000 1.899370 0.000000 
#    z 0.000000 0.000000 1.875960 
# 
# From -- ./inp_files/5219.got.cif
#   From: 2010.05.17/outbox.cif.g08.bks.cpg/sg30_3_cif.got.tgz:5219.got - 2010.06.03 17:03:02.
