data_PCOD9341305
_publ_section_title
;
Structure prediction by ZEFSAII (Michael W. Deem and Ramdas Pophale) SiO2 
 PCOD9341305
Probable space group: P C A 21
;
_chemical_formula_sum "Si O2"
_cell_formula_units_Z 32
_cell_length_a 14.754035
_cell_length_b 8.265246
_cell_length_c 10.745338
_cell_angle_alpha 90.000000
_cell_angle_beta 90.000000
_cell_angle_gamma 90.000000
_cell_volume 1310.348073
_symmetry_space_group_name_H-M "P C A 21"
_symmetry_group_IT_number 29
_symmetry_cell_setting 'orthorhombic'
loop_
_space_group_symop_operation_xyz
x,y,z
-x,-y,1/2+z
1/2-x,y,1/2+z
1/2+x,-y,z
loop_
_atom_site_type_symbol
_atom_site_label
_atom_site_fract_x
_atom_site_fract_y
_atom_site_fract_z
Si Si1 0.648426 0.958281 0.522110
Si Si2 0.401342 0.256346 0.677043
Si Si3 0.523391 0.183757 0.888706
Si Si4 0.157601 0.059297 0.957580
Si Si5 0.399827 0.277746 0.247581
Si Si6 0.264243 0.510268 0.777326
Si Si7 0.495938 0.472366 0.063280
Si Si8 0.691210 0.333672 0.537920
O O1 0.553681 0.927930 0.453215
O O2 0.735856 0.914149 0.437559
O O3 0.643312 0.836633 0.639455
O O4 0.666332 0.145326 0.553057
O O5 0.491087 0.195340 0.747339
O O6 0.357996 0.110181 0.600408
O O7 0.336560 0.362623 0.765846
O O8 0.430950 0.390536 0.578263
O O9 0.621456 0.117500 0.924209
O O10 0.512761 0.359735 0.946922
O O11 0.094781 0.165168 0.866799
O O12 0.331614 0.419461 0.284115
O O13 0.488506 0.356842 0.185643
O O14 0.259319 0.611138 0.648049
O O15 0.278172 0.619137 0.898610
O O16 0.399051 0.558237 0.053864
#
# Coordination Sequence:
#
# PCOD9341305 Si02
#       8
#     4   4   4   4   4   4   4   4
#     4  11  26  47  70 102 147 186 243 299 368 424
#     4  12  25  44  72 101 139 187 242 292 368 440
#     4  11  27  47  69 103 148 185 240 300 367 432
#     4  12  27  42  76 103 140 189 241 291 368 435
#     4  10  24  46  69  99 140 187 232 300 360 432
#     4  11  23  45  72 102 141 186 245 291 371 433
#     4  10  25  44  67  95 141 183 234 299 356 423
#     4  11  25  43  71 103 140 191 237 308 354 439
#
# _framework density 24.420991999999998
#
# number of rings (size 3 to 8) (size 9 to 14) (size 15 to 20)
#    0.000    1.000    2.500    2.250   12.250    2.000 
#    0.000    0.000    0.000    0.000    0.000    0.000 
#    0.000    0.000    0.000    0.000    0.000    0.000 
#
# Total GULP energy -179099.315775 kJ/mol
# GULP energy per Si atom -5596.853618 kJ/mol
# Density = 2.436541 g / cm^3
# Si number density = 24.420992 Si / 1000 Ang^3
#
#
#
# Elastic Constant Matrix: (Units=GPa)
#
#
# Indices 1 2 3 4 5 6 
#
# 1 62.0808 14.9480 21.2579 0.0000 0.0000 0.0000
# 2 14.9480 94.1158 19.7248 0.0000 0.0000 0.0000
# 3 21.2579 19.7248 77.9939 0.0000 0.0000 0.0000
# 4 0.0000 0.0000 0.0000 32.9623 0.0000 0.0000
# 5 0.0000 0.0000 0.0000 0.0000 23.0430 0.0000
# 6 0.0000 0.0000 0.0000 0.0000 0.0000 34.4688
#
#
#
# Elastic Compliance Matrix: (Units=1/GPa)
#
#
# Indices 1 2 3 4 5 6 
#
# 1 0.018097 -0.001943 -0.004441 0.000000 0.000000 0.000000
# 2 -0.001943 0.011429 -0.002361 0.000000 0.000000 0.000000
# 3 -0.004441 -0.002361 0.014629 0.000000 0.000000 0.000000
# 4 0.000000 0.000000 0.000000 0.030338 0.000000 0.000000
# 5 0.000000 0.000000 0.000000 0.000000 0.043397 0.000000
# 6 0.000000 0.000000 0.000000 0.000000 0.000000 0.029012
#
#
# Mechanical properties :
#
#
# Convention : Reuss Voigt Hill
#
# Bulk Modulus (GPa) = 37.50340 38.45019 37.97680
# Shear Modulus (GPa) = 28.85522 29.97879 29.41701
#
# Velocity S-wave (km/s) = 3.44113 3.50749 3.47447
# Velocity P-wave (km/s) = 5.58381 5.67294 5.62855
#
# Compressibility (1/GPa) = 0.02666425
#
# Stress axis : x y z
#
# Youngs Moduli (GPa) = 55.25876 87.49964 68.35774
#
# Poissons Ratio (x) = 0.17005 0.30357
# Poissons Ratio (y) = 0.10739 0.16137
# Poissons Ratio (z) = 0.24540 0.20655
#
# Static dielectric constant tensor:
#      x y z
#    x 1.930350 0.000000 0.000000 
#    y 0.000000 1.944300 0.000000 
#    z 0.000000 0.000000 1.965660 
# 
# From -- ./inp_files/3494.got.cif
#   From: 2010.05.17/outbox.cif.g08.bks.cpg/sg29_2_cif.got.tgz:3494.got - 2010.06.04 01:19:37.
