data_PCOD9341116
_publ_section_title
;
Structure prediction by ZEFSAII (Michael W. Deem and Ramdas Pophale) SiO2 
 PCOD9341116
Probable space group: P C A 21
;
_chemical_formula_sum "Si O2"
_cell_formula_units_Z 28
_cell_length_a 14.164723
_cell_length_b 4.899831
_cell_length_c 17.915706
_cell_angle_alpha 90.000000
_cell_angle_beta 90.000000
_cell_angle_gamma 90.000000
_cell_volume 1243.435076
_symmetry_space_group_name_H-M "P C A 21"
_symmetry_group_IT_number 29
_symmetry_cell_setting 'orthorhombic'
loop_
_space_group_symop_operation_xyz
x,y,z
-x,-y,1/2+z
1/2-x,y,1/2+z
1/2+x,-y,z
loop_
_atom_site_type_symbol
_atom_site_label
_atom_site_fract_x
_atom_site_fract_y
_atom_site_fract_z
Si Si1 0.176363 0.606575 0.435060
Si Si2 0.884092 0.217891 0.127217
Si Si3 0.437493 0.224412 0.525339
Si Si4 0.646244 0.617275 0.865578
Si Si5 0.764318 0.685390 0.087836
Si Si6 0.943482 0.888847 0.921359
Si Si7 0.930707 0.106709 0.290334
O O1 0.253347 0.524551 0.375071
O O2 0.214192 0.489308 0.513122
O O3 0.146857 0.919778 0.437103
O O4 0.085568 0.422445 0.419833
O O5 0.810538 0.465063 0.145152
O O6 0.932632 0.104106 0.202190
O O7 0.824374 0.961781 0.095671
O O8 0.969553 0.314749 0.072278
O O9 0.398265 0.360311 0.448744
O O10 0.346324 0.232689 0.580086
O O11 0.478903 0.947336 0.486002
O O12 0.586224 0.415617 0.815147
O O13 0.648972 0.908629 0.825287
O O14 0.980381 0.980707 0.840442
#
# Coordination Sequence:
#
# PCOD9341116 Si02
#       7
#     4   4   4   4   4   4   4
#     4  11  20  39  68 101 122 170 229 280 323 395
#     4  12  25  45  67  96 147 174 221 279 349 397
#     4  10  23  43  73  99 130 175 226 284 321 406
#     4  10  23  42  68  95 135 173 236 272 332 399
#     4  11  24  41  69 102 127 177 225 276 342 395
#     4  11  21  39  69  97 131 172 227 275 332 387
#     4  11  24  43  62  96 136 187 210 284 339 401
#
# _framework density 22.518263999999999
#
# number of rings (size 3 to 8) (size 9 to 14) (size 15 to 20)
#    0.000    1.143    2.857    3.429    0.000    8.000 
#    7.714    0.000    0.000    0.000    0.000    0.000 
#    0.000    0.000    0.000    0.000    0.000    0.000 
#
# Total GULP energy -156095.017244 kJ/mol
# GULP energy per Si atom -5574.822044 kJ/mol
# Density = 2.246701 g / cm^3
# Si number density = 22.518264 Si / 1000 Ang^3
#
#
#
# Elastic Constant Matrix: (Units=GPa)
#
#
# Indices 1 2 3 4 5 6 
#
# 1 99.8556 6.6453 23.9681 0.0000 0.0000 0.0000
# 2 6.6453 81.4399 9.8265 0.0000 0.0000 0.0000
# 3 23.9681 9.8265 81.2784 0.0000 0.0000 0.0000
# 4 0.0000 0.0000 0.0000 26.6949 0.0000 0.0000
# 5 0.0000 0.0000 0.0000 0.0000 14.4363 0.0000
# 6 0.0000 0.0000 0.0000 0.0000 0.0000 20.0567
#
#
#
# Elastic Compliance Matrix: (Units=1/GPa)
#
#
# Indices 1 2 3 4 5 6 
#
# 1 0.010798 -0.000504 -0.003123 0.000000 0.000000 0.000000
# 2 -0.000504 0.012484 -0.001361 0.000000 0.000000 0.000000
# 3 -0.003123 -0.001361 0.013389 0.000000 0.000000 0.000000
# 4 0.000000 0.000000 0.000000 0.037460 0.000000 0.000000
# 5 0.000000 0.000000 0.000000 0.000000 0.069270 0.000000
# 6 0.000000 0.000000 0.000000 0.000000 0.000000 0.049859
#
#
# Mechanical properties :
#
#
# Convention : Reuss Voigt Hill
#
# Bulk Modulus (GPa) = 37.46049 38.16152 37.81100
# Shear Modulus (GPa) = 23.57001 27.04652 25.30827
#
# Velocity S-wave (km/s) = 3.23879 3.46944 3.35610
# Velocity P-wave (km/s) = 5.53698 5.74744 5.64319
#
# Compressibility (1/GPa) = 0.02669479
#
# Stress axis : x y z
#
# Youngs Moduli (GPa) = 92.61270 80.10049 74.68891
#
# Poissons Ratio (x) = 0.04039 0.23326
# Poissons Ratio (y) = 0.04670 0.10163
# Poissons Ratio (z) = 0.28924 0.10899
#
# Static dielectric constant tensor:
#      x y z
#    x 1.907150 0.000000 0.000000 
#    y 0.000000 1.849700 0.000000 
#    z 0.000000 0.000000 1.889840 
# 
# From -- ./inp_files/5188.got.cif
#   From: 2010.05.17/outbox.cif.g08.bks.cpg/sg29_3_cif.got.tgz:5188.got - 2010.06.04 01:19:37.
