data_PCOD9341177
_publ_section_title
;
Structure prediction by ZEFSAII (Michael W. Deem and Ramdas Pophale) SiO2 
 PCOD9341177
Probable space group: P C A 21
;
_chemical_formula_sum "Si O2"
_cell_formula_units_Z 24
_cell_length_a 10.516016
_cell_length_b 8.954574
_cell_length_c 10.604292
_cell_angle_alpha 90.000000
_cell_angle_beta 90.000000
_cell_angle_gamma 90.000000
_cell_volume 998.568463
_symmetry_space_group_name_H-M "P C A 21"
_symmetry_group_IT_number 29
_symmetry_cell_setting 'orthorhombic'
loop_
_space_group_symop_operation_xyz
x,y,z
-x,-y,1/2+z
1/2-x,y,1/2+z
1/2+x,-y,z
loop_
_atom_site_type_symbol
_atom_site_label
_atom_site_fract_x
_atom_site_fract_y
_atom_site_fract_z
Si Si1 0.115103 0.326645 0.333210
Si Si2 0.223728 0.923776 0.977712
Si Si3 0.535657 0.872445 0.559231
Si Si4 0.276272 0.576221 0.977712
Si Si5 0.035656 0.372442 0.059231
Si Si6 0.384895 0.173352 0.333210
O O1 0.037229 0.250684 0.447006
O O2 0.153476 0.498572 0.358440
O O3 0.063187 0.303470 0.194884
O O4 0.249998 0.249995 0.341319
O O5 0.153474 0.001424 0.858440
O O6 0.250000 0.749998 0.959331
O O7 0.105730 0.938999 0.074192
O O8 0.349696 0.013236 0.021843
O O9 0.563192 0.803474 0.694883
O O10 0.150306 0.486759 0.021844
O O11 0.394270 0.561000 0.074190
O O12 0.037229 0.249316 0.947004
#
# Coordination Sequence:
#
# PCOD9341177 Si02
#       6
#     4   4   4   4   4   4
#     4  10  23  45  69  97 136 179 223 276 333 394
#     4  11  25  43  68 102 136 175 223 277 334 396
#     4  11  25  46  70  99 136 178 223 275 334 398
#     4  11  25  43  68 102 136 175 223 277 334 396
#     4  11  25  46  70  99 136 178 223 275 334 398
#     4  10  23  45  69  97 136 179 223 276 333 394
#
# _framework density 24.034405
#
# number of rings (size 3 to 8) (size 9 to 14) (size 15 to 20)
#    0.000    1.333    0.000    5.000    0.000   14.667 
#    0.000    0.000    0.000    0.000    0.000    0.000 
#    0.000    0.000    0.000    0.000    0.000    0.000 
#
# Total GULP energy -134007.222193 kJ/mol
# GULP energy per Si atom -5583.634258 kJ/mol
# Density = 2.397970 g / cm^3
# Si number density = 24.034405 Si / 1000 Ang^3
#
#
#
# Elastic Constant Matrix: (Units=GPa)
#
#
# Indices 1 2 3 4 5 6 
#
# 1 156.4738 51.6300 15.8443 0.0000 0.0000 0.0000
# 2 51.6300 145.1201 53.2936 0.0000 0.0000 0.0000
# 3 15.8443 53.2936 134.0931 0.0000 0.0000 0.0000
# 4 0.0000 0.0000 0.0000 18.4333 0.0000 0.0000
# 5 0.0000 0.0000 0.0000 0.0000 21.9199 0.0000
# 6 0.0000 0.0000 0.0000 0.0000 0.0000 16.8495
#
#
#
# Elastic Compliance Matrix: (Units=1/GPa)
#
#
# Indices 1 2 3 4 5 6 
#
# 1 0.007245 -0.002650 0.000197 0.000000 0.000000 0.000000
# 2 -0.002650 0.009038 -0.003279 0.000000 0.000000 0.000000
# 3 0.000197 -0.003279 0.008737 0.000000 0.000000 0.000000
# 4 0.000000 0.000000 0.000000 0.054250 0.000000 0.000000
# 5 0.000000 0.000000 0.000000 0.000000 0.045621 0.000000
# 6 0.000000 0.000000 0.000000 0.000000 0.000000 0.059349
#
#
# Mechanical properties :
#
#
# Convention : Reuss Voigt Hill
#
# Bulk Modulus (GPa) = 73.76320 75.24698 74.50509
# Shear Modulus (GPa) = 24.97228 32.43516 28.70372
#
# Velocity S-wave (km/s) = 3.22688 3.67758 3.45958
# Velocity P-wave (km/s) = 6.68139 7.02914 6.85747
#
# Compressibility (1/GPa) = 0.01355689
#
# Stress axis : x y z
#
# Youngs Moduli (GPa) = 138.02041 110.64656 114.45137
#
# Poissons Ratio (x) = 0.29322 -0.02256
# Poissons Ratio (y) = 0.36577 0.37527
# Poissons Ratio (z) = -0.02721 0.36279
#
# Static dielectric constant tensor:
#      x y z
#    x 1.948320 0.000000 0.000000 
#    y 0.000000 2.098940 0.000000 
#    z 0.000000 0.000000 1.934850 
# 
# From -- ./inp_files/3088.got.cif
#   From: 2010.05.17/outbox.cif.g08.bks.cpg/sg29_2_cif.got.tgz:3088.got - 2010.06.04 01:19:37.
