data_PCOD9341196
_publ_section_title
;
Structure prediction by ZEFSAII (Michael W. Deem and Ramdas Pophale) SiO2 
 PCOD9341196
Probable space group: P C A 21
;
_chemical_formula_sum "Si O2"
_cell_formula_units_Z 28
_cell_length_a 14.661216
_cell_length_b 14.020588
_cell_length_c 5.519030
_cell_angle_alpha 90.000000
_cell_angle_beta 90.000000
_cell_angle_gamma 90.000000
_cell_volume 1134.485565
_symmetry_space_group_name_H-M "P C A 21"
_symmetry_group_IT_number 29
_symmetry_cell_setting 'orthorhombic'
loop_
_space_group_symop_operation_xyz
x,y,z
-x,-y,1/2+z
1/2-x,y,1/2+z
1/2+x,-y,z
loop_
_atom_site_type_symbol
_atom_site_label
_atom_site_fract_x
_atom_site_fract_y
_atom_site_fract_z
Si Si1 0.690829 0.075123 0.119680
Si Si2 0.696864 0.865337 0.187810
Si Si3 0.997235 0.605829 0.769124
Si Si4 0.612133 0.701020 0.909452
Si Si5 0.049222 0.754351 0.105535
Si Si6 0.155617 0.466792 0.645767
Si Si7 0.714518 0.360500 0.141464
O O1 0.753679 0.083728 0.363874
O O2 0.612306 0.154266 0.122508
O O3 0.650552 0.967619 0.138879
O O4 0.727924 0.864649 0.467686
O O5 0.646511 0.768719 0.118928
O O6 0.088049 0.543673 0.772555
O O7 0.953679 0.619027 0.509624
O O8 0.025624 0.713115 0.843480
O O9 0.914162 0.567205 0.933640
O O10 0.546987 0.763146 0.738501
O O11 0.683317 0.633637 0.768954
O O12 0.110353 0.664265 0.202452
O O13 0.244600 0.532838 0.599896
O O14 0.764099 0.316363 0.377665
#
# Coordination Sequence:
#
# PCOD9341196 Si02
#       7
#     4   4   4   4   4   4   4
#     4  10  23  46  75 105 144 185 233 294 363 428
#     4  10  25  51  74 104 140 185 241 298 354 436
#     4  11  23  43  62  95 143 184 233 293 354 410
#     4  11  26  45  70  99 143 190 236 297 356 423
#     4  11  25  43  68 108 141 184 230 303 364 424
#     4  11  24  40  63  92 138 189 232 287 347 419
#     4  12  26  40  64  99 137 181 235 284 342 424
#
# _framework density 24.680789000000001
#
# number of rings (size 3 to 8) (size 9 to 14) (size 15 to 20)
#    0.000    1.143    2.857    1.714   10.000    1.143 
#    2.571    0.000    0.000    0.000    0.000    0.000 
#    0.000    0.000    0.000    0.000    0.000    0.000 
#
# Total GULP energy -156133.445113 kJ/mol
# GULP energy per Si atom -5576.194468 kJ/mol
# Density = 2.462461 g / cm^3
# Si number density = 24.680789 Si / 1000 Ang^3
#
#
#
# Elastic Constant Matrix: (Units=GPa)
#
#
# Indices 1 2 3 4 5 6 
#
# 1 60.8596 58.7488 7.4665 0.0000 0.0000 0.0000
# 2 58.7488 129.8586 -0.4462 0.0000 0.0000 0.0000
# 3 7.4665 -0.4462 80.4718 0.0000 0.0000 0.0000
# 4 0.0000 0.0000 0.0000 27.3913 0.0000 0.0000
# 5 0.0000 0.0000 0.0000 0.0000 36.2801 0.0000
# 6 0.0000 0.0000 0.0000 0.0000 0.0000 34.9731
#
#
#
# Elastic Compliance Matrix: (Units=1/GPa)
#
#
# Indices 1 2 3 4 5 6 
#
# 1 0.029806 -0.013494 -0.002840 0.000000 0.000000 0.000000
# 2 -0.013494 0.013810 0.001329 0.000000 0.000000 0.000000
# 3 -0.002840 0.001329 0.012698 0.000000 0.000000 0.000000
# 4 0.000000 0.000000 0.000000 0.036508 0.000000 0.000000
# 5 0.000000 0.000000 0.000000 0.000000 0.027563 0.000000
# 6 0.000000 0.000000 0.000000 0.000000 0.000000 0.028593
#
#
# Mechanical properties :
#
#
# Convention : Reuss Voigt Hill
#
# Bulk Modulus (GPa) = 38.02007 44.74754 41.38381
# Shear Modulus (GPa) = 26.63017 33.42362 30.02689
#
# Velocity S-wave (km/s) = 3.28835 3.68399 3.49178
# Velocity P-wave (km/s) = 5.46405 6.02209 5.74984
#
# Compressibility (1/GPa) = 0.02630190
#
# Stress axis : x y z
#
# Youngs Moduli (GPa) = 33.55056 72.41110 78.75491
#
# Poissons Ratio (x) = 0.97712 0.22369
# Poissons Ratio (y) = 0.45273 -0.10463
# Poissons Ratio (z) = 0.09529 -0.09621
#
# Static dielectric constant tensor:
#      x y z
#    x 2.016150 0.000000 0.000000 
#    y 0.000000 1.969300 0.000000 
#    z 0.000000 0.000000 2.126600 
# 
# From -- ./inp_files/254.got.cif
#   From: 2010.05.17/outbox.cif.g08.bks.cpg/sg29_1_cif.got.tgz:254.got - 2010.06.04 01:19:37.
