data_PCOD9341246
_publ_section_title
;
Structure prediction by ZEFSAII (Michael W. Deem and Ramdas Pophale) SiO2 
 PCOD9341246
Probable space group: P C A 21
;
_chemical_formula_sum "Si O2"
_cell_formula_units_Z 32
_cell_length_a 19.759286
_cell_length_b 5.751654
_cell_length_c 12.682373
_cell_angle_alpha 90.000000
_cell_angle_beta 90.000000
_cell_angle_gamma 90.000000
_cell_volume 1441.333636
_symmetry_space_group_name_H-M "P C A 21"
_symmetry_group_IT_number 29
_symmetry_cell_setting 'orthorhombic'
loop_
_space_group_symop_operation_xyz
x,y,z
-x,-y,1/2+z
1/2-x,y,1/2+z
1/2+x,-y,z
loop_
_atom_site_type_symbol
_atom_site_label
_atom_site_fract_x
_atom_site_fract_y
_atom_site_fract_z
Si Si1 0.315625 0.443698 0.359770
Si Si2 0.958398 0.528733 0.869401
Si Si3 0.820184 0.342178 0.806817
Si Si4 0.985815 0.964380 0.351346
Si Si5 0.003853 0.278184 0.062670
Si Si6 0.381148 0.803325 0.219906
Si Si7 0.245066 0.049318 0.221532
Si Si8 0.652941 0.632526 0.100663
O O1 0.250774 0.612935 0.363658
O O2 0.370765 0.567421 0.285835
O O3 0.282152 0.228382 0.299164
O O4 0.343211 0.416893 0.476773
O O5 0.879059 0.470529 0.868803
O O6 0.976139 0.789040 0.832885
O O7 0.988260 0.497509 0.986988
O O8 0.985708 0.287900 0.812057
O O9 0.824991 0.441167 0.687021
O O10 0.816124 0.068194 0.787793
O O11 0.913168 0.008855 0.300124
O O12 0.984442 0.924860 0.476741
O O13 0.937508 0.227612 0.130722
O O14 0.074297 0.312321 0.122284
O O15 0.306324 0.882018 0.184665
O O16 0.207137 0.166810 0.124549
#
# Coordination Sequence:
#
# PCOD9341246 Si02
#       8
#     4   4   4   4   4   4   4   4
#     4  10  24  43  68  96 140 180 241 292 363 429
#     4  10  24  44  68 105 142 184 238 292 365 418
#     4  10  24  42  70  96 140 184 240 296 361 429
#     4  10  24  44  67 104 139 187 229 299 359 423
#     4  10  25  40  69 101 141 189 237 302 356 434
#     4  11  23  44  66 101 138 189 238 297 361 435
#     4  10  25  42  65  98 136 186 234 294 356 430
#     4  11  23  43  67 103 130 189 233 304 353 436
#
# _framework density 22.201657999999998
#
# number of rings (size 3 to 8) (size 9 to 14) (size 15 to 20)
#    0.750    1.000    0.000    2.250    7.000   10.000 
#    0.000    0.000    0.000    0.000    0.000    0.000 
#    0.000    0.000    0.000    0.000    0.000    0.000 
#
# Total GULP energy -178275.758946 kJ/mol
# GULP energy per Si atom -5571.117467 kJ/mol
# Density = 2.215113 g / cm^3
# Si number density = 22.201658 Si / 1000 Ang^3
#
#
#
# Elastic Constant Matrix: (Units=GPa)
#
#
# Indices 1 2 3 4 5 6 
#
# 1 101.8470 12.3981 20.2244 0.0000 0.0000 0.0000
# 2 12.3981 73.1704 0.1067 0.0000 0.0000 0.0000
# 3 20.2244 0.1067 71.5475 0.0000 0.0000 0.0000
# 4 0.0000 0.0000 0.0000 14.0553 0.0000 0.0000
# 5 0.0000 0.0000 0.0000 0.0000 35.7356 0.0000
# 6 0.0000 0.0000 0.0000 0.0000 0.0000 41.4124
#
#
#
# Elastic Compliance Matrix: (Units=1/GPa)
#
#
# Indices 1 2 3 4 5 6 
#
# 1 0.010634 -0.001797 -0.003003 0.000000 0.000000 0.000000
# 2 -0.001797 0.013971 0.000487 0.000000 0.000000 0.000000
# 3 -0.003003 0.000487 0.014825 0.000000 0.000000 0.000000
# 4 0.000000 0.000000 0.000000 0.071148 0.000000 0.000000
# 5 0.000000 0.000000 0.000000 0.000000 0.027983 0.000000
# 6 0.000000 0.000000 0.000000 0.000000 0.000000 0.024147
#
#
# Mechanical properties :
#
#
# Convention : Reuss Voigt Hill
#
# Bulk Modulus (GPa) = 32.46483 34.66924 33.56704
# Shear Modulus (GPa) = 27.53276 32.49636 30.01456
#
# Velocity S-wave (km/s) = 3.52536 3.82997 3.68082
# Velocity P-wave (km/s) = 5.58796 5.93361 5.76338
#
# Compressibility (1/GPa) = 0.03080257
#
# Stress axis : x y z
#
# Youngs Moduli (GPa) = 94.03960 71.57899 67.45406
#
# Poissons Ratio (x) = 0.12866 0.20258
# Poissons Ratio (y) = 0.16903 -0.03287
# Poissons Ratio (z) = 0.28242 -0.03488
#
# Static dielectric constant tensor:
#      x y z
#    x 1.834290 0.000000 0.000000 
#    y 0.000000 1.915990 0.000000 
#    z 0.000000 0.000000 1.827160 
# 
# From -- ./inp_files/3905.got.cif
#   From: 2010.05.17/outbox.cif.g08.bks.cpg/sg29_2_cif.got.tgz:3905.got - 2010.06.04 01:19:37.
