data_PCOD9341405
_publ_section_title
;
Structure prediction by ZEFSAII (Michael W. Deem and Ramdas Pophale) SiO2 
 PCOD9341405
Probable space group: P C A 21
;
_chemical_formula_sum "Si O2"
_cell_formula_units_Z 32
_cell_length_a 14.781664
_cell_length_b 11.032679
_cell_length_c 8.421139
_cell_angle_alpha 90.000000
_cell_angle_beta 90.000000
_cell_angle_gamma 90.000000
_cell_volume 1373.330750
_symmetry_space_group_name_H-M "P C A 21"
_symmetry_group_IT_number 29
_symmetry_cell_setting 'orthorhombic'
loop_
_space_group_symop_operation_xyz
x,y,z
-x,-y,1/2+z
1/2-x,y,1/2+z
1/2+x,-y,z
loop_
_atom_site_type_symbol
_atom_site_label
_atom_site_fract_x
_atom_site_fract_y
_atom_site_fract_z
Si Si1 0.912614 0.963227 0.614780
Si Si2 0.464034 0.132409 0.960913
Si Si3 0.487893 0.247776 0.435599
Si Si4 0.982380 0.618624 0.094177
Si Si5 0.712603 0.857100 0.647015
Si Si6 0.172565 0.578534 0.949558
Si Si7 0.139527 0.623877 0.610343
Si Si8 0.805101 0.689465 0.440393
O O1 0.952811 0.916820 0.782461
O O2 0.964032 0.890359 0.472693
O O3 0.804630 0.936014 0.628721
O O4 0.946025 0.096000 0.561851
O O5 0.459946 0.278682 0.964199
O O6 0.376316 0.089126 0.064920
O O7 0.478839 0.309613 0.262796
O O8 0.582079 0.280802 0.510791
O O9 0.402187 0.306567 0.527092
O O10 0.916304 0.502932 0.092791
O O11 0.084370 0.575328 0.059723
O O12 0.730189 0.726955 0.563695
O O13 0.697848 0.805505 0.823001
O O14 0.146458 0.655082 0.795411
O O15 0.201254 0.445963 0.880490
O O16 0.259912 0.619528 0.043484
#
# Coordination Sequence:
#
# PCOD9341405 Si02
#       8
#     4   4   4   4   4   4   4   4
#     4  11  27  43  74 102 135 185 235 295 347 421
#     4  12  24  46  69 101 139 177 232 289 355 415
#     4  11  23  43  65  97 139 178 239 284 347 412
#     4  12  23  44  69 100 141 185 227 294 351 418
#     4  11  23  41  71 101 135 176 234 283 341 404
#     4  12  24  39  66  99 139 187 228 279 358 415
#     4  12  24  42  63 101 138 188 228 291 346 426
#     4  11  20  40  65 101 134 178 225 287 329 407
#
# _framework density 23.301016000000001
#
# number of rings (size 3 to 8) (size 9 to 14) (size 15 to 20)
#    0.000    0.500    5.000    3.750    1.750    0.000 
#    2.250    0.000    0.000    0.000    0.000    0.000 
#    0.000    0.000    0.000    0.000    0.000    0.000 
#
# Total GULP energy -178530.366535 kJ/mol
# GULP energy per Si atom -5579.073954 kJ/mol
# Density = 2.324798 g / cm^3
# Si number density = 23.301016 Si / 1000 Ang^3
#
#
#
# Elastic Constant Matrix: (Units=GPa)
#
#
# Indices 1 2 3 4 5 6 
#
# 1 149.6786 13.5281 17.3779 0.0000 0.0000 0.0000
# 2 13.5281 31.3821 -2.2465 0.0000 0.0000 0.0000
# 3 17.3779 -2.2465 80.5356 0.0000 0.0000 0.0000
# 4 0.0000 0.0000 0.0000 28.9932 0.0000 0.0000
# 5 0.0000 0.0000 0.0000 0.0000 39.6268 0.0000
# 6 0.0000 0.0000 0.0000 0.0000 0.0000 28.1214
#
#
#
# Elastic Compliance Matrix: (Units=1/GPa)
#
#
# Indices 1 2 3 4 5 6 
#
# 1 0.007160 -0.003204 -0.001634 0.000000 0.000000 0.000000
# 2 -0.003204 0.033362 0.001622 0.000000 0.000000 0.000000
# 3 -0.001634 0.001622 0.012815 0.000000 0.000000 0.000000
# 4 0.000000 0.000000 0.000000 0.034491 0.000000 0.000000
# 5 0.000000 0.000000 0.000000 0.000000 0.025235 0.000000
# 6 0.000000 0.000000 0.000000 0.000000 0.000000 0.035560
#
#
# Mechanical properties :
#
#
# Convention : Reuss Voigt Hill
#
# Bulk Modulus (GPa) = 21.31958 35.43505 28.37732
# Shear Modulus (GPa) = 29.29267 34.87743 32.08505
#
# Velocity S-wave (km/s) = 3.54947 3.87307 3.71479
# Velocity P-wave (km/s) = 5.09586 5.93645 5.53214
#
# Compressibility (1/GPa) = 0.04690523
#
# Stress axis : x y z
#
# Youngs Moduli (GPa) = 139.65923 29.97381 78.03492
#
# Poissons Ratio (x) = 0.09603 0.12754
# Poissons Ratio (y) = 0.44742 -0.12656
# Poissons Ratio (z) = 0.22826 -0.04861
#
# Static dielectric constant tensor:
#      x y z
#    x 1.899850 0.000000 0.000000 
#    y 0.000000 1.964230 0.000000 
#    z 0.000000 0.000000 1.902940 
# 
# From -- ./inp_files/1886.got.cif
#   From: 2010.05.17/outbox.cif.g08.bks.cpg/sg29_1_cif.got.tgz:1886.got - 2010.06.04 01:19:37.
