data_PCOD9341545
_publ_section_title
;
Structure prediction by ZEFSAII (Michael W. Deem and Ramdas Pophale) SiO2 
 PCOD9341545
Probable space group: P C A 21
;
_chemical_formula_sum "Si O2"
_cell_formula_units_Z 28
_cell_length_a 16.132887
_cell_length_b 5.587923
_cell_length_c 12.154762
_cell_angle_alpha 90.000000
_cell_angle_beta 90.000000
_cell_angle_gamma 90.000000
_cell_volume 1095.743655
_symmetry_space_group_name_H-M "P C A 21"
_symmetry_group_IT_number 29
_symmetry_cell_setting 'orthorhombic'
loop_
_space_group_symop_operation_xyz
x,y,z
-x,-y,1/2+z
1/2-x,y,1/2+z
1/2+x,-y,z
loop_
_atom_site_type_symbol
_atom_site_label
_atom_site_fract_x
_atom_site_fract_y
_atom_site_fract_z
Si Si1 0.112176 0.864352 0.848710
Si Si2 0.038081 0.084962 0.645647
Si Si3 0.377895 0.176797 0.566497
Si Si4 0.271867 0.515755 0.438248
Si Si5 0.028819 0.515144 0.296058
Si Si6 0.117182 0.826551 0.451325
Si Si7 0.815035 0.818829 0.780769
O O1 0.101162 0.031845 0.744659
O O2 0.193030 0.703086 0.850533
O O3 0.035537 0.685158 0.832698
O O4 0.113614 0.999754 0.963825
O O5 0.090241 0.033194 0.535767
O O6 0.963019 0.890520 0.631820
O O7 0.999166 0.334248 0.688356
O O8 0.345853 0.431928 0.519241
O O9 0.304073 0.117141 0.653423
O O10 0.190123 0.643842 0.489484
O O11 0.250749 0.281675 0.366842
O O12 0.038896 0.679113 0.405501
O O13 0.118732 0.400073 0.277001
O O14 0.145276 0.957841 0.341068
#
# Coordination Sequence:
#
# PCOD9341545 Si02
#       7
#     4   4   4   4   4   4   4
#     4  12  26  47  72 114 152 196 260 316 386 462
#     4  12  25  45  79 113 150 196 260 328 378 466
#     4  12  26  50  78 111 154 198 261 323 388 469
#     4  11  28  47  76 112 154 208 250 315 401 472
#     4  11  23  47  76 113 147 204 258 322 387 454
#     4  11  25  50  75 112 155 198 258 319 387 464
#     4  11  25  52  74 109 152 200 255 319 391 461
#
# _framework density 25.553421
#
# number of rings (size 3 to 8) (size 9 to 14) (size 15 to 20)
#    0.000    0.571    2.857    4.286    4.000    3.429 
#   12.857    0.000    0.000    0.000    0.000    0.000 
#    0.000    0.000    0.000    0.000    0.000    0.000 
#
# Total GULP energy -156455.679648 kJ/mol
# GULP energy per Si atom -5587.702845 kJ/mol
# Density = 2.549526 g / cm^3
# Si number density = 25.553421 Si / 1000 Ang^3
#
#
#
# Elastic Constant Matrix: (Units=GPa)
#
#
# Indices 1 2 3 4 5 6 
#
# 1 88.8332 30.3669 29.1555 0.0000 0.0000 0.0000
# 2 30.3669 89.2770 34.0885 0.0000 0.0000 0.0000
# 3 29.1555 34.0885 130.3217 0.0000 0.0000 0.0000
# 4 0.0000 0.0000 0.0000 34.4063 0.0000 0.0000
# 5 0.0000 0.0000 0.0000 0.0000 29.8725 0.0000
# 6 0.0000 0.0000 0.0000 0.0000 0.0000 58.0063
#
#
#
# Elastic Compliance Matrix: (Units=1/GPa)
#
#
# Indices 1 2 3 4 5 6 
#
# 1 0.013180 -0.003730 -0.001973 0.000000 0.000000 0.000000
# 2 -0.003730 0.013499 -0.002697 0.000000 0.000000 0.000000
# 3 -0.001973 -0.002697 0.008820 0.000000 0.000000 0.000000
# 4 0.000000 0.000000 0.000000 0.029064 0.000000 0.000000
# 5 0.000000 0.000000 0.000000 0.000000 0.033476 0.000000
# 6 0.000000 0.000000 0.000000 0.000000 0.000000 0.017240
#
#
# Mechanical properties :
#
#
# Convention : Reuss Voigt Hill
#
# Bulk Modulus (GPa) = 53.47445 55.07263 54.27354
# Shear Modulus (GPa) = 36.15057 38.77842 37.46450
#
# Velocity S-wave (km/s) = 3.76534 3.89979 3.83315
# Velocity P-wave (km/s) = 6.31472 6.47121 6.39344
#
# Compressibility (1/GPa) = 0.01870052
#
# Stress axis : x y z
#
# Youngs Moduli (GPa) = 75.87533 74.07761 113.37763
#
# Poissons Ratio (x) = 0.27628 0.22369
# Poissons Ratio (y) = 0.28298 0.30574
# Poissons Ratio (z) = 0.14970 0.19976
#
# Static dielectric constant tensor:
#      x y z
#    x 2.080930 0.000000 0.000000 
#    y 0.000000 2.043420 0.000000 
#    z 0.000000 0.000000 2.062640 
# 
# From -- ./inp_files/3619.got.cif
#   From: 2010.05.17/outbox.cif.g08.bks.cpg/sg29_2_cif.got.tgz:3619.got - 2010.06.04 01:19:37.
