data_PCOD9341282
_publ_section_title
;
Structure prediction by ZEFSAII (Michael W. Deem and Ramdas Pophale) SiO2 
 PCOD9341282
Probable space group: P C A 21
;
_chemical_formula_sum "Si O2"
_cell_formula_units_Z 28
_cell_length_a 7.202556
_cell_length_b 18.042909
_cell_length_c 8.573881
_cell_angle_alpha 90.000000
_cell_angle_beta 90.000000
_cell_angle_gamma 90.000000
_cell_volume 1114.219241
_symmetry_space_group_name_H-M "P C A 21"
_symmetry_group_IT_number 29
_symmetry_cell_setting 'orthorhombic'
loop_
_space_group_symop_operation_xyz
x,y,z
-x,-y,1/2+z
1/2-x,y,1/2+z
1/2+x,-y,z
loop_
_atom_site_type_symbol
_atom_site_label
_atom_site_fract_x
_atom_site_fract_y
_atom_site_fract_z
Si Si1 0.648507 0.930405 0.526400
Si Si2 0.374629 0.543383 0.963709
Si Si3 0.945368 0.156331 0.309386
Si Si4 0.340378 0.968865 0.742954
Si Si5 0.556522 0.337347 0.246700
Si Si6 0.170163 0.752049 0.523336
Si Si7 0.817030 0.563841 0.691016
O O1 0.631557 0.862498 0.407041
O O2 0.615791 0.001179 0.413420
O O3 0.813411 0.959414 0.632258
O O4 0.492105 0.920262 0.657164
O O5 0.248939 0.508316 0.094597
O O6 0.529552 0.587581 0.065508
O O7 0.314909 0.603899 0.839876
O O8 0.403988 0.470038 0.851006
O O9 0.948210 0.211422 0.163138
O O10 0.802956 0.190158 0.435276
O O11 0.842234 0.080869 0.256834
O O12 0.678717 0.303953 0.105895
O O13 0.539477 0.275928 0.382037
O O14 0.361071 0.381423 0.212595
#
# Coordination Sequence:
#
# PCOD9341282 Si02
#       7
#     4   4   4   4   4   4   4
#     4  12  22  38  66 104 136 176 229 301 375 415
#     4  12  23  44  72 108 137 178 217 297 364 415
#     4  11  21  42  69  96 136 184 243 274 352 425
#     4  12  22  38  68 105 137 176 228 312 366 422
#     4  11  24  44  70 101 141 181 239 281 340 422
#     4  10  24  44  70  97 134 204 238 277 329 435
#     4  12  24  44  73 109 143 173 224 290 366 414
#
# _framework density 25.129705999999999
#
# number of rings (size 3 to 8) (size 9 to 14) (size 15 to 20)
#    0.000    0.571    7.143    0.857    0.000    0.000 
#    2.571    0.000    9.429    0.000    0.000    0.000 
#    0.000    0.000    0.000    0.000    0.000    0.000 
#
# Total GULP energy -155980.455193 kJ/mol
# GULP energy per Si atom -5570.730543 kJ/mol
# Density = 2.507251 g / cm^3
# Si number density = 25.129706 Si / 1000 Ang^3
#
#
#
# Elastic Constant Matrix: (Units=GPa)
#
#
# Indices 1 2 3 4 5 6 
#
# 1 66.0500 28.1484 53.2576 0.0000 0.0000 0.0000
# 2 28.1484 48.0994 31.9222 0.0000 0.0000 0.0000
# 3 53.2576 31.9222 172.6995 0.0000 0.0000 0.0000
# 4 0.0000 0.0000 0.0000 50.5781 0.0000 0.0000
# 5 0.0000 0.0000 0.0000 0.0000 41.0713 0.0000
# 6 0.0000 0.0000 0.0000 0.0000 0.0000 21.7896
#
#
#
# Elastic Compliance Matrix: (Units=1/GPa)
#
#
# Indices 1 2 3 4 5 6 
#
# 1 0.023988 -0.010405 -0.005474 0.000000 0.000000 0.000000
# 2 -0.010405 0.028211 -0.002006 0.000000 0.000000 0.000000
# 3 -0.005474 -0.002006 0.007849 0.000000 0.000000 0.000000
# 4 0.000000 0.000000 0.000000 0.019771 0.000000 0.000000
# 5 0.000000 0.000000 0.000000 0.000000 0.024348 0.000000
# 6 0.000000 0.000000 0.000000 0.000000 0.000000 0.045893
#
#
# Mechanical properties :
#
#
# Convention : Reuss Voigt Hill
#
# Bulk Modulus (GPa) = 41.18961 57.05615 49.12288
# Shear Modulus (GPa) = 25.78324 34.25585 30.01954
#
# Velocity S-wave (km/s) = 3.20661 3.69611 3.46003
# Velocity P-wave (km/s) = 5.48964 6.40070 5.96259
#
# Compressibility (1/GPa) = 0.02427797
#
# Stress axis : x y z
#
# Youngs Moduli (GPa) = 41.68671 35.44753 127.39931
#
# Poissons Ratio (x) = 0.36884 0.69742
# Poissons Ratio (y) = 0.43376 0.25553
# Poissons Ratio (z) = 0.22821 0.07110
#
# Static dielectric constant tensor:
#      x y z
#    x 2.108190 0.000000 0.000000 
#    y 0.000000 2.231920 0.000000 
#    z 0.000000 0.000000 1.996810 
# 
# From -- ./inp_files/1215.got.cif
#   From: 2010.05.17/outbox.cif.g08.bks.cpg/sg29_1_cif.got.tgz:1215.got - 2010.06.04 01:19:37.
