data_PCOD9341548
_publ_section_title
;
Structure prediction by ZEFSAII (Michael W. Deem and Ramdas Pophale) SiO2 
 PCOD9341548
Probable space group: P C A 21
;
_chemical_formula_sum "Si O2"
_cell_formula_units_Z 32
_cell_length_a 11.338851
_cell_length_b 9.709822
_cell_length_c 13.757141
_cell_angle_alpha 90.000000
_cell_angle_beta 90.000000
_cell_angle_gamma 90.000000
_cell_volume 1514.636804
_symmetry_space_group_name_H-M "P C A 21"
_symmetry_group_IT_number 29
_symmetry_cell_setting 'orthorhombic'
loop_
_space_group_symop_operation_xyz
x,y,z
-x,-y,1/2+z
1/2-x,y,1/2+z
1/2+x,-y,z
loop_
_atom_site_type_symbol
_atom_site_label
_atom_site_fract_x
_atom_site_fract_y
_atom_site_fract_z
Si Si1 0.745189 0.927200 0.403940
Si Si2 0.929540 0.358976 0.829340
Si Si3 0.524780 0.455209 0.991505
Si Si4 0.188073 0.280228 0.552062
Si Si5 0.978909 0.847804 0.788474
Si Si6 0.577502 0.879728 0.726224
Si Si7 0.380854 0.412304 0.675160
Si Si8 0.803932 0.233476 0.420991
O O1 0.770579 0.805807 0.479865
O O2 0.608719 0.908301 0.371457
O O3 0.819389 0.906748 0.305267
O O4 0.775745 0.075459 0.450170
O O5 0.877404 0.467349 0.753102
O O6 0.819864 0.295969 0.887489
O O7 0.018053 0.442430 0.900173
O O8 0.996028 0.238685 0.772009
O O9 0.632145 0.345491 0.989500
O O10 0.406345 0.365293 0.990784
O O11 0.530233 0.541636 0.090331
O O12 0.124368 0.172805 0.623562
O O13 0.259465 0.382797 0.620408
O O14 0.917511 0.726460 0.729719
O O15 0.098054 0.787405 0.836116
O O16 0.009341 0.976434 0.720151
#
# Coordination Sequence:
#
# PCOD9341548 Si02
#       8
#     4   4   4   4   4   4   4   4
#     4  11  23  48  74  99 143 185 238 295 354 410
#     4  12  25  45  72 101 143 186 231 288 357 420
#     4  12  26  44  68 108 140 183 238 290 354 426
#     4  12  25  44  69 105 140 185 235 295 351 423
#     4  11  23  48  71 102 136 188 236 292 350 416
#     4  11  25  45  74 102 141 184 243 288 350 421
#     4  12  26  43  70 102 145 183 234 289 356 419
#     4  11  25  45  74 101 140 188 235 291 348 425
#
# _framework density 21.127177
#
# number of rings (size 3 to 8) (size 9 to 14) (size 15 to 20)
#    0.000    0.500    6.250    1.500    3.500    2.000 
#    4.500    0.000    0.000    0.000    0.000    0.000 
#    0.000    0.000    0.000    0.000    0.000    0.000 
#
# Total GULP energy -178922.293088 kJ/mol
# GULP energy per Si atom -5591.321659 kJ/mol
# Density = 2.107909 g / cm^3
# Si number density = 21.127177 Si / 1000 Ang^3
#
#
#
# Elastic Constant Matrix: (Units=GPa)
#
#
# Indices 1 2 3 4 5 6 
#
# 1 41.2811 14.6073 -14.4220 0.0000 0.0000 0.0000
# 2 14.6073 101.9559 8.8497 0.0000 0.0000 0.0000
# 3 -14.4220 8.8497 32.8526 0.0000 0.0000 0.0000
# 4 0.0000 0.0000 0.0000 -1.4355 0.0000 0.0000
# 5 0.0000 0.0000 0.0000 0.0000 24.4057 0.0000
# 6 0.0000 0.0000 0.0000 0.0000 0.0000 24.8373
#
#
#
# Elastic Compliance Matrix: (Units=1/GPa)
#
#
# Indices 1 2 3 4 5 6 
#
# 1 0.031730 -0.005893 0.015517 0.000000 0.000000 0.000000
# 2 -0.005893 0.011137 -0.005587 0.000000 0.000000 0.000000
# 3 0.015517 -0.005587 0.038756 0.000000 0.000000 0.000000
# 4 0.000000 0.000000 0.000000 -0.696599 0.000000 0.000000
# 5 0.000000 0.000000 0.000000 0.000000 0.040974 0.000000
# 6 0.000000 0.000000 0.000000 0.000000 0.000000 0.040262
#
#
# Mechanical properties :
#
#
# Convention : Reuss Voigt Hill
#
# Bulk Modulus (GPa) = 11.14866 21.57330 16.36098
# Shear Modulus (GPa) = -9.76726 20.69847 5.46560
#
# Velocity S-wave (km/s) = -2.15247 3.13342 1.61016
# Velocity P-wave (km/s) = 0.94292 4.82954 3.34928
#
# Compressibility (1/GPa) = 0.08969689
#
# Stress axis : x y z
#
# Youngs Moduli (GPa) = 31.51568 89.78768 25.80265
#
# Poissons Ratio (x) = 0.52911 -0.40037
# Poissons Ratio (y) = 0.18572 0.14416
# Poissons Ratio (z) = -0.48902 0.50165
#
# Static dielectric constant tensor:
#      x y z
#    x 1.771250 0.000000 0.000000 
#    y 0.000000 1.761540 0.000000 
#    z 0.000000 0.000000 1.735740 
# 
# From -- ./inp_files/4540.got.cif
#   From: 2010.05.17/outbox.cif.g08.bks.cpg/sg29_3_cif.got.tgz:4540.got - 2010.06.04 01:19:37.
