data_PCOD9341669
_publ_section_title
;
Structure prediction by ZEFSAII (Michael W. Deem and Ramdas Pophale) SiO2 
 PCOD9341669
Probable space group: P C A 21
;
_chemical_formula_sum "Si O2"
_cell_formula_units_Z 20
_cell_length_a 9.896190
_cell_length_b 9.157714
_cell_length_c 9.196776
_cell_angle_alpha 90.000000
_cell_angle_beta 90.000000
_cell_angle_gamma 90.000000
_cell_volume 833.471415
_symmetry_space_group_name_H-M "P C A 21"
_symmetry_group_IT_number 29
_symmetry_cell_setting 'orthorhombic'
loop_
_space_group_symop_operation_xyz
x,y,z
-x,-y,1/2+z
1/2-x,y,1/2+z
1/2+x,-y,z
loop_
_atom_site_type_symbol
_atom_site_label
_atom_site_fract_x
_atom_site_fract_y
_atom_site_fract_z
Si Si1 0.287483 0.415084 0.272530
Si Si2 0.962587 0.151859 0.108310
Si Si3 0.820781 0.299352 0.616141
Si Si4 0.043359 0.147090 0.785400
Si Si5 0.015979 0.372485 0.361099
O O1 0.223739 0.538124 0.166341
O O2 0.336048 0.253397 0.232181
O O3 0.427551 0.485397 0.326922
O O4 0.170977 0.404090 0.394864
O O5 0.812506 0.211144 0.075039
O O6 0.021991 0.274565 0.216280
O O7 0.951687 0.004375 0.200482
O O8 0.045182 0.131105 0.959879
O O9 0.929404 0.299130 0.486962
O O10 0.899628 0.220788 0.746253
#
# Coordination Sequence:
#
# PCOD9341669 Si02
#       5
#     4   4   4   4   4
#     4  11  26  45  80 116 150 204 252 323 389 460
#     4  11  27  50  75 112 155 211 256 325 390 465
#     4  11  26  50  75 115 154 200 264 327 385 472
#     4  12  27  50  78 110 159 204 267 315 396 473
#     4  11  26  47  76 115 154 197 259 320 392 458
#
# _framework density 23.996023000000001
#
# number of rings (size 3 to 8) (size 9 to 14) (size 15 to 20)
#    0.000    0.800    2.000    3.600    8.400    0.000 
#    3.600    0.000    0.000    0.000    0.000    0.000 
#    0.000    0.000    0.000    0.000    0.000    0.000 
#
# Total GULP energy -111937.923586 kJ/mol
# GULP energy per Si atom -5596.896179 kJ/mol
# Density = 2.394141 g / cm^3
# Si number density = 23.996023 Si / 1000 Ang^3
#
#
#
# Elastic Constant Matrix: (Units=GPa)
#
#
# Indices 1 2 3 4 5 6 
#
# 1 127.0590 44.9765 14.2416 0.0000 0.0000 0.0000
# 2 44.9765 124.4083 42.0281 0.0000 0.0000 0.0000
# 3 14.2416 42.0281 119.9621 0.0000 0.0000 0.0000
# 4 0.0000 0.0000 0.0000 22.2548 0.0000 0.0000
# 5 0.0000 0.0000 0.0000 0.0000 38.7556 0.0000
# 6 0.0000 0.0000 0.0000 0.0000 0.0000 23.6544
#
#
#
# Elastic Compliance Matrix: (Units=1/GPa)
#
#
# Indices 1 2 3 4 5 6 
#
# 1 0.009026 -0.003291 0.000081 0.000000 0.000000 0.000000
# 2 -0.003291 0.010317 -0.003224 0.000000 0.000000 0.000000
# 3 0.000081 -0.003224 0.009456 0.000000 0.000000 0.000000
# 4 0.000000 0.000000 0.000000 0.044934 0.000000 0.000000
# 5 0.000000 0.000000 0.000000 0.000000 0.025803 0.000000
# 6 0.000000 0.000000 0.000000 0.000000 0.000000 0.042275
#
#
# Mechanical properties :
#
#
# Convention : Reuss Voigt Hill
#
# Bulk Modulus (GPa) = 62.76513 63.76907 63.26710
# Shear Modulus (GPa) = 31.25240 34.94519 33.09879
#
# Velocity S-wave (km/s) = 3.61279 3.82028 3.71798
# Velocity P-wave (km/s) = 6.60426 6.78910 6.69732
#
# Compressibility (1/GPa) = 0.01593241
#
# Stress axis : x y z
#
# Youngs Moduli (GPa) = 110.79039 96.92990 105.75585
#
# Poissons Ratio (x) = 0.31896 -0.00860
# Poissons Ratio (y) = 0.36457 0.34093
# Poissons Ratio (z) = -0.00901 0.31248
#
# Static dielectric constant tensor:
#      x y z
#    x 1.887270 0.000000 0.000000 
#    y 0.000000 1.912770 0.000000 
#    z 0.000000 0.000000 1.963680 
# 
# From -- ./inp_files/1060.got.cif
#   From: 2010.05.17/outbox.cif.g08.bks.cpg/sg29_1_cif.got.tgz:1060.got - 2010.06.04 01:19:37.
