data_PCOD9341027
_publ_section_title
;
Structure prediction by ZEFSAII (Michael W. Deem and Ramdas Pophale) SiO2 
 PCOD9341027
Probable space group: P C A 21
;
_chemical_formula_sum "Si O2"
_cell_formula_units_Z 24
_cell_length_a 10.050234
_cell_length_b 7.679399
_cell_length_c 12.965222
_cell_angle_alpha 90.000000
_cell_angle_beta 90.000000
_cell_angle_gamma 90.000000
_cell_volume 1000.652682
_symmetry_space_group_name_H-M "P C A 21"
_symmetry_group_IT_number 29
_symmetry_cell_setting 'orthorhombic'
loop_
_space_group_symop_operation_xyz
x,y,z
-x,-y,1/2+z
1/2-x,y,1/2+z
1/2+x,-y,z
loop_
_atom_site_type_symbol
_atom_site_label
_atom_site_fract_x
_atom_site_fract_y
_atom_site_fract_z
Si Si1 0.618750 0.362153 0.493200
Si Si2 0.141728 0.010524 0.888918
Si Si3 0.606274 0.191709 0.289542
Si Si4 0.883004 0.444418 0.597362
Si Si5 0.716901 0.813760 0.097319
Si Si6 0.983596 0.985282 0.074498
O O1 0.593057 0.349771 0.372954
O O2 0.771427 0.398821 0.514007
O O3 0.524003 0.499888 0.549899
O O4 0.583259 0.169604 0.538903
O O5 0.261237 0.912079 0.831051
O O6 0.196685 0.156642 0.971950
O O7 0.029555 0.086588 0.814212
O O8 0.052819 0.902893 0.972822
O O9 0.614811 0.293255 0.181601
O O10 0.608592 0.949834 0.142029
O O11 0.823518 0.627675 0.639146
O O12 0.865186 0.871449 0.115831
#
# Coordination Sequence:
#
# PCOD9341027 Si02
#       6
#     4   4   4   4   4   4
#     4  10  22  45  65 100 149 195 238 311 371 450
#     4   9  16  39  73 105 136 193 256 296 356 447
#     4  11  22  44  74 105 146 193 257 309 371 450
#     4  11  25  41  68 110 151 188 243 314 393 434
#     4   9  16  36  67 106 131 185 243 296 362 427
#     4   8  15  33  67  96 129 184 245 284 355 426
#
# _framework density 23.984347
#
# number of rings (size 3 to 8) (size 9 to 14) (size 15 to 20)
#    1.000    1.333    5.000    0.000    0.000    4.000 
#    0.000   10.000    0.000    0.000    0.000    4.667 
#    0.000    0.000    0.000    0.000    0.000    0.000 
#
# Total GULP energy -133914.770569 kJ/mol
# GULP energy per Si atom -5579.782107 kJ/mol
# Density = 2.392976 g / cm^3
# Si number density = 23.984347 Si / 1000 Ang^3
#
#
#
# Elastic Constant Matrix: (Units=GPa)
#
#
# Indices 1 2 3 4 5 6 
#
# 1 159.5379 52.4415 39.0383 0.0000 0.0000 0.0000
# 2 52.4415 119.8134 5.5888 0.0000 0.0000 0.0000
# 3 39.0383 5.5888 80.1090 0.0000 0.0000 0.0000
# 4 0.0000 0.0000 0.0000 31.8387 0.0000 0.0000
# 5 0.0000 0.0000 0.0000 0.0000 32.4998 0.0000
# 6 0.0000 0.0000 0.0000 0.0000 0.0000 27.9057
#
#
#
# Elastic Compliance Matrix: (Units=1/GPa)
#
#
# Indices 1 2 3 4 5 6 
#
# 1 0.008346 -0.003475 -0.003825 0.000000 0.000000 0.000000
# 2 -0.003475 0.009820 0.001008 0.000000 0.000000 0.000000
# 3 -0.003825 0.001008 0.014277 0.000000 0.000000 0.000000
# 4 0.000000 0.000000 0.000000 0.031408 0.000000 0.000000
# 5 0.000000 0.000000 0.000000 0.000000 0.030769 0.000000
# 6 0.000000 0.000000 0.000000 0.000000 0.000000 0.035835
#
#
# Mechanical properties :
#
#
# Convention : Reuss Voigt Hill
#
# Bulk Modulus (GPa) = 50.35193 61.51084 55.93138
# Shear Modulus (GPa) = 33.40949 35.94165 34.67557
#
# Velocity S-wave (km/s) = 3.73630 3.87531 3.80644
# Velocity P-wave (km/s) = 6.29702 6.76209 6.53370
#
# Compressibility (1/GPa) = 0.01986021
#
# Stress axis : x y z
#
# Youngs Moduli (GPa) = 119.81555 101.83186 70.04500
#
# Poissons Ratio (x) = 0.35383 0.26791
# Poissons Ratio (y) = 0.41632 -0.07062
# Poissons Ratio (z) = 0.45827 -0.10266
#
# Static dielectric constant tensor:
#      x y z
#    x 1.910150 0.000000 0.000000 
#    y 0.000000 2.025080 0.000000 
#    z 0.000000 0.000000 2.012530 
# 
# From -- ./inp_files/3095.got.cif
#   From: 2010.05.17/outbox.cif.g08.bks.cpg/sg29_2_cif.got.tgz:3095.got - 2010.06.04 01:19:37.
