data_PCOD9341389
_publ_section_title
;
Structure prediction by ZEFSAII (Michael W. Deem and Ramdas Pophale) SiO2 
 PCOD9341389
Probable space group: P C A 21
;
_chemical_formula_sum "Si O2"
_cell_formula_units_Z 16
_cell_length_a 8.961934
_cell_length_b 6.596841
_cell_length_c 9.716598
_cell_angle_alpha 90.000000
_cell_angle_beta 90.000000
_cell_angle_gamma 90.000000
_cell_volume 574.449682
_symmetry_space_group_name_H-M "P C A 21"
_symmetry_group_IT_number 29
_symmetry_cell_setting 'orthorhombic'
loop_
_space_group_symop_operation_xyz
x,y,z
-x,-y,1/2+z
1/2-x,y,1/2+z
1/2+x,-y,z
loop_
_atom_site_type_symbol
_atom_site_label
_atom_site_fract_x
_atom_site_fract_y
_atom_site_fract_z
Si Si1 0.878647 0.568537 0.911290
Si Si2 0.412395 0.101658 0.125878
Si Si3 0.718577 0.232018 0.246726
Si Si4 0.992499 0.677835 0.611317
O O1 0.789794 0.359240 0.884898
O O2 0.907404 0.652164 0.756315
O O3 0.162857 0.244179 0.511429
O O4 0.026229 0.476597 0.987167
O O5 0.298969 0.986692 0.229616
O O6 0.499752 0.909245 0.059806
O O7 0.547240 0.214950 0.201075
O O8 0.835316 0.363740 0.158506
#
# Coordination Sequence:
#
# PCOD9341389 Si02
#       4
#     4   4   4   4
#     4  12  24  53  80 122 171 221 285 353 415 524
#     4  10  26  50  78 120 173 216 281 350 419 512
#     4  10  26  50  79 126 164 234 271 352 437 497
#     4  10  28  45  83 120 166 223 281 339 437 493
#
# _framework density 27.852746
#
# number of rings (size 3 to 8) (size 9 to 14) (size 15 to 20)
#    1.500    0.000    2.500    0.000    7.000    4.000 
#    0.000    0.000    0.000    0.000    0.000    0.000 
#    0.000    0.000    0.000    0.000    0.000    0.000 
#
# Total GULP energy -89152.110346 kJ/mol
# GULP energy per Si atom -5572.006897 kJ/mol
# Density = 2.778935 g / cm^3
# Si number density = 27.852746 Si / 1000 Ang^3
#
#
#
# Elastic Constant Matrix: (Units=GPa)
#
#
# Indices 1 2 3 4 5 6 
#
# 1 123.1064 39.8153 47.1950 0.0000 0.0000 0.0000
# 2 39.8153 172.3235 61.5553 0.0000 0.0000 0.0000
# 3 47.1950 61.5553 116.5116 0.0000 0.0000 0.0000
# 4 0.0000 0.0000 0.0000 70.3418 0.0000 0.0000
# 5 0.0000 0.0000 0.0000 0.0000 26.3566 0.0000
# 6 0.0000 0.0000 0.0000 0.0000 0.0000 45.4442
#
#
#
# Elastic Compliance Matrix: (Units=1/GPa)
#
#
# Indices 1 2 3 4 5 6 
#
# 1 0.009765 -0.001039 -0.003406 0.000000 0.000000 0.000000
# 2 -0.001039 0.007264 -0.003416 0.000000 0.000000 0.000000
# 3 -0.003406 -0.003416 0.011768 0.000000 0.000000 0.000000
# 4 0.000000 0.000000 0.000000 0.014216 0.000000 0.000000
# 5 0.000000 0.000000 0.000000 0.000000 0.037941 0.000000
# 6 0.000000 0.000000 0.000000 0.000000 0.000000 0.022005
#
#
# Mechanical properties :
#
#
# Convention : Reuss Voigt Hill
#
# Bulk Modulus (GPa) = 76.50056 78.78587 77.64321
# Shear Modulus (GPa) = 40.63699 45.98691 43.31195
#
# Velocity S-wave (km/s) = 3.82382 4.06775 3.94767
# Velocity P-wave (km/s) = 6.85720 7.10001 6.97966
#
# Compressibility (1/GPa) = 0.01307180
#
# Stress axis : x y z
#
# Youngs Moduli (GPa) = 102.40522 137.67302 84.97896
#
# Poissons Ratio (x) = 0.14310 0.28947
# Poissons Ratio (y) = 0.10645 0.29033
# Poissons Ratio (z) = 0.34883 0.47035
#
# Static dielectric constant tensor:
#      x y z
#    x 2.305150 0.000000 0.000000 
#    y 0.000000 2.249920 0.000000 
#    z 0.000000 0.000000 2.181860 
# 
# From -- ./inp_files/1325.got.cif
#   From: 2010.05.17/outbox.cif.g08.bks.cpg/sg29_1_cif.got.tgz:1325.got - 2010.06.04 01:19:37.
