data_PCOD9341307
_publ_section_title
;
Structure prediction by ZEFSAII (Michael W. Deem and Ramdas Pophale) SiO2 
 PCOD9341307
Probable space group: P C A 21
;
_chemical_formula_sum "Si O2"
_cell_formula_units_Z 20
_cell_length_a 5.823161
_cell_length_b 16.079985
_cell_length_c 8.458272
_cell_angle_alpha 90.000000
_cell_angle_beta 90.000000
_cell_angle_gamma 90.000000
_cell_volume 792.001646
_symmetry_space_group_name_H-M "P C A 21"
_symmetry_group_IT_number 29
_symmetry_cell_setting 'orthorhombic'
loop_
_space_group_symop_operation_xyz
x,y,z
-x,-y,1/2+z
1/2-x,y,1/2+z
1/2+x,-y,z
loop_
_atom_site_type_symbol
_atom_site_label
_atom_site_fract_x
_atom_site_fract_y
_atom_site_fract_z
Si Si1 0.410443 0.573322 0.736710
Si Si2 0.679448 0.156000 0.972675
Si Si3 0.302048 0.404654 0.558286
Si Si4 0.576138 0.274623 0.716308
Si Si5 0.959853 0.045710 0.749494
O O1 0.342003 0.479916 0.685246
O O2 0.219320 0.643241 0.763028
O O3 0.529629 0.598154 0.569124
O O4 0.555496 0.578207 0.900520
O O5 0.524836 0.207821 0.851097
O O6 0.895500 0.115400 0.879689
O O7 0.776567 0.223020 0.092740
O O8 0.553708 0.086251 0.075079
O O9 0.364319 0.315729 0.629386
O O10 0.718779 0.991230 0.763272
#
# Coordination Sequence:
#
# PCOD9341307 Si02
#       5
#     4   4   4   4   4
#     4  12  26  42  68  95 135 194 249 305 361 430
#     4  10  24  46  70 106 140 184 224 308 370 436
#     4  12  26  42  68  95 135 194 249 305 361 430
#     4  11  24  48  62  99 150 174 246 295 360 428
#     4  11  24  50  80 109 144 188 242 295 372 472
#
# _framework density 25.252472000000001
#
# number of rings (size 3 to 8) (size 9 to 14) (size 15 to 20)
#    0.000    0.800    4.000    2.400    5.600    0.000 
#   21.600    0.000    0.000    0.000    0.000    0.000 
#    0.000    0.000    0.000    0.000    0.000    0.000 
#
# Total GULP energy -111603.418269 kJ/mol
# GULP energy per Si atom -5580.170913 kJ/mol
# Density = 2.519500 g / cm^3
# Si number density = 25.252472 Si / 1000 Ang^3
#
#
#
# Elastic Constant Matrix: (Units=GPa)
#
#
# Indices 1 2 3 4 5 6 
#
# 1 58.5738 35.1720 19.1779 0.0000 0.0000 0.0000
# 2 35.1720 98.8505 42.2589 0.0000 0.0000 0.0000
# 3 19.1779 42.2589 109.0621 0.0000 0.0000 0.0000
# 4 0.0000 0.0000 0.0000 35.4890 0.0000 0.0000
# 5 0.0000 0.0000 0.0000 0.0000 35.8968 0.0000
# 6 0.0000 0.0000 0.0000 0.0000 0.0000 6.0085
#
#
#
# Elastic Compliance Matrix: (Units=1/GPa)
#
#
# Indices 1 2 3 4 5 6 
#
# 1 0.021800 -0.007333 -0.000992 0.000000 0.000000 0.000000
# 2 -0.007333 0.014591 -0.004364 0.000000 0.000000 0.000000
# 3 -0.000992 -0.004364 0.011035 0.000000 0.000000 0.000000
# 4 0.000000 0.000000 0.000000 0.028178 0.000000 0.000000
# 5 0.000000 0.000000 0.000000 0.000000 0.027858 0.000000
# 6 0.000000 0.000000 0.000000 0.000000 0.000000 0.166430
#
#
# Mechanical properties :
#
#
# Convention : Reuss Voigt Hill
#
# Bulk Modulus (GPa) = 45.35604 51.07821 48.21713
# Shear Modulus (GPa) = 16.52240 26.80404 21.66322
#
# Velocity S-wave (km/s) = 2.56068 3.26151 2.93211
# Velocity P-wave (km/s) = 5.17134 5.86977 5.53159
#
# Compressibility (1/GPa) = 0.02204778
#
# Stress axis : x y z
#
# Youngs Moduli (GPa) = 45.87072 68.53517 90.62382
#
# Poissons Ratio (x) = 0.50254 0.08992
# Poissons Ratio (y) = 0.33635 0.39551
# Poissons Ratio (z) = 0.04552 0.29911
#
# Static dielectric constant tensor:
#      x y z
#    x 2.177380 0.000000 0.000000 
#    y 0.000000 2.005770 0.000000 
#    z 0.000000 0.000000 2.048140 
# 
# From -- ./inp_files/977.got.cif
#   From: 2010.05.17/outbox.cif.g08.bks.cpg/sg29_1_cif.got.tgz:977.got - 2010.06.04 01:19:37.
