data_PCOD9341387
_publ_section_title
;
Structure prediction by ZEFSAII (Michael W. Deem and Ramdas Pophale) SiO2 
 PCOD9341387
Probable space group: P C A 21
;
_chemical_formula_sum "Si O2"
_cell_formula_units_Z 32
_cell_length_a 19.878930
_cell_length_b 5.961286
_cell_length_c 11.882559
_cell_angle_alpha 90.000000
_cell_angle_beta 90.000000
_cell_angle_gamma 90.000000
_cell_volume 1408.130618
_symmetry_space_group_name_H-M "P C A 21"
_symmetry_group_IT_number 29
_symmetry_cell_setting 'orthorhombic'
loop_
_space_group_symop_operation_xyz
x,y,z
-x,-y,1/2+z
1/2-x,y,1/2+z
1/2+x,-y,z
loop_
_atom_site_type_symbol
_atom_site_label
_atom_site_fract_x
_atom_site_fract_y
_atom_site_fract_z
Si Si1 0.728297 0.339430 0.180510
Si Si2 0.607759 0.031582 0.148187
Si Si3 0.855750 0.670840 0.828752
Si Si4 0.324413 0.365030 0.063502
Si Si5 0.354038 0.982053 0.229120
Si Si6 0.985231 0.415989 0.746337
Si Si7 0.559546 0.837420 0.919632
Si Si8 0.556459 0.281582 0.563644
O O1 0.696980 0.489900 0.279912
O O2 0.756986 0.500080 0.084041
O O3 0.668269 0.200708 0.125107
O O4 0.789896 0.183512 0.223817
O O5 0.635345 0.878534 0.247035
O O6 0.545833 0.185952 0.193499
O O7 0.592361 0.872362 0.042203
O O8 0.928075 0.546022 0.816834
O O9 0.829325 0.766403 0.947215
O O10 0.332517 0.219568 0.175816
O O11 0.383219 0.545838 0.041096
O O12 0.394812 0.997200 0.345160
O O13 0.409857 0.901771 0.141254
O O14 0.048219 0.366409 0.829817
O O15 0.006548 0.570333 0.641328
O O16 0.481099 0.841905 0.960840
#
# Coordination Sequence:
#
# PCOD9341387 Si02
#       8
#     4   4   4   4   4   4   4   4
#     4  10  26  50  62 102 134 182 252 280 348 412
#     4  11  26  45  71 102 138 187 235 287 350 413
#     4  11  24  45  72  94 139 184 224 293 346 415
#     4  11  24  45  72  94 139 184 224 293 346 415
#     4  11  26  45  71 102 138 187 235 287 350 413
#     4  11  24  43  65 106 144 176 226 277 353 426
#     4  12  24  42  74 104 142 178 224 294 344 420
#     4  11  24  43  65 106 144 176 226 277 353 426
#
# _framework density 22.725163999999999
#
# number of rings (size 3 to 8) (size 9 to 14) (size 15 to 20)
#    0.000    1.000    3.750    1.500    3.500    2.000 
#    6.750    0.000    0.000    0.000    0.000    0.000 
#    0.000    0.000    0.000    0.000    0.000    0.000 
#
# Total GULP energy -178405.547513 kJ/mol
# GULP energy per Si atom -5575.173360 kJ/mol
# Density = 2.267344 g / cm^3
# Si number density = 22.725164 Si / 1000 Ang^3
#
#
#
# Elastic Constant Matrix: (Units=GPa)
#
#
# Indices 1 2 3 4 5 6 
#
# 1 75.0043 31.2868 10.4821 0.0000 0.0000 0.0000
# 2 31.2868 49.5113 6.5299 0.0000 0.0000 0.0000
# 3 10.4821 6.5299 69.1277 0.0000 0.0000 0.0000
# 4 0.0000 0.0000 0.0000 14.4178 0.0000 0.0000
# 5 0.0000 0.0000 0.0000 0.0000 15.9240 0.0000
# 6 0.0000 0.0000 0.0000 0.0000 0.0000 34.2431
#
#
#
# Elastic Compliance Matrix: (Units=1/GPa)
#
#
# Indices 1 2 3 4 5 6 
#
# 1 0.018301 -0.011340 -0.001704 0.000000 0.000000 0.000000
# 2 -0.011340 0.027479 -0.000876 0.000000 0.000000 0.000000
# 3 -0.001704 -0.000876 0.014807 0.000000 0.000000 0.000000
# 4 0.000000 0.000000 0.000000 0.069359 0.000000 0.000000
# 5 0.000000 0.000000 0.000000 0.000000 0.062798 0.000000
# 6 0.000000 0.000000 0.000000 0.000000 0.000000 0.029203
#
#
# Mechanical properties :
#
#
# Convention : Reuss Voigt Hill
#
# Bulk Modulus (GPa) = 30.53715 32.24899 31.39307
# Shear Modulus (GPa) = 19.17897 22.60661 20.89279
#
# Velocity S-wave (km/s) = 2.90824 3.15744 3.03540
# Velocity P-wave (km/s) = 4.97432 5.24540 5.11166
#
# Compressibility (1/GPa) = 0.03274700
#
# Stress axis : x y z
#
# Youngs Moduli (GPa) = 54.64210 36.39178 67.53511
#
# Poissons Ratio (x) = 0.41268 0.11507
# Poissons Ratio (y) = 0.61963 0.05917
# Poissons Ratio (z) = 0.09310 0.03189
#
# Static dielectric constant tensor:
#      x y z
#    x 1.865240 0.000000 0.000000 
#    y 0.000000 1.914140 0.000000 
#    z 0.000000 0.000000 1.894820 
# 
# From -- ./inp_files/3816.got.cif
#   From: 2010.05.17/outbox.cif.g08.bks.cpg/sg29_2_cif.got.tgz:3816.got - 2010.06.04 01:19:37.
