data_PCOD9341713
_publ_section_title
;
Structure prediction by ZEFSAII (Michael W. Deem and Ramdas Pophale) SiO2 
 PCOD9341713
Probable space group: P C A 21
;
_chemical_formula_sum "Si O2"
_cell_formula_units_Z 32
_cell_length_a 8.820480
_cell_length_b 11.068876
_cell_length_c 14.382720
_cell_angle_alpha 90.000000
_cell_angle_beta 90.000000
_cell_angle_gamma 90.000000
_cell_volume 1404.225216
_symmetry_space_group_name_H-M "P C A 21"
_symmetry_group_IT_number 29
_symmetry_cell_setting 'orthorhombic'
loop_
_space_group_symop_operation_xyz
x,y,z
-x,-y,1/2+z
1/2-x,y,1/2+z
1/2+x,-y,z
loop_
_atom_site_type_symbol
_atom_site_label
_atom_site_fract_x
_atom_site_fract_y
_atom_site_fract_z
Si Si1 0.453819 0.903242 0.323190
Si Si2 0.797527 0.518592 0.765851
Si Si3 0.351808 0.065852 0.639776
Si Si4 0.359095 0.627574 0.590918
Si Si5 0.430440 0.629329 0.375310
Si Si6 0.617197 0.116495 0.357156
Si Si7 0.656609 0.159241 0.559760
Si Si8 0.103254 0.251235 0.715387
O O1 0.541716 0.946481 0.231180
O O2 0.479846 0.767157 0.355090
O O3 0.275416 0.917806 0.308244
O O4 0.525746 0.998884 0.393494
O O5 0.843788 0.485144 0.660477
O O6 0.711481 0.405296 0.810746
O O7 0.935473 0.548247 0.833652
O O8 0.691831 0.636036 0.759351
O O9 0.480374 0.128173 0.575700
O O10 0.220935 0.156452 0.672829
O O11 0.269601 0.948584 0.594838
O O12 0.392160 0.602694 0.482767
O O13 0.213336 0.715192 0.603756
O O14 0.499449 0.702425 0.631757
O O15 0.675332 0.180253 0.450058
O O16 0.505321 0.193215 0.293439
#
# Coordination Sequence:
#
# PCOD9341713 Si02
#       8
#     4   4   4   4   4   4   4   4
#     4  12  24  46  73 111 153 204 248 319 394 465
#     4  12  28  52  75 111 153 204 267 331 391 465
#     4  12  25  44  75 110 156 199 254 313 392 472
#     4  12  28  50  78 109 155 201 269 330 396 475
#     4  12  28  50  79 112 152 209 269 322 399 471
#     4  12  26  46  74 111 157 200 253 323 393 479
#     4  12  26  45  76 116 154 200 259 321 391 481
#     4  12  27  49  74 106 152 209 253 323 402 460
#
# _framework density 22.788364000000001
#
# number of rings (size 3 to 8) (size 9 to 14) (size 15 to 20)
#    0.000    0.000    3.750    6.750    3.500    1.000 
#    0.000    0.000    0.000    0.000    0.000    0.000 
#    0.000    0.000    0.000    0.000    0.000    0.000 
#
# Total GULP energy -179012.347803 kJ/mol
# GULP energy per Si atom -5594.135869 kJ/mol
# Density = 2.273650 g / cm^3
# Si number density = 22.788364 Si / 1000 Ang^3
#
#
#
# Elastic Constant Matrix: (Units=GPa)
#
#
# Indices 1 2 3 4 5 6 
#
# 1 128.8595 30.9150 33.9598 0.0000 0.0000 0.0000
# 2 30.9150 76.5989 21.5514 0.0000 0.0000 0.0000
# 3 33.9598 21.5514 118.9358 0.0000 0.0000 0.0000
# 4 0.0000 0.0000 0.0000 29.5421 0.0000 0.0000
# 5 0.0000 0.0000 0.0000 0.0000 35.5438 0.0000
# 6 0.0000 0.0000 0.0000 0.0000 0.0000 40.2244
#
#
#
# Elastic Compliance Matrix: (Units=1/GPa)
#
#
# Indices 1 2 3 4 5 6 
#
# 1 0.009031 -0.003076 -0.002021 0.000000 0.000000 0.000000
# 2 -0.003076 0.014804 -0.001804 0.000000 0.000000 0.000000
# 3 -0.002021 -0.001804 0.009312 0.000000 0.000000 0.000000
# 4 0.000000 0.000000 0.000000 0.033850 0.000000 0.000000
# 5 0.000000 0.000000 0.000000 0.000000 0.028134 0.000000
# 6 0.000000 0.000000 0.000000 0.000000 0.000000 0.024861
#
#
# Mechanical properties :
#
#
# Convention : Reuss Voigt Hill
#
# Bulk Modulus (GPa) = 51.69584 55.24962 53.47273
# Shear Modulus (GPa) = 35.65234 36.92660 36.28947
#
# Velocity S-wave (km/s) = 3.95966 4.02980 3.99489
# Velocity P-wave (km/s) = 6.60603 6.77862 6.69288
#
# Compressibility (1/GPa) = 0.01934392
#
# Stress axis : x y z
#
# Youngs Moduli (GPa) = 110.72854 67.54853 107.38892
#
# Poissons Ratio (x) = 0.20779 0.21706
# Poissons Ratio (y) = 0.34063 0.19375
# Poissons Ratio (z) = 0.22381 0.12187
#
# Static dielectric constant tensor:
#      x y z
#    x 1.881890 0.000000 0.000000 
#    y 0.000000 1.910480 0.000000 
#    z 0.000000 0.000000 1.948230 
# 
# From -- ./inp_files/4342.got.cif
#   From: 2010.05.17/outbox.cif.g08.bks.cpg/sg29_3_cif.got.tgz:4342.got - 2010.06.04 01:19:37.
