data_PCOD9341602
_publ_section_title
;
Structure prediction by ZEFSAII (Michael W. Deem and Ramdas Pophale) SiO2 
 PCOD9341602
Probable space group: P C A 21
;
_chemical_formula_sum "Si O2"
_cell_formula_units_Z 32
_cell_length_a 8.602365
_cell_length_b 11.619592
_cell_length_c 14.720871
_cell_angle_alpha 90.000000
_cell_angle_beta 90.000000
_cell_angle_gamma 90.000000
_cell_volume 1471.438963
_symmetry_space_group_name_H-M "P C A 21"
_symmetry_group_IT_number 29
_symmetry_cell_setting 'orthorhombic'
loop_
_space_group_symop_operation_xyz
x,y,z
-x,-y,1/2+z
1/2-x,y,1/2+z
1/2+x,-y,z
loop_
_atom_site_type_symbol
_atom_site_label
_atom_site_fract_x
_atom_site_fract_y
_atom_site_fract_z
Si Si1 0.538180 0.664861 0.595330
Si Si2 0.576317 0.018024 0.531591
Si Si3 0.111134 0.427301 0.092808
Si Si4 0.667341 0.974919 0.159538
Si Si5 0.137703 0.794320 0.253197
Si Si6 0.501627 0.250372 0.447273
Si Si7 0.999041 0.747916 0.732210
Si Si8 0.859952 0.808702 0.923960
O O1 0.708126 0.606253 0.600903
O O2 0.416155 0.561978 0.583137
O O3 0.481253 0.735894 0.682450
O O4 0.558604 0.747602 0.509527
O O5 0.655056 0.980510 0.627422
O O6 0.583302 0.152286 0.508469
O O7 0.399537 0.991671 0.560134
O O8 0.617135 0.943088 0.444500
O O9 0.037327 0.371963 0.183302
O O10 0.025977 0.363191 0.008335
O O11 0.631959 0.067720 0.236805
O O12 0.599765 0.849696 0.182170
O O13 0.316527 0.765939 0.230109
O O14 0.093874 0.748802 0.352903
O O15 0.324564 0.212768 0.424278
O O16 0.937531 0.759537 0.834235
#
# Coordination Sequence:
#
# PCOD9341602 Si02
#       8
#     4   4   4   4   4   4   4   4
#     4  11  25  46  72  94 128 173 223 281 342 399
#     4  12  22  41  68  95 137 178 218 270 329 392
#     4  11  24  47  70  95 128 172 222 281 338 401
#     4  12  23  40  67  97 135 179 219 267 330 393
#     4  12  26  41  67 100 135 178 222 277 332 401
#     4  11  25  43  66  98 136 176 224 276 335 400
#     4  12  26  42  66 101 137 177 225 274 334 402
#     4  11  25  42  66  98 134 179 221 276 336 400
#
# _framework density 21.747419000000001
#
# number of rings (size 3 to 8) (size 9 to 14) (size 15 to 20)
#    0.000    0.500    5.000    3.000    3.500    5.000 
#    0.000    2.500    0.000    0.000    0.000    0.000 
#    0.000    0.000    0.000    0.000    0.000    0.000 
#
# Total GULP energy -178776.866046 kJ/mol
# GULP energy per Si atom -5586.777064 kJ/mol
# Density = 2.169792 g / cm^3
# Si number density = 21.747419 Si / 1000 Ang^3
#
#
#
# Elastic Constant Matrix: (Units=GPa)
#
#
# Indices 1 2 3 4 5 6 
#
# 1 58.8949 10.2715 29.0363 0.0000 0.0000 0.0000
# 2 10.2715 60.6092 4.6776 0.0000 0.0000 0.0000
# 3 29.0363 4.6776 107.0866 0.0000 0.0000 0.0000
# 4 0.0000 0.0000 0.0000 8.9474 0.0000 0.0000
# 5 0.0000 0.0000 0.0000 0.0000 39.8720 0.0000
# 6 0.0000 0.0000 0.0000 0.0000 0.0000 31.9831
#
#
#
# Elastic Compliance Matrix: (Units=1/GPa)
#
#
# Indices 1 2 3 4 5 6 
#
# 1 0.020129 -0.003000 -0.005327 0.000000 0.000000 0.000000
# 2 -0.003000 0.017002 0.000071 0.000000 0.000000 0.000000
# 3 -0.005327 0.000071 0.010780 0.000000 0.000000 0.000000
# 4 0.000000 0.000000 0.000000 0.111764 0.000000 0.000000
# 5 0.000000 0.000000 0.000000 0.000000 0.025080 0.000000
# 6 0.000000 0.000000 0.000000 0.000000 0.000000 0.031266
#
#
# Mechanical properties :
#
#
# Convention : Reuss Voigt Hill
#
# Bulk Modulus (GPa) = 31.84904 34.95129 33.40017
# Shear Modulus (GPa) = 20.57617 28.33420 24.45519
#
# Velocity S-wave (km/s) = 3.07928 3.61345 3.35701
# Velocity P-wave (km/s) = 5.22680 5.78928 5.51521
#
# Compressibility (1/GPa) = 0.03139812
#
# Stress axis : x y z
#
# Youngs Moduli (GPa) = 49.67987 58.81620 92.76864
#
# Poissons Ratio (x) = 0.17646 0.49416
# Poissons Ratio (y) = 0.14905 -0.00657
# Poissons Ratio (z) = 0.26464 -0.00417
#
# Static dielectric constant tensor:
#      x y z
#    x 1.784200 0.000000 0.000000 
#    y 0.000000 1.773250 0.000000 
#    z 0.000000 0.000000 1.776670 
# 
# From -- ./inp_files/4286.got.cif
#   From: 2010.05.17/outbox.cif.g08.bks.cpg/sg29_3_cif.got.tgz:4286.got - 2010.06.04 01:19:37.
