data_PCOD9341037
_publ_section_title
;
Structure prediction by ZEFSAII (Michael W. Deem and Ramdas Pophale) SiO2 
 PCOD9341037
Probable space group: P C A 21
;
_chemical_formula_sum "Si O2"
_cell_formula_units_Z 28
_cell_length_a 14.409575
_cell_length_b 5.764121
_cell_length_c 13.859864
_cell_angle_alpha 90.000000
_cell_angle_beta 90.000000
_cell_angle_gamma 90.000000
_cell_volume 1151.179983
_symmetry_space_group_name_H-M "P C A 21"
_symmetry_group_IT_number 29
_symmetry_cell_setting 'orthorhombic'
loop_
_space_group_symop_operation_xyz
x,y,z
-x,-y,1/2+z
1/2-x,y,1/2+z
1/2+x,-y,z
loop_
_atom_site_type_symbol
_atom_site_label
_atom_site_fract_x
_atom_site_fract_y
_atom_site_fract_z
Si Si1 0.769196 0.874886 0.722400
Si Si2 0.469245 0.626411 0.286618
Si Si3 0.810804 0.880741 0.502869
Si Si4 0.993033 0.135360 0.472769
Si Si5 0.848697 0.124684 0.899134
Si Si6 0.277987 0.500139 0.362524
Si Si7 0.546165 0.874850 0.694585
O O1 0.809997 0.853379 0.616562
O O2 0.780679 0.644469 0.785056
O O3 0.657209 0.893123 0.713633
O O4 0.818036 0.069010 0.789027
O O5 0.511205 0.668090 0.393203
O O6 0.357640 0.628753 0.302553
O O7 0.488456 0.369171 0.243678
O O8 0.490735 0.867600 0.227951
O O9 0.833503 0.659440 0.438121
O O10 0.884119 0.078327 0.475792
O O11 0.708631 0.944517 0.465516
O O12 0.025891 0.163109 0.581685
O O13 0.046389 0.913673 0.427424
O O14 0.797446 0.360556 0.922589
#
# Coordination Sequence:
#
# PCOD9341037 Si02
#       7
#     4   4   4   4   4   4   4
#     4  10  22  45  71 100 147 199 256 313 394 469
#     4  11  24  49  73 108 156 197 254 325 376 465
#     4  11  24  47  68 107 151 195 261 326 390 474
#     4  12  26  47  75 117 156 199 265 328 397 467
#     4  11  23  47  72 101 146 199 259 313 399 460
#     4  10  22  46  75  97 146 205 257 321 390 462
#     4  11  25  47  80 108 154 208 256 312 396 467
#
# _framework density 24.322868
#
# number of rings (size 3 to 8) (size 9 to 14) (size 15 to 20)
#    0.000    1.143    4.286    1.714    2.000    5.714 
#   10.286    0.000    0.000    0.000    0.000    0.000 
#    0.000    0.000    0.000    0.000    0.000    0.000 
#
# Total GULP energy -156403.184815 kJ/mol
# GULP energy per Si atom -5585.828029 kJ/mol
# Density = 2.426751 g / cm^3
# Si number density = 24.322868 Si / 1000 Ang^3
#
#
#
# Elastic Constant Matrix: (Units=GPa)
#
#
# Indices 1 2 3 4 5 6 
#
# 1 60.4121 16.1270 15.2092 0.0000 0.0000 0.0000
# 2 16.1270 130.8157 74.0354 0.0000 0.0000 0.0000
# 3 15.2092 74.0354 197.6320 0.0000 0.0000 0.0000
# 4 0.0000 0.0000 0.0000 18.3708 0.0000 0.0000
# 5 0.0000 0.0000 0.0000 0.0000 27.0062 0.0000
# 6 0.0000 0.0000 0.0000 0.0000 0.0000 31.9929
#
#
#
# Elastic Compliance Matrix: (Units=1/GPa)
#
#
# Indices 1 2 3 4 5 6 
#
# 1 0.017186 -0.001739 -0.000671 0.000000 0.000000 0.000000
# 2 -0.001739 0.009877 -0.003566 0.000000 0.000000 0.000000
# 3 -0.000671 -0.003566 0.006448 0.000000 0.000000 0.000000
# 4 0.000000 0.000000 0.000000 0.054434 0.000000 0.000000
# 5 0.000000 0.000000 0.000000 0.000000 0.037029 0.000000
# 6 0.000000 0.000000 0.000000 0.000000 0.000000 0.031257
#
#
# Mechanical properties :
#
#
# Convention : Reuss Voigt Hill
#
# Bulk Modulus (GPa) = 46.38626 66.62255 56.50440
# Shear Modulus (GPa) = 28.51131 34.37320 31.44226
#
# Velocity S-wave (km/s) = 3.42746 3.76334 3.59932
# Velocity P-wave (km/s) = 5.89710 6.80691 6.36827
#
# Compressibility (1/GPa) = 0.02155811
#
# Stress axis : x y z
#
# Youngs Moduli (GPa) = 58.18646 101.24507 155.09839
#
# Poissons Ratio (x) = 0.17605 0.10410
# Poissons Ratio (y) = 0.10118 0.55312
# Poissons Ratio (z) = 0.03906 0.36106
#
# Static dielectric constant tensor:
#      x y z
#    x 1.915660 0.000000 0.000000 
#    y 0.000000 2.007460 0.000000 
#    z 0.000000 0.000000 1.896160 
# 
# From -- ./inp_files/4653.got.cif
#   From: 2010.05.17/outbox.cif.g08.bks.cpg/sg29_3_cif.got.tgz:4653.got - 2010.06.04 01:19:37.
