data_PCOD9341601
_publ_section_title
;
Structure prediction by ZEFSAII (Michael W. Deem and Ramdas Pophale) SiO2 
 PCOD9341601
Probable space group: P C A 21
;
_chemical_formula_sum "Si O2"
_cell_formula_units_Z 16
_cell_length_a 13.467290
_cell_length_b 6.485554
_cell_length_c 7.725534
_cell_angle_alpha 90.000000
_cell_angle_beta 90.000000
_cell_angle_gamma 90.000000
_cell_volume 674.770053
_symmetry_space_group_name_H-M "P C A 21"
_symmetry_group_IT_number 29
_symmetry_cell_setting 'orthorhombic'
loop_
_space_group_symop_operation_xyz
x,y,z
-x,-y,1/2+z
1/2-x,y,1/2+z
1/2+x,-y,z
loop_
_atom_site_type_symbol
_atom_site_label
_atom_site_fract_x
_atom_site_fract_y
_atom_site_fract_z
Si Si1 0.862222 0.836545 0.317900
Si Si2 0.316065 0.866342 0.841892
Si Si3 0.347339 0.604616 0.163371
Si Si4 0.012825 0.127016 0.161638
O O1 0.831690 0.625615 0.226698
O O2 0.935150 0.813290 0.481972
O O3 0.770037 0.968641 0.392295
O O4 0.921712 0.962550 0.168977
O O5 0.252373 0.727585 0.710646
O O6 0.402320 0.008107 0.766065
O O7 0.358441 0.689226 0.968865
O O8 0.452497 0.681916 0.246230
#
# Coordination Sequence:
#
# PCOD9341601 Si02
#       4
#     4   4   4   4
#     4  11  26  46  75 108 150 199 249 311 375 452
#     4  11  24  47  69 109 156 191 252 318 367 444
#     4  11  26  43  75 112 144 206 249 301 391 447
#     4  11  24  48  69 107 158 192 248 318 371 441
#
# _framework density 23.711784000000002
#
# number of rings (size 3 to 8) (size 9 to 14) (size 15 to 20)
#    0.000    1.000    5.000    0.000    3.500    6.000 
#    0.000    0.000    0.000    0.000    0.000    0.000 
#    0.000    0.000    0.000    0.000    0.000    0.000 
#
# Total GULP energy -89135.468836 kJ/mol
# GULP energy per Si atom -5570.966802 kJ/mol
# Density = 2.365781 g / cm^3
# Si number density = 23.711784 Si / 1000 Ang^3
#
#
#
# Elastic Constant Matrix: (Units=GPa)
#
#
# Indices 1 2 3 4 5 6 
#
# 1 131.7514 25.5170 17.9611 0.0000 0.0000 0.0000
# 2 25.5170 101.0643 30.4576 0.0000 0.0000 0.0000
# 3 17.9611 30.4576 69.8109 0.0000 0.0000 0.0000
# 4 0.0000 0.0000 0.0000 38.0185 0.0000 0.0000
# 5 0.0000 0.0000 0.0000 0.0000 22.9238 0.0000
# 6 0.0000 0.0000 0.0000 0.0000 0.0000 20.5144
#
#
#
# Elastic Compliance Matrix: (Units=1/GPa)
#
#
# Indices 1 2 3 4 5 6 
#
# 1 0.008093 -0.001630 -0.001371 0.000000 0.000000 0.000000
# 2 -0.001630 0.011721 -0.004694 0.000000 0.000000 0.000000
# 3 -0.001371 -0.004694 0.016725 0.000000 0.000000 0.000000
# 4 0.000000 0.000000 0.000000 0.026303 0.000000 0.000000
# 5 0.000000 0.000000 0.000000 0.000000 0.043623 0.000000
# 6 0.000000 0.000000 0.000000 0.000000 0.000000 0.048746
#
#
# Mechanical properties :
#
#
# Convention : Reuss Voigt Hill
#
# Bulk Modulus (GPa) = 47.28540 50.05532 48.67036
# Shear Modulus (GPa) = 28.14510 31.53741 29.84125
#
# Velocity S-wave (km/s) = 3.44898 3.65092 3.55138
# Velocity P-wave (km/s) = 5.98712 6.23923 6.11447
#
# Compressibility (1/GPa) = 0.02114818
#
# Stress axis : x y z
#
# Youngs Moduli (GPa) = 123.56893 85.31699 59.78999
#
# Poissons Ratio (x) = 0.13908 0.08197
# Poissons Ratio (y) = 0.20143 0.28067
# Poissons Ratio (z) = 0.16940 0.40051
#
# Static dielectric constant tensor:
#      x y z
#    x 2.007440 0.000000 0.000000 
#    y 0.000000 1.920730 0.000000 
#    z 0.000000 0.000000 2.051940 
# 
# From -- ./inp_files/1295.got.cif
#   From: 2010.05.17/outbox.cif.g08.bks.cpg/sg29_1_cif.got.tgz:1295.got - 2010.06.04 01:19:37.
