data_PCOD9341613
_publ_section_title
;
Structure prediction by ZEFSAII (Michael W. Deem and Ramdas Pophale) SiO2 
 PCOD9341613
Probable space group: P C A 21
;
_chemical_formula_sum "Si O2"
_cell_formula_units_Z 28
_cell_length_a 14.723583
_cell_length_b 5.329678
_cell_length_c 14.468983
_cell_angle_alpha 90.000000
_cell_angle_beta 90.000000
_cell_angle_gamma 90.000000
_cell_volume 1135.409403
_symmetry_space_group_name_H-M "P C A 21"
_symmetry_group_IT_number 29
_symmetry_cell_setting 'orthorhombic'
loop_
_space_group_symop_operation_xyz
x,y,z
-x,-y,1/2+z
1/2-x,y,1/2+z
1/2+x,-y,z
loop_
_atom_site_type_symbol
_atom_site_label
_atom_site_fract_x
_atom_site_fract_y
_atom_site_fract_z
Si Si1 0.458549 0.378310 0.399070
Si Si2 0.030311 0.750934 0.596158
Si Si3 0.715623 0.312708 0.899062
Si Si4 0.712157 0.023640 0.242169
Si Si5 0.626800 0.686831 0.399064
Si Si6 0.530301 0.249036 0.201983
Si Si7 0.212160 0.976361 0.555956
O O1 0.486960 0.246153 0.493776
O O2 0.354862 0.462542 0.399065
O O3 0.521058 0.629120 0.399064
O O4 0.486961 0.246121 0.304371
O O5 0.139258 0.767859 0.587481
O O6 0.000010 0.499983 0.649072
O O7 0.000006 0.999983 0.649072
O O8 0.710881 0.146098 0.807003
O O9 0.816994 0.427879 0.899064
O O10 0.710879 0.146087 0.991118
O O11 0.639250 0.232130 0.210647
O O12 0.749998 0.903104 0.149062
O O13 0.658220 0.836748 0.308968
O O14 0.658218 0.836751 0.489160
#
# Coordination Sequence:
#
# PCOD9341613 Si02
#       7
#     4   4   4   4   4   4   4
#     4  12  25  52  78 107 163 198 260 329 390 470
#     4  12  27  47  76 114 149 205 257 315 391 460
#     4  11  25  47  75 105 147 204 257 316 404 449
#     4  11  25  46  73 108 153 199 260 326 382 475
#     4  11  24  49  73 108 150 208 255 323 396 463
#     4  12  27  47  76 114 149 205 257 315 391 460
#     4  11  25  46  73 108 153 199 260 326 382 475
#
# _framework density 24.660709000000001
#
# number of rings (size 3 to 8) (size 9 to 14) (size 15 to 20)
#    0.000    0.571    2.857    4.286    4.000    2.286 
#    5.143    0.000    0.000    0.000    0.000    0.000 
#    0.000    0.000    0.000    0.000    0.000    0.000 
#
# Total GULP energy -157018.487479 kJ/mol
# GULP energy per Si atom -5607.803124 kJ/mol
# Density = 2.460458 g / cm^3
# Si number density = 24.660709 Si / 1000 Ang^3
#
#
#
# Elastic Constant Matrix: (Units=GPa)
#
#
# Indices 1 2 3 4 5 6 
#
# 1 63.0190 2.9669 28.5629 0.0000 0.0000 0.0000
# 2 2.9669 112.1526 72.4272 0.0000 0.0000 0.0000
# 3 28.5629 72.4272 224.5462 0.0000 0.0000 0.0000
# 4 0.0000 0.0000 0.0000 30.7077 0.0000 0.0000
# 5 0.0000 0.0000 0.0000 0.0000 26.4287 0.0000
# 6 0.0000 0.0000 0.0000 0.0000 0.0000 43.6622
#
#
#
# Elastic Compliance Matrix: (Units=1/GPa)
#
#
# Indices 1 2 3 4 5 6 
#
# 1 0.016965 0.001193 -0.002543 0.000000 0.000000 0.000000
# 2 0.001193 0.011346 -0.003812 0.000000 0.000000 0.000000
# 3 -0.002543 -0.003812 0.006006 0.000000 0.000000 0.000000
# 4 0.000000 0.000000 0.000000 0.032565 0.000000 0.000000
# 5 0.000000 0.000000 0.000000 0.000000 0.037838 0.000000
# 6 0.000000 0.000000 0.000000 0.000000 0.000000 0.022903
#
#
# Mechanical properties :
#
#
# Convention : Reuss Voigt Hill
#
# Bulk Modulus (GPa) = 41.67515 67.51465 54.59490
# Shear Modulus (GPa) = 34.25982 39.87710 37.06846
#
# Velocity S-wave (km/s) = 3.73130 4.02559 3.88124
# Velocity P-wave (km/s) = 5.95815 7.00315 6.50168
#
# Compressibility (1/GPa) = 0.02399512
#
# Stress axis : x y z
#
# Youngs Moduli (GPa) = 58.94635 88.13428 166.49190
#
# Poissons Ratio (x) = -0.10518 0.42337
# Poissons Ratio (y) = -0.07034 0.63459
# Poissons Ratio (z) = 0.14989 0.33593
#
# Static dielectric constant tensor:
#      x y z
#    x 1.927600 0.000000 0.000000 
#    y 0.000000 1.948260 0.000000 
#    z 0.000000 0.000000 1.989120 
# 
# From -- ./inp_files/4662.got.cif
#   From: 2010.05.17/outbox.cif.g08.bks.cpg/sg29_3_cif.got.tgz:4662.got - 2010.06.04 01:19:37.
