data_PCOD9341457
_publ_section_title
;
Structure prediction by ZEFSAII (Michael W. Deem and Ramdas Pophale) SiO2 
 PCOD9341457
Probable space group: P C A 21
;
_chemical_formula_sum "Si O2"
_cell_formula_units_Z 32
_cell_length_a 4.681983
_cell_length_b 28.511006
_cell_length_c 8.830418
_cell_angle_alpha 90.000000
_cell_angle_beta 90.000000
_cell_angle_gamma 90.000000
_cell_volume 1178.755239
_symmetry_space_group_name_H-M "P C A 21"
_symmetry_group_IT_number 29
_symmetry_cell_setting 'orthorhombic'
loop_
_space_group_symop_operation_xyz
x,y,z
-x,-y,1/2+z
1/2-x,y,1/2+z
1/2+x,-y,z
loop_
_atom_site_type_symbol
_atom_site_label
_atom_site_fract_x
_atom_site_fract_y
_atom_site_fract_z
Si Si1 0.442541 0.968757 0.148230
Si Si2 0.034521 0.786208 0.847240
Si Si3 0.522358 0.722209 0.854168
Si Si4 0.367395 0.155748 0.125215
Si Si5 0.278348 0.400260 0.513135
Si Si6 0.279334 0.661328 0.590886
Si Si7 0.360752 0.086218 0.366722
Si Si8 0.852025 0.533122 0.258749
O O1 0.593702 0.936157 0.273904
O O2 0.111921 0.981656 0.165059
O O3 0.486360 0.951250 0.976268
O O4 0.846408 0.738586 0.858346
O O5 0.881309 0.817788 0.719953
O O6 0.352113 0.769677 0.812869
O O7 0.032903 0.809523 0.012806
O O8 0.440867 0.682343 0.734857
O O9 0.396041 0.703112 0.010856
O O10 0.518589 0.120638 0.245716
O O11 0.240247 0.121522 0.997769
O O12 0.534059 0.377864 0.611500
O O13 0.131750 0.444382 0.594192
O O14 0.414904 0.423025 0.365707
O O15 0.032131 0.361857 0.491261
O O16 0.537861 0.512823 0.279200
#
# Coordination Sequence:
#
# PCOD9341457 Si02
#       8
#     4   4   4   4   4   4   4   4
#     4  11  22  40  62  90 122 160 202 250 302 360
#     4  11  22  41  62  88 118 158 198 248 298 357
#     4  12  24  41  64  91 122 158 202 247 300 357
#     4   9  20  41  62  88 122 158 202 248 302 357
#     4  12  24  42  64  91 124 160 200 247 300 354
#     4  12  24  41  62  91 122 158 198 247 298 357
#     4   9  20  40  62  90 122 160 202 250 302 360
#     4  12  24  42  64  91 122 160 202 247 296 354
#
# _framework density 27.147283000000002
#
# number of rings (size 3 to 8) (size 9 to 14) (size 15 to 20)
#    0.000    1.000    0.000    7.500    0.000    0.000 
#    0.000   25.000    0.000    0.000    0.000    0.000 
#    0.000    0.000    0.000    0.000    0.000    0.000 
#
# Total GULP energy -179364.326857 kJ/mol
# GULP energy per Si atom -5605.135214 kJ/mol
# Density = 2.708549 g / cm^3
# Si number density = 27.147283 Si / 1000 Ang^3
#
#
#
# Elastic Constant Matrix: (Units=GPa)
#
#
# Indices 1 2 3 4 5 6 
#
# 1 84.7128 14.9175 15.5027 0.0000 0.0000 0.0000
# 2 14.9175 111.2558 41.6525 0.0000 0.0000 0.0000
# 3 15.5027 41.6525 135.6160 0.0000 0.0000 0.0000
# 4 0.0000 0.0000 0.0000 53.8136 0.0000 0.0000
# 5 0.0000 0.0000 0.0000 0.0000 28.3082 0.0000
# 6 0.0000 0.0000 0.0000 0.0000 0.0000 25.2308
#
#
#
# Elastic Compliance Matrix: (Units=1/GPa)
#
#
# Indices 1 2 3 4 5 6 
#
# 1 0.012211 -0.001260 -0.001009 0.000000 0.000000 0.000000
# 2 -0.001260 0.010286 -0.003015 0.000000 0.000000 0.000000
# 3 -0.001009 -0.003015 0.008415 0.000000 0.000000 0.000000
# 4 0.000000 0.000000 0.000000 0.018583 0.000000 0.000000
# 5 0.000000 0.000000 0.000000 0.000000 0.035325 0.000000
# 6 0.000000 0.000000 0.000000 0.000000 0.000000 0.039634
#
#
# Mechanical properties :
#
#
# Convention : Reuss Voigt Hill
#
# Bulk Modulus (GPa) = 49.15286 52.85887 51.00586
# Shear Modulus (GPa) = 35.26005 38.77133 37.01569
#
# Velocity S-wave (km/s) = 3.60786 3.78323 3.69658
# Velocity P-wave (km/s) = 5.95825 6.21267 6.08679
#
# Compressibility (1/GPa) = 0.02034470
#
# Stress axis : x y z
#
# Youngs Moduli (GPa) = 81.89308 97.21926 118.83273
#
# Poissons Ratio (x) = 0.12245 0.11991
# Poissons Ratio (y) = 0.10315 0.35831
# Poissons Ratio (z) = 0.08263 0.29314
#
# Static dielectric constant tensor:
#      x y z
#    x 2.030100 0.000000 0.000000 
#    y 0.000000 2.158410 0.000000 
#    z 0.000000 0.000000 2.115800 
# 
# From -- ./inp_files/1015.got.cif
#   From: 2010.05.17/outbox.cif.g08.bks.cpg/sg29_1_cif.got.tgz:1015.got - 2010.06.04 01:19:37.
