data_PCOD9341040
_publ_section_title
;
Structure prediction by ZEFSAII (Michael W. Deem and Ramdas Pophale) SiO2 
 PCOD9341040
Probable space group: P C A 21
;
_chemical_formula_sum "Si O2"
_cell_formula_units_Z 32
_cell_length_a 10.960051
_cell_length_b 11.389099
_cell_length_c 12.837866
_cell_angle_alpha 90.000000
_cell_angle_beta 90.000000
_cell_angle_gamma 90.000000
_cell_volume 1602.487983
_symmetry_space_group_name_H-M "P C A 21"
_symmetry_group_IT_number 29
_symmetry_cell_setting 'orthorhombic'
loop_
_space_group_symop_operation_xyz
x,y,z
-x,-y,1/2+z
1/2-x,y,1/2+z
1/2+x,-y,z
loop_
_atom_site_type_symbol
_atom_site_label
_atom_site_fract_x
_atom_site_fract_y
_atom_site_fract_z
Si Si1 0.193947 0.770499 0.219570
Si Si2 0.058073 0.143420 0.799230
Si Si3 0.425768 0.329793 0.653529
Si Si4 0.948838 0.408336 0.572232
Si Si5 0.569488 0.915321 0.034114
Si Si6 0.120815 0.627884 0.833834
Si Si7 0.679682 0.010355 0.628566
Si Si8 0.340777 0.375667 0.233086
O O1 0.147129 0.667600 0.141749
O O2 0.261109 0.710114 0.317385
O O3 0.287503 0.858365 0.164797
O O4 0.078170 0.848654 0.253056
O O5 0.097872 0.278507 0.805337
O O6 0.150921 0.074858 0.724932
O O7 0.062202 0.087165 0.910891
O O8 0.435517 0.452092 0.589859
O O9 0.440026 0.215208 0.582914
O O10 0.521258 0.330686 0.748994
O O11 0.292919 0.335153 0.704145
O O12 0.929858 0.376259 0.451341
O O13 0.078635 0.380057 0.626916
O O14 0.449845 0.986232 0.070203
O O15 0.700433 0.966117 0.068642
O O16 0.156782 0.498521 0.793026
#
# Coordination Sequence:
#
# PCOD9341040 Si02
#       8
#     4   4   4   4   4   4   4   4
#     4  11  24  45  66 102 142 169 231 284 331 419
#     4  11  26  46  72  97 137 184 224 288 341 396
#     4  11  22  45  66 100 136 173 229 277 333 419
#     4  10  24  41  68 101 137 180 215 277 350 407
#     4  12  27  45  75  97 137 184 228 287 345 399
#     4  11  23  40  71 100 137 182 217 277 353 410
#     4  12  26  48  65 103 139 175 240 282 330 412
#     4  10  22  46  63 100 139 167 232 282 329 418
#
# _framework density 19.968948999999999
#
# number of rings (size 3 to 8) (size 9 to 14) (size 15 to 20)
#    0.000    1.000    5.000    0.750    3.500    2.000 
#    0.000    0.000    0.000    0.000    0.000    0.000 
#    0.000    0.000    0.000    0.000    0.000    0.000 
#
# Total GULP energy -178747.435622 kJ/mol
# GULP energy per Si atom -5585.857363 kJ/mol
# Density = 1.992350 g / cm^3
# Si number density = 19.968949 Si / 1000 Ang^3
#
#
#
# Elastic Constant Matrix: (Units=GPa)
#
#
# Indices 1 2 3 4 5 6 
#
# 1 109.9177 30.5724 27.2407 0.0000 0.0000 0.0000
# 2 30.5724 65.2747 36.4425 0.0000 0.0000 0.0000
# 3 27.2407 36.4425 93.7228 0.0000 0.0000 0.0000
# 4 0.0000 0.0000 0.0000 16.1754 0.0000 0.0000
# 5 0.0000 0.0000 0.0000 0.0000 9.3767 0.0000
# 6 0.0000 0.0000 0.0000 0.0000 0.0000 51.8655
#
#
#
# Elastic Compliance Matrix: (Units=1/GPa)
#
#
# Indices 1 2 3 4 5 6 
#
# 1 0.010617 -0.004151 -0.001472 0.000000 0.000000 0.000000
# 2 -0.004151 0.021191 -0.007033 0.000000 0.000000 0.000000
# 3 -0.001472 -0.007033 0.013832 0.000000 0.000000 0.000000
# 4 0.000000 0.000000 0.000000 0.061822 0.000000 0.000000
# 5 0.000000 0.000000 0.000000 0.000000 0.106647 0.000000
# 6 0.000000 0.000000 0.000000 0.000000 0.000000 0.019281
#
#
# Mechanical properties :
#
#
# Convention : Reuss Voigt Hill
#
# Bulk Modulus (GPa) = 49.19300 50.82514 50.00907
# Shear Modulus (GPa) = 18.83394 27.12747 22.98071
#
# Velocity S-wave (km/s) = 3.07442 3.68976 3.39606
# Velocity P-wave (km/s) = 6.10664 6.60755 6.36203
#
# Compressibility (1/GPa) = 0.02032810
#
# Stress axis : x y z
#
# Youngs Moduli (GPa) = 94.18845 47.19083 72.29474
#
# Poissons Ratio (x) = 0.19588 0.10641
# Poissons Ratio (y) = 0.39097 0.50846
# Poissons Ratio (z) = 0.13863 0.33190
#
# Static dielectric constant tensor:
#      x y z
#    x 1.730870 0.000000 0.000000 
#    y 0.000000 1.712730 0.000000 
#    z 0.000000 0.000000 1.675090 
# 
# From -- ./inp_files/3219.got.cif
#   From: 2010.05.17/outbox.cif.g08.bks.cpg/sg29_2_cif.got.tgz:3219.got - 2010.06.04 01:19:37.
