data_PCOD9341612
_publ_section_title
;
Structure prediction by ZEFSAII (Michael W. Deem and Ramdas Pophale) SiO2 
 PCOD9341612
Probable space group: P C A 21
;
_chemical_formula_sum "Si O2"
_cell_formula_units_Z 24
_cell_length_a 8.671379
_cell_length_b 11.597836
_cell_length_c 10.277570
_cell_angle_alpha 90.000000
_cell_angle_beta 90.000000
_cell_angle_gamma 90.000000
_cell_volume 1033.607317
_symmetry_space_group_name_H-M "P C A 21"
_symmetry_group_IT_number 29
_symmetry_cell_setting 'orthorhombic'
loop_
_space_group_symop_operation_xyz
x,y,z
-x,-y,1/2+z
1/2-x,y,1/2+z
1/2+x,-y,z
loop_
_atom_site_type_symbol
_atom_site_label
_atom_site_fract_x
_atom_site_fract_y
_atom_site_fract_z
Si Si1 0.447316 0.724774 0.662920
Si Si2 0.791624 0.403626 0.464681
Si Si3 0.206187 0.832690 0.803575
Si Si4 0.127067 0.053499 0.295942
Si Si5 0.552437 0.631964 0.938952
Si Si6 0.749687 0.829879 0.544642
O O1 0.401530 0.608973 0.589068
O O2 0.283159 0.791173 0.668641
O O3 0.506246 0.696905 0.806373
O O4 0.579691 0.794672 0.592037
O O5 0.818998 0.285714 0.382659
O O6 0.611564 0.407146 0.495832
O O7 0.842912 0.522834 0.400547
O O8 0.049181 0.904536 0.799649
O O9 0.339772 0.923612 0.844089
O O10 0.185024 0.079037 0.149214
O O11 0.226752 0.126748 0.398184
O O12 0.641947 0.717565 0.035517
#
# Coordination Sequence:
#
# PCOD9341612 Si02
#       6
#     4   4   4   4   4   4
#     4  11  24  49  72 112 147 196 255 312 379 450
#     4  11  25  46  74 109 156 196 257 310 385 449
#     4  11  27  46  73 110 149 199 251 312 378 461
#     4  12  27  46  77 106 153 196 253 311 384 450
#     4  11  26  46  75 111 150 201 255 315 380 455
#     4  12  25  47  77 108 147 198 249 312 382 453
#
# _framework density 23.219649
#
# number of rings (size 3 to 8) (size 9 to 14) (size 15 to 20)
#    0.000    0.667    3.333    3.000    4.667    8.000 
#    0.000    0.000    0.000    0.000    0.000    0.000 
#    0.000    0.000    0.000    0.000    0.000    0.000 
#
# Total GULP energy -134087.101656 kJ/mol
# GULP energy per Si atom -5586.962569 kJ/mol
# Density = 2.316680 g / cm^3
# Si number density = 23.219649 Si / 1000 Ang^3
#
#
#
# Elastic Constant Matrix: (Units=GPa)
#
#
# Indices 1 2 3 4 5 6 
#
# 1 98.3287 54.3853 21.3081 0.0000 0.0000 0.0000
# 2 54.3853 126.0360 13.3745 0.0000 0.0000 0.0000
# 3 21.3081 13.3745 57.6875 0.0000 0.0000 0.0000
# 4 0.0000 0.0000 0.0000 33.1935 0.0000 0.0000
# 5 0.0000 0.0000 0.0000 0.0000 39.3064 0.0000
# 6 0.0000 0.0000 0.0000 0.0000 0.0000 50.2737
#
#
#
# Elastic Compliance Matrix: (Units=1/GPa)
#
#
# Indices 1 2 3 4 5 6 
#
# 1 0.014170 -0.005699 -0.003913 0.000000 0.000000 0.000000
# 2 -0.005699 0.010427 -0.000312 0.000000 0.000000 0.000000
# 3 -0.003913 -0.000312 0.018852 0.000000 0.000000 0.000000
# 4 0.000000 0.000000 0.000000 0.030126 0.000000 0.000000
# 5 0.000000 0.000000 0.000000 0.000000 0.025441 0.000000
# 6 0.000000 0.000000 0.000000 0.000000 0.000000 0.019891
#
#
# Mechanical properties :
#
#
# Convention : Reuss Voigt Hill
#
# Bulk Modulus (GPa) = 42.37144 51.13199 46.75172
# Shear Modulus (GPa) = 34.10105 37.42036 35.76070
#
# Velocity S-wave (km/s) = 3.83643 4.01881 3.92867
# Velocity P-wave (km/s) = 6.15727 6.60327 6.38417
#
# Compressibility (1/GPa) = 0.02360080
#
# Stress axis : x y z
#
# Youngs Moduli (GPa) = 70.57102 95.90813 53.04367
#
# Poissons Ratio (x) = 0.54661 0.20754
# Poissons Ratio (y) = 0.40220 0.01656
# Poissons Ratio (z) = 0.27612 0.02994
#
# Static dielectric constant tensor:
#      x y z
#    x 1.873990 0.000000 0.000000 
#    y 0.000000 1.958010 0.000000 
#    z 0.000000 0.000000 1.912010 
# 
# From -- ./inp_files/2819.got.cif
#   From: 2010.05.17/outbox.cif.g08.bks.cpg/sg29_2_cif.got.tgz:2819.got - 2010.06.04 01:19:37.
