data_PCOD9341263
_publ_section_title
;
Structure prediction by ZEFSAII (Michael W. Deem and Ramdas Pophale) SiO2 
 PCOD9341263
Probable space group: P C A 21
;
_chemical_formula_sum "Si O2"
_cell_formula_units_Z 28
_cell_length_a 11.010298
_cell_length_b 4.761084
_cell_length_c 19.052387
_cell_angle_alpha 90.000000
_cell_angle_beta 90.000000
_cell_angle_gamma 90.000000
_cell_volume 998.744296
_symmetry_space_group_name_H-M "P C A 21"
_symmetry_group_IT_number 29
_symmetry_cell_setting 'orthorhombic'
loop_
_space_group_symop_operation_xyz
x,y,z
-x,-y,1/2+z
1/2-x,y,1/2+z
1/2+x,-y,z
loop_
_atom_site_type_symbol
_atom_site_label
_atom_site_fract_x
_atom_site_fract_y
_atom_site_fract_z
Si Si1 0.293081 0.511536 0.380060
Si Si2 0.216782 0.197406 0.020272
Si Si3 0.545750 0.992201 0.860374
Si Si4 0.599161 0.980154 0.706500
Si Si5 0.777647 0.474225 0.727955
Si Si6 0.533864 0.861153 0.505033
Si Si7 0.044207 0.407346 0.119101
O O1 0.255959 0.412836 0.457102
O O2 0.328966 0.836695 0.375991
O O3 0.213340 0.458903 0.311303
O O4 0.418429 0.332629 0.371065
O O5 0.336479 0.016527 0.027334
O O6 0.180467 0.364661 0.088889
O O7 0.092362 0.026418 0.012359
O O8 0.522302 0.020499 0.778276
O O9 0.458667 0.119013 0.919426
O O10 0.717987 0.173340 0.716237
O O11 0.522311 0.121699 0.643612
O O12 0.664960 0.678495 0.703217
O O13 0.910347 0.459799 0.692325
O O14 0.517509 0.586572 0.555793
#
# Coordination Sequence:
#
# PCOD9341263 Si02
#       7
#     4   4   4   4   4   4   4
#     4   9  19  44  68 103 135 196 241 314 362 446
#     4  11  26  45  75 103 158 194 260 306 383 449
#     4   9  19  44  68 101 140 187 252 301 372 440
#     4  10  24  43  70 100 144 192 245 312 370 446
#     4  10  24  43  71 100 146 188 252 302 380 442
#     4  11  26  47  73 112 148 205 246 317 375 458
#     4  12  26  42  71 107 147 196 248 310 378 453
#
# _framework density 28.035205999999999
#
# number of rings (size 3 to 8) (size 9 to 14) (size 15 to 20)
#    0.000    1.714    1.429    0.857    8.000    1.143 
#    0.000    0.000    3.143    0.000    0.000    0.000 
#    0.000    0.000    0.000    0.000    0.000    0.000 
#
# Total GULP energy -156337.371073 kJ/mol
# GULP energy per Si atom -5583.477538 kJ/mol
# Density = 2.797140 g / cm^3
# Si number density = 28.035206 Si / 1000 Ang^3
#
#
#
# Elastic Constant Matrix: (Units=GPa)
#
#
# Indices 1 2 3 4 5 6 
#
# 1 130.4930 24.2950 50.5440 0.0000 0.0000 0.0000
# 2 24.2950 75.0938 11.1687 0.0000 0.0000 0.0000
# 3 50.5440 11.1687 162.1025 0.0000 0.0000 0.0000
# 4 0.0000 0.0000 0.0000 45.9661 0.0000 0.0000
# 5 0.0000 0.0000 0.0000 0.0000 46.8914 0.0000
# 6 0.0000 0.0000 0.0000 0.0000 0.0000 16.9807
#
#
#
# Elastic Compliance Matrix: (Units=1/GPa)
#
#
# Indices 1 2 3 4 5 6 
#
# 1 0.009182 -0.002571 -0.002686 0.000000 0.000000 0.000000
# 2 -0.002571 0.014175 -0.000175 0.000000 0.000000 0.000000
# 3 -0.002686 -0.000175 0.007018 0.000000 0.000000 0.000000
# 4 0.000000 0.000000 0.000000 0.021755 0.000000 0.000000
# 5 0.000000 0.000000 0.000000 0.000000 0.021326 0.000000
# 6 0.000000 0.000000 0.000000 0.000000 0.000000 0.058890
#
#
# Mechanical properties :
#
#
# Convention : Reuss Voigt Hill
#
# Bulk Modulus (GPa) = 51.25261 59.96720 55.60991
# Shear Modulus (GPa) = 33.39691 40.74640 37.07166
#
# Velocity S-wave (km/s) = 3.45519 3.81649 3.64032
# Velocity P-wave (km/s) = 5.85141 6.39196 6.12765
#
# Compressibility (1/GPa) = 0.01951120
#
# Stress axis : x y z
#
# Youngs Moduli (GPa) = 108.90520 70.54890 142.48138
#
# Poissons Ratio (x) = 0.18140 0.38269
# Poissons Ratio (y) = 0.28002 0.02492
# Poissons Ratio (z) = 0.29251 0.01234
#
# Static dielectric constant tensor:
#      x y z
#    x 2.105100 0.000000 0.000000 
#    y 0.000000 2.232360 0.000000 
#    z 0.000000 0.000000 2.361750 
# 
# From -- ./inp_files/5116.got.cif
#   From: 2010.05.17/outbox.cif.g08.bks.cpg/sg29_3_cif.got.tgz:5116.got - 2010.06.04 01:19:37.
