data_PCOD9341312
_publ_section_title
;
Structure prediction by ZEFSAII (Michael W. Deem and Ramdas Pophale) SiO2 
 PCOD9341312
Probable space group: P C A 21
;
_chemical_formula_sum "Si O2"
_cell_formula_units_Z 32
_cell_length_a 8.120022
_cell_length_b 11.682257
_cell_length_c 16.436473
_cell_angle_alpha 90.000000
_cell_angle_beta 90.000000
_cell_angle_gamma 90.000000
_cell_volume 1559.166851
_symmetry_space_group_name_H-M "P C A 21"
_symmetry_group_IT_number 29
_symmetry_cell_setting 'orthorhombic'
loop_
_space_group_symop_operation_xyz
x,y,z
-x,-y,1/2+z
1/2-x,y,1/2+z
1/2+x,-y,z
loop_
_atom_site_type_symbol
_atom_site_label
_atom_site_fract_x
_atom_site_fract_y
_atom_site_fract_z
Si Si1 0.424296 0.645249 0.344550
Si Si2 0.934518 0.137829 0.449392
Si Si3 0.812933 0.885294 0.403571
Si Si4 0.798811 0.519969 0.933663
Si Si5 0.442849 0.741265 0.178547
Si Si6 0.535553 0.673756 0.997869
Si Si7 0.382260 0.859928 0.639467
Si Si8 0.255521 0.099157 0.209901
O O1 0.369349 0.767224 0.384392
O O2 0.310486 0.537884 0.364430
O O3 0.586641 0.614221 0.394115
O O4 0.458522 0.649913 0.249744
O O5 0.882824 0.161520 0.542375
O O6 0.131731 0.135047 0.440196
O O7 0.875540 0.009368 0.431264
O O8 0.925726 0.781533 0.438523
O O9 0.798050 0.896605 0.305937
O O10 0.691967 0.588789 0.998546
O O11 0.894018 0.411361 0.968131
O O12 0.249653 0.774292 0.179324
O O13 0.583865 0.832364 0.202588
O O14 0.489761 0.713317 0.086962
O O15 0.573607 0.858375 0.667879
O O16 0.297449 0.979909 0.667168
#
# Coordination Sequence:
#
# PCOD9341312 Si02
#       8
#     4   4   4   4   4   4   4   4
#     4  11  24  47  69 101 136 182 240 292 358 429
#     4  12  24  43  67 104 142 187 235 285 361 433
#     4  12  26  43  71 104 141 191 230 293 362 435
#     4  10  24  46  74  93 136 188 235 297 351 433
#     4  12  25  44  68 105 140 179 242 302 357 428
#     4  11  24  46  70 103 136 184 239 292 359 428
#     4  12  25  41  66 103 145 196 230 293 355 430
#     4  12  24  44  65 101 152 185 237 292 353 432
#
# _framework density 20.523781
#
# number of rings (size 3 to 8) (size 9 to 14) (size 15 to 20)
#    0.000    0.500    3.750    4.500    5.250    1.000 
#    0.000    0.000    0.000    0.000    0.000    0.000 
#    0.000    0.000    0.000    0.000    0.000    0.000 
#
# Total GULP energy -178532.065978 kJ/mol
# GULP energy per Si atom -5579.127062 kJ/mol
# Density = 2.047707 g / cm^3
# Si number density = 20.523781 Si / 1000 Ang^3
#
#
#
# Elastic Constant Matrix: (Units=GPa)
#
#
# Indices 1 2 3 4 5 6 
#
# 1 75.3778 -0.4262 -0.2449 0.0000 0.0000 0.0000
# 2 -0.4262 58.7277 -12.0715 0.0000 0.0000 0.0000
# 3 -0.2449 -12.0715 81.4871 0.0000 0.0000 0.0000
# 4 0.0000 0.0000 0.0000 14.5425 0.0000 0.0000
# 5 0.0000 0.0000 0.0000 0.0000 28.9595 0.0000
# 6 0.0000 0.0000 0.0000 0.0000 0.0000 -37.2009
#
#
#
# Elastic Compliance Matrix: (Units=1/GPa)
#
#
# Indices 1 2 3 4 5 6 
#
# 1 0.013267 0.000108 0.000056 0.000000 0.000000 0.000000
# 2 0.000108 0.017563 0.002602 0.000000 0.000000 0.000000
# 3 0.000056 0.002602 0.012658 0.000000 0.000000 0.000000
# 4 0.000000 0.000000 0.000000 0.068764 0.000000 0.000000
# 5 0.000000 0.000000 0.000000 0.000000 0.034531 0.000000
# 6 0.000000 0.000000 0.000000 0.000000 0.000000 -0.026881
#
#
# Mechanical properties :
#
#
# Convention : Reuss Voigt Hill
#
# Bulk Modulus (GPa) = 20.39994 21.12305 20.76150
# Shear Modulus (GPa) = 38.25246 16.48255 27.36750
#
# Velocity S-wave (km/s) = 4.32187 2.83697 3.65561
# Velocity P-wave (km/s) = 5.90474 4.58754 5.28732
#
# Compressibility (1/GPa) = 0.04901974
#
# Stress axis : x y z
#
# Youngs Moduli (GPa) = 75.37329 56.93659 79.00430
#
# Poissons Ratio (x) = -0.00614 -0.00441
# Poissons Ratio (y) = -0.00812 -0.20558
# Poissons Ratio (z) = -0.00421 -0.14816
#
# Static dielectric constant tensor:
#      x y z
#    x 1.810890 0.000000 0.000000 
#    y 0.000000 1.785680 0.000000 
#    z 0.000000 0.000000 1.702140 
# 
# From -- ./inp_files/4267.got.cif
#   From: 2010.05.17/outbox.cif.g08.bks.cpg/sg29_3_cif.got.tgz:4267.got - 2010.06.04 01:19:37.
