data_PCOD9341697
_publ_section_title
;
Structure prediction by ZEFSAII (Michael W. Deem and Ramdas Pophale) SiO2 
 PCOD9341697
Probable space group: P C A 21
;
_chemical_formula_sum "Si O2"
_cell_formula_units_Z 28
_cell_length_a 14.110214
_cell_length_b 17.224766
_cell_length_c 4.962018
_cell_angle_alpha 90.000000
_cell_angle_beta 90.000000
_cell_angle_gamma 90.000000
_cell_volume 1205.994332
_symmetry_space_group_name_H-M "P C A 21"
_symmetry_group_IT_number 29
_symmetry_cell_setting 'orthorhombic'
loop_
_space_group_symop_operation_xyz
x,y,z
-x,-y,1/2+z
1/2-x,y,1/2+z
1/2+x,-y,z
loop_
_atom_site_type_symbol
_atom_site_label
_atom_site_fract_x
_atom_site_fract_y
_atom_site_fract_z
Si Si1 0.689867 0.610653 0.099970
Si Si2 0.575133 0.293467 0.306381
Si Si3 0.687544 0.875086 0.179674
Si Si4 0.043349 0.260084 0.297415
Si Si5 0.438505 0.981524 0.786610
Si Si6 0.060907 0.524002 0.268070
Si Si7 0.189950 0.844797 0.144865
O O1 0.779913 0.622619 0.293498
O O2 0.609985 0.670639 0.191880
O O3 0.648738 0.525728 0.159409
O O4 0.547572 0.263675 0.602587
O O5 0.585172 0.386055 0.306119
O O6 0.662939 0.244595 0.194681
O O7 0.489502 0.273518 0.101164
O O8 0.724432 0.861319 0.879333
O O9 0.648694 0.961372 0.223216
O O10 0.602471 0.817898 0.256731
O O11 0.401235 0.895580 0.726378
O O12 0.476533 0.995099 0.086034
O O13 0.021469 0.488010 0.545507
O O14 0.275913 0.863417 0.346459
#
# Coordination Sequence:
#
# PCOD9341697 Si02
#       7
#     4   4   4   4   4   4   4
#     4  12  24  39  63  94 126 160 209 271 329 382
#     4  12  24  43  70  92 129 176 222 266 327 400
#     4  12  24  41  64  96 133 170 208 266 325 381
#     4  12  23  42  65  96 130 170 218 262 328 398
#     4  12  24  44  69  98 132 175 227 265 323 392
#     4  12  23  44  65  93 126 175 220 270 328 401
#     4  12  26  45  68 101 138 176 222 282 334 384
#
# _framework density 23.217355999999999
#
# number of rings (size 3 to 8) (size 9 to 14) (size 15 to 20)
#    0.000    0.000    2.857    8.571    0.000    1.143 
#    0.000    0.000    0.000    0.000    0.000    0.000 
#    0.000    0.000    0.000    0.000    0.000    0.000 
#
# Total GULP energy -157000.619590 kJ/mol
# GULP energy per Si atom -5607.164985 kJ/mol
# Density = 2.316451 g / cm^3
# Si number density = 23.217356 Si / 1000 Ang^3
#
#
#
# Elastic Constant Matrix: (Units=GPa)
#
#
# Indices 1 2 3 4 5 6 
#
# 1 36.9295 -2.4101 -2.5892 0.0000 0.0000 0.0000
# 2 -2.4101 87.5171 0.1453 0.0000 0.0000 0.0000
# 3 -2.5892 0.1453 68.0770 0.0000 0.0000 0.0000
# 4 0.0000 0.0000 0.0000 22.9958 0.0000 0.0000
# 5 0.0000 0.0000 0.0000 0.0000 42.2679 0.0000
# 6 0.0000 0.0000 0.0000 0.0000 0.0000 45.1689
#
#
#
# Elastic Compliance Matrix: (Units=1/GPa)
#
#
# Indices 1 2 3 4 5 6 
#
# 1 0.027200 0.000747 0.001033 0.000000 0.000000 0.000000
# 2 0.000747 0.011447 0.000004 0.000000 0.000000 0.000000
# 3 0.001033 0.000004 0.014729 0.000000 0.000000 0.000000
# 4 0.000000 0.000000 0.000000 0.043486 0.000000 0.000000
# 5 0.000000 0.000000 0.000000 0.000000 0.023659 0.000000
# 6 0.000000 0.000000 0.000000 0.000000 0.000000 0.022139
#
#
# Mechanical properties :
#
#
# Convention : Reuss Voigt Hill
#
# Bulk Modulus (GPa) = 17.56120 20.31284 18.93702
# Shear Modulus (GPa) = 31.63113 35.24501 33.43807
#
# Velocity S-wave (km/s) = 3.69506 3.90044 3.79914
# Velocity P-wave (km/s) = 5.07788 5.39004 5.23629
#
# Compressibility (1/GPa) = 0.05694371
#
# Stress axis : x y z
#
# Youngs Moduli (GPa) = 36.76492 87.35977 67.89545
#
# Poissons Ratio (x) = -0.06529 -0.07013
# Poissons Ratio (y) = -0.02748 -0.00027
# Poissons Ratio (z) = -0.03797 -0.00035
#
# Static dielectric constant tensor:
#      x y z
#    x 1.862790 0.000000 0.000000 
#    y 0.000000 1.867060 0.000000 
#    z 0.000000 0.000000 1.819350 
# 
# From -- ./inp_files/101.got.cif
#   From: 2010.05.17/outbox.cif.g08.bks.cpg/sg29_1_cif.got.tgz:101.got - 2010.06.04 01:19:37.
