data_PCOD9341546
_publ_section_title
;
Structure prediction by ZEFSAII (Michael W. Deem and Ramdas Pophale) SiO2 
 PCOD9341546
Probable space group: P C A 21
;
_chemical_formula_sum "Si O2"
_cell_formula_units_Z 32
_cell_length_a 18.317760
_cell_length_b 6.362177
_cell_length_c 12.095733
_cell_angle_alpha 90.000000
_cell_angle_beta 90.000000
_cell_angle_gamma 90.000000
_cell_volume 1409.646780
_symmetry_space_group_name_H-M "P C A 21"
_symmetry_group_IT_number 29
_symmetry_cell_setting 'orthorhombic'
loop_
_space_group_symop_operation_xyz
x,y,z
-x,-y,1/2+z
1/2-x,y,1/2+z
1/2+x,-y,z
loop_
_atom_site_type_symbol
_atom_site_label
_atom_site_fract_x
_atom_site_fract_y
_atom_site_fract_z
Si Si1 0.561786 0.012336 0.068240
Si Si2 0.498561 0.659916 0.397837
Si Si3 0.322173 0.715851 0.651491
Si Si4 0.704825 0.957517 0.685367
Si Si5 0.249160 0.406454 0.328989
Si Si6 0.070766 0.764881 0.673978
Si Si7 0.642155 0.601975 0.524645
Si Si8 0.120573 0.391933 0.971047
O O1 0.485817 0.914994 0.109459
O O2 0.603385 0.147505 0.162928
O O3 0.617701 0.835437 0.025485
O O4 0.543635 0.157609 0.963583
O O5 0.480212 0.668105 0.269437
O O6 0.581020 0.673382 0.436875
O O7 0.462881 0.448843 0.445902
O O8 0.287704 0.576719 0.749308
O O9 0.345387 0.551822 0.558360
O O10 0.258830 0.882199 0.623448
O O11 0.752401 0.826564 0.774827
O O12 0.668638 0.783353 0.606868
O O13 0.636682 0.097740 0.726464
O O14 0.210484 0.439750 0.446043
O O15 0.334796 0.424069 0.358153
O O16 0.108804 0.590078 0.595816
#
# Coordination Sequence:
#
# PCOD9341546 Si02
#       8
#     4   4   4   4   4   4   4   4
#     4  11  24  46  72 105 147 195 250 306 369 454
#     4  11  25  43  73 107 145 200 241 301 376 437
#     4  11  26  44  70 105 140 190 245 304 371 440
#     4  12  25  48  70 106 147 191 247 311 370 445
#     4  12  26  44  73 104 144 194 245 309 378 438
#     4  12  26  46  75 109 153 196 252 309 374 454
#     4  12  27  47  73 111 151 191 253 311 371 453
#     4  11  23  48  68 101 145 187 241 301 367 443
#
# _framework density 22.700721999999999
#
# number of rings (size 3 to 8) (size 9 to 14) (size 15 to 20)
#    0.000    0.500    2.500    6.000    3.500    5.000 
#    2.250    0.000    0.000    0.000    0.000    0.000 
#    0.000    0.000    0.000    0.000    0.000    0.000 
#
# Total GULP energy -178788.377875 kJ/mol
# GULP energy per Si atom -5587.136809 kJ/mol
# Density = 2.264905 g / cm^3
# Si number density = 22.700722 Si / 1000 Ang^3
#
#
#
# Elastic Constant Matrix: (Units=GPa)
#
#
# Indices 1 2 3 4 5 6 
#
# 1 76.2565 16.8076 5.5723 0.0000 0.0000 0.0000
# 2 16.8076 83.9445 11.8438 0.0000 0.0000 0.0000
# 3 5.5723 11.8438 54.1233 0.0000 0.0000 0.0000
# 4 0.0000 0.0000 0.0000 19.3420 0.0000 0.0000
# 5 0.0000 0.0000 0.0000 0.0000 30.0375 0.0000
# 6 0.0000 0.0000 0.0000 0.0000 0.0000 49.6764
#
#
#
# Elastic Compliance Matrix: (Units=1/GPa)
#
#
# Indices 1 2 3 4 5 6 
#
# 1 0.013756 -0.002636 -0.000839 0.000000 0.000000 0.000000
# 2 -0.002636 0.012797 -0.002529 0.000000 0.000000 0.000000
# 3 -0.000839 -0.002529 0.019116 0.000000 0.000000 0.000000
# 4 0.000000 0.000000 0.000000 0.051701 0.000000 0.000000
# 5 0.000000 0.000000 0.000000 0.000000 0.033292 0.000000
# 6 0.000000 0.000000 0.000000 0.000000 0.000000 0.020130
#
#
# Mechanical properties :
#
#
# Convention : Reuss Voigt Hill
#
# Bulk Modulus (GPa) = 29.70822 31.41908 30.56365
# Shear Modulus (GPa) = 28.73213 31.81788 30.27501
#
# Velocity S-wave (km/s) = 3.56152 3.74789 3.65589
# Velocity P-wave (km/s) = 5.47977 5.70960 5.59586
#
# Compressibility (1/GPa) = 0.03366071
#
# Stress axis : x y z
#
# Youngs Moduli (GPa) = 72.69594 78.14204 52.31172
#
# Poissons Ratio (x) = 0.20597 0.04391
# Poissons Ratio (y) = 0.19161 0.13230
# Poissons Ratio (z) = 0.06102 0.19762
#
# Static dielectric constant tensor:
#      x y z
#    x 1.932970 0.000000 0.000000 
#    y 0.000000 1.863580 0.000000 
#    z 0.000000 0.000000 1.837020 
# 
# From -- ./inp_files/3894.got.cif
#   From: 2010.05.17/outbox.cif.g08.bks.cpg/sg29_2_cif.got.tgz:3894.got - 2010.06.04 01:19:37.
