data_PCOD9341104
_publ_section_title
;
Structure prediction by ZEFSAII (Michael W. Deem and Ramdas Pophale) SiO2 
 PCOD9341104
Probable space group: P C A 21
;
_chemical_formula_sum "Si O2"
_cell_formula_units_Z 24
_cell_length_a 21.717026
_cell_length_b 6.526557
_cell_length_c 7.861400
_cell_angle_alpha 90.000000
_cell_angle_beta 90.000000
_cell_angle_gamma 90.000000
_cell_volume 1114.254460
_symmetry_space_group_name_H-M "P C A 21"
_symmetry_group_IT_number 29
_symmetry_cell_setting 'orthorhombic'
loop_
_space_group_symop_operation_xyz
x,y,z
-x,-y,1/2+z
1/2-x,y,1/2+z
1/2+x,-y,z
loop_
_atom_site_type_symbol
_atom_site_label
_atom_site_fract_x
_atom_site_fract_y
_atom_site_fract_z
Si Si1 0.202346 0.585468 0.957390
Si Si2 0.058370 0.857822 0.532483
Si Si3 0.227927 0.266813 0.217838
Si Si4 0.301666 0.954652 0.985318
Si Si5 0.504402 0.733632 0.679832
Si Si6 0.431718 0.598487 0.355437
O O1 0.231880 0.417180 0.833831
O O2 0.137819 0.666611 0.890368
O O3 0.188757 0.437443 0.117972
O O4 0.251374 0.770269 0.978837
O O5 0.132334 0.867640 0.532275
O O6 0.037265 0.782317 0.345845
O O7 0.040198 0.731663 0.701866
O O8 0.028404 0.075240 0.572737
O O9 0.274911 0.128923 0.109159
O O10 0.190618 0.089600 0.314101
O O11 0.467682 0.609002 0.533947
O O12 0.562799 0.623969 0.768825
#
# Coordination Sequence:
#
# PCOD9341104 Si02
#       6
#     4   4   4   4   4   4
#     4  11  24  43  70 102 142 184 233 298 363 428
#     4  12  26  47  72 103 143 185 246 297 355 434
#     4  10  23  42  64 106 136 183 232 280 374 422
#     4  11  24  43  70 102 142 184 233 298 363 428
#     4  12  27  46  72 102 138 195 238 296 362 418
#     4  12  26  47  72 103 143 185 246 297 355 434
#
# _framework density 21.539065999999998
#
# number of rings (size 3 to 8) (size 9 to 14) (size 15 to 20)
#    0.000    0.667    3.333    4.000    4.667    5.333 
#    0.000    0.000    0.000    0.000    0.000    0.000 
#    0.000    0.000    0.000    0.000    0.000    0.000 
#
# Total GULP energy -133793.265681 kJ/mol
# GULP energy per Si atom -5574.719403 kJ/mol
# Density = 2.149004 g / cm^3
# Si number density = 21.539066 Si / 1000 Ang^3
#
#
#
# Elastic Constant Matrix: (Units=GPa)
#
#
# Indices 1 2 3 4 5 6 
#
# 1 60.0018 13.4944 21.6164 0.0000 0.0000 0.0000
# 2 13.4944 89.4046 34.8869 0.0000 0.0000 0.0000
# 3 21.6164 34.8869 128.6173 0.0000 0.0000 0.0000
# 4 0.0000 0.0000 0.0000 39.3103 0.0000 0.0000
# 5 0.0000 0.0000 0.0000 0.0000 18.4593 0.0000
# 6 0.0000 0.0000 0.0000 0.0000 0.0000 38.5363
#
#
#
# Elastic Compliance Matrix: (Units=1/GPa)
#
#
# Indices 1 2 3 4 5 6 
#
# 1 0.017973 -0.001716 -0.002555 0.000000 0.000000 0.000000
# 2 -0.001716 0.012673 -0.003149 0.000000 0.000000 0.000000
# 3 -0.002555 -0.003149 0.009059 0.000000 0.000000 0.000000
# 4 0.000000 0.000000 0.000000 0.025439 0.000000 0.000000
# 5 0.000000 0.000000 0.000000 0.000000 0.054173 0.000000
# 6 0.000000 0.000000 0.000000 0.000000 0.000000 0.025950
#
#
# Mechanical properties :
#
#
# Convention : Reuss Voigt Hill
#
# Bulk Modulus (GPa) = 40.21862 46.44657 43.33259
# Shear Modulus (GPa) = 29.69235 33.12958 31.41096
#
# Velocity S-wave (km/s) = 3.71689 3.92614 3.82295
# Velocity P-wave (km/s) = 6.09371 6.49334 6.29669
#
# Compressibility (1/GPa) = 0.02486411
#
# Stress axis : x y z
#
# Youngs Moduli (GPa) = 55.64033 78.90861 110.39180
#
# Poissons Ratio (x) = 0.13538 0.28208
# Poissons Ratio (y) = 0.09546 0.34764
# Poissons Ratio (z) = 0.14218 0.24849
#
# Static dielectric constant tensor:
#      x y z
#    x 1.733310 0.000000 0.000000 
#    y 0.000000 1.820300 0.000000 
#    z 0.000000 0.000000 1.942710 
# 
# From -- ./inp_files/2381.got.cif
#   From: 2010.05.17/outbox.cif.g08.bks.cpg/sg29_2_cif.got.tgz:2381.got - 2010.06.04 01:19:37.
