data_PCOD9341672
_publ_section_title
;
Structure prediction by ZEFSAII (Michael W. Deem and Ramdas Pophale) SiO2 
 PCOD9341672
Probable space group: P C A 21
;
_chemical_formula_sum "Si O2"
_cell_formula_units_Z 28
_cell_length_a 10.249584
_cell_length_b 12.234977
_cell_length_c 9.129490
_cell_angle_alpha 90.000000
_cell_angle_beta 90.000000
_cell_angle_gamma 90.000000
_cell_volume 1144.869310
_symmetry_space_group_name_H-M "P C A 21"
_symmetry_group_IT_number 29
_symmetry_cell_setting 'orthorhombic'
loop_
_space_group_symop_operation_xyz
x,y,z
-x,-y,1/2+z
1/2-x,y,1/2+z
1/2+x,-y,z
loop_
_atom_site_type_symbol
_atom_site_label
_atom_site_fract_x
_atom_site_fract_y
_atom_site_fract_z
Si Si1 0.365039 0.236131 0.779830
Si Si2 0.766131 0.389120 0.925327
Si Si3 0.878562 0.184232 0.090966
Si Si4 0.189064 0.380603 0.561509
Si Si5 0.930984 0.358392 0.646367
Si Si6 0.437418 0.024356 0.886905
Si Si7 0.085657 0.875213 0.137093
O O1 0.502648 0.209859 0.700019
O O2 0.279428 0.304038 0.661888
O O3 0.327770 0.114706 0.843114
O O4 0.359481 0.309305 0.924500
O O5 0.819537 0.393248 0.760369
O O6 0.858223 0.298297 0.002656
O O7 0.754402 0.511017 0.988462
O O8 0.627337 0.346315 0.982837
O O9 0.738453 0.151356 0.161899
O O10 0.900880 0.081940 0.982512
O O11 0.062207 0.426792 0.648915
O O12 0.980877 0.237308 0.683607
O O13 0.473487 0.970147 0.734476
O O14 0.549708 0.088858 0.973659
#
# Coordination Sequence:
#
# PCOD9341672 Si02
#       7
#     4   4   4   4   4   4   4
#     4  12  30  52  74 121 164 216 275 341 418 507
#     4  11  27  48  80 111 162 208 278 337 414 493
#     4  11  28  48  81 113 156 215 270 339 412 493
#     4  12  30  49  82 115 165 219 278 347 417 496
#     4  11  26  49  75 118 153 212 274 331 415 493
#     4  12  25  48  75 116 161 202 265 330 407 498
#     4  11  26  46  77 114 157 208 262 331 409 488
#
# _framework density 24.456941
#
# number of rings (size 3 to 8) (size 9 to 14) (size 15 to 20)
#    0.000    0.571    4.286    0.857   14.000    1.143 
#    0.000    0.000    0.000    0.000    0.000    0.000 
#    0.000    0.000    0.000    0.000    0.000    0.000 
#
# Total GULP energy -156189.058958 kJ/mol
# GULP energy per Si atom -5578.180677 kJ/mol
# Density = 2.440128 g / cm^3
# Si number density = 24.456941 Si / 1000 Ang^3
#
#
#
# Elastic Constant Matrix: (Units=GPa)
#
#
# Indices 1 2 3 4 5 6 
#
# 1 82.1221 19.2021 57.7680 0.0000 0.0000 0.0000
# 2 19.2021 136.3911 46.1470 0.0000 0.0000 0.0000
# 3 57.7680 46.1470 137.8989 0.0000 0.0000 0.0000
# 4 0.0000 0.0000 0.0000 39.5065 0.0000 0.0000
# 5 0.0000 0.0000 0.0000 0.0000 23.4185 0.0000
# 6 0.0000 0.0000 0.0000 0.0000 0.0000 14.3776
#
#
#
# Elastic Compliance Matrix: (Units=1/GPa)
#
#
# Indices 1 2 3 4 5 6 
#
# 1 0.017265 0.000018 -0.007239 0.000000 0.000000 0.000000
# 2 0.000018 0.008268 -0.002775 0.000000 0.000000 0.000000
# 3 -0.007239 -0.002775 0.011213 0.000000 0.000000 0.000000
# 4 0.000000 0.000000 0.000000 0.025312 0.000000 0.000000
# 5 0.000000 0.000000 0.000000 0.000000 0.042701 0.000000
# 6 0.000000 0.000000 0.000000 0.000000 0.000000 0.069552
#
#
# Mechanical properties :
#
#
# Convention : Reuss Voigt Hill
#
# Bulk Modulus (GPa) = 59.68092 66.96071 63.32081
# Shear Modulus (GPa) = 25.01429 31.01354 28.01392
#
# Velocity S-wave (km/s) = 3.20158 3.56488 3.38810
# Velocity P-wave (km/s) = 6.17432 6.66206 6.42282
#
# Compressibility (1/GPa) = 0.01675577
#
# Stress axis : x y z
#
# Youngs Moduli (GPa) = 57.92207 120.94798 89.18585
#
# Poissons Ratio (x) = -0.00224 0.64558
# Poissons Ratio (y) = -0.00107 0.24745
# Poissons Ratio (z) = 0.41927 0.33558
#
# Static dielectric constant tensor:
#      x y z
#    x 1.992160 0.000000 0.000000 
#    y 0.000000 2.080200 0.000000 
#    z 0.000000 0.000000 2.002720 
# 
# From -- ./inp_files/1497.got.cif
#   From: 2010.05.17/outbox.cif.g08.bks.cpg/sg29_1_cif.got.tgz:1497.got - 2010.06.04 01:19:37.
