data_PCOD9341805
_publ_section_title
;
Structure prediction by ZEFSAII (Michael W. Deem and Ramdas Pophale) SiO2 
 PCOD9341805
Probable space group: P N C 2
;
_chemical_formula_sum "Si O2"
_cell_formula_units_Z 30
_cell_length_a 10.304788
_cell_length_b 16.068760
_cell_length_c 9.961137
_cell_angle_alpha 90.000000
_cell_angle_beta 90.000000
_cell_angle_gamma 90.000000
_cell_volume 1649.416516
_symmetry_space_group_name_H-M "P N C 2"
_symmetry_group_IT_number 30
_symmetry_cell_setting 'orthorhombic'
loop_
_space_group_symop_operation_xyz
x,y,z
-x,-y,z
-x,1/2+y,1/2+z
x,1/2-y,1/2+z
loop_
_atom_site_type_symbol
_atom_site_label
_atom_site_fract_x
_atom_site_fract_y
_atom_site_fract_z
Si Si1 0.000000 0.000000 0.317711
Si Si2 0.835562 0.231697 0.495717
Si Si3 0.618653 0.409363 0.703560
Si Si4 0.718097 0.536122 0.916567
Si Si5 0.091301 0.662841 0.722940
Si Si6 0.409082 0.850147 0.917477
Si Si7 0.554524 0.686121 0.914968
Si Si8 0.360611 0.601288 0.117753
O O1 0.868525 0.988882 0.402253
O O2 0.008569 0.919742 0.224239
O O3 0.928445 0.277168 0.599899
O O4 0.916426 0.202965 0.368419
O O5 0.718393 0.291357 0.443056
O O6 0.764498 0.156409 0.573887
O O7 0.644591 0.493758 0.787691
O O8 0.758049 0.364313 0.712127
O O9 0.581445 0.409582 0.547447
O O10 0.522030 0.350291 0.785961
O O11 0.688653 0.634450 0.917291
O O12 0.659791 0.487643 0.045720
O O13 0.530105 0.784997 0.913277
O O14 0.386510 0.895788 0.776038
O O15 0.476917 0.649604 0.042967
#
# Coordination Sequence:
#
# PCOD9341805 Si02
#       8
#     2   4   4   4   4   4   4   4
#     4  10  20  36  52  76  96 150 184 222 246 308
#     4  10  15  27  49  81  99 128 168 230 246 307
#     4   9  16  29  49  80 101 134 162 212 258 323
#     4  10  20  34  54  72 106 140 186 209 256 313
#     4  10  17  29  53  76 104 127 186 216 264 298
#     4  10  17  27  52  81 108 124 163 212 274 307
#     4  10  17  30  49  77 102 131 163 209 266 322
#     4  10  16  29  51  82 103 129 166 221 264 318
#
# _framework density 18.188251000000001
#
# number of rings (size 3 to 8) (size 9 to 14) (size 15 to 20)
#    0.000    2.133    6.667    3.200    0.000    0.000 
#    0.000    2.667    5.867   12.800    0.000    0.000 
#    0.000    0.000    0.000    0.000    0.000    0.000 
#
# Total GULP energy -167082.415853 kJ/mol
# GULP energy per Si atom -5569.413862 kJ/mol
# Density = 1.814685 g / cm^3
# Si number density = 18.188251 Si / 1000 Ang^3
#
#
#
# Elastic Constant Matrix: (Units=GPa)
#
#
# Indices 1 2 3 4 5 6 
#
# 1 42.6205 16.2476 14.3209 0.0000 0.0000 0.0000
# 2 16.2476 76.8258 46.3730 0.0000 0.0000 0.0000
# 3 14.3209 46.3730 157.5804 0.0000 0.0000 0.0000
# 4 0.0000 0.0000 0.0000 10.3299 0.0000 0.0000
# 5 0.0000 0.0000 0.0000 0.0000 3.7769 0.0000
# 6 0.0000 0.0000 0.0000 0.0000 0.0000 25.8896
#
#
#
# Elastic Compliance Matrix: (Units=1/GPa)
#
#
# Indices 1 2 3 4 5 6 
#
# 1 0.025623 -0.004880 -0.000892 0.000000 0.000000 0.000000
# 2 -0.004880 0.016758 -0.004488 0.000000 0.000000 0.000000
# 3 -0.000892 -0.004488 0.007748 0.000000 0.000000 0.000000
# 4 0.000000 0.000000 0.000000 0.096806 0.000000 0.000000
# 5 0.000000 0.000000 0.000000 0.000000 0.264768 0.000000
# 6 0.000000 0.000000 0.000000 0.000000 0.000000 0.038626
#
#
# Mechanical properties :
#
#
# Convention : Reuss Voigt Hill
#
# Bulk Modulus (GPa) = 33.77548 47.87882 40.82715
# Shear Modulus (GPa) = 10.40109 21.33830 15.86970
#
# Velocity S-wave (km/s) = 2.39395 3.42890 2.95706
# Velocity P-wave (km/s) = 5.12363 6.48519 5.84420
#
# Compressibility (1/GPa) = 0.02960728
#
# Stress axis : x y z
#
# Youngs Moduli (GPa) = 39.02713 59.67468 129.06922
#
# Poissons Ratio (x) = 0.29123 0.11519
# Poissons Ratio (y) = 0.19046 0.57925
# Poissons Ratio (z) = 0.03483 0.26781
#
# Static dielectric constant tensor:
#      x y z
#    x 1.641020 0.000000 0.000000 
#    y 0.000000 1.677790 0.000000 
#    z 0.000000 0.000000 1.639800 
# 
# From -- ./inp_files/2524.got.cif
#   From: 2010.05.17/outbox.cif.g08.bks.cpg/sg30_2_cif.got.tgz:2524.got - 2010.06.03 17:03:02.
