data_PCOD9341674
_publ_section_title
;
Structure prediction by ZEFSAII (Michael W. Deem and Ramdas Pophale) SiO2 
 PCOD9341674
Probable space group: P C A 21
;
_chemical_formula_sum "Si O2"
_cell_formula_units_Z 32
_cell_length_a 13.726731
_cell_length_b 5.282853
_cell_length_c 17.389020
_cell_angle_alpha 90.000000
_cell_angle_beta 90.000000
_cell_angle_gamma 90.000000
_cell_volume 1260.987427
_symmetry_space_group_name_H-M "P C A 21"
_symmetry_group_IT_number 29
_symmetry_cell_setting 'orthorhombic'
loop_
_space_group_symop_operation_xyz
x,y,z
-x,-y,1/2+z
1/2-x,y,1/2+z
1/2+x,-y,z
loop_
_atom_site_type_symbol
_atom_site_label
_atom_site_fract_x
_atom_site_fract_y
_atom_site_fract_z
Si Si1 0.960949 0.589783 0.730350
Si Si2 0.973148 0.263323 0.885040
Si Si3 0.590839 0.195674 0.115259
Si Si4 0.763629 0.901403 0.715383
Si Si5 0.392892 0.021719 0.089869
Si Si6 0.845423 0.492073 0.005286
Si Si7 0.858715 0.448920 0.463070
Si Si8 0.888327 0.131360 0.320475
O O1 0.969415 0.394475 0.801914
O O2 0.959692 0.442067 0.650697
O O3 0.059173 0.747784 0.746822
O O4 0.854526 0.720866 0.734783
O O5 0.049576 0.375150 0.947210
O O6 0.875141 0.343273 0.927282
O O7 0.019589 0.993174 0.865091
O O8 0.677253 0.129701 0.174038
O O9 0.504872 0.992509 0.116003
O O10 0.624357 0.241589 0.028989
O O11 0.698455 0.956156 0.790199
O O12 0.680930 0.847189 0.651036
O O13 0.400000 0.245285 0.024881
O O14 0.355418 0.745053 0.064155
O O15 0.735478 0.588869 0.994112
O O16 0.843472 0.326902 0.379854
#
# Coordination Sequence:
#
# PCOD9341674 Si02
#       8
#     4   4   4   4   4   4   4   4
#     4  11  27  46  74 108 154 203 263 319 408 466
#     4  11  26  48  73 109 156 200 262 325 403 474
#     4  12  26  50  74 111 152 212 258 340 395 480
#     4  12  27  45  76 109 156 203 267 323 404 485
#     4  12  28  48  78 116 157 202 267 324 401 467
#     4  12  28  47  81 115 154 207 262 326 396 484
#     4  11  26  47  78 108 154 200 264 324 396 475
#     4  11  28  49  74 112 155 209 263 335 401 487
#
# _framework density 25.376937000000002
#
# number of rings (size 3 to 8) (size 9 to 14) (size 15 to 20)
#    0.000    0.500    2.500    3.750   12.250    3.000 
#    0.000    0.000    0.000    0.000    0.000    0.000 
#    0.000    0.000    0.000    0.000    0.000    0.000 
#
# Total GULP energy -178762.970400 kJ/mol
# GULP energy per Si atom -5586.342825 kJ/mol
# Density = 2.531918 g / cm^3
# Si number density = 25.376937 Si / 1000 Ang^3
#
#
#
# Elastic Constant Matrix: (Units=GPa)
#
#
# Indices 1 2 3 4 5 6 
#
# 1 91.9522 -8.3569 0.4219 0.0000 0.0000 0.0000
# 2 -8.3569 47.3538 -1.9053 0.0000 0.0000 0.0000
# 3 0.4219 -1.9053 69.6353 0.0000 0.0000 0.0000
# 4 0.0000 0.0000 0.0000 30.9759 0.0000 0.0000
# 5 0.0000 0.0000 0.0000 0.0000 39.6725 0.0000
# 6 0.0000 0.0000 0.0000 0.0000 0.0000 34.3438
#
#
#
# Elastic Compliance Matrix: (Units=1/GPa)
#
#
# Indices 1 2 3 4 5 6 
#
# 1 0.011053 0.001950 -0.000014 0.000000 0.000000 0.000000
# 2 0.001950 0.021485 0.000576 0.000000 0.000000 0.000000
# 3 -0.000014 0.000576 0.014376 0.000000 0.000000 0.000000
# 4 0.000000 0.000000 0.000000 0.032283 0.000000 0.000000
# 5 0.000000 0.000000 0.000000 0.000000 0.025206 0.000000
# 6 0.000000 0.000000 0.000000 0.000000 0.000000 0.029117
#
#
# Mechanical properties :
#
#
# Convention : Reuss Voigt Hill
#
# Bulk Modulus (GPa) = 19.25349 21.02896 20.14123
# Shear Modulus (GPa) = 34.29147 35.58386 34.93766
#
# Velocity S-wave (km/s) = 3.67997 3.74868 3.71448
# Velocity P-wave (km/s) = 5.06554 5.20013 5.13328
#
# Compressibility (1/GPa) = 0.05193863
#
# Stress axis : x y z
#
# Youngs Moduli (GPa) = 90.47725 46.54424 69.55851
#
# Poissons Ratio (x) = -0.09076 0.00095
# Poissons Ratio (y) = -0.17643 -0.04007
# Poissons Ratio (z) = 0.00123 -0.02681
#
# Static dielectric constant tensor:
#      x y z
#    x 1.982210 0.000000 0.000000 
#    y 0.000000 2.070880 0.000000 
#    z 0.000000 0.000000 2.006260 
# 
# From -- ./inp_files/5220.got.cif
#   From: 2010.05.17/outbox.cif.g08.bks.cpg/sg29_3_cif.got.tgz:5220.got - 2010.06.04 01:19:37.
