data_PCOD9341647
_publ_section_title
;
Structure prediction by ZEFSAII (Michael W. Deem and Ramdas Pophale) SiO2 
 PCOD9341647
Probable space group: P C A 21
;
_chemical_formula_sum "Si O2"
_cell_formula_units_Z 24
_cell_length_a 13.705718
_cell_length_b 8.120244
_cell_length_c 8.983431
_cell_angle_alpha 90.000000
_cell_angle_beta 90.000000
_cell_angle_gamma 90.000000
_cell_volume 999.799943
_symmetry_space_group_name_H-M "P C A 21"
_symmetry_group_IT_number 29
_symmetry_cell_setting 'orthorhombic'
loop_
_space_group_symop_operation_xyz
x,y,z
-x,-y,1/2+z
1/2-x,y,1/2+z
1/2+x,-y,z
loop_
_atom_site_type_symbol
_atom_site_label
_atom_site_fract_x
_atom_site_fract_y
_atom_site_fract_z
Si Si1 0.988292 0.757057 0.501950
Si Si2 0.824900 0.895134 0.338436
Si Si3 0.328599 0.812738 0.575594
Si Si4 0.953163 0.885049 0.060097
Si Si5 0.364180 0.291194 0.789160
Si Si6 0.810744 0.353748 0.866847
O O1 0.888991 0.742722 0.405991
O O2 0.951340 0.729990 0.670566
O O3 0.084778 0.663184 0.450961
O O4 0.019494 0.947219 0.475887
O O5 0.891086 0.947948 0.199417
O O6 0.724189 0.835255 0.268163
O O7 0.811468 0.024020 0.474560
O O8 0.444399 0.801755 0.599096
O O9 0.276680 0.669273 0.482123
O O10 0.291977 0.788143 0.743284
O O11 0.899309 0.757815 0.954002
O O12 0.319595 0.472252 0.786422
#
# Coordination Sequence:
#
# PCOD9341647 Si02
#       6
#     4   4   4   4   4   4
#     4  11  25  50  74 109 150 198 257 322 385 462
#     4  11  25  47  80 108 150 195 264 319 376 474
#     4  11  28  49  76 109 156 205 262 320 393 465
#     4  11  25  49  77 113 143 202 261 317 380 462
#     4  12  29  45  80 112 156 204 256 324 397 465
#     4  12  30  48  75 113 161 206 256 326 407 470
#
# _framework density 24.004802999999999
#
# number of rings (size 3 to 8) (size 9 to 14) (size 15 to 20)
#    0.000    0.667    1.667    4.000   21.000    0.000 
#    0.000    0.000    0.000    0.000    0.000    0.000 
#    0.000    0.000    0.000    0.000    0.000    0.000 
#
# Total GULP energy -134145.691651 kJ/mol
# GULP energy per Si atom -5589.403819 kJ/mol
# Density = 2.395017 g / cm^3
# Si number density = 24.004803 Si / 1000 Ang^3
#
#
#
# Elastic Constant Matrix: (Units=GPa)
#
#
# Indices 1 2 3 4 5 6 
#
# 1 59.0855 37.1551 53.9793 0.0000 0.0000 0.0000
# 2 37.1551 90.0826 28.1984 0.0000 0.0000 0.0000
# 3 53.9793 28.1984 126.6183 0.0000 0.0000 0.0000
# 4 0.0000 0.0000 0.0000 22.5696 0.0000 0.0000
# 5 0.0000 0.0000 0.0000 0.0000 54.0173 0.0000
# 6 0.0000 0.0000 0.0000 0.0000 0.0000 28.5858
#
#
#
# Elastic Compliance Matrix: (Units=1/GPa)
#
#
# Indices 1 2 3 4 5 6 
#
# 1 0.035044 -0.010510 -0.012599 0.000000 0.000000 0.000000
# 2 -0.010510 0.015085 0.001121 0.000000 0.000000 0.000000
# 3 -0.012599 0.001121 0.013019 0.000000 0.000000 0.000000
# 4 0.000000 0.000000 0.000000 0.044307 0.000000 0.000000
# 5 0.000000 0.000000 0.000000 0.000000 0.018513 0.000000
# 6 0.000000 0.000000 0.000000 0.000000 0.000000 0.034982
#
#
# Mechanical properties :
#
#
# Convention : Reuss Voigt Hill
#
# Bulk Modulus (GPa) = 52.15957 57.16135 54.66046
# Shear Modulus (GPa) = 23.66100 31.46477 27.56289
#
# Velocity S-wave (km/s) = 3.14296 3.62438 3.39222
# Velocity P-wave (km/s) = 5.91159 6.43265 6.17762
#
# Compressibility (1/GPa) = 0.01917194
#
# Stress axis : x y z
#
# Youngs Moduli (GPa) = 28.53533 66.29115 76.80904
#
# Poissons Ratio (x) = 0.69674 0.96774
# Poissons Ratio (y) = 0.29991 -0.08612
# Poissons Ratio (z) = 0.35952 -0.07433
#
# Static dielectric constant tensor:
#      x y z
#    x 1.968460 0.000000 0.000000 
#    y 0.000000 1.930630 0.000000 
#    z 0.000000 0.000000 1.961890 
# 
# From -- ./inp_files/1744.got.cif
#   From: 2010.05.17/outbox.cif.g08.bks.cpg/sg29_1_cif.got.tgz:1744.got - 2010.06.04 01:19:37.
