data_PCOD9341861
_publ_section_title
;
Structure prediction by ZEFSAII (Michael W. Deem and Ramdas Pophale) SiO2 
 PCOD9341861
Probable space group: P N C 2
;
_chemical_formula_sum "Si O2"
_cell_formula_units_Z 24
_cell_length_a 7.538887
_cell_length_b 16.703624
_cell_length_c 6.874440
_cell_angle_alpha 90.000000
_cell_angle_beta 90.000000
_cell_angle_gamma 90.000000
_cell_volume 865.675776
_symmetry_space_group_name_H-M "P N C 2"
_symmetry_group_IT_number 30
_symmetry_cell_setting 'orthorhombic'
loop_
_space_group_symop_operation_xyz
x,y,z
-x,-y,z
-x,1/2+y,1/2+z
x,1/2-y,1/2+z
loop_
_atom_site_type_symbol
_atom_site_label
_atom_site_fract_x
_atom_site_fract_y
_atom_site_fract_z
Si Si1 0.802592 0.021954 0.754580
Si Si2 0.150482 0.557337 0.808716
Si Si3 0.747129 0.646720 0.342117
Si Si4 0.622205 0.180142 0.726862
Si Si5 0.146831 0.181991 0.402304
Si Si6 0.535456 0.351279 0.779266
O O1 0.798412 0.018700 0.518281
O O2 0.759225 0.114125 0.798494
O O3 0.709484 0.948341 0.863107
O O4 0.000000 0.000000 0.805178
O O5 0.340623 0.575064 0.713168
O O6 0.000000 0.500000 0.719534
O O7 0.033886 0.638223 0.841173
O O8 0.548739 0.679205 0.365166
O O9 0.863769 0.721126 0.423659
O O10 0.810844 0.651266 0.118027
O O11 0.647507 0.273964 0.707384
O O12 0.563842 0.149659 0.514090
O O13 0.319711 0.156862 0.267141
#
# Coordination Sequence:
#
# PCOD9341861 Si02
#       6
#     4   4   4   4   4   4
#     4  10  18  31  53  82 103 137 179 221 255 316
#     4  10  19  33  54  79 107 134 182 222 258 310
#     4  10  19  35  55  79 107 138 182 217 271 314
#     4   9  19  34  54  78 106 141 176 224 264 319
#     4  10  20  34  55  81 107 140 176 223 267 319
#     4   9  20  33  54  80 107 139 178 220 271 314
#
# _framework density 27.724004000000001
#
# number of rings (size 3 to 8) (size 9 to 14) (size 15 to 20)
#    0.000    2.333    3.333    0.500    2.333    0.667 
#    0.000    0.000    3.667    0.000    0.000    0.000 
#    0.000    0.000    0.000    0.000    0.000    0.000 
#
# Total GULP energy -133806.004332 kJ/mol
# GULP energy per Si atom -5575.250181 kJ/mol
# Density = 2.766090 g / cm^3
# Si number density = 27.724004 Si / 1000 Ang^3
#
#
#
# Elastic Constant Matrix: (Units=GPa)
#
#
# Indices 1 2 3 4 5 6 
#
# 1 90.5547 57.9405 -0.8815 0.0000 0.0000 0.0000
# 2 57.9405 166.9018 17.4431 0.0000 0.0000 0.0000
# 3 -0.8815 17.4431 71.8126 0.0000 0.0000 0.0000
# 4 0.0000 0.0000 0.0000 91.7414 0.0000 0.0000
# 5 0.0000 0.0000 0.0000 0.0000 38.2490 0.0000
# 6 0.0000 0.0000 0.0000 0.0000 0.0000 52.9733
#
#
#
# Elastic Compliance Matrix: (Units=1/GPa)
#
#
# Indices 1 2 3 4 5 6 
#
# 1 0.014336 -0.005125 0.001421 0.000000 0.000000 0.000000
# 2 -0.005125 0.007980 -0.002001 0.000000 0.000000 0.000000
# 3 0.001421 -0.002001 0.014429 0.000000 0.000000 0.000000
# 4 0.000000 0.000000 0.000000 0.010900 0.000000 0.000000
# 5 0.000000 0.000000 0.000000 0.000000 0.026144 0.000000
# 6 0.000000 0.000000 0.000000 0.000000 0.000000 0.018877
#
#
# Mechanical properties :
#
#
# Convention : Reuss Voigt Hill
#
# Bulk Modulus (GPa) = 39.47334 53.14147 46.30740
# Shear Modulus (GPa) = 44.43535 53.57720 49.00628
#
# Velocity S-wave (km/s) = 4.00781 4.40081 4.20890
# Velocity P-wave (km/s) = 5.97374 6.71063 6.35288
#
# Compressibility (1/GPa) = 0.02533355
#
# Stress axis : x y z
#
# Youngs Moduli (GPa) = 69.75297 125.31336 69.30645
#
# Poissons Ratio (x) = 0.64228 -0.09848
# Poissons Ratio (y) = 0.35751 0.13870
# Poissons Ratio (z) = -0.09911 0.25078
#
# Static dielectric constant tensor:
#      x y z
#    x -0.021910 0.000000 0.000000 
#    y 0.000000 -20.797500 0.000000 
#    z 0.000000 0.000000 2.251820 
# 
# From -- ./inp_files/1942.got.cif
#   From: 2010.05.17/outbox.cif.g08.bks.cpg/sg30_1_cif.got.tgz:1942.got - 2010.06.03 17:03:02.
