data_PCOD9341771
_publ_section_title
;
Structure prediction by ZEFSAII (Michael W. Deem and Ramdas Pophale) SiO2 
 PCOD9341771
Probable space group: P C A 21
;
_chemical_formula_sum "Si O2"
_cell_formula_units_Z 16
_cell_length_a 8.694205
_cell_length_b 7.233203
_cell_length_c 9.761826
_cell_angle_alpha 90.000000
_cell_angle_beta 90.000000
_cell_angle_gamma 90.000000
_cell_volume 613.891461
_symmetry_space_group_name_H-M "P C A 21"
_symmetry_group_IT_number 29
_symmetry_cell_setting 'orthorhombic'
loop_
_space_group_symop_operation_xyz
x,y,z
-x,-y,1/2+z
1/2-x,y,1/2+z
1/2+x,-y,z
loop_
_atom_site_type_symbol
_atom_site_label
_atom_site_fract_x
_atom_site_fract_y
_atom_site_fract_z
Si Si1 0.496847 0.644934 0.251900
Si Si2 0.429515 0.093402 0.979053
Si Si3 0.229546 0.804005 0.102773
Si Si4 0.992125 0.315389 0.947859
O O1 0.597987 0.769667 0.354072
O O2 0.330474 0.746299 0.233113
O O3 0.473538 0.450983 0.325802
O O4 0.564136 0.638180 0.097749
O O5 0.504987 0.903187 0.919170
O O6 0.549976 0.189950 0.081309
O O7 0.289790 0.008740 0.063302
O O8 0.311199 0.669774 0.991828
#
# Coordination Sequence:
#
# PCOD9341771 Si02
#       4
#     4   4   4   4
#     4   9  19  40  61  96 125 168 213 271 320 389
#     4   9  19  40  58  95 125 164 214 262 318 381
#     4   8  21  38  65  92 125 169 209 270 317 386
#     4   8  21  38  64  95 121 175 210 269 325 384
#
# _framework density 26.063241000000001
#
# number of rings (size 3 to 8) (size 9 to 14) (size 15 to 20)
#    3.000    0.000    0.000    0.000    0.000    8.000 
#    9.000    0.000    5.500    0.000    0.000    0.000 
#    0.000    0.000    0.000    0.000    0.000    0.000 
#
# Total GULP energy -89148.199160 kJ/mol
# GULP energy per Si atom -5571.762447 kJ/mol
# Density = 2.600392 g / cm^3
# Si number density = 26.063241 Si / 1000 Ang^3
#
#
#
# Elastic Constant Matrix: (Units=GPa)
#
#
# Indices 1 2 3 4 5 6 
#
# 1 35.2437 3.1739 14.2350 0.0000 0.0000 0.0000
# 2 3.1739 138.8436 47.3582 0.0000 0.0000 0.0000
# 3 14.2350 47.3582 102.0526 0.0000 0.0000 0.0000
# 4 0.0000 0.0000 0.0000 50.6404 0.0000 0.0000
# 5 0.0000 0.0000 0.0000 0.0000 13.1979 0.0000
# 6 0.0000 0.0000 0.0000 0.0000 0.0000 44.3188
#
#
#
# Elastic Compliance Matrix: (Units=1/GPa)
#
#
# Indices 1 2 3 4 5 6 
#
# 1 0.030159 0.000886 -0.004618 0.000000 0.000000 0.000000
# 2 0.000886 0.008583 -0.004106 0.000000 0.000000 0.000000
# 3 -0.004618 -0.004106 0.012349 0.000000 0.000000 0.000000
# 4 0.000000 0.000000 0.000000 0.019747 0.000000 0.000000
# 5 0.000000 0.000000 0.000000 0.000000 0.075770 0.000000
# 6 0.000000 0.000000 0.000000 0.000000 0.000000 0.022564
#
#
# Mechanical properties :
#
#
# Convention : Reuss Voigt Hill
#
# Bulk Modulus (GPa) = 28.23788 45.07491 36.65639
# Shear Modulus (GPa) = 25.42550 35.72293 30.57421
#
# Velocity S-wave (km/s) = 3.12674 3.70621 3.42874
# Velocity P-wave (km/s) = 4.88807 5.97048 5.45618
#
# Compressibility (1/GPa) = 0.03541342
#
# Stress axis : x y z
#
# Youngs Moduli (GPa) = 33.15737 116.51254 80.98080
#
# Poissons Ratio (x) = -0.10319 0.37395
# Poissons Ratio (y) = -0.02937 0.33254
# Poissons Ratio (z) = 0.15311 0.47845
#
# Static dielectric constant tensor:
#      x y z
#    x 2.098780 0.000000 0.000000 
#    y 0.000000 2.018350 0.000000 
#    z 0.000000 0.000000 2.120950 
# 
# From -- ./inp_files/3023.got.cif
#   From: 2010.05.17/outbox.cif.g08.bks.cpg/sg29_2_cif.got.tgz:3023.got - 2010.06.04 01:19:37.
