data_PCOD9341880
_publ_section_title
;
Structure prediction by ZEFSAII (Michael W. Deem and Ramdas Pophale) SiO2 
 PCOD9341880
Probable space group: P N C 2
;
_chemical_formula_sum "Si O2"
_cell_formula_units_Z 30
_cell_length_a 12.040319
_cell_length_b 7.139315
_cell_length_c 13.972922
_cell_angle_alpha 90.000000
_cell_angle_beta 90.000000
_cell_angle_gamma 90.000000
_cell_volume 1201.107206
_symmetry_space_group_name_H-M "P N C 2"
_symmetry_group_IT_number 30
_symmetry_cell_setting 'orthorhombic'
loop_
_space_group_symop_operation_xyz
x,y,z
-x,-y,z
-x,1/2+y,1/2+z
x,1/2-y,1/2+z
loop_
_atom_site_type_symbol
_atom_site_label
_atom_site_fract_x
_atom_site_fract_y
_atom_site_fract_z
Si Si1 0.217090 0.280935 0.287370
Si Si2 0.617225 0.296095 0.726592
Si Si3 0.000000 0.500000 0.535998
Si Si4 0.000272 0.773023 0.366222
Si Si5 0.375413 0.439076 0.450119
Si Si6 0.609910 0.723275 0.645274
Si Si7 0.217337 0.717759 0.571756
Si Si8 0.231894 0.869829 0.380246
O O1 0.085331 0.309225 0.289606
O O2 0.298587 0.382522 0.362090
O O3 0.275843 0.300398 0.186130
O O4 0.221227 0.067609 0.327923
O O5 0.610885 0.509935 0.687504
O O6 0.503070 0.203617 0.693703
O O7 0.722341 0.221466 0.667538
O O8 0.650936 0.297545 0.837643
O O9 0.035733 0.331584 0.464076
O O10 0.105974 0.593701 0.588540
O O11 0.130197 0.734419 0.349369
O O12 0.000000 0.000000 0.372738
O O13 0.500000 0.500000 0.424747
O O14 0.394522 0.277724 0.531097
O O15 0.303054 0.587484 0.511165
O O16 0.208542 0.882548 0.493473
#
# Coordination Sequence:
#
# PCOD9341880 Si02
#       8
#     4   4   2   4   4   4   4   4
#     4  10  20  36  58  80 109 153 186 229 295 343
#     4   9  17  34  52  80 110 143 186 234 276 343
#     4  10  18  34  58  86 114 148 192 244 294 346
#     4   9  18  35  56  87 115 145 195 242 286 355
#     4  11  20  36  57  82 110 147 192 237 280 344
#     4   9  18  33  54  78 109 142 189 230 272 342
#     4  10  19  35  57  82 112 146 190 237 285 343
#     4   9  20  35  56  82 110 145 184 235 286 343
#
# _framework density 24.976956000000001
#
# number of rings (size 3 to 8) (size 9 to 14) (size 15 to 20)
#    0.000    2.400    4.000    0.000    1.867    0.000 
#    8.400    1.333    0.000    0.000   15.600    0.000 
#    0.000    0.000    0.000    0.000    0.000    0.000 
#
# Total GULP energy -167298.169203 kJ/mol
# GULP energy per Si atom -5576.605640 kJ/mol
# Density = 2.492011 g / cm^3
# Si number density = 24.976956 Si / 1000 Ang^3
#
#
#
# Elastic Constant Matrix: (Units=GPa)
#
#
# Indices 1 2 3 4 5 6 
#
# 1 114.9452 15.1084 12.1506 0.0000 0.0000 0.0000
# 2 15.1084 85.0305 -1.7616 0.0000 0.0000 0.0000
# 3 12.1506 -1.7616 64.3738 0.0000 0.0000 0.0000
# 4 0.0000 0.0000 0.0000 14.8587 0.0000 0.0000
# 5 0.0000 0.0000 0.0000 0.0000 34.4465 0.0000
# 6 0.0000 0.0000 0.0000 0.0000 0.0000 11.1465
#
#
#
# Elastic Compliance Matrix: (Units=1/GPa)
#
#
# Indices 1 2 3 4 5 6 
#
# 1 0.009104 -0.001654 -0.001764 0.000000 0.000000 0.000000
# 2 -0.001654 0.012068 0.000642 0.000000 0.000000 0.000000
# 3 -0.001764 0.000642 0.015885 0.000000 0.000000 0.000000
# 4 0.000000 0.000000 0.000000 0.067301 0.000000 0.000000
# 5 0.000000 0.000000 0.000000 0.000000 0.029031 0.000000
# 6 0.000000 0.000000 0.000000 0.000000 0.000000 0.089714
#
#
# Mechanical properties :
#
#
# Convention : Reuss Voigt Hill
#
# Bulk Modulus (GPa) = 31.74039 35.03826 33.38932
# Shear Modulus (GPa) = 20.90705 28.01382 24.46043
#
# Velocity S-wave (km/s) = 2.89633 3.35264 3.13280
# Velocity P-wave (km/s) = 4.89085 5.38940 5.14617
#
# Compressibility (1/GPa) = 0.03150560
#
# Stress axis : x y z
#
# Youngs Moduli (GPa) = 109.84624 82.86583 62.95357
#
# Poissons Ratio (x) = 0.13707 0.11102
# Poissons Ratio (y) = 0.18169 -0.04044
# Poissons Ratio (z) = 0.19372 -0.05324
#
# Static dielectric constant tensor:
#      x y z
#    x 2.077250 0.000000 0.000000 
#    y 0.000000 2.112120 0.000000 
#    z 0.000000 0.000000 2.068840 
# 
# From -- ./inp_files/5505.got.cif
#   From: 2010.05.17/outbox.cif.g08.bks.cpg/sg30_3_cif.got.tgz:5505.got - 2010.06.03 17:03:02.
