data_PCOD9341715
_publ_section_title
;
Structure prediction by ZEFSAII (Michael W. Deem and Ramdas Pophale) SiO2 
 PCOD9341715
Probable space group: P C A 21
;
_chemical_formula_sum "Si O2"
_cell_formula_units_Z 24
_cell_length_a 9.476239
_cell_length_b 12.228102
_cell_length_c 8.127084
_cell_angle_alpha 90.000000
_cell_angle_beta 90.000000
_cell_angle_gamma 90.000000
_cell_volume 941.737375
_symmetry_space_group_name_H-M "P C A 21"
_symmetry_group_IT_number 29
_symmetry_cell_setting 'orthorhombic'
loop_
_space_group_symop_operation_xyz
x,y,z
-x,-y,1/2+z
1/2-x,y,1/2+z
1/2+x,-y,z
loop_
_atom_site_type_symbol
_atom_site_label
_atom_site_fract_x
_atom_site_fract_y
_atom_site_fract_z
Si Si1 0.204355 0.059640 0.610110
Si Si2 0.710535 0.694610 0.662399
Si Si3 0.336276 0.727047 0.227684
Si Si4 0.574453 0.055942 0.914446
Si Si5 0.440976 0.422652 0.860093
Si Si6 0.945695 0.318304 0.873494
O O1 0.258981 0.183237 0.620290
O O2 0.087342 0.051390 0.466844
O O3 0.327869 0.974820 0.569780
O O4 0.121984 0.029756 0.775996
O O5 0.618639 0.640648 0.518292
O O6 0.838476 0.616478 0.712748
O O7 0.602538 0.706509 0.814779
O O8 0.390732 0.827381 0.336224
O O9 0.404083 0.618831 0.310557
O O10 0.168229 0.718935 0.237595
O O11 0.394922 0.734828 0.043497
O O12 0.436485 0.550816 0.888815
#
# Coordination Sequence:
#
# PCOD9341715 Si02
#       6
#     4   4   4   4   4   4
#     4  12  28  49  77 106 144 189 243 303 368 429
#     4  12  27  47  73 108 150 190 241 299 360 431
#     4  12  27  47  73 108 148 189 244 302 357 427
#     4  12  28  49  75 106 144 187 246 304 364 430
#     4  12  24  47  72 110 148 194 241 294 356 430
#     4  12  26  45  76 106 148 195 241 294 359 429
#
# _framework density 25.484812999999999
#
# number of rings (size 3 to 8) (size 9 to 14) (size 15 to 20)
#    0.000    0.000    1.667    8.000    9.333    0.000 
#    0.000    0.000    0.000    0.000    0.000    0.000 
#    0.000    0.000    0.000    0.000    0.000    0.000 
#
# Total GULP energy -134874.595971 kJ/mol
# GULP energy per Si atom -5619.774832 kJ/mol
# Density = 2.542681 g / cm^3
# Si number density = 25.484813 Si / 1000 Ang^3
#
#
#
# Elastic Constant Matrix: (Units=GPa)
#
#
# Indices 1 2 3 4 5 6 
#
# 1 112.5695 23.3356 1.0932 0.0000 0.0000 0.0000
# 2 23.3356 99.6415 15.1443 0.0000 0.0000 0.0000
# 3 1.0932 15.1443 84.7504 0.0000 0.0000 0.0000
# 4 0.0000 0.0000 0.0000 39.2903 0.0000 0.0000
# 5 0.0000 0.0000 0.0000 0.0000 41.0096 0.0000
# 6 0.0000 0.0000 0.0000 0.0000 0.0000 23.2557
#
#
#
# Elastic Compliance Matrix: (Units=1/GPa)
#
#
# Indices 1 2 3 4 5 6 
#
# 1 0.009343 -0.002230 0.000278 0.000000 0.000000 0.000000
# 2 -0.002230 0.010849 -0.001910 0.000000 0.000000 0.000000
# 3 0.000278 -0.001910 0.012137 0.000000 0.000000 0.000000
# 4 0.000000 0.000000 0.000000 0.025452 0.000000 0.000000
# 5 0.000000 0.000000 0.000000 0.000000 0.024385 0.000000
# 6 0.000000 0.000000 0.000000 0.000000 0.000000 0.043000
#
#
# Mechanical properties :
#
#
# Convention : Reuss Voigt Hill
#
# Bulk Modulus (GPa) = 40.64312 41.78976 41.21644
# Shear Modulus (GPa) = 35.43818 37.87033 36.65425
#
# Velocity S-wave (km/s) = 3.73307 3.85904 3.79658
# Velocity P-wave (km/s) = 5.87909 6.02410 5.95204
#
# Compressibility (1/GPa) = 0.02460441
#
# Stress axis : x y z
#
# Youngs Moduli (GPa) = 107.03142 92.17791 82.39247
#
# Poissons Ratio (x) = 0.20559 -0.02291
# Poissons Ratio (y) = 0.23872 0.15735
# Poissons Ratio (z) = -0.02976 0.17604
#
# Static dielectric constant tensor:
#      x y z
#    x 1.946570 0.000000 0.000000 
#    y 0.000000 1.933940 0.000000 
#    z 0.000000 0.000000 2.056670 
# 
# From -- ./inp_files/1127.got.cif
#   From: 2010.05.17/outbox.cif.g08.bks.cpg/sg29_1_cif.got.tgz:1127.got - 2010.06.04 01:19:37.
