data_PCOD9341826
_publ_section_title
;
Structure prediction by ZEFSAII (Michael W. Deem and Ramdas Pophale) SiO2 
 PCOD9341826
Probable space group: P N C 2
;
_chemical_formula_sum "Si O2"
_cell_formula_units_Z 24
_cell_length_a 11.329116
_cell_length_b 13.680500
_cell_length_c 5.497760
_cell_angle_alpha 90.000000
_cell_angle_beta 90.000000
_cell_angle_gamma 90.000000
_cell_volume 852.086670
_symmetry_space_group_name_H-M "P N C 2"
_symmetry_group_IT_number 30
_symmetry_cell_setting 'orthorhombic'
loop_
_space_group_symop_operation_xyz
x,y,z
-x,-y,z
-x,1/2+y,1/2+z
x,1/2-y,1/2+z
loop_
_atom_site_type_symbol
_atom_site_label
_atom_site_fract_x
_atom_site_fract_y
_atom_site_fract_z
Si Si1 0.558319 0.795597 0.838780
Si Si2 0.324137 0.850430 0.683745
Si Si3 0.000000 0.000000 0.735009
Si Si4 0.219988 0.991450 0.082887
Si Si5 0.852435 0.803033 0.179028
Si Si6 0.095329 0.663185 0.912043
Si Si7 0.500000 0.000000 0.670741
O O1 0.602457 0.749966 0.587364
O O2 0.416813 0.775601 0.804480
O O3 0.565758 0.913389 0.821877
O O4 0.202712 0.799006 0.593206
O O5 0.406521 0.929363 0.528513
O O6 0.299253 0.924124 0.909700
O O7 0.010372 0.902092 0.581436
O O8 0.887829 0.988556 0.900499
O O9 0.223321 0.097400 0.209630
O O10 0.175142 0.918656 0.286155
O O11 0.826956 0.734792 0.408855
O O12 0.999014 0.805753 0.203890
#
# Coordination Sequence:
#
# PCOD9341826 Si02
#       7
#     4   4   2   4   4   4   2
#     4  10  23  46  75 108 144 182 241 311 375 447
#     4   9  24  40  74  98 138 192 245 305 369 453
#     4  10  16  36  64  82 126 170 242 268 342 426
#     4  11  21  40  64  92 129 193 234 285 360 451
#     4  12  26  40  61  97 146 184 230 300 358 429
#     4  11  21  38  65  92 126 190 231 286 352 440
#     4   8  22  50  68 110 144 200 236 324 386 448
#
# _framework density 28.166148
#
# number of rings (size 3 to 8) (size 9 to 14) (size 15 to 20)
#    1.000    0.667    3.333    1.000    7.000    2.000 
#    3.000    1.667    0.000    0.000    0.000    0.000 
#    0.000    0.000    0.000    0.000    0.000    0.000 
#
# Total GULP energy -133825.557744 kJ/mol
# GULP energy per Si atom -5576.064906 kJ/mol
# Density = 2.810204 g / cm^3
# Si number density = 28.166148 Si / 1000 Ang^3
#
#
#
# Elastic Constant Matrix: (Units=GPa)
#
#
# Indices 1 2 3 4 5 6 
#
# 1 86.3329 5.3083 8.2113 0.0000 0.0000 0.0000
# 2 5.3083 140.6365 30.3878 0.0000 0.0000 0.0000
# 3 8.2113 30.3878 113.1742 0.0000 0.0000 0.0000
# 4 0.0000 0.0000 0.0000 12.2952 0.0000 0.0000
# 5 0.0000 0.0000 0.0000 0.0000 30.6288 0.0000
# 6 0.0000 0.0000 0.0000 0.0000 0.0000 33.6411
#
#
#
# Elastic Compliance Matrix: (Units=1/GPa)
#
#
# Indices 1 2 3 4 5 6 
#
# 1 0.011673 -0.000273 -0.000774 0.000000 0.000000 0.000000
# 2 -0.000273 0.007555 -0.002009 0.000000 0.000000 0.000000
# 3 -0.000774 -0.002009 0.009431 0.000000 0.000000 0.000000
# 4 0.000000 0.000000 0.000000 0.081333 0.000000 0.000000
# 5 0.000000 0.000000 0.000000 0.000000 0.032649 0.000000
# 6 0.000000 0.000000 0.000000 0.000000 0.000000 0.029726
#
#
# Mechanical properties :
#
#
# Convention : Reuss Voigt Hill
#
# Bulk Modulus (GPa) = 44.34912 47.55094 45.95003
# Shear Modulus (GPa) = 26.88249 35.06207 30.97228
#
# Velocity S-wave (km/s) = 3.09273 3.53204 3.31966
# Velocity P-wave (km/s) = 5.34163 5.79247 5.57161
#
# Compressibility (1/GPa) = 0.02254836
#
# Stress axis : x y z
#
# Youngs Moduli (GPa) = 85.66441 132.36487 106.02880
#
# Poissons Ratio (x) = 0.03620 0.08202
# Poissons Ratio (y) = 0.02343 0.21298
# Poissons Ratio (z) = 0.06626 0.26588
#
# Static dielectric constant tensor:
#      x y z
#    x 2.400590 0.000000 0.000000 
#    y 0.000000 2.323710 0.000000 
#    z 0.000000 0.000000 2.537790 
# 
# From -- ./inp_files/905.got.cif
#   From: 2010.05.17/outbox.cif.g08.bks.cpg/sg30_1_cif.got.tgz:905.got - 2010.06.03 17:03:02.
