data_PCOD9341359
_publ_section_title
;
Structure prediction by ZEFSAII (Michael W. Deem and Ramdas Pophale) SiO2 
 PCOD9341359
Probable space group: P C A 21
;
_chemical_formula_sum "Si O2"
_cell_formula_units_Z 28
_cell_length_a 10.762372
_cell_length_b 5.238510
_cell_length_c 18.934845
_cell_angle_alpha 90.000000
_cell_angle_beta 90.000000
_cell_angle_gamma 90.000000
_cell_volume 1067.523713
_symmetry_space_group_name_H-M "P C A 21"
_symmetry_group_IT_number 29
_symmetry_cell_setting 'orthorhombic'
loop_
_space_group_symop_operation_xyz
x,y,z
-x,-y,1/2+z
1/2-x,y,1/2+z
1/2+x,-y,z
loop_
_atom_site_type_symbol
_atom_site_label
_atom_site_fract_x
_atom_site_fract_y
_atom_site_fract_z
Si Si1 0.560436 0.692332 0.836050
Si Si2 0.931189 0.586571 0.962082
Si Si3 0.574681 0.879136 0.257885
Si Si4 0.306058 0.691827 0.501732
Si Si5 0.223569 0.029620 0.386699
Si Si6 0.782504 0.007811 0.637003
Si Si7 0.224405 0.481471 0.715974
O O1 0.459699 0.574265 0.889706
O O2 0.532735 0.967257 0.798727
O O3 0.678680 0.741768 0.885567
O O4 0.614167 0.516332 0.773183
O O5 0.892765 0.866480 0.932539
O O6 0.815688 0.481433 0.006486
O O7 0.056537 0.580097 0.007727
O O8 0.584961 0.969320 0.177179
O O9 0.684205 0.008397 0.306326
O O10 0.640933 0.596326 0.251746
O O11 0.294899 0.927880 0.555669
O O12 0.294080 0.803494 0.423354
O O13 0.727821 0.261031 0.672713
O O14 0.710114 0.756311 0.661835
#
# Coordination Sequence:
#
# PCOD9341359 Si02
#       7
#     4   4   4   4   4   4   4
#     4  11  22  43  75 112 144 200 255 332 383 461
#     4  12  27  45  80 109 157 201 267 325 393 475
#     4   9  22  41  69 106 139 191 248 318 372 456
#     4  12  28  48  73 111 155 208 258 319 397 474
#     4  11  24  45  73 109 147 195 259 318 388 461
#     4  10  25  48  70 107 152 202 251 316 390 472
#     4   9  24  44  70 104 148 191 254 312 389 453
#
# _framework density 26.228928
#
# number of rings (size 3 to 8) (size 9 to 14) (size 15 to 20)
#    0.857    0.571    2.857    0.857    8.000    2.286 
#    2.571    0.000    0.000    0.000    0.000    0.000 
#    0.000    0.000    0.000    0.000    0.000    0.000 
#
# Total GULP energy -156234.362370 kJ/mol
# GULP energy per Si atom -5579.798656 kJ/mol
# Density = 2.616923 g / cm^3
# Si number density = 26.228928 Si / 1000 Ang^3
#
#
#
# Elastic Constant Matrix: (Units=GPa)
#
#
# Indices 1 2 3 4 5 6 
#
# 1 122.2891 1.0980 13.5607 0.0000 0.0000 0.0000
# 2 1.0980 102.9666 14.1380 0.0000 0.0000 0.0000
# 3 13.5607 14.1380 63.4351 0.0000 0.0000 0.0000
# 4 0.0000 0.0000 0.0000 46.9076 0.0000 0.0000
# 5 0.0000 0.0000 0.0000 0.0000 14.8492 0.0000
# 6 0.0000 0.0000 0.0000 0.0000 0.0000 25.8194
#
#
#
# Elastic Compliance Matrix: (Units=1/GPa)
#
#
# Indices 1 2 3 4 5 6 
#
# 1 0.008379 0.000162 -0.001827 0.000000 0.000000 0.000000
# 2 0.000162 0.010022 -0.002268 0.000000 0.000000 0.000000
# 3 -0.001827 -0.002268 0.016660 0.000000 0.000000 0.000000
# 4 0.000000 0.000000 0.000000 0.021318 0.000000 0.000000
# 5 0.000000 0.000000 0.000000 0.000000 0.067344 0.000000
# 6 0.000000 0.000000 0.000000 0.000000 0.000000 0.038731
#
#
# Mechanical properties :
#
#
# Convention : Reuss Voigt Hill
#
# Bulk Modulus (GPa) = 36.77416 38.47603 37.62510
# Shear Modulus (GPa) = 27.87304 34.84152 31.35728
#
# Velocity S-wave (km/s) = 3.26342 3.64862 3.46138
# Velocity P-wave (km/s) = 5.31515 5.69659 5.50917
#
# Compressibility (1/GPa) = 0.02719301
#
# Stress axis : x y z
#
# Youngs Moduli (GPa) = 119.35308 99.78462 60.02325
#
# Poissons Ratio (x) = -0.01612 0.10967
# Poissons Ratio (y) = -0.01928 0.13614
# Poissons Ratio (z) = 0.21807 0.22632
#
# Static dielectric constant tensor:
#      x y z
#    x 2.170550 0.000000 0.000000 
#    y 0.000000 2.138320 0.000000 
#    z 0.000000 0.000000 2.007160 
# 
# From -- ./inp_files/5470.got.cif
#   From: 2010.05.17/outbox.cif.g08.bks.cpg/sg29_3_cif.got.tgz:5470.got - 2010.06.04 01:19:37.
