data_PCOD9341845
_publ_section_title
;
Structure prediction by ZEFSAII (Michael W. Deem and Ramdas Pophale) SiO2 
 PCOD9341845
Probable space group: P N C 2
;
_chemical_formula_sum "Si O2"
_cell_formula_units_Z 30
_cell_length_a 7.000166
_cell_length_b 22.366233
_cell_length_c 6.866512
_cell_angle_alpha 90.000000
_cell_angle_beta 90.000000
_cell_angle_gamma 90.000000
_cell_volume 1075.071545
_symmetry_space_group_name_H-M "P N C 2"
_symmetry_group_IT_number 30
_symmetry_cell_setting 'orthorhombic'
loop_
_space_group_symop_operation_xyz
x,y,z
-x,-y,z
-x,1/2+y,1/2+z
x,1/2-y,1/2+z
loop_
_atom_site_type_symbol
_atom_site_label
_atom_site_fract_x
_atom_site_fract_y
_atom_site_fract_z
Si Si1 0.022564 0.695472 0.879060
Si Si2 0.235001 0.593573 0.302321
Si Si3 0.153726 0.923027 0.350131
Si Si4 0.703980 0.952788 0.334527
Si Si5 0.603122 0.673105 0.772189
Si Si6 0.500000 0.500000 0.210668
Si Si7 0.524117 0.695696 0.222394
Si Si8 0.059417 0.325311 0.332801
O O1 0.175615 0.647541 0.799080
O O2 0.052427 0.765885 0.899803
O O3 0.829134 0.690353 0.753373
O O4 0.975828 0.675069 0.098801
O O5 0.365091 0.538001 0.351702
O O6 0.359300 0.653914 0.304480
O O7 0.036311 0.612660 0.401018
O O8 0.196985 0.575251 0.079139
O O9 0.927771 0.935080 0.334331
O O10 0.278470 0.977808 0.268175
O O11 0.598723 0.897645 0.226260
O O12 0.619747 0.958265 0.556994
O O13 0.494851 0.732960 0.702250
O O14 0.561911 0.674489 0.003582
O O15 0.714051 0.683070 0.350521
#
# Coordination Sequence:
#
# PCOD9341845 Si02
#       8
#     4   4   4   4   4   2   4   4
#     4   8  15  29  47  70  97 128 159 197 246 285
#     4  10  19  29  46  71  95 127 157 200 243 284
#     4   8  16  27  47  71  97 127 159 206 245 280
#     4   9  15  29  46  71 102 126 160 203 246 283
#     4   9  17  30  49  70 100 130 159 200 241 288
#     4  10  18  28  48  74  96 126 160 202 242 290
#     4  10  19  32  48  72 101 129 163 196 243 290
#     4   9  18  31  46  69 101 127 157 202 240 290
#
# _framework density 27.905118999999999
#
# number of rings (size 3 to 8) (size 9 to 14) (size 15 to 20)
#    0.000    2.933    1.333    0.800    0.000    2.133 
#    0.000    0.000    0.000    0.000    3.467    0.000 
#    0.000    0.000    0.000    0.000    0.000    0.000 
#
# Total GULP energy -167557.278737 kJ/mol
# GULP energy per Si atom -5585.242625 kJ/mol
# Density = 2.784161 g / cm^3
# Si number density = 27.905119 Si / 1000 Ang^3
#
#
#
# Elastic Constant Matrix: (Units=GPa)
#
#
# Indices 1 2 3 4 5 6 
#
# 1 78.9883 53.1539 13.2896 0.0000 0.0000 0.0000
# 2 53.1539 168.0166 2.0912 0.0000 0.0000 0.0000
# 3 13.2896 2.0912 89.6815 0.0000 0.0000 0.0000
# 4 0.0000 0.0000 0.0000 26.0061 0.0000 0.0000
# 5 0.0000 0.0000 0.0000 0.0000 -0.0903 0.0000
# 6 0.0000 0.0000 0.0000 0.0000 0.0000 59.7172
#
#
#
# Elastic Compliance Matrix: (Units=1/GPa)
#
#
# Indices 1 2 3 4 5 6 
#
# 1 0.016558 -0.005209 -0.002332 0.000000 0.000000 0.000000
# 2 -0.005209 0.007592 0.000595 0.000000 0.000000 0.000000
# 3 -0.002332 0.000595 0.011482 0.000000 0.000000 0.000000
# 4 0.000000 0.000000 0.000000 0.038452 0.000000 0.000000
# 5 0.000000 0.000000 0.000000 0.000000-11.078839 0.000000
# 6 0.000000 0.000000 0.000000 0.000000 0.000000 0.016746
#
#
# Mechanical properties :
#
#
# Convention : Reuss Voigt Hill
#
# Bulk Modulus (GPa) = 45.99912 52.63953 49.31932
# Shear Modulus (GPa) = -0.45592 35.00338 17.27373
#
# Velocity S-wave (km/s) = -0.40464 3.54555 2.49070
# Velocity P-wave (km/s) = 4.03752 5.97210 5.09743
#
# Compressibility (1/GPa) = 0.02173955
#
# Stress axis : x y z
#
# Youngs Moduli (GPa) = 60.39379 131.71071 87.09055
#
# Poissons Ratio (x) = 0.68612 0.20311
# Poissons Ratio (y) = 0.31461 -0.05181
# Poissons Ratio (z) = 0.14085 -0.07835
#
# Static dielectric constant tensor:
#      x y z
#    x 2.258960 0.000000 0.000000 
#    y 0.000000 2.248840 0.000000 
#    z 0.000000 0.000000 2.176540 
# 
# From -- ./inp_files/3877.got.cif
#   From: 2010.05.17/outbox.cif.g08.bks.cpg/sg30_2_cif.got.tgz:3877.got - 2010.06.03 17:03:02.
