data_PCOD9341425
_publ_section_title
;
Structure prediction by ZEFSAII (Michael W. Deem and Ramdas Pophale) SiO2 
 PCOD9341425
Probable space group: P C A 21
;
_chemical_formula_sum "Si O2"
_cell_formula_units_Z 24
_cell_length_a 13.291156
_cell_length_b 8.949574
_cell_length_c 8.294465
_cell_angle_alpha 90.000000
_cell_angle_beta 90.000000
_cell_angle_gamma 90.000000
_cell_volume 986.628139
_symmetry_space_group_name_H-M "P C A 21"
_symmetry_group_IT_number 29
_symmetry_cell_setting 'orthorhombic'
loop_
_space_group_symop_operation_xyz
x,y,z
-x,-y,1/2+z
1/2-x,y,1/2+z
1/2+x,-y,z
loop_
_atom_site_type_symbol
_atom_site_label
_atom_site_fract_x
_atom_site_fract_y
_atom_site_fract_z
Si Si1 0.146861 0.328742 0.534060
Si Si2 0.559745 0.192242 0.954158
Si Si3 0.786719 0.824525 0.733814
Si Si4 0.040511 0.301961 0.013738
Si Si5 0.391661 0.557842 0.265586
Si Si6 0.925153 0.062939 0.807338
O O1 0.030090 0.307870 0.499006
O O2 0.200263 0.305416 0.365210
O O3 0.179218 0.193097 0.652844
O O4 0.174115 0.480342 0.625556
O O5 0.583328 0.120761 0.125249
O O6 0.641239 0.295583 0.864632
O O7 0.509419 0.066496 0.839520
O O8 0.866783 0.790578 0.590844
O O9 0.819859 0.973811 0.826177
O O10 0.986927 0.382961 0.162930
O O11 0.078815 0.423349 0.885153
O O12 0.959852 0.194109 0.925918
#
# Coordination Sequence:
#
# PCOD9341425 Si02
#       6
#     4   4   4   4   4   4
#     4  11  23  40  64 101 138 178 225 281 350 413
#     4  11  21  38  65 101 132 183 239 279 334 410
#     4  11  24  41  67 102 136 183 228 282 359 408
#     4  12  20  38  66  99 136 179 242 281 330 423
#     4  12  21  38  66 103 134 179 237 283 336 413
#     4  11  21  39  66 100 134 182 237 282 333 415
#
# _framework density 24.325272999999999
#
# number of rings (size 3 to 8) (size 9 to 14) (size 15 to 20)
#    0.000    0.667    8.333    1.000    0.000    0.000 
#    0.000    0.000    0.000   42.000    0.000    0.000 
#    0.000    0.000    0.000    0.000    0.000    0.000 
#
# Total GULP energy -134033.945761 kJ/mol
# GULP energy per Si atom -5584.747740 kJ/mol
# Density = 2.426991 g / cm^3
# Si number density = 24.325273 Si / 1000 Ang^3
#
#
#
# Elastic Constant Matrix: (Units=GPa)
#
#
# Indices 1 2 3 4 5 6 
#
# 1 24.7196 12.6000 8.4233 0.0000 0.0000 0.0000
# 2 12.6000 110.5176 60.6194 0.0000 0.0000 0.0000
# 3 8.4233 60.6194 135.5560 0.0000 0.0000 0.0000
# 4 0.0000 0.0000 0.0000 54.2834 0.0000 0.0000
# 5 0.0000 0.0000 0.0000 0.0000 27.5784 0.0000
# 6 0.0000 0.0000 0.0000 0.0000 0.0000 14.0386
#
#
#
# Elastic Compliance Matrix: (Units=1/GPa)
#
#
# Indices 1 2 3 4 5 6 
#
# 1 0.042991 -0.004553 -0.000635 0.000000 0.000000 0.000000
# 2 -0.004553 0.012471 -0.005294 0.000000 0.000000 0.000000
# 3 -0.000635 -0.005294 0.009784 0.000000 0.000000 0.000000
# 4 0.000000 0.000000 0.000000 0.018422 0.000000 0.000000
# 5 0.000000 0.000000 0.000000 0.000000 0.036260 0.000000
# 6 0.000000 0.000000 0.000000 0.000000 0.000000 0.071232
#
#
# Mechanical properties :
#
#
# Convention : Reuss Voigt Hill
#
# Bulk Modulus (GPa) = 22.58283 48.23097 35.40690
# Shear Modulus (GPa) = 22.03755 31.79013 26.91384
#
# Velocity S-wave (km/s) = 3.01317 3.61900 3.32989
# Velocity P-wave (km/s) = 4.62703 6.11011 5.41954
#
# Compressibility (1/GPa) = 0.04428144
#
# Stress axis : x y z
#
# Youngs Moduli (GPa) = 23.26072 80.18451 102.20780
#
# Poissons Ratio (x) = 0.36506 0.06495
# Poissons Ratio (y) = 0.10590 0.54110
# Poissons Ratio (z) = 0.01478 0.42451
#
# Static dielectric constant tensor:
#      x y z
#    x 1.927890 0.000000 0.000000 
#    y 0.000000 2.025730 0.000000 
#    z 0.000000 0.000000 1.958750 
# 
# From -- ./inp_files/1733.got.cif
#   From: 2010.05.17/outbox.cif.g08.bks.cpg/sg29_1_cif.got.tgz:1733.got - 2010.06.04 01:19:37.
