data_PCOD9341832
_publ_section_title
;
Structure prediction by ZEFSAII (Michael W. Deem and Ramdas Pophale) SiO2 
 PCOD9341832
Probable space group: P N C 2
;
_chemical_formula_sum "Si O2"
_cell_formula_units_Z 26
_cell_length_a 6.295650
_cell_length_b 16.374802
_cell_length_c 12.345507
_cell_angle_alpha 90.000000
_cell_angle_beta 90.000000
_cell_angle_gamma 90.000000
_cell_volume 1272.698591
_symmetry_space_group_name_H-M "P N C 2"
_symmetry_group_IT_number 30
_symmetry_cell_setting 'orthorhombic'
loop_
_space_group_symop_operation_xyz
x,y,z
-x,-y,z
-x,1/2+y,1/2+z
x,1/2-y,1/2+z
loop_
_atom_site_type_symbol
_atom_site_label
_atom_site_fract_x
_atom_site_fract_y
_atom_site_fract_z
Si Si1 0.516327 0.831981 0.372560
Si Si2 0.300288 0.835027 0.822692
Si Si3 0.679698 0.382202 0.665024
Si Si4 0.089972 0.259722 0.935411
Si Si5 0.000000 0.500000 0.548766
Si Si6 0.737632 0.307457 0.088164
Si Si7 0.633131 0.605770 0.483638
O O1 0.452489 0.743693 0.325001
O O2 0.383780 0.888688 0.290947
O O3 0.771438 0.826452 0.370077
O O4 0.429717 0.834424 0.495697
O O5 0.270781 0.858797 0.698309
O O6 0.436660 0.894980 0.899029
O O7 0.082254 0.796124 0.870759
O O8 0.879832 0.433763 0.623528
O O9 0.711692 0.288248 0.623268
O O10 0.472363 0.409277 0.599148
O O11 0.256083 0.194496 0.982738
O O12 0.962237 0.306643 0.027726
O O13 0.825335 0.543211 0.473509
#
# Coordination Sequence:
#
# PCOD9341832 Si02
#       7
#     4   4   4   4   2   4   4
#     4   9  20  32  54  83 120 151 185 245 301 358
#     4   9  19  31  52  81 119 148 189 238 294 359
#     4  11  21  36  54  86 120 154 205 244 298 363
#     4  10  17  31  52  82 116 156 181 240 309 364
#     4  12  24  36  60  78 122 172 200 250 296 362
#     4  10  18  34  54  86 120 152 187 243 309 358
#     4  11  20  36  51  83 116 155 202 244 291 356
#
# _framework density 20.429030999999998
#
# number of rings (size 3 to 8) (size 9 to 14) (size 15 to 20)
#    0.000    1.846    6.154    0.462    2.154    2.462 
#    0.000    0.000    0.000    0.000    0.000   16.154 
#    0.000    0.000    0.000    0.000    0.000    0.000 
#
# Total GULP energy -144739.123018 kJ/mol
# GULP energy per Si atom -5566.889347 kJ/mol
# Density = 2.038253 g / cm^3
# Si number density = 20.429031 Si / 1000 Ang^3
#
#
#
# Elastic Constant Matrix: (Units=GPa)
#
#
# Indices 1 2 3 4 5 6 
#
# 1 120.9237 13.4905 52.7386 0.0000 0.0000 0.0000
# 2 13.4905 22.7517 9.8143 0.0000 0.0000 0.0000
# 3 52.7386 9.8143 145.2521 0.0000 0.0000 0.0000
# 4 0.0000 0.0000 0.0000 3.4239 0.0000 0.0000
# 5 0.0000 0.0000 0.0000 0.0000 17.4263 0.0000
# 6 0.0000 0.0000 0.0000 0.0000 0.0000 23.5969
#
#
#
# Elastic Compliance Matrix: (Units=1/GPa)
#
#
# Indices 1 2 3 4 5 6 
#
# 1 0.010276 -0.004618 -0.003419 0.000000 0.000000 0.000000
# 2 -0.004618 0.047348 -0.001522 0.000000 0.000000 0.000000
# 3 -0.003419 -0.001522 0.008229 0.000000 0.000000 0.000000
# 4 0.000000 0.000000 0.000000 0.292062 0.000000 0.000000
# 5 0.000000 0.000000 0.000000 0.000000 0.057384 0.000000
# 6 0.000000 0.000000 0.000000 0.000000 0.000000 0.042378
#
#
# Mechanical properties :
#
#
# Convention : Reuss Voigt Hill
#
# Bulk Modulus (GPa) = 21.39799 49.00159 35.19979
# Shear Modulus (GPa) = 10.15487 23.08171 16.61829
#
# Velocity S-wave (km/s) = 2.23195 3.36497 2.85522
# Velocity P-wave (km/s) = 4.13995 6.25585 5.30447
#
# Compressibility (1/GPa) = 0.04673336
#
# Stress axis : x y z
#
# Youngs Moduli (GPa) = 97.31367 21.12032 121.52394
#
# Poissons Ratio (x) = 0.09754 0.41549
# Poissons Ratio (y) = 0.44942 0.18500
# Poissons Ratio (z) = 0.33272 0.03215
#
# Static dielectric constant tensor:
#      x y z
#    x 1.757200 0.000000 0.000000 
#    y 0.000000 1.800180 0.000000 
#    z 0.000000 0.000000 1.785610 
# 
# From -- ./inp_files/3165.got.cif
#   From: 2010.05.17/outbox.cif.g08.bks.cpg/sg30_2_cif.got.tgz:3165.got - 2010.06.03 17:03:02.
