data_PCOD9341534
_publ_section_title
;
Structure prediction by ZEFSAII (Michael W. Deem and Ramdas Pophale) SiO2 
 PCOD9341534
Probable space group: P C A 21
;
_chemical_formula_sum "Si O2"
_cell_formula_units_Z 32
_cell_length_a 10.442017
_cell_length_b 15.174282
_cell_length_c 8.621417
_cell_angle_alpha 90.000000
_cell_angle_beta 90.000000
_cell_angle_gamma 90.000000
_cell_volume 1366.064477
_symmetry_space_group_name_H-M "P C A 21"
_symmetry_group_IT_number 29
_symmetry_cell_setting 'orthorhombic'
loop_
_space_group_symop_operation_xyz
x,y,z
-x,-y,1/2+z
1/2-x,y,1/2+z
1/2+x,-y,z
loop_
_atom_site_type_symbol
_atom_site_label
_atom_site_fract_x
_atom_site_fract_y
_atom_site_fract_z
Si Si1 0.828176 0.183715 0.500000
Si Si2 0.174858 0.991242 0.189559
Si Si3 0.420861 0.238484 0.908137
Si Si4 0.809558 0.306672 0.771350
Si Si5 0.043127 0.597063 0.750120
Si Si6 0.045313 0.408887 0.904936
Si Si7 0.575626 0.934648 0.871434
Si Si8 0.667553 0.758099 0.758109
O O1 0.790444 0.099603 0.598230
O O2 0.864612 0.261730 0.618747
O O3 0.725227 0.227488 0.388365
O O4 0.960215 0.170946 0.407227
O O5 0.112562 0.047591 0.049487
O O6 0.061125 0.971908 0.313229
O O7 0.304832 0.026642 0.268915
O O8 0.469001 0.334770 0.859404
O O9 0.311700 0.212052 0.789288
O O10 0.358380 0.241676 0.076698
O O11 0.679638 0.356042 0.723760
O O12 0.908206 0.373426 0.845935
O O13 0.965002 0.586829 0.590456
O O14 0.066949 0.504246 0.832057
O O15 0.143259 0.336177 0.838614
O O16 0.576677 0.830387 0.837123
#
# Coordination Sequence:
#
# PCOD9341534 Si02
#       8
#     4   4   4   4   4   4   4   4
#     4  11  23  47  72 102 140 188 242 297 367 435
#     4  12  26  47  75 112 150 197 248 318 376 457
#     4  11  24  45  70 102 139 189 239 302 360 443
#     4  11  23  45  72 100 143 185 240 299 356 435
#     4  11  27  43  71 106 143 192 246 301 365 431
#     4  12  25  45  71 103 144 193 242 300 363 433
#     4  12  27  47  75 110 153 196 254 312 387 453
#     4  12  25  47  72 101 148 192 241 301 372 439
#
# _framework density 23.424955000000001
#
# number of rings (size 3 to 8) (size 9 to 14) (size 15 to 20)
#    0.000    0.500    3.750    3.750    5.250    1.000 
#    2.250    0.000    0.000    0.000    0.000    0.000 
#    0.000    0.000    0.000    0.000    0.000    0.000 
#
# Total GULP energy -179298.587667 kJ/mol
# GULP energy per Si atom -5603.080865 kJ/mol
# Density = 2.337164 g / cm^3
# Si number density = 23.424955 Si / 1000 Ang^3
#
#
#
# Elastic Constant Matrix: (Units=GPa)
#
#
# Indices 1 2 3 4 5 6 
#
# 1 97.0009 -1.9094 -0.0945 0.0000 0.0000 0.0000
# 2 -1.9094 86.6431 15.6021 0.0000 0.0000 0.0000
# 3 -0.0945 15.6021 81.1197 0.0000 0.0000 0.0000
# 4 0.0000 0.0000 0.0000 38.2917 0.0000 0.0000
# 5 0.0000 0.0000 0.0000 0.0000 40.3594 0.0000
# 6 0.0000 0.0000 0.0000 0.0000 0.0000 19.5996
#
#
#
# Elastic Compliance Matrix: (Units=1/GPa)
#
#
# Indices 1 2 3 4 5 6 
#
# 1 0.010314 0.000233 -0.000033 0.000000 0.000000 0.000000
# 2 0.000233 0.011961 -0.002300 0.000000 0.000000 0.000000
# 3 -0.000033 -0.002300 0.012770 0.000000 0.000000 0.000000
# 4 0.000000 0.000000 0.000000 0.026115 0.000000 0.000000
# 5 0.000000 0.000000 0.000000 0.000000 0.024777 0.000000
# 6 0.000000 0.000000 0.000000 0.000000 0.000000 0.051021
#
#
# Mechanical properties :
#
#
# Convention : Reuss Voigt Hill
#
# Bulk Modulus (GPa) = 32.42037 32.44000 32.43018
# Shear Modulus (GPa) = 33.01640 36.39452 34.70546
#
# Velocity S-wave (km/s) = 3.75834 3.94593 3.85328
# Velocity P-wave (km/s) = 5.71871 5.88549 5.80270
#
# Compressibility (1/GPa) = 0.03084481
#
# Stress axis : x y z
#
# Youngs Moduli (GPa) = 96.95803 83.60547 78.30951
#
# Poissons Ratio (x) = -0.01950 0.00257
# Poissons Ratio (y) = -0.02261 0.18013
# Poissons Ratio (z) = 0.00318 0.19231
#
# Static dielectric constant tensor:
#      x y z
#    x 1.888240 0.000000 0.000000 
#    y 0.000000 1.872000 0.000000 
#    z 0.000000 0.000000 1.855660 
# 
# From -- ./inp_files/1522.got.cif
#   From: 2010.05.17/outbox.cif.g08.bks.cpg/sg29_1_cif.got.tgz:1522.got - 2010.06.04 01:19:37.
