data_PCOD9341148
_publ_section_title
;
Structure prediction by ZEFSAII (Michael W. Deem and Ramdas Pophale) SiO2 
 PCOD9341148
Probable space group: P C A 21
;
_chemical_formula_sum "Si O2"
_cell_formula_units_Z 32
_cell_length_a 18.391359
_cell_length_b 5.375414
_cell_length_c 12.636772
_cell_angle_alpha 90.000000
_cell_angle_beta 90.000000
_cell_angle_gamma 90.000000
_cell_volume 1249.286048
_symmetry_space_group_name_H-M "P C A 21"
_symmetry_group_IT_number 29
_symmetry_cell_setting 'orthorhombic'
loop_
_space_group_symop_operation_xyz
x,y,z
-x,-y,1/2+z
1/2-x,y,1/2+z
1/2+x,-y,z
loop_
_atom_site_type_symbol
_atom_site_label
_atom_site_fract_x
_atom_site_fract_y
_atom_site_fract_z
Si Si1 0.824112 0.601261 0.346470
Si Si2 0.718914 0.917401 0.479451
Si Si3 0.590416 0.207568 0.368502
Si Si4 0.957789 0.388266 0.090607
Si Si5 0.119917 0.111079 0.666486
Si Si6 0.353591 0.740844 0.512730
Si Si7 0.692799 0.535771 0.222455
Si Si8 0.917491 0.906659 0.673133
O O1 0.758505 0.689846 0.422669
O O2 0.864634 0.826053 0.288437
O O3 0.876785 0.431221 0.415316
O O4 0.775594 0.479132 0.254313
O O5 0.694126 0.870059 0.598688
O O6 0.646034 0.014702 0.424066
O O7 0.782242 0.118214 0.472813
O O8 0.547040 0.335229 0.464668
O O9 0.640011 0.408726 0.308543
O O10 0.550969 0.059387 0.272900
O O11 0.928615 0.659830 0.120975
O O12 0.036280 0.333169 0.140486
O O13 0.911948 0.161015 0.143532
O O14 0.324570 0.582998 0.610556
O O15 0.409870 0.929513 0.566944
O O16 0.662829 0.817379 0.209081
#
# Coordination Sequence:
#
# PCOD9341148 Si02
#       8
#     4   4   4   4   4   4   4   4
#     4  12  23  40  71 103 146 179 232 302 375 428
#     4  11  23  43  68 105 138 186 231 296 376 440
#     4  10  23  43  75  96 141 190 238 290 375 424
#     4  11  28  50  71 104 144 194 252 298 345 434
#     4  11  28  45  73 104 143 188 243 302 358 429
#     4  11  25  40  68 106 142 182 233 303 358 441
#     4  11  23  43  70 104 138 187 236 294 370 438
#     4  11  25  48  70 102 142 196 249 293 357 436
#
# _framework density 25.614628
#
# number of rings (size 3 to 8) (size 9 to 14) (size 15 to 20)
#    0.000    1.000    2.500    3.000   14.000    1.000 
#    2.250    0.000    0.000    0.000    0.000    0.000 
#    0.000    0.000    0.000    0.000    0.000    0.000 
#
# Total GULP energy -179118.521235 kJ/mol
# GULP energy per Si atom -5597.453789 kJ/mol
# Density = 2.555633 g / cm^3
# Si number density = 25.614628 Si / 1000 Ang^3
#
#
#
# Elastic Constant Matrix: (Units=GPa)
#
#
# Indices 1 2 3 4 5 6 
#
# 1 66.4533 14.8626 22.2111 0.0000 0.0000 0.0000
# 2 14.8626 77.4890 30.9338 0.0000 0.0000 0.0000
# 3 22.2111 30.9338 99.9354 0.0000 0.0000 0.0000
# 4 0.0000 0.0000 0.0000 50.1785 0.0000 0.0000
# 5 0.0000 0.0000 0.0000 0.0000 28.5885 0.0000
# 6 0.0000 0.0000 0.0000 0.0000 0.0000 35.0585
#
#
#
# Elastic Compliance Matrix: (Units=1/GPa)
#
#
# Indices 1 2 3 4 5 6 
#
# 1 0.016508 -0.001942 -0.003068 0.000000 0.000000 0.000000
# 2 -0.001942 0.014953 -0.004197 0.000000 0.000000 0.000000
# 3 -0.003068 -0.004197 0.011987 0.000000 0.000000 0.000000
# 4 0.000000 0.000000 0.000000 0.019929 0.000000 0.000000
# 5 0.000000 0.000000 0.000000 0.000000 0.034979 0.000000
# 6 0.000000 0.000000 0.000000 0.000000 0.000000 0.028524
#
#
# Mechanical properties :
#
#
# Convention : Reuss Voigt Hill
#
# Bulk Modulus (GPa) = 39.94365 42.21029 41.07697
# Shear Modulus (GPa) = 32.54406 34.48979 33.51692
#
# Velocity S-wave (km/s) = 3.56831 3.67343 3.62125
# Velocity P-wave (km/s) = 5.71008 5.87426 5.79275
#
# Compressibility (1/GPa) = 0.02503527
#
# Stress axis : x y z
#
# Youngs Moduli (GPa) = 60.57734 66.87671 83.42052
#
# Poissons Ratio (x) = 0.12984 0.25593
# Poissons Ratio (y) = 0.11761 0.35011
# Poissons Ratio (z) = 0.18585 0.28068
#
# Static dielectric constant tensor:
#      x y z
#    x 2.020500 0.000000 0.000000 
#    y 0.000000 2.075880 0.000000 
#    z 0.000000 0.000000 2.062010 
# 
# From -- ./inp_files/3876.got.cif
#   From: 2010.05.17/outbox.cif.g08.bks.cpg/sg29_2_cif.got.tgz:3876.got - 2010.06.04 01:19:37.
