data_PCOD9341223
_publ_section_title
;
Structure prediction by ZEFSAII (Michael W. Deem and Ramdas Pophale) SiO2 
 PCOD9341223
Probable space group: P C A 21
;
_chemical_formula_sum "Si O2"
_cell_formula_units_Z 28
_cell_length_a 8.496103
_cell_length_b 17.292068
_cell_length_c 8.000260
_cell_angle_alpha 90.000000
_cell_angle_beta 90.000000
_cell_angle_gamma 90.000000
_cell_volume 1175.359724
_symmetry_space_group_name_H-M "P C A 21"
_symmetry_group_IT_number 29
_symmetry_cell_setting 'orthorhombic'
loop_
_space_group_symop_operation_xyz
x,y,z
-x,-y,1/2+z
1/2-x,y,1/2+z
1/2+x,-y,z
loop_
_atom_site_type_symbol
_atom_site_label
_atom_site_fract_x
_atom_site_fract_y
_atom_site_fract_z
Si Si1 0.357228 0.917909 0.506240
Si Si2 0.523124 0.757793 0.462344
Si Si3 0.521973 0.373677 0.537562
Si Si4 0.634218 0.398333 0.957673
Si Si5 0.017802 0.929103 0.381646
Si Si6 0.126195 0.234150 0.852146
Si Si7 0.526619 0.512471 0.734051
O O1 0.426678 0.837016 0.439013
O O2 0.169562 0.920818 0.498810
O O3 0.415144 0.926223 0.695054
O O4 0.426214 0.991792 0.410570
O O5 0.426180 0.684330 0.397023
O O6 0.687424 0.756886 0.365701
O O7 0.560820 0.750927 0.663361
O O8 0.710754 0.375405 0.560967
O O9 0.452222 0.291647 0.487703
O O10 0.443004 0.430961 0.675135
O O11 0.508772 0.422334 0.367154
O O12 0.671161 0.468105 0.827738
O O13 0.492493 0.437682 0.064916
O O14 0.910310 0.853987 0.401280
#
# Coordination Sequence:
#
# PCOD9341223 Si02
#       7
#     4   4   4   4   4   4   4
#     4  11  24  45  72 104 138 180 222 273 330 398
#     4  11  26  44  65  97 135 173 220 271 331 392
#     4  11  23  44  66  94 127 171 220 272 331 392
#     4  11  23  44  66  94 127 171 220 272 331 392
#     4  11  24  45  72 104 138 180 222 273 330 398
#     4  11  26  44  65  97 135 173 220 271 331 392
#     4  10  24  40  64  96 126 168 216 276 330 396
#
# _framework density 23.822493999999999
#
# number of rings (size 3 to 8) (size 9 to 14) (size 15 to 20)
#    0.000    1.143    1.429    3.429    2.000   11.429 
#    0.000    0.000    0.000    0.000    0.000    0.000 
#    0.000    0.000    0.000    0.000    0.000    0.000 
#
# Total GULP energy -156211.412088 kJ/mol
# GULP energy per Si atom -5578.979003 kJ/mol
# Density = 2.376827 g / cm^3
# Si number density = 23.822494 Si / 1000 Ang^3
#
#
#
# Elastic Constant Matrix: (Units=GPa)
#
#
# Indices 1 2 3 4 5 6 
#
# 1 84.7544 39.9144 -0.8372 0.0000 0.0000 0.0000
# 2 39.9144 174.2279 30.0839 0.0000 0.0000 0.0000
# 3 -0.8372 30.0839 45.4757 0.0000 0.0000 0.0000
# 4 0.0000 0.0000 0.0000 37.5487 0.0000 0.0000
# 5 0.0000 0.0000 0.0000 0.0000 79.5056 0.0000
# 6 0.0000 0.0000 0.0000 0.0000 0.0000 38.1241
#
#
#
# Elastic Compliance Matrix: (Units=1/GPa)
#
#
# Indices 1 2 3 4 5 6 
#
# 1 0.013490 -0.003538 0.002589 0.000000 0.000000 0.000000
# 2 -0.003538 0.007407 -0.004965 0.000000 0.000000 0.000000
# 3 0.002589 -0.004965 0.025322 0.000000 0.000000 0.000000
# 4 0.000000 0.000000 0.000000 0.026632 0.000000 0.000000
# 5 0.000000 0.000000 0.000000 0.000000 0.012578 0.000000
# 6 0.000000 0.000000 0.000000 0.000000 0.000000 0.026230
#
#
# Mechanical properties :
#
#
# Convention : Reuss Voigt Hill
#
# Bulk Modulus (GPa) = 29.07721 49.19781 39.13751
# Shear Modulus (GPa) = 37.05012 46.72213 41.88612
#
# Velocity S-wave (km/s) = 3.94795 4.43342 4.19771
# Velocity P-wave (km/s) = 5.74579 6.84862 6.32130
#
# Compressibility (1/GPa) = 0.03439120
#
# Stress axis : x y z
#
# Youngs Moduli (GPa) = 74.12719 135.00013 39.49105
#
# Poissons Ratio (x) = 0.47756 -0.10222
# Poissons Ratio (y) = 0.26223 0.19609
# Poissons Ratio (z) = -0.19188 0.67033
#
# Static dielectric constant tensor:
#      x y z
#    x 1.881350 0.000000 0.000000 
#    y 0.000000 1.847390 0.000000 
#    z 0.000000 0.000000 2.060220 
# 
# From -- ./inp_files/1235.got.cif
#   From: 2010.05.17/outbox.cif.g08.bks.cpg/sg29_1_cif.got.tgz:1235.got - 2010.06.04 01:19:37.
