data_PCOD9341497
_publ_section_title
;
Structure prediction by ZEFSAII (Michael W. Deem and Ramdas Pophale) SiO2 
 PCOD9341497
Probable space group: P C A 21
;
_chemical_formula_sum "Si O2"
_cell_formula_units_Z 24
_cell_length_a 13.762364
_cell_length_b 9.472530
_cell_length_c 8.096693
_cell_angle_alpha 90.000000
_cell_angle_beta 90.000000
_cell_angle_gamma 90.000000
_cell_volume 1055.520572
_symmetry_space_group_name_H-M "P C A 21"
_symmetry_group_IT_number 29
_symmetry_cell_setting 'orthorhombic'
loop_
_space_group_symop_operation_xyz
x,y,z
-x,-y,1/2+z
1/2-x,y,1/2+z
1/2+x,-y,z
loop_
_atom_site_type_symbol
_atom_site_label
_atom_site_fract_x
_atom_site_fract_y
_atom_site_fract_z
Si Si1 0.699210 0.029659 0.045800
Si Si2 0.480234 0.828905 0.668611
Si Si3 0.099455 0.378719 0.836903
Si Si4 0.206541 0.297700 0.156725
Si Si5 0.986041 0.666747 0.838103
Si Si6 0.609422 0.091031 0.684705
O O1 0.626456 0.107599 0.171701
O O2 0.801169 0.108638 0.062619
O O3 0.711696 0.866011 0.098120
O O4 0.654611 0.045431 0.863280
O O5 0.527246 0.755433 0.826786
O O6 0.488637 0.714942 0.523125
O O7 0.545949 0.961823 0.620323
O O8 0.187313 0.351507 0.708010
O O9 0.033141 0.514704 0.808633
O O10 0.155369 0.383667 0.010051
O O11 0.128595 0.315536 0.304772
O O12 0.041741 0.776284 0.719155
#
# Coordination Sequence:
#
# PCOD9341497 Si02
#       6
#     4   4   4   4   4   4
#     4  11  23  40  70 101 128 178 225 278 333 391
#     4  11  23  44  68  99 137 177 230 281 333 404
#     4  12  26  44  69 101 137 181 225 277 349 412
#     4  12  23  43  71  93 134 181 224 277 342 402
#     4  11  27  44  67 103 138 179 225 283 343 407
#     4  11  24  41  67  99 132 172 229 278 328 400
#
# _framework density 22.737594000000001
#
# number of rings (size 3 to 8) (size 9 to 14) (size 15 to 20)
#    0.000    0.667    5.000    2.000    2.333    5.333 
#    0.000    0.000    0.000    0.000    0.000    0.000 
#    0.000    0.000    0.000    0.000    0.000    0.000 
#
# Total GULP energy -134353.741404 kJ/mol
# GULP energy per Si atom -5598.072558 kJ/mol
# Density = 2.268584 g / cm^3
# Si number density = 22.737594 Si / 1000 Ang^3
#
#
#
# Elastic Constant Matrix: (Units=GPa)
#
#
# Indices 1 2 3 4 5 6 
#
# 1 80.1402 17.5157 -0.5961 0.0000 0.0000 0.0000
# 2 17.5157 64.6027 -4.0009 0.0000 0.0000 0.0000
# 3 -0.5961 -4.0009 63.1743 0.0000 0.0000 0.0000
# 4 0.0000 0.0000 0.0000 32.2048 0.0000 0.0000
# 5 0.0000 0.0000 0.0000 0.0000 35.6193 0.0000
# 6 0.0000 0.0000 0.0000 0.0000 0.0000 29.8889
#
#
#
# Elastic Compliance Matrix: (Units=1/GPa)
#
#
# Indices 1 2 3 4 5 6 
#
# 1 0.013265 -0.003603 -0.000103 0.000000 0.000000 0.000000
# 2 -0.003603 0.016519 0.001012 0.000000 0.000000 0.000000
# 3 -0.000103 0.001012 0.015892 0.000000 0.000000 0.000000
# 4 0.000000 0.000000 0.000000 0.031051 0.000000 0.000000
# 5 0.000000 0.000000 0.000000 0.000000 0.028075 0.000000
# 6 0.000000 0.000000 0.000000 0.000000 0.000000 0.033457
#
#
# Mechanical properties :
#
#
# Convention : Reuss Voigt Hill
#
# Bulk Modulus (GPa) = 24.82097 25.97272 25.39684
# Shear Modulus (GPa) = 31.83170 32.54249 32.18710
#
# Velocity S-wave (km/s) = 3.74566 3.78725 3.76651
# Velocity P-wave (km/s) = 5.44487 5.52919 5.48719
#
# Compressibility (1/GPa) = 0.04028851
#
# Stress axis : x y z
#
# Youngs Moduli (GPa) = 75.38735 60.53721 62.92334
#
# Poissons Ratio (x) = 0.21811 0.00648
# Poissons Ratio (y) = 0.27161 -0.06369
# Poissons Ratio (z) = 0.00777 -0.06127
#
# Static dielectric constant tensor:
#      x y z
#    x 1.850330 0.000000 0.000000 
#    y 0.000000 1.802050 0.000000 
#    z 0.000000 0.000000 1.929930 
# 
# From -- ./inp_files/1393.got.cif
#   From: 2010.05.17/outbox.cif.g08.bks.cpg/sg29_1_cif.got.tgz:1393.got - 2010.06.04 01:19:37.
