data_PCOD9341426
_publ_section_title
;
Structure prediction by ZEFSAII (Michael W. Deem and Ramdas Pophale) SiO2 
 PCOD9341426
Probable space group: P C A 21
;
_chemical_formula_sum "Si O2"
_cell_formula_units_Z 32
_cell_length_a 18.877238
_cell_length_b 7.895672
_cell_length_c 7.925480
_cell_angle_alpha 90.000000
_cell_angle_beta 90.000000
_cell_angle_gamma 90.000000
_cell_volume 1181.280743
_symmetry_space_group_name_H-M "P C A 21"
_symmetry_group_IT_number 29
_symmetry_cell_setting 'orthorhombic'
loop_
_space_group_symop_operation_xyz
x,y,z
-x,-y,1/2+z
1/2-x,y,1/2+z
1/2+x,-y,z
loop_
_atom_site_type_symbol
_atom_site_label
_atom_site_fract_x
_atom_site_fract_y
_atom_site_fract_z
Si Si1 0.524661 0.762572 0.640840
Si Si2 0.773723 0.182265 0.071894
Si Si3 0.833951 0.359946 0.383414
Si Si4 0.894517 0.264874 0.849831
Si Si5 0.106397 0.324681 0.317725
Si Si6 0.746447 0.690940 0.487801
Si Si7 0.969047 0.354835 0.178501
Si Si8 0.665525 0.864015 0.767283
O O1 0.446208 0.804620 0.705649
O O2 0.560203 0.779669 0.456970
O O3 0.530850 0.558204 0.658736
O O4 0.581575 0.856130 0.759630
O O5 0.694329 0.218589 0.012886
O O6 0.818195 0.190766 0.895579
O O7 0.800202 0.331672 0.197611
O O8 0.800732 0.020891 0.171711
O O9 0.796131 0.526228 0.463259
O O10 0.917691 0.343112 0.344347
O O11 0.888863 0.469678 0.835075
O O12 0.934358 0.249526 0.029273
O O13 0.187502 0.278656 0.339080
O O14 0.051556 0.305381 0.167767
O O15 0.694745 0.708642 0.648058
O O16 0.802209 0.839310 0.451207
#
# Coordination Sequence:
#
# PCOD9341426 Si02
#       8
#     4   4   4   4   4   4   4   4
#     4   9  18  35  57  83 117 157 199 249 306 358
#     4  11  23  39  59  91 130 165 201 255 314 371
#     4  11  21  39  62  88 119 161 210 256 306 369
#     4   9  18  35  57  83 117 157 199 249 306 358
#     4   9  18  34  57  89 115 144 204 265 296 351
#     4  11  21  39  62  88 119 161 210 256 306 369
#     4   9  18  34  57  89 115 144 204 265 296 351
#     4  11  23  39  59  91 130 165 201 255 314 371
#
# _framework density 27.089241999999999
#
# number of rings (size 3 to 8) (size 9 to 14) (size 15 to 20)
#    0.000    2.000    2.500    1.500    0.000    2.000 
#    9.000    5.000    0.000    3.000    0.000    0.000 
#    0.000    0.000    0.000    0.000    0.000    0.000 
#
# Total GULP energy -178573.034041 kJ/mol
# GULP energy per Si atom -5580.407314 kJ/mol
# Density = 2.702759 g / cm^3
# Si number density = 27.089242 Si / 1000 Ang^3
#
#
#
# Elastic Constant Matrix: (Units=GPa)
#
#
# Indices 1 2 3 4 5 6 
#
# 1 152.2645 5.3332 8.7197 0.0000 0.0000 0.0000
# 2 5.3332 72.9456 3.7787 0.0000 0.0000 0.0000
# 3 8.7197 3.7787 47.3011 0.0000 0.0000 0.0000
# 4 0.0000 0.0000 0.0000 17.7172 0.0000 0.0000
# 5 0.0000 0.0000 0.0000 0.0000 45.2781 0.0000
# 6 0.0000 0.0000 0.0000 0.0000 0.0000 10.7049
#
#
#
# Elastic Compliance Matrix: (Units=1/GPa)
#
#
# Indices 1 2 3 4 5 6 
#
# 1 0.006651 -0.000424 -0.001192 0.000000 0.000000 0.000000
# 2 -0.000424 0.013793 -0.001024 0.000000 0.000000 0.000000
# 3 -0.001192 -0.001024 0.021443 0.000000 0.000000 0.000000
# 4 0.000000 0.000000 0.000000 0.056442 0.000000 0.000000
# 5 0.000000 0.000000 0.000000 0.000000 0.022086 0.000000
# 6 0.000000 0.000000 0.000000 0.000000 0.000000 0.093415
#
#
# Mechanical properties :
#
#
# Convention : Reuss Voigt Hill
#
# Bulk Modulus (GPa) = 27.31802 34.24160 30.77981
# Shear Modulus (GPa) = 21.61586 31.71868 26.66727
#
# Velocity S-wave (km/s) = 2.82787 3.42555 3.14096
# Velocity P-wave (km/s) = 4.55728 5.32105 4.95390
#
# Compressibility (1/GPa) = 0.03660587
#
# Stress axis : x y z
#
# Youngs Moduli (GPa) = 150.36116 72.50108 46.63592
#
# Poissons Ratio (x) = 0.03078 0.05559
# Poissons Ratio (y) = 0.06383 0.04774
# Poissons Ratio (z) = 0.17925 0.07421
#
# Static dielectric constant tensor:
#      x y z
#    x 2.161000 0.000000 0.000000 
#    y 0.000000 2.219550 0.000000 
#    z 0.000000 0.000000 2.294090 
# 
# From -- ./inp_files/2271.got.cif
#   From: 2010.05.17/outbox.cif.g08.bks.cpg/sg29_2_cif.got.tgz:2271.got - 2010.06.04 01:19:37.
