data_PCOD9341174
_publ_section_title
;
Structure prediction by ZEFSAII (Michael W. Deem and Ramdas Pophale) SiO2 
 PCOD9341174
Probable space group: P C A 21
;
_chemical_formula_sum "Si O2"
_cell_formula_units_Z 32
_cell_length_a 13.818845
_cell_length_b 6.817505
_cell_length_c 14.880262
_cell_angle_alpha 90.000000
_cell_angle_beta 90.000000
_cell_angle_gamma 90.000000
_cell_volume 1401.870151
_symmetry_space_group_name_H-M "P C A 21"
_symmetry_group_IT_number 29
_symmetry_cell_setting 'orthorhombic'
loop_
_space_group_symop_operation_xyz
x,y,z
-x,-y,1/2+z
1/2-x,y,1/2+z
1/2+x,-y,z
loop_
_atom_site_type_symbol
_atom_site_label
_atom_site_fract_x
_atom_site_fract_y
_atom_site_fract_z
Si Si1 0.751937 0.766275 0.744240
Si Si2 0.608343 0.437869 0.187549
Si Si3 0.331542 0.683503 0.971097
Si Si4 0.842146 0.492183 0.372410
Si Si5 0.277513 0.836062 0.150947
Si Si6 0.410255 0.060821 0.873688
Si Si7 0.997951 0.605897 0.005283
Si Si8 0.042812 0.743515 0.753079
O O1 0.816386 0.620588 0.683054
O O2 0.666282 0.648179 0.792629
O O3 0.813779 0.848765 0.828832
O O4 0.721911 0.940844 0.680442
O O5 0.688497 0.267664 0.204720
O O6 0.527363 0.551077 0.249097
O O7 0.548802 0.364363 0.101138
O O8 0.263019 0.549688 0.910308
O O9 0.406055 0.532592 0.013950
O O10 0.386773 0.851183 0.915357
O O11 0.264906 0.788015 0.046123
O O12 0.922239 0.518342 0.448372
O O13 0.876458 0.290093 0.328205
O O14 0.388475 0.769254 0.168796
O O15 0.459504 0.204235 0.948969
O O16 0.481240 0.072361 0.786914
#
# Coordination Sequence:
#
# PCOD9341174 Si02
#       8
#     4   4   4   4   4   4   4   4
#     4  11  25  43  69 102 140 189 237 288 357 428
#     4  11  24  47  68 101 148 183 238 296 361 435
#     4  12  25  45  70 104 144 184 240 297 359 428
#     4  11  23  44  72  99 141 192 230 292 360 429
#     4  12  25  44  72 105 144 189 238 299 360 436
#     4  10  25  43  66 101 141 178 242 293 345 423
#     4  11  24  45  71 101 140 189 236 292 364 431
#     4  10  23  45  68 101 136 188 237 285 364 418
#
# _framework density 22.826651999999999
#
# number of rings (size 3 to 8) (size 9 to 14) (size 15 to 20)
#    0.000    1.000    5.000    0.750    1.750    4.000 
#    2.250    0.000    0.000    0.000    0.000    0.000 
#    0.000    0.000    0.000    0.000    0.000    0.000 
#
# Total GULP energy -178342.078352 kJ/mol
# GULP energy per Si atom -5573.189949 kJ/mol
# Density = 2.277470 g / cm^3
# Si number density = 22.826652 Si / 1000 Ang^3
#
#
#
# Elastic Constant Matrix: (Units=GPa)
#
#
# Indices 1 2 3 4 5 6 
#
# 1 90.2233 22.6169 -2.4589 0.0000 0.0000 0.0000
# 2 22.6169 69.4870 8.4138 0.0000 0.0000 0.0000
# 3 -2.4589 8.4138 45.8875 0.0000 0.0000 0.0000
# 4 0.0000 0.0000 0.0000 27.8943 0.0000 0.0000
# 5 0.0000 0.0000 0.0000 0.0000 12.2409 0.0000
# 6 0.0000 0.0000 0.0000 0.0000 0.0000 22.6884
#
#
#
# Elastic Compliance Matrix: (Units=1/GPa)
#
#
# Indices 1 2 3 4 5 6 
#
# 1 0.012157 -0.004127 0.001408 0.000000 0.000000 0.000000
# 2 -0.004127 0.016119 -0.003177 0.000000 0.000000 0.000000
# 3 0.001408 -0.003177 0.022450 0.000000 0.000000 0.000000
# 4 0.000000 0.000000 0.000000 0.035850 0.000000 0.000000
# 5 0.000000 0.000000 0.000000 0.000000 0.081693 0.000000
# 6 0.000000 0.000000 0.000000 0.000000 0.000000 0.044075
#
#
# Mechanical properties :
#
#
# Convention : Reuss Voigt Hill
#
# Bulk Modulus (GPa) = 25.68417 29.19349 27.43883
# Shear Modulus (GPa) = 21.08688 24.36645 22.72667
#
# Velocity S-wave (km/s) = 3.04268 3.27074 3.15877
# Velocity P-wave (km/s) = 4.86005 5.20390 5.03491
#
# Compressibility (1/GPa) = 0.03893449
#
# Stress axis : x y z
#
# Youngs Moduli (GPa) = 82.25980 62.03785 44.54274
#
# Poissons Ratio (x) = 0.25605 -0.06272
# Poissons Ratio (y) = 0.33951 0.14150
# Poissons Ratio (z) = -0.11584 0.19708
#
# Static dielectric constant tensor:
#      x y z
#    x 1.902220 0.000000 0.000000 
#    y 0.000000 1.840350 0.000000 
#    z 0.000000 0.000000 1.970970 
# 
# From -- ./inp_files/5257.got.cif
#   From: 2010.05.17/outbox.cif.g08.bks.cpg/sg29_3_cif.got.tgz:5257.got - 2010.06.04 01:19:37.
