data_PCOD9341467
_publ_section_title
;
Structure prediction by ZEFSAII (Michael W. Deem and Ramdas Pophale) SiO2 
 PCOD9341467
Probable space group: P C A 21
;
_chemical_formula_sum "Si O2"
_cell_formula_units_Z 28
_cell_length_a 14.142776
_cell_length_b 8.428406
_cell_length_c 8.788744
_cell_angle_alpha 90.000000
_cell_angle_beta 90.000000
_cell_angle_gamma 90.000000
_cell_volume 1047.627584
_symmetry_space_group_name_H-M "P C A 21"
_symmetry_group_IT_number 29
_symmetry_cell_setting 'orthorhombic'
loop_
_space_group_symop_operation_xyz
x,y,z
-x,-y,1/2+z
1/2-x,y,1/2+z
1/2+x,-y,z
loop_
_atom_site_type_symbol
_atom_site_label
_atom_site_fract_x
_atom_site_fract_y
_atom_site_fract_z
Si Si1 0.196942 0.611393 0.801880
Si Si2 0.953328 0.114895 0.760244
Si Si3 0.262050 0.832118 0.580402
Si Si4 0.620553 0.605821 0.300530
Si Si5 0.410320 0.377106 0.125078
Si Si6 0.771717 0.821304 0.595591
Si Si7 0.975106 0.802234 0.578180
O O1 0.183691 0.723063 0.656230
O O2 0.301188 0.531810 0.786119
O O3 0.120785 0.476139 0.773403
O O4 0.195950 0.728454 0.943842
O O5 0.847374 0.136949 0.699079
O O6 0.019244 0.240394 0.674024
O O7 0.986043 0.938973 0.707687
O O8 0.959006 0.157900 0.937076
O O9 0.225911 0.009915 0.562870
O O10 0.563840 0.570195 0.454037
O O11 0.683617 0.766102 0.260372
O O12 0.542934 0.634740 0.165470
O O13 0.306292 0.310380 0.071350
O O14 0.869426 0.825862 0.502743
#
# Coordination Sequence:
#
# PCOD9341467 Si02
#       7
#     4   4   4   4   4   4   4
#     4  11  24  43  69  93 145 194 241 284 359 463
#     4  11  24  41  70 105 147 177 243 319 376 425
#     4  11  25  45  64 104 145 184 239 306 368 428
#     4   9  20  41  68  96 130 186 241 284 348 446
#     4  11  22  41  73 103 133 193 240 293 360 445
#     4   8  22  36  72  97 136 176 249 292 352 429
#     4   9  21  39  66 102 136 180 237 308 365 432
#
# _framework density 26.727056999999999
#
# number of rings (size 3 to 8) (size 9 to 14) (size 15 to 20)
#    0.857    1.143    1.429    0.857    8.000    1.143 
#    2.571    1.429    0.000    0.000    0.000    0.000 
#    0.000    0.000    0.000    0.000    0.000    0.000 
#
# Total GULP energy -156222.659073 kJ/mol
# GULP energy per Si atom -5579.380681 kJ/mol
# Density = 2.666622 g / cm^3
# Si number density = 26.727057 Si / 1000 Ang^3
#
#
#
# Elastic Constant Matrix: (Units=GPa)
#
#
# Indices 1 2 3 4 5 6 
#
# 1 37.2654 -3.9022 33.0669 0.0000 0.0000 0.0000
# 2 -3.9022 97.0173 37.4129 0.0000 0.0000 0.0000
# 3 33.0669 37.4129 133.7865 0.0000 0.0000 0.0000
# 4 0.0000 0.0000 0.0000 46.5397 0.0000 0.0000
# 5 0.0000 0.0000 0.0000 0.0000 41.3117 0.0000
# 6 0.0000 0.0000 0.0000 0.0000 0.0000 50.3578
#
#
#
# Elastic Compliance Matrix: (Units=1/GPa)
#
#
# Indices 1 2 3 4 5 6 
#
# 1 0.036907 0.005607 -0.010690 0.000000 0.000000 0.000000
# 2 0.005607 0.012405 -0.004855 0.000000 0.000000 0.000000
# 3 -0.010690 -0.004855 0.011474 0.000000 0.000000 0.000000
# 4 0.000000 0.000000 0.000000 0.021487 0.000000 0.000000
# 5 0.000000 0.000000 0.000000 0.000000 0.024206 0.000000
# 6 0.000000 0.000000 0.000000 0.000000 0.000000 0.019858
#
#
# Mechanical properties :
#
#
# Convention : Reuss Voigt Hill
#
# Bulk Modulus (GPa) = 24.44341 44.58048 34.51195
# Shear Modulus (GPa) = 31.27916 41.07461 36.17688
#
# Velocity S-wave (km/s) = 3.42470 3.92448 3.68308
# Velocity P-wave (km/s) = 4.98032 6.10340 5.57024
#
# Compressibility (1/GPa) = 0.04091082
#
# Stress axis : x y z
#
# Youngs Moduli (GPa) = 27.09494 80.61181 87.15065
#
# Poissons Ratio (x) = -0.45198 0.93164
# Poissons Ratio (y) = -0.15192 0.42310
# Poissons Ratio (z) = 0.28964 0.39136
#
# Static dielectric constant tensor:
#      x y z
#    x 2.226510 0.000000 0.000000 
#    y 0.000000 2.309170 0.000000 
#    z 0.000000 0.000000 2.196260 
# 
# From -- ./inp_files/2076.got.cif
#   From: 2010.05.17/outbox.cif.g08.bks.cpg/sg29_2_cif.got.tgz:2076.got - 2010.06.04 01:19:37.
