data_PCOD9341010
_publ_section_title
;
Structure prediction by ZEFSAII (Michael W. Deem and Ramdas Pophale) SiO2 
 PCOD9341010
Probable space group: P C A 21
;
_chemical_formula_sum "Si O2"
_cell_formula_units_Z 28
_cell_length_a 12.357885
_cell_length_b 10.873185
_cell_length_c 8.716879
_cell_angle_alpha 90.000000
_cell_angle_beta 90.000000
_cell_angle_gamma 90.000000
_cell_volume 1171.283281
_symmetry_space_group_name_H-M "P C A 21"
_symmetry_group_IT_number 29
_symmetry_cell_setting 'orthorhombic'
loop_
_space_group_symop_operation_xyz
x,y,z
-x,-y,1/2+z
1/2-x,y,1/2+z
1/2+x,-y,z
loop_
_atom_site_type_symbol
_atom_site_label
_atom_site_fract_x
_atom_site_fract_y
_atom_site_fract_z
Si Si1 0.491854 0.641833 0.534950
Si Si2 0.110895 0.917165 0.695260
Si Si3 0.534898 0.746601 0.038259
Si Si4 0.898298 0.544636 0.331896
Si Si5 0.239415 0.995487 0.418905
Si Si6 0.690762 0.725736 0.319355
Si Si7 0.541709 0.126743 0.246411
O O1 0.541360 0.554190 0.669631
O O2 0.400891 0.584849 0.421404
O O3 0.593626 0.681764 0.429689
O O4 0.450983 0.759693 0.631273
O O5 0.067694 0.787186 0.639252
O O6 0.207295 0.973309 0.593909
O O7 0.149799 0.931492 0.868005
O O8 0.011029 0.008629 0.668333
O O9 0.638093 0.742268 0.150306
O O10 0.526592 0.618992 0.951456
O O11 0.535712 0.834585 0.889238
O O12 0.786712 0.623594 0.319896
O O13 0.227420 0.138779 0.375158
O O14 0.149044 0.916159 0.329915
#
# Coordination Sequence:
#
# PCOD9341010 Si02
#       7
#     4   4   4   4   4   4   4
#     4  11  24  46  69 102 145 187 242 308 359 423
#     4  11  23  40  63 106 145 186 238 293 356 434
#     4  10  23  42  65  97 145 183 235 296 351 423
#     4  11  25  44  70 103 138 191 249 295 359 434
#     4  11  24  37  69 106 146 194 242 287 366 443
#     4  12  23  41  75 106 137 191 244 297 360 439
#     4  10  22  44  67 102 152 186 234 300 373 422
#
# _framework density 23.905404999999998
#
# number of rings (size 3 to 8) (size 9 to 14) (size 15 to 20)
#    0.000    1.143    2.857    3.429    4.000    1.143 
#    2.571    0.000    3.143    0.000    0.000    0.000 
#    0.000    0.000    0.000    0.000    0.000    0.000 
#
# Total GULP energy -156433.506233 kJ/mol
# GULP energy per Si atom -5586.910937 kJ/mol
# Density = 2.385100 g / cm^3
# Si number density = 23.905405 Si / 1000 Ang^3
#
#
#
# Elastic Constant Matrix: (Units=GPa)
#
#
# Indices 1 2 3 4 5 6 
#
# 1 67.9667 42.9521 42.1381 0.0000 0.0000 0.0000
# 2 42.9521 61.9125 64.2236 0.0000 0.0000 0.0000
# 3 42.1381 64.2236 133.7767 0.0000 0.0000 0.0000
# 4 0.0000 0.0000 0.0000 49.5100 0.0000 0.0000
# 5 0.0000 0.0000 0.0000 0.0000 51.7684 0.0000
# 6 0.0000 0.0000 0.0000 0.0000 0.0000 35.2603
#
#
#
# Elastic Compliance Matrix: (Units=1/GPa)
#
#
# Indices 1 2 3 4 5 6 
#
# 1 0.026259 -0.019198 0.000945 0.000000 0.000000 0.000000
# 2 -0.019198 0.046211 -0.016138 0.000000 0.000000 0.000000
# 3 0.000945 -0.016138 0.014925 0.000000 0.000000 0.000000
# 4 0.000000 0.000000 0.000000 0.020198 0.000000 0.000000
# 5 0.000000 0.000000 0.000000 0.000000 0.019317 0.000000
# 6 0.000000 0.000000 0.000000 0.000000 0.000000 0.028360
#
#
# Mechanical properties :
#
#
# Convention : Reuss Voigt Hill
#
# Bulk Modulus (GPa) = 53.72360 62.47592 58.09976
# Shear Modulus (GPa) = 21.71497 34.93056 28.32277
#
# Velocity S-wave (km/s) = 3.01719 3.82671 3.44580
# Velocity P-wave (km/s) = 5.88728 6.76138 6.33942
#
# Compressibility (1/GPa) = 0.01861379
#
# Stress axis : x y z
#
# Youngs Moduli (GPa) = 38.08149 21.64003 67.00268
#
# Poissons Ratio (x) = 0.41545 -0.06333
# Poissons Ratio (y) = 0.73109 1.08127
# Poissons Ratio (z) = -0.03600 0.34922
#
# Static dielectric constant tensor:
#      x y z
#    x 1.950360 0.000000 0.000000 
#    y 0.000000 1.927120 0.000000 
#    z 0.000000 0.000000 1.972930 
# 
# From -- ./inp_files/1465.got.cif
#   From: 2010.05.17/outbox.cif.g08.bks.cpg/sg29_1_cif.got.tgz:1465.got - 2010.06.04 01:19:37.
