data_PCOD9341889
_publ_section_title
;
Structure prediction by ZEFSAII (Michael W. Deem and Ramdas Pophale) SiO2 
 PCOD9341889
Probable space group: P N C 2
;
_chemical_formula_sum "Si O2"
_cell_formula_units_Z 26
_cell_length_a 9.714693
_cell_length_b 9.194998
_cell_length_c 16.735510
_cell_angle_alpha 90.000000
_cell_angle_beta 90.000000
_cell_angle_gamma 90.000000
_cell_volume 1494.925918
_symmetry_space_group_name_H-M "P N C 2"
_symmetry_group_IT_number 30
_symmetry_cell_setting 'orthorhombic'
loop_
_space_group_symop_operation_xyz
x,y,z
-x,-y,z
-x,1/2+y,1/2+z
x,1/2-y,1/2+z
loop_
_atom_site_type_symbol
_atom_site_label
_atom_site_fract_x
_atom_site_fract_y
_atom_site_fract_z
Si Si1 0.716023 0.535185 0.179110
Si Si2 0.354716 0.729979 0.873461
Si Si3 0.471679 0.749194 0.206433
Si Si4 0.844622 0.484007 0.337784
Si Si5 0.660291 0.979982 0.503400
Si Si6 0.368532 0.157513 0.944585
Si Si7 0.500000 0.000000 0.082644
O O1 0.623793 0.678772 0.197713
O O2 0.624352 0.392180 0.197649
O O3 0.835188 0.525781 0.244325
O O4 0.746895 0.522352 0.085052
O O5 0.428536 0.680503 0.791159
O O6 0.475339 0.831425 0.910735
O O7 0.220933 0.824944 0.852943
O O8 0.319848 0.605145 0.937421
O O9 0.450935 0.867108 0.137530
O O10 0.738717 0.588749 0.384014
O O11 0.000000 0.500000 0.366569
O O12 0.500000 0.000000 0.530310
O O13 0.671260 0.822893 0.463587
O O14 0.381738 0.065381 0.025756
#
# Coordination Sequence:
#
# PCOD9341889 Si02
#       7
#     4   4   4   4   4   4   2
#     4  10  18  36  52  78 116 144 183 224 283 334
#     4  10  20  36  60  86 112 146 184 236 285 339
#     4  10  19  30  53  87 113 141 177 230 282 336
#     4  11  23  38  57  78 111 157 196 232 279 337
#     4  10  19  33  59  92 114 140 182 239 288 339
#     4  11  20  34  57  87 114 143 186 232 287 332
#     4  12  20  30  56  92 114 142 182 236 288 332
#
# _framework density 17.392164999999999
#
# number of rings (size 3 to 8) (size 9 to 14) (size 15 to 20)
#    0.000    1.538    6.154    0.923    3.231    0.000 
#    0.000    2.308    0.000    0.000    0.000    0.000 
#    0.000    0.000    0.000    0.000    0.000    0.000 
#
# Total GULP energy -144890.825075 kJ/mol
# GULP energy per Si atom -5572.724041 kJ/mol
# Density = 1.735258 g / cm^3
# Si number density = 17.392165 Si / 1000 Ang^3
#
#
#
# Elastic Constant Matrix: (Units=GPa)
#
#
# Indices 1 2 3 4 5 6 
#
# 1 59.2016 34.7580 31.1519 0.0000 0.0000 0.0000
# 2 34.7580 84.3458 47.4634 0.0000 0.0000 0.0000
# 3 31.1519 47.4634 131.1728 0.0000 0.0000 0.0000
# 4 0.0000 0.0000 0.0000 23.0337 0.0000 0.0000
# 5 0.0000 0.0000 0.0000 0.0000 9.0329 0.0000
# 6 0.0000 0.0000 0.0000 0.0000 0.0000 8.5262
#
#
#
# Elastic Compliance Matrix: (Units=1/GPa)
#
#
# Indices 1 2 3 4 5 6 
#
# 1 0.022940 -0.008021 -0.002546 0.000000 0.000000 0.000000
# 2 -0.008021 0.017692 -0.004497 0.000000 0.000000 0.000000
# 3 -0.002546 -0.004497 0.009855 0.000000 0.000000 0.000000
# 4 0.000000 0.000000 0.000000 0.043415 0.000000 0.000000
# 5 0.000000 0.000000 0.000000 0.000000 0.110707 0.000000
# 6 0.000000 0.000000 0.000000 0.000000 0.000000 0.117286
#
#
# Mechanical properties :
#
#
# Convention : Reuss Voigt Hill
#
# Bulk Modulus (GPa) = 49.11479 55.71852 52.41666
# Shear Modulus (GPa) = 13.93503 18.87501 16.40502
#
# Velocity S-wave (km/s) = 2.83366 3.29790 3.07456
# Velocity P-wave (km/s) = 6.24557 6.82698 6.54273
#
# Compressibility (1/GPa) = 0.02036046
#
# Stress axis : x y z
#
# Youngs Moduli (GPa) = 43.59170 56.52383 101.46938
#
# Poissons Ratio (x) = 0.45337 0.25831
# Poissons Ratio (y) = 0.34964 0.45628
# Poissons Ratio (z) = 0.11097 0.25417
#
# Static dielectric constant tensor:
#      x y z
#    x 1.563360 0.000000 0.000000 
#    y 0.000000 1.602080 0.000000 
#    z 0.000000 0.000000 1.663540 
# 
# From -- ./inp_files/5452.got.cif
#   From: 2010.05.17/outbox.cif.g08.bks.cpg/sg30_3_cif.got.tgz:5452.got - 2010.06.03 17:03:02.
