data_PCOD9341101
_publ_section_title
;
Structure prediction by ZEFSAII (Michael W. Deem and Ramdas Pophale) SiO2 
 PCOD9341101
Probable space group: P C A 21
;
_chemical_formula_sum "Si O2"
_cell_formula_units_Z 24
_cell_length_a 5.427381
_cell_length_b 18.517149
_cell_length_c 9.150111
_cell_angle_alpha 90.000000
_cell_angle_beta 90.000000
_cell_angle_gamma 90.000000
_cell_volume 919.582703
_symmetry_space_group_name_H-M "P C A 21"
_symmetry_group_IT_number 29
_symmetry_cell_setting 'orthorhombic'
loop_
_space_group_symop_operation_xyz
x,y,z
-x,-y,1/2+z
1/2-x,y,1/2+z
1/2+x,-y,z
loop_
_atom_site_type_symbol
_atom_site_label
_atom_site_fract_x
_atom_site_fract_y
_atom_site_fract_z
Si Si1 0.176242 0.820802 0.747040
Si Si2 0.887782 0.955708 0.698780
Si Si3 0.763982 0.485960 0.342097
Si Si4 0.385070 0.286369 0.922934
Si Si5 0.940106 0.846760 0.465902
Si Si6 0.044093 0.376908 0.708437
O O1 0.967144 0.882070 0.783989
O O2 0.437704 0.844471 0.808178
O O3 0.090749 0.745639 0.814495
O O4 0.167986 0.822202 0.572742
O O5 0.877423 0.924486 0.532616
O O6 0.129001 0.005241 0.721692
O O7 0.016334 0.494230 0.426924
O O8 0.792266 0.549685 0.221915
O O9 0.713527 0.409230 0.268244
O O10 0.256714 0.215541 0.992079
O O11 0.175646 0.324742 0.825144
O O12 0.530689 0.661970 0.553715
#
# Coordination Sequence:
#
# PCOD9341101 Si02
#       6
#     4   4   4   4   4   4
#     4  10  26  44  71 106 145 186 248 300 354 442
#     4  10  25  47  77 107 144 194 242 300 374 421
#     4   8  20  44  67 105 136 176 244 288 360 426
#     4  12  24  46  70 102 142 194 242 290 374 416
#     4  10  26  44  71 106 145 186 248 300 354 442
#     4  10  23  41  74  98 142 188 234 308 350 437
#
# _framework density 26.098794999999999
#
# number of rings (size 3 to 8) (size 9 to 14) (size 15 to 20)
#    2.000    0.000    1.667    0.000    7.000    5.333 
#    0.000    0.000    0.000    0.000    0.000    0.000 
#    0.000    0.000    0.000    0.000    0.000    0.000 
#
# Total GULP energy -134087.473666 kJ/mol
# GULP energy per Si atom -5586.978069 kJ/mol
# Density = 2.603939 g / cm^3
# Si number density = 26.098795 Si / 1000 Ang^3
#
#
#
# Elastic Constant Matrix: (Units=GPa)
#
#
# Indices 1 2 3 4 5 6 
#
# 1 109.8173 45.6797 10.4462 0.0000 0.0000 0.0000
# 2 45.6797 159.1561 29.5392 0.0000 0.0000 0.0000
# 3 10.4462 29.5392 69.0447 0.0000 0.0000 0.0000
# 4 0.0000 0.0000 0.0000 38.6990 0.0000 0.0000
# 5 0.0000 0.0000 0.0000 0.0000 30.2202 0.0000
# 6 0.0000 0.0000 0.0000 0.0000 0.0000 52.4070
#
#
#
# Elastic Compliance Matrix: (Units=1/GPa)
#
#
# Indices 1 2 3 4 5 6 
#
# 1 0.010347 -0.002910 -0.000320 0.000000 0.000000 0.000000
# 2 -0.002910 0.007644 -0.002830 0.000000 0.000000 0.000000
# 3 -0.000320 -0.002830 0.015743 0.000000 0.000000 0.000000
# 4 0.000000 0.000000 0.000000 0.025840 0.000000 0.000000
# 5 0.000000 0.000000 0.000000 0.000000 0.033090 0.000000
# 6 0.000000 0.000000 0.000000 0.000000 0.000000 0.019081
#
#
# Mechanical properties :
#
#
# Convention : Reuss Voigt Hill
#
# Bulk Modulus (GPa) = 46.27008 56.59427 51.43217
# Shear Modulus (GPa) = 38.14736 41.08876 39.61806
#
# Velocity S-wave (km/s) = 3.82730 3.97212 3.90038
# Velocity P-wave (km/s) = 6.10723 6.53978 6.32720
#
# Compressibility (1/GPa) = 0.02161224
#
# Stress axis : x y z
#
# Youngs Moduli (GPa) = 96.64571 130.82779 63.52220
#
# Poissons Ratio (x) = 0.38074 0.02035
# Poissons Ratio (y) = 0.28126 0.17976
# Poissons Ratio (z) = 0.03096 0.37022
#
# Static dielectric constant tensor:
#      x y z
#    x 2.094040 0.000000 0.000000 
#    y 0.000000 2.039390 0.000000 
#    z 0.000000 0.000000 2.045100 
# 
# From -- ./inp_files/2684.got.cif
#   From: 2010.05.17/outbox.cif.g08.bks.cpg/sg29_2_cif.got.tgz:2684.got - 2010.06.04 01:19:37.
