data_PCOD9341735
_publ_section_title
;
Structure prediction by ZEFSAII (Michael W. Deem and Ramdas Pophale) SiO2 
 PCOD9341735
Probable space group: P C A 21
;
_chemical_formula_sum "Si O2"
_cell_formula_units_Z 28
_cell_length_a 12.552491
_cell_length_b 11.215781
_cell_length_c 8.052764
_cell_angle_alpha 90.000000
_cell_angle_beta 90.000000
_cell_angle_gamma 90.000000
_cell_volume 1133.716352
_symmetry_space_group_name_H-M "P C A 21"
_symmetry_group_IT_number 29
_symmetry_cell_setting 'orthorhombic'
loop_
_space_group_symop_operation_xyz
x,y,z
-x,-y,1/2+z
1/2-x,y,1/2+z
1/2+x,-y,z
loop_
_atom_site_type_symbol
_atom_site_label
_atom_site_fract_x
_atom_site_fract_y
_atom_site_fract_z
Si Si1 0.732966 0.410731 0.586770
Si Si2 0.827894 0.953878 0.964643
Si Si3 0.059232 0.713163 0.745788
Si Si4 0.655577 0.575252 0.299451
Si Si5 0.526023 0.154441 0.399436
Si Si6 0.344767 0.839553 0.545093
Si Si7 0.201200 0.201248 0.757021
O O1 0.652314 0.386193 0.739785
O O2 0.669175 0.488454 0.454707
O O3 0.833961 0.488025 0.642655
O O4 0.772735 0.279059 0.547065
O O5 0.937479 0.025073 0.963704
O O6 0.792377 0.896295 0.792929
O O7 0.737080 0.050714 0.016722
O O8 0.833220 0.835000 0.074220
O O9 0.050957 0.759794 0.555590
O O10 0.951131 0.650121 0.798101
O O11 0.087392 0.817050 0.876900
O O12 0.753214 0.668333 0.282160
O O13 0.591040 0.163847 0.222246
O O14 0.401549 0.172514 0.366966
#
# Coordination Sequence:
#
# PCOD9341735 Si02
#       7
#     4   4   4   4   4   4   4
#     4  12  25  51  76 107 156 196 257 317 375 454
#     4  12  25  51  76 107 156 196 257 317 375 454
#     4  12  27  48  81 113 152 202 258 314 385 447
#     4  12  29  48  74 115 157 198 250 316 384 456
#     4  12  27  48  81 113 152 202 258 314 385 447
#     4  12  26  52  82 112 144 202 264 318 372 456
#     4  12  29  48  74 115 157 198 250 316 384 456
#
# _framework density 24.697535999999999
#
# number of rings (size 3 to 8) (size 9 to 14) (size 15 to 20)
#    0.000    0.000    4.286    5.143    8.000    2.286 
#    0.000    0.000    0.000    0.000    0.000    0.000 
#    0.000    0.000    0.000    0.000    0.000    0.000 
#
# Total GULP energy -156653.270830 kJ/mol
# GULP energy per Si atom -5594.759673 kJ/mol
# Density = 2.464132 g / cm^3
# Si number density = 24.697536 Si / 1000 Ang^3
#
#
#
# Elastic Constant Matrix: (Units=GPa)
#
#
# Indices 1 2 3 4 5 6 
#
# 1 59.7570 20.8629 -6.1361 0.0000 0.0000 0.0000
# 2 20.8629 125.5256 31.5532 0.0000 0.0000 0.0000
# 3 -6.1361 31.5532 95.6628 0.0000 0.0000 0.0000
# 4 0.0000 0.0000 0.0000 45.1685 0.0000 0.0000
# 5 0.0000 0.0000 0.0000 0.0000 28.6484 0.0000
# 6 0.0000 0.0000 0.0000 0.0000 0.0000 28.0886
#
#
#
# Elastic Compliance Matrix: (Units=1/GPa)
#
#
# Indices 1 2 3 4 5 6 
#
# 1 0.018244 -0.003627 0.002367 0.000000 0.000000 0.000000
# 2 -0.003627 0.009408 -0.003336 0.000000 0.000000 0.000000
# 3 0.002367 -0.003336 0.011705 0.000000 0.000000 0.000000
# 4 0.000000 0.000000 0.000000 0.022139 0.000000 0.000000
# 5 0.000000 0.000000 0.000000 0.000000 0.034906 0.000000
# 6 0.000000 0.000000 0.000000 0.000000 0.000000 0.035602
#
#
# Mechanical properties :
#
#
# Convention : Reuss Voigt Hill
#
# Bulk Modulus (GPa) = 33.15150 41.50062 37.32606
# Shear Modulus (GPa) = 33.05761 36.02548 34.54154
#
# Velocity S-wave (km/s) = 3.66252 3.82339 3.74382
# Velocity P-wave (km/s) = 5.59799 6.02753 5.81673
#
# Compressibility (1/GPa) = 0.03016455
#
# Stress axis : x y z
#
# Youngs Moduli (GPa) = 54.81326 106.29445 85.43051
#
# Poissons Ratio (x) = 0.38554 -0.20218
# Poissons Ratio (y) = 0.19881 0.28497
# Poissons Ratio (z) = -0.12972 0.35457
#
# Static dielectric constant tensor:
#      x y z
#    x 2.023110 0.000000 0.000000 
#    y 0.000000 1.885750 0.000000 
#    z 0.000000 0.000000 2.067790 
# 
# From -- ./inp_files/1493.got.cif
#   From: 2010.05.17/outbox.cif.g08.bks.cpg/sg29_1_cif.got.tgz:1493.got - 2010.06.04 01:19:37.
