data_PCOD9341201
_publ_section_title
;
Structure prediction by ZEFSAII (Michael W. Deem and Ramdas Pophale) SiO2 
 PCOD9341201
Probable space group: P C A 21
;
_chemical_formula_sum "Si O2"
_cell_formula_units_Z 32
_cell_length_a 5.551671
_cell_length_b 16.434760
_cell_length_c 12.863667
_cell_angle_alpha 90.000000
_cell_angle_beta 90.000000
_cell_angle_gamma 90.000000
_cell_volume 1173.685871
_symmetry_space_group_name_H-M "P C A 21"
_symmetry_group_IT_number 29
_symmetry_cell_setting 'orthorhombic'
loop_
_space_group_symop_operation_xyz
x,y,z
-x,-y,1/2+z
1/2-x,y,1/2+z
1/2+x,-y,z
loop_
_atom_site_type_symbol
_atom_site_label
_atom_site_fract_x
_atom_site_fract_y
_atom_site_fract_z
Si Si1 0.136654 0.019447 0.327560
Si Si2 0.137595 0.891460 0.137639
Si Si3 0.014303 0.703051 0.942297
Si Si4 0.509053 0.450208 0.789857
Si Si5 0.986757 0.702701 0.396964
Si Si6 0.138551 0.137793 0.140734
Si Si7 0.442168 0.279776 0.170160
Si Si8 0.999151 0.449994 0.050697
O O1 0.138074 0.955056 0.230664
O O2 0.386289 0.999387 0.383550
O O3 0.137180 0.102738 0.259537
O O4 0.009328 0.677810 0.063348
O O5 0.396631 0.890717 0.086674
O O6 0.877567 0.897205 0.084522
O O7 0.263248 0.748316 0.918684
O O8 0.385610 0.799196 0.681541
O O9 0.762905 0.748275 0.920580
O O10 0.260630 0.500880 0.803804
O O11 0.512381 0.374758 0.867963
O O12 0.502129 0.421642 0.670318
O O13 0.993954 0.625328 0.472504
O O14 0.968862 0.674539 0.277241
O O15 0.186851 0.234043 0.152596
O O16 0.749729 0.500100 0.036951
#
# Coordination Sequence:
#
# PCOD9341201 Si02
#       8
#     4   4   4   4   4   4   4   4
#     4   8  12  24  48  92 118 162 222 268 314 374
#     4   8  16  30  58  86 133 166 221 269 320 383
#     4  12  29  44  72  99 136 179 223 271 335 411
#     4  10  23  47  75  99 130 168 221 281 338 391
#     4  12  29  44  72  99 136 179 223 271 335 411
#     4   8  16  30  58  86 133 166 221 269 320 383
#     4  10  26  44  66  98 142 182 218 272 338 412
#     4  10  23  47  75  99 130 168 221 281 338 391
#
# _framework density 27.264537000000001
#
# number of rings (size 3 to 8) (size 9 to 14) (size 15 to 20)
#    0.750    1.500    0.000    1.500    7.000    3.000 
#    0.000    1.250    0.000    0.000    0.000    5.250 
#    0.000    0.000    0.000    0.250    0.000    0.000 
#
# Total GULP energy -179021.827685 kJ/mol
# GULP energy per Si atom -5594.432115 kJ/mol
# Density = 2.720248 g / cm^3
# Si number density = 27.264537 Si / 1000 Ang^3
#
#
#
# Elastic Constant Matrix: (Units=GPa)
#
#
# Indices 1 2 3 4 5 6 
#
# 1 289.0429 23.0171 21.6527 0.0000 0.0000 0.0000
# 2 23.0171 88.2062 39.2907 0.0000 0.0000 0.0000
# 3 21.6527 39.2907 174.3929 0.0000 0.0000 0.0000
# 4 0.0000 0.0000 0.0000 29.0407 0.0000 0.0000
# 5 0.0000 0.0000 0.0000 0.0000 24.5254 0.0000
# 6 0.0000 0.0000 0.0000 0.0000 0.0000 23.6266
#
#
#
# Elastic Compliance Matrix: (Units=1/GPa)
#
#
# Indices 1 2 3 4 5 6 
#
# 1 0.003543 -0.000810 -0.000257 0.000000 0.000000 0.000000
# 2 -0.000810 0.012787 -0.002780 0.000000 0.000000 0.000000
# 3 -0.000257 -0.002780 0.006393 0.000000 0.000000 0.000000
# 4 0.000000 0.000000 0.000000 0.034434 0.000000 0.000000
# 5 0.000000 0.000000 0.000000 0.000000 0.040774 0.000000
# 6 0.000000 0.000000 0.000000 0.000000 0.000000 0.042325
#
#
# Mechanical properties :
#
#
# Convention : Reuss Voigt Hill
#
# Bulk Modulus (GPa) = 66.54512 79.95146 73.24829
# Shear Modulus (GPa) = 32.68801 46.61729 39.65265
#
# Velocity S-wave (km/s) = 3.46630 4.13948 3.81775
# Velocity P-wave (km/s) = 6.36243 7.22738 6.80865
#
# Compressibility (1/GPa) = 0.01502740
#
# Stress axis : x y z
#
# Youngs Moduli (GPa) = 282.20831 78.20505 156.43198
#
# Poissons Ratio (x) = 0.06334 0.04028
# Poissons Ratio (y) = 0.22858 0.43493
# Poissons Ratio (z) = 0.07266 0.21744
#
# Static dielectric constant tensor:
#      x y z
#    x 2.312510 0.000000 0.000000 
#    y 0.000000 2.080990 0.000000 
#    z 0.000000 0.000000 2.037240 
# 
# From -- ./inp_files/4136.got.cif
#   From: 2010.05.17/outbox.cif.g08.bks.cpg/sg29_3_cif.got.tgz:4136.got - 2010.06.04 01:19:37.
