data_PCOD9341461
_publ_section_title
;
Structure prediction by ZEFSAII (Michael W. Deem and Ramdas Pophale) SiO2 
 PCOD9341461
Probable space group: P C A 21
;
_chemical_formula_sum "Si O2"
_cell_formula_units_Z 32
_cell_length_a 21.505752
_cell_length_b 6.691603
_cell_length_c 10.467783
_cell_angle_alpha 90.000000
_cell_angle_beta 90.000000
_cell_angle_gamma 90.000000
_cell_volume 1506.397241
_symmetry_space_group_name_H-M "P C A 21"
_symmetry_group_IT_number 29
_symmetry_cell_setting 'orthorhombic'
loop_
_space_group_symop_operation_xyz
x,y,z
-x,-y,1/2+z
1/2-x,y,1/2+z
1/2+x,-y,z
loop_
_atom_site_type_symbol
_atom_site_label
_atom_site_fract_x
_atom_site_fract_y
_atom_site_fract_z
Si Si1 0.517214 0.697426 0.944770
Si Si2 0.854816 0.272019 0.701201
Si Si3 0.573514 0.960478 0.376143
Si Si4 0.035143 0.426729 0.215230
Si Si5 0.774415 0.026849 0.510166
Si Si6 0.844462 0.702600 0.362181
Si Si7 0.163682 0.250652 0.571446
Si Si8 0.729770 0.427193 0.400326
O O1 0.486752 0.913609 0.918932
O O2 0.497339 0.547650 0.830772
O O3 0.591645 0.709113 0.938884
O O4 0.497534 0.620568 0.085469
O O5 0.883338 0.124392 0.807325
O O6 0.908732 0.428755 0.670157
O O7 0.827903 0.127399 0.594151
O O8 0.798401 0.402191 0.759389
O O9 0.557856 0.781589 0.277837
O O10 0.610792 0.868055 0.494935
O O11 0.734750 0.208538 0.457008
O O12 0.805454 0.899821 0.397701
O O13 0.726776 0.881381 0.583106
O O14 0.857738 0.692270 0.212068
O O15 0.797982 0.523630 0.398429
O O16 0.184001 0.436939 0.483851
#
# Coordination Sequence:
#
# PCOD9341461 Si02
#       8
#     4   4   4   4   4   4   4   4
#     4  11  28  47  71 103 134 189 233 285 350 406
#     4  11  22  42  69  98 133 179 223 273 350 405
#     4  11  25  44  71  93 135 182 232 283 345 406
#     4  11  26  48  72  98 140 180 235 291 340 413
#     4  11  23  41  68 100 137 172 220 273 342 409
#     4  11  26  42  65 103 139 174 228 282 336 414
#     4  11  24  41  66  99 137 176 225 282 338 409
#     4  11  22  41  66 102 135 176 218 281 345 410
#
# _framework density 21.242736000000001
#
# number of rings (size 3 to 8) (size 9 to 14) (size 15 to 20)
#    0.000    1.000    2.500    3.000    5.250    5.000 
#    2.250    0.000    0.000    0.000    0.000    0.000 
#    0.000    0.000    0.000    0.000    0.000    0.000 
#
# Total GULP energy -178929.623379 kJ/mol
# GULP energy per Si atom -5591.550731 kJ/mol
# Density = 2.119439 g / cm^3
# Si number density = 21.242736 Si / 1000 Ang^3
#
#
#
# Elastic Constant Matrix: (Units=GPa)
#
#
# Indices 1 2 3 4 5 6 
#
# 1 45.6601 20.7297 0.0394 0.0000 0.0000 0.0000
# 2 20.7297 94.4993 14.9184 0.0000 0.0000 0.0000
# 3 0.0394 14.9184 93.4025 0.0000 0.0000 0.0000
# 4 0.0000 0.0000 0.0000 34.2605 0.0000 0.0000
# 5 0.0000 0.0000 0.0000 0.0000 28.3597 0.0000
# 6 0.0000 0.0000 0.0000 0.0000 0.0000 19.4863
#
#
#
# Elastic Compliance Matrix: (Units=1/GPa)
#
#
# Indices 1 2 3 4 5 6 
#
# 1 0.024391 -0.005487 0.000866 0.000000 0.000000 0.000000
# 2 -0.005487 0.012090 -0.001929 0.000000 0.000000 0.000000
# 3 0.000866 -0.001929 0.011014 0.000000 0.000000 0.000000
# 4 0.000000 0.000000 0.000000 0.029188 0.000000 0.000000
# 5 0.000000 0.000000 0.000000 0.000000 0.035261 0.000000
# 6 0.000000 0.000000 0.000000 0.000000 0.000000 0.051318
#
#
# Mechanical properties :
#
#
# Convention : Reuss Voigt Hill
#
# Bulk Modulus (GPa) = 29.07318 33.88186 31.47752
# Shear Modulus (GPa) = 26.62003 29.61293 28.11648
#
# Velocity S-wave (km/s) = 3.54381 3.73772 3.64205
# Velocity P-wave (km/s) = 5.51912 5.88318 5.70406
#
# Compressibility (1/GPa) = 0.03439596
#
# Stress axis : x y z
#
# Youngs Moduli (GPa) = 40.99791 82.71095 90.79311
#
# Poissons Ratio (x) = 0.45386 -0.07864
# Poissons Ratio (y) = 0.22497 0.17512
# Poissons Ratio (z) = -0.03551 0.15953
#
# Static dielectric constant tensor:
#      x y z
#    x 1.784290 0.000000 0.000000 
#    y 0.000000 1.731500 0.000000 
#    z 0.000000 0.000000 1.773420 
# 
# From -- ./inp_files/3843.got.cif
#   From: 2010.05.17/outbox.cif.g08.bks.cpg/sg29_2_cif.got.tgz:3843.got - 2010.06.04 01:19:37.
