data_PCOD9341437
_publ_section_title
;
Structure prediction by ZEFSAII (Michael W. Deem and Ramdas Pophale) SiO2 
 PCOD9341437
Probable space group: P C A 21
;
_chemical_formula_sum "Si O2"
_cell_formula_units_Z 24
_cell_length_a 13.854541
_cell_length_b 11.152719
_cell_length_c 5.428165
_cell_angle_alpha 90.000000
_cell_angle_beta 90.000000
_cell_angle_gamma 90.000000
_cell_volume 838.737272
_symmetry_space_group_name_H-M "P C A 21"
_symmetry_group_IT_number 29
_symmetry_cell_setting 'orthorhombic'
loop_
_space_group_symop_operation_xyz
x,y,z
-x,-y,1/2+z
1/2-x,y,1/2+z
1/2+x,-y,z
loop_
_atom_site_type_symbol
_atom_site_label
_atom_site_fract_x
_atom_site_fract_y
_atom_site_fract_z
Si Si1 0.804795 0.524114 0.256530
Si Si2 0.848144 0.975553 0.732023
Si Si3 0.027722 0.651444 0.783649
Si Si4 0.198317 0.795315 0.986629
Si Si5 0.853943 0.759976 0.037604
Si Si6 0.505361 0.156341 0.417407
O O1 0.748555 0.486917 0.503957
O O2 0.913318 0.471718 0.278574
O O3 0.805472 0.668730 0.230952
O O4 0.942097 0.908497 0.624261
O O5 0.805346 0.059178 0.512327
O O6 0.801291 0.864043 0.879585
O O7 0.897105 0.081364 0.892472
O O8 0.029991 0.711940 0.515771
O O9 0.093120 0.737763 0.957672
O O10 0.917622 0.666304 0.871230
O O11 0.251110 0.757218 0.234526
O O12 0.932832 0.836117 0.190310
#
# Coordination Sequence:
#
# PCOD9341437 Si02
#       6
#     4   4   4   4   4   4
#     4  12  32  54  77 111 161 204 250 325 406 463
#     4  11  22  42  70 110 154 194 246 323 376 467
#     4  11  26  47  79 109 147 200 278 325 367 459
#     4  12  26  42  69 110 153 203 248 311 394 450
#     4  11  27  45  82 108 153 203 272 311 390 464
#     4  11  21  42  75 110 142 192 252 323 373 441
#
# _framework density 28.614440999999999
#
# number of rings (size 3 to 8) (size 9 to 14) (size 15 to 20)
#    0.000    0.667    3.333    3.000   11.667    1.333 
#    0.000    0.000    0.000    0.000    0.000    0.000 
#    0.000    0.000    0.000    0.000    0.000    0.000 
#
# Total GULP energy -134515.342837 kJ/mol
# GULP energy per Si atom -5604.805952 kJ/mol
# Density = 2.854931 g / cm^3
# Si number density = 28.614441 Si / 1000 Ang^3
#
#
#
# Elastic Constant Matrix: (Units=GPa)
#
#
# Indices 1 2 3 4 5 6 
#
# 1 63.8455 31.0329 27.2103 0.0000 0.0000 0.0000
# 2 31.0329 187.4682 40.8614 0.0000 0.0000 0.0000
# 3 27.2103 40.8614 140.2246 0.0000 0.0000 0.0000
# 4 0.0000 0.0000 0.0000 61.8319 0.0000 0.0000
# 5 0.0000 0.0000 0.0000 0.0000 32.5193 0.0000
# 6 0.0000 0.0000 0.0000 0.0000 0.0000 58.0041
#
#
#
# Elastic Compliance Matrix: (Units=1/GPa)
#
#
# Indices 1 2 3 4 5 6 
#
# 1 0.018010 -0.002370 -0.002804 0.000000 0.000000 0.000000
# 2 -0.002370 0.006008 -0.001291 0.000000 0.000000 0.000000
# 3 -0.002804 -0.001291 0.008052 0.000000 0.000000 0.000000
# 4 0.000000 0.000000 0.000000 0.016173 0.000000 0.000000
# 5 0.000000 0.000000 0.000000 0.000000 0.030751 0.000000
# 6 0.000000 0.000000 0.000000 0.000000 0.000000 0.017240
#
#
# Mechanical properties :
#
#
# Convention : Reuss Voigt Hill
#
# Bulk Modulus (GPa) = 52.24807 65.52751 58.88779
# Shear Modulus (GPa) = 43.27375 49.96663 46.62019
#
# Velocity S-wave (km/s) = 3.89305 4.18329 4.04078
# Velocity P-wave (km/s) = 6.20539 6.80317 6.51114
#
# Compressibility (1/GPa) = 0.01913946
#
# Stress axis : x y z
#
# Youngs Moduli (GPa) = 55.52495 166.44679 124.19757
#
# Poissons Ratio (x) = 0.39450 0.34827
# Poissons Ratio (y) = 0.13160 0.16031
# Poissons Ratio (z) = 0.15570 0.21485
#
# Static dielectric constant tensor:
#      x y z
#    x 2.186810 0.000000 0.000000 
#    y 0.000000 2.205660 0.000000 
#    z 0.000000 0.000000 2.324110 
# 
# From -- ./inp_files/193.got.cif
#   From: 2010.05.17/outbox.cif.g08.bks.cpg/sg29_1_cif.got.tgz:193.got - 2010.06.04 01:19:37.
