data_PCOD9341537
_publ_section_title
;
Structure prediction by ZEFSAII (Michael W. Deem and Ramdas Pophale) SiO2 
 PCOD9341537
Probable space group: P C A 21
;
_chemical_formula_sum "Si O2"
_cell_formula_units_Z 32
_cell_length_a 14.948003
_cell_length_b 9.740487
_cell_length_c 9.405617
_cell_angle_alpha 90.000000
_cell_angle_beta 90.000000
_cell_angle_gamma 90.000000
_cell_volume 1369.465631
_symmetry_space_group_name_H-M "P C A 21"
_symmetry_group_IT_number 29
_symmetry_cell_setting 'orthorhombic'
loop_
_space_group_symop_operation_xyz
x,y,z
-x,-y,1/2+z
1/2-x,y,1/2+z
1/2+x,-y,z
loop_
_atom_site_type_symbol
_atom_site_label
_atom_site_fract_x
_atom_site_fract_y
_atom_site_fract_z
Si Si1 0.629713 0.282604 0.666440
Si Si2 0.411871 0.960780 0.538987
Si Si3 0.128114 0.512106 0.110266
Si Si4 0.632181 0.737469 0.922514
Si Si5 0.732616 0.259375 0.945181
Si Si6 0.533561 0.889234 0.290536
Si Si7 0.065435 0.407686 0.652002
Si Si8 0.168112 0.336874 0.369285
O O1 0.711291 0.257569 0.777929
O O2 0.668019 0.255493 0.509104
O O3 0.549064 0.182153 0.708009
O O4 0.595731 0.437584 0.691931
O O5 0.391345 0.112257 0.476265
O O6 0.437241 0.977724 0.703095
O O7 0.327844 0.863528 0.508752
O O8 0.496328 0.909709 0.448160
O O9 0.091175 0.382328 0.020747
O O10 0.191963 0.600420 0.010559
O O11 0.177103 0.453303 0.249082
O O12 0.041490 0.598323 0.152785
O O13 0.603998 0.702177 0.762270
O O14 0.738194 0.711547 0.930933
O O15 0.618077 0.789591 0.295694
O O16 0.104308 0.385463 0.495504
#
# Coordination Sequence:
#
# PCOD9341537 Si02
#       8
#     4   4   4   4   4   4   4   4
#     4  11  23  46  67 102 139 179 231 288 347 412
#     4  11  27  47  69 102 141 188 234 287 349 422
#     4  12  24  47  69 105 139 178 234 290 350 416
#     4  12  25  45  72 103 141 186 235 292 350 415
#     4  11  26  44  69 100 141 177 232 288 347 419
#     4  11  26  48  69 100 141 183 234 288 343 428
#     4  12  24  41  74 102 141 183 228 291 353 411
#     4  12  25  44  73 104 141 184 238 292 347 419
#
# _framework density 23.366778
#
# number of rings (size 3 to 8) (size 9 to 14) (size 15 to 20)
#    0.000    0.500    3.750    4.500    5.250    4.000 
#    0.000    0.000    0.000    0.000    0.000    0.000 
#    0.000    0.000    0.000    0.000    0.000    0.000 
#
# Total GULP energy -179333.246500 kJ/mol
# GULP energy per Si atom -5604.163953 kJ/mol
# Density = 2.331359 g / cm^3
# Si number density = 23.366778 Si / 1000 Ang^3
#
#
#
# Elastic Constant Matrix: (Units=GPa)
#
#
# Indices 1 2 3 4 5 6 
#
# 1 58.0827 -7.5319 -11.4955 0.0000 0.0000 0.0000
# 2 -7.5319 69.1768 -0.6274 0.0000 0.0000 0.0000
# 3 -11.4955 -0.6274 66.7567 0.0000 0.0000 0.0000
# 4 0.0000 0.0000 0.0000 29.2199 0.0000 0.0000
# 5 0.0000 0.0000 0.0000 0.0000 39.0931 0.0000
# 6 0.0000 0.0000 0.0000 0.0000 0.0000 26.8263
#
#
#
# Elastic Compliance Matrix: (Units=1/GPa)
#
#
# Indices 1 2 3 4 5 6 
#
# 1 0.018096 0.001999 0.003135 0.000000 0.000000 0.000000
# 2 0.001999 0.014678 0.000482 0.000000 0.000000 0.000000
# 3 0.003135 0.000482 0.015524 0.000000 0.000000 0.000000
# 4 0.000000 0.000000 0.000000 0.034223 0.000000 0.000000
# 5 0.000000 0.000000 0.000000 0.000000 0.025580 0.000000
# 6 0.000000 0.000000 0.000000 0.000000 0.000000 0.037277
#
#
# Mechanical properties :
#
#
# Convention : Reuss Voigt Hill
#
# Bulk Modulus (GPa) = 16.79823 17.18963 16.99393
# Shear Modulus (GPa) = 32.46964 33.27259 32.87111
#
# Velocity S-wave (km/s) = 3.73173 3.77759 3.75473
# Velocity P-wave (km/s) = 5.07664 5.13803 5.10743
#
# Compressibility (1/GPa) = 0.05953009
#
# Stress axis : x y z
#
# Youngs Moduli (GPa) = 55.25938 68.13052 64.41581
#
# Poissons Ratio (x) = -0.13618 -0.20194
# Poissons Ratio (y) = -0.11045 -0.03106
# Poissons Ratio (z) = -0.17324 -0.03285
#
# Static dielectric constant tensor:
#      x y z
#    x 1.837690 0.000000 0.000000 
#    y 0.000000 1.882590 0.000000 
#    z 0.000000 0.000000 1.885660 
# 
# From -- ./inp_files/1854.got.cif
#   From: 2010.05.17/outbox.cif.g08.bks.cpg/sg29_1_cif.got.tgz:1854.got - 2010.06.04 01:19:37.
