data_PCOD9341600
_publ_section_title
;
Structure prediction by ZEFSAII (Michael W. Deem and Ramdas Pophale) SiO2 
 PCOD9341600
Probable space group: P C A 21
;
_chemical_formula_sum "Si O2"
_cell_formula_units_Z 32
_cell_length_a 9.116647
_cell_length_b 13.564652
_cell_length_c 11.748418
_cell_angle_alpha 90.000000
_cell_angle_beta 90.000000
_cell_angle_gamma 90.000000
_cell_volume 1452.858055
_symmetry_space_group_name_H-M "P C A 21"
_symmetry_group_IT_number 29
_symmetry_cell_setting 'orthorhombic'
loop_
_space_group_symop_operation_xyz
x,y,z
-x,-y,1/2+z
1/2-x,y,1/2+z
1/2+x,-y,z
loop_
_atom_site_type_symbol
_atom_site_label
_atom_site_fract_x
_atom_site_fract_y
_atom_site_fract_z
Si Si1 0.937197 0.544967 0.277820
Si Si2 0.307921 0.303588 0.691558
Si Si3 0.099183 0.983404 0.206431
Si Si4 0.544794 0.348376 0.499404
Si Si5 0.762675 0.383041 0.692015
Si Si6 0.668745 0.889334 0.583702
Si Si7 0.204484 0.803639 0.350343
Si Si8 0.030980 0.167131 0.356738
O O1 0.810349 0.618310 0.234067
O O2 0.858163 0.440157 0.268588
O O3 0.993102 0.576444 0.402191
O O4 0.082080 0.560642 0.200433
O O5 0.416276 0.336308 0.590993
O O6 0.220743 0.209744 0.644282
O O7 0.405429 0.263255 0.795278
O O8 0.159810 0.909911 0.302759
O O9 0.983891 0.921904 0.135836
O O10 0.218976 0.025701 0.119623
O O11 0.025201 0.078675 0.265131
O O12 0.690148 0.380686 0.567846
O O13 0.588549 0.245905 0.436532
O O14 0.784866 0.274453 0.745257
O O15 0.644601 0.867879 0.452005
O O16 0.367840 0.812079 0.401280
#
# Coordination Sequence:
#
# PCOD9341600 Si02
#       8
#     4   4   4   4   4   4   4   4
#     4  11  26  47  72 108 142 189 238 299 360 441
#     4  11  24  47  69 103 143 180 243 295 357 435
#     4  11  25  45  64 100 140 178 241 294 352 427
#     4  11  25  47  76 102 146 194 234 304 368 428
#     4  11  25  46  72 107 145 188 243 301 360 442
#     4  11  25  40  67  97 133 188 226 293 363 409
#     4  11  25  44  71 103 141 185 242 294 362 433
#     4  11  25  42  69 100 134 188 235 298 350 443
#
# _framework density 22.025552000000001
#
# number of rings (size 3 to 8) (size 9 to 14) (size 15 to 20)
#    0.000    1.000    2.500    3.000    5.250    7.000 
#    0.000    0.000    0.000    0.000    0.000    0.000 
#    0.000    0.000    0.000    0.000    0.000    0.000 
#
# Total GULP energy -179070.270787 kJ/mol
# GULP energy per Si atom -5595.945962 kJ/mol
# Density = 2.197542 g / cm^3
# Si number density = 22.025552 Si / 1000 Ang^3
#
#
#
# Elastic Constant Matrix: (Units=GPa)
#
#
# Indices 1 2 3 4 5 6 
#
# 1 87.0751 39.2952 39.0848 0.0000 0.0000 0.0000
# 2 39.2952 75.2421 12.2146 0.0000 0.0000 0.0000
# 3 39.0848 12.2146 80.9924 0.0000 0.0000 0.0000
# 4 0.0000 0.0000 0.0000 26.5938 0.0000 0.0000
# 5 0.0000 0.0000 0.0000 0.0000 38.3711 0.0000
# 6 0.0000 0.0000 0.0000 0.0000 0.0000 58.0408
#
#
#
# Elastic Compliance Matrix: (Units=1/GPa)
#
#
# Indices 1 2 3 4 5 6 
#
# 1 0.018863 -0.008583 -0.007808 0.000000 0.000000 0.000000
# 2 -0.008583 0.017530 0.001498 0.000000 0.000000 0.000000
# 3 -0.007808 0.001498 0.015889 0.000000 0.000000 0.000000
# 4 0.000000 0.000000 0.000000 0.037603 0.000000 0.000000
# 5 0.000000 0.000000 0.000000 0.000000 0.026061 0.000000
# 6 0.000000 0.000000 0.000000 0.000000 0.000000 0.017229
#
#
# Mechanical properties :
#
#
# Convention : Reuss Voigt Hill
#
# Bulk Modulus (GPa) = 44.45416 47.16653 45.81035
# Shear Modulus (GPa) = 29.33249 34.78212 32.05731
#
# Velocity S-wave (km/s) = 3.65327 3.97819 3.81919
# Velocity P-wave (km/s) = 6.16620 6.52398 6.34761
#
# Compressibility (1/GPa) = 0.02249508
#
# Stress axis : x y z
#
# Youngs Moduli (GPa) = 53.01477 57.04539 62.93719
#
# Poissons Ratio (x) = 0.48965 0.49142
# Poissons Ratio (y) = 0.45505 -0.09431
# Poissons Ratio (z) = 0.41395 -0.08548
#
# Static dielectric constant tensor:
#      x y z
#    x 1.797270 0.000000 0.000000 
#    y 0.000000 1.799220 0.000000 
#    z 0.000000 0.000000 1.803660 
# 
# From -- ./inp_files/2974.got.cif
#   From: 2010.05.17/outbox.cif.g08.bks.cpg/sg29_2_cif.got.tgz:2974.got - 2010.06.04 01:19:37.
