data_PCOD9341677
_publ_section_title
;
Structure prediction by ZEFSAII (Michael W. Deem and Ramdas Pophale) SiO2 
 PCOD9341677
Probable space group: P C A 21
;
_chemical_formula_sum "Si O2"
_cell_formula_units_Z 20
_cell_length_a 11.754574
_cell_length_b 7.627689
_cell_length_c 8.447477
_cell_angle_alpha 90.000000
_cell_angle_beta 90.000000
_cell_angle_gamma 90.000000
_cell_volume 757.402771
_symmetry_space_group_name_H-M "P C A 21"
_symmetry_group_IT_number 29
_symmetry_cell_setting 'orthorhombic'
loop_
_space_group_symop_operation_xyz
x,y,z
-x,-y,1/2+z
1/2-x,y,1/2+z
1/2+x,-y,z
loop_
_atom_site_type_symbol
_atom_site_label
_atom_site_fract_x
_atom_site_fract_y
_atom_site_fract_z
Si Si1 0.411783 0.306544 0.476730
Si Si2 0.103337 0.962466 0.393424
Si Si3 0.689505 0.206320 0.071403
Si Si4 0.263824 0.433086 0.729583
Si Si5 0.028720 0.356680 0.441304
O O1 0.491273 0.142241 0.449907
O O2 0.310011 0.293689 0.601556
O O3 0.349886 0.365069 0.313918
O O4 0.489016 0.469211 0.539971
O O5 0.213078 0.902022 0.489234
O O6 0.125859 0.898997 0.212260
O O7 0.088061 0.165768 0.433102
O O8 0.746421 0.380694 0.144930
O O9 0.600033 0.275391 0.939871
O O10 0.371617 0.455196 0.844467
#
# Coordination Sequence:
#
# PCOD9341677 Si02
#       5
#     4   4   4   4   4
#     4  11  28  50  77 114 155 206 263 325 392 476
#     4  12  29  50  80 116 162 206 268 328 398 475
#     4  11  27  51  78 116 160 207 262 333 389 478
#     4  11  26  48  80 108 155 209 260 323 399 467
#     4  11  28  47  79 114 154 208 265 325 394 466
#
# _framework density 26.406030000000001
#
# number of rings (size 3 to 8) (size 9 to 14) (size 15 to 20)
#    0.000    0.800    2.000    2.400   14.000    0.000 
#    0.000    0.000    0.000    0.000    0.000    0.000 
#    0.000    0.000    0.000    0.000    0.000    0.000 
#
# Total GULP energy -111580.739020 kJ/mol
# GULP energy per Si atom -5579.036951 kJ/mol
# Density = 2.634593 g / cm^3
# Si number density = 26.406030 Si / 1000 Ang^3
#
#
#
# Elastic Constant Matrix: (Units=GPa)
#
#
# Indices 1 2 3 4 5 6 
#
# 1 107.5882 32.1146 65.6870 0.0000 0.0000 0.0000
# 2 32.1146 109.5388 25.0594 0.0000 0.0000 0.0000
# 3 65.6870 25.0594 58.9852 0.0000 0.0000 0.0000
# 4 0.0000 0.0000 0.0000 3.1711 0.0000 0.0000
# 5 0.0000 0.0000 0.0000 0.0000 59.0227 0.0000
# 6 0.0000 0.0000 0.0000 0.0000 0.0000 49.4408
#
#
#
# Elastic Compliance Matrix: (Units=1/GPa)
#
#
# Indices 1 2 3 4 5 6 
#
# 1 0.029190 -0.001242 -0.031978 0.000000 0.000000 0.000000
# 2 -0.001242 0.010165 -0.002935 0.000000 0.000000 0.000000
# 3 -0.031978 -0.002935 0.053812 0.000000 0.000000 0.000000
# 4 0.000000 0.000000 0.000000 0.315351 0.000000 0.000000
# 5 0.000000 0.000000 0.000000 0.000000 0.016943 0.000000
# 6 0.000000 0.000000 0.000000 0.000000 0.000000 0.020226
#
#
# Mechanical properties :
#
#
# Convention : Reuss Voigt Hill
#
# Bulk Modulus (GPa) = 47.94979 57.98157 52.96568
# Shear Modulus (GPa) = 9.52474 32.54368 21.03421
#
# Velocity S-wave (km/s) = 1.90128 3.51441 2.82542
# Velocity P-wave (km/s) = 4.79770 6.20270 5.54488
#
# Compressibility (1/GPa) = 0.02085515
#
# Stress axis : x y z
#
# Youngs Moduli (GPa) = 34.25889 98.37840 18.58320
#
# Poissons Ratio (x) = 0.12219 0.59426
# Poissons Ratio (y) = 0.04255 0.05455
# Poissons Ratio (z) = 1.09554 0.28877
#
# Static dielectric constant tensor:
#      x y z
#    x 1.992820 0.000000 0.000000 
#    y 0.000000 2.032400 0.000000 
#    z 0.000000 0.000000 2.230420 
# 
# From -- ./inp_files/1342.got.cif
#   From: 2010.05.17/outbox.cif.g08.bks.cpg/sg29_1_cif.got.tgz:1342.got - 2010.06.04 01:19:37.
