data_PCOD9341929
_publ_section_title
;
Structure prediction by ZEFSAII (Michael W. Deem and Ramdas Pophale) SiO2 
 PCOD9341929
Probable space group: P N C 2
;
_chemical_formula_sum "Si O2"
_cell_formula_units_Z 32
_cell_length_a 20.147167
_cell_length_b 5.137744
_cell_length_c 13.527471
_cell_angle_alpha 90.000000
_cell_angle_beta 90.000000
_cell_angle_gamma 90.000000
_cell_volume 1400.241866
_symmetry_space_group_name_H-M "P N C 2"
_symmetry_group_IT_number 30
_symmetry_cell_setting 'orthorhombic'
loop_
_space_group_symop_operation_xyz
x,y,z
-x,-y,z
-x,1/2+y,1/2+z
x,1/2-y,1/2+z
loop_
_atom_site_type_symbol
_atom_site_label
_atom_site_fract_x
_atom_site_fract_y
_atom_site_fract_z
Si Si1 0.430430 0.939539 0.879820
Si Si2 0.708354 0.935872 0.883077
Si Si3 0.853516 0.599727 0.076582
Si Si4 0.072166 0.901520 0.072602
Si Si5 0.854116 0.602197 0.311570
Si Si6 0.071859 0.600608 0.814645
Si Si7 0.291032 0.564000 0.010398
Si Si8 0.430172 0.440230 0.016572
O O1 0.360107 0.992465 0.827815
O O2 0.430962 0.650558 0.925691
O O3 0.500000 0.000000 0.826782
O O4 0.430302 0.150243 0.970885
O O5 0.708359 0.137924 0.975243
O O6 0.778778 0.975349 0.832394
O O7 0.705039 0.637013 0.917877
O O8 0.906082 0.384859 0.040786
O O9 0.861788 0.609794 0.194048
O O10 0.872162 0.888221 0.041870
O O11 0.778893 0.507946 0.057758
O O12 0.070378 0.893521 0.193634
O O13 0.000000 0.000000 0.041322
O O14 0.906420 0.386571 0.346882
O O15 0.872767 0.890824 0.345839
O O16 0.000000 0.500000 0.845958
O O17 0.359554 0.498631 0.067467
O O18 0.500000 0.500000 0.069664
#
# Coordination Sequence:
#
# PCOD9341929 Si02
#       8
#     4   4   4   4   4   4   4   4
#     4   8  14  25  42  64  87 114 151 187 215 252
#     4  10  19  31  48  69  95 124 151 185 228 272
#     4  10  19  31  49  71  93 118 151 191 230 270
#     4   9  17  30  49  70  89 115 155 195 225 261
#     4  10  19  31  49  71  93 118 151 191 230 270
#     4   9  17  30  49  70  89 115 155 195 225 261
#     4  10  19  31  48  69  95 124 151 185 228 272
#     4   8  14  25  42  64  87 114 151 187 215 252
#
# _framework density 22.853194999999999
#
# number of rings (size 3 to 8) (size 9 to 14) (size 15 to 20)
#    0.000    2.750    0.000    2.250    0.000    3.000 
#    0.000    0.000    0.000   15.750    0.000    0.000 
#    0.000   26.000    0.000    0.000    0.000    4.000 
#
# Total GULP energy -178632.506268 kJ/mol
# GULP energy per Si atom -5582.265821 kJ/mol
# Density = 2.280118 g / cm^3
# Si number density = 22.853195 Si / 1000 Ang^3
#
#
#
# Elastic Constant Matrix: (Units=GPa)
#
#
# Indices 1 2 3 4 5 6 
#
# 1 158.4861 32.8356 3.1411 0.0000 0.0000 0.0000
# 2 32.8356 114.4214 12.2714 0.0000 0.0000 0.0000
# 3 3.1411 12.2714 43.2368 0.0000 0.0000 0.0000
# 4 0.0000 0.0000 0.0000 21.9380 0.0000 0.0000
# 5 0.0000 0.0000 0.0000 0.0000 -6.0563 0.0000
# 6 0.0000 0.0000 0.0000 0.0000 0.0000 40.4086
#
#
#
# Elastic Compliance Matrix: (Units=1/GPa)
#
#
# Indices 1 2 3 4 5 6 
#
# 1 0.006709 -0.001932 0.000061 0.000000 0.000000 0.000000
# 2 -0.001932 0.009570 -0.002576 0.000000 0.000000 0.000000
# 3 0.000061 -0.002576 0.023855 0.000000 0.000000 0.000000
# 4 0.000000 0.000000 0.000000 0.045583 0.000000 0.000000
# 5 0.000000 0.000000 0.000000 0.000000 -0.165117 0.000000
# 6 0.000000 0.000000 0.000000 0.000000 0.000000 0.024747
#
#
# Mechanical properties :
#
#
# Convention : Reuss Voigt Hill
#
# Bulk Modulus (GPa) = 32.00961 45.84895 38.92928
# Shear Modulus (GPa) = -141.46041 29.11779 -56.17131
#
# Velocity S-wave (km/s) = -7.87617 3.57336 -4.96312
# Velocity P-wave (km/s) = 8.28704 6.09353 3.97139
#
# Compressibility (1/GPa) = 0.03124062
#
# Stress axis : x y z
#
# Youngs Moduli (GPa) = 149.05984 104.49071 41.91971
#
# Poissons Ratio (x) = 0.20185 -0.00255
# Poissons Ratio (y) = 0.28794 0.10798
# Poissons Ratio (z) = -0.00907 0.26915
#
# Static dielectric constant tensor:
#      x y z
#    x 1.904770 0.000000 0.000000 
#    y 0.000000 1.815570 0.000000 
#    z 0.000000 0.000000 1.880590 
# 
# From -- ./inp_files/6648.got.cif
#   From: 2010.05.17/outbox.cif.g08.bks.cpg/sg30_4_cif.got.tgz:6648.got - 2010.06.03 17:03:02.
