data_PCOD9341532
_publ_section_title
;
Structure prediction by ZEFSAII (Michael W. Deem and Ramdas Pophale) SiO2 
 PCOD9341532
Probable space group: P C A 21
;
_chemical_formula_sum "Si O2"
_cell_formula_units_Z 32
_cell_length_a 17.518330
_cell_length_b 9.051188
_cell_length_c 8.108883
_cell_angle_alpha 90.000000
_cell_angle_beta 90.000000
_cell_angle_gamma 90.000000
_cell_volume 1285.758260
_symmetry_space_group_name_H-M "P C A 21"
_symmetry_group_IT_number 29
_symmetry_cell_setting 'orthorhombic'
loop_
_space_group_symop_operation_xyz
x,y,z
-x,-y,1/2+z
1/2-x,y,1/2+z
1/2+x,-y,z
loop_
_atom_site_type_symbol
_atom_site_label
_atom_site_fract_x
_atom_site_fract_y
_atom_site_fract_z
Si Si1 0.773266 0.801810 0.212220
Si Si2 0.353724 0.056510 0.524495
Si Si3 0.919641 0.834535 0.006378
Si Si4 0.723264 0.447858 0.693011
Si Si5 0.000420 0.403945 0.343294
Si Si6 0.491421 0.902735 0.847970
Si Si7 0.849890 0.297353 0.506383
Si Si8 0.079542 0.647894 0.495494
O O1 0.688985 0.858530 0.170387
O O2 0.805244 0.888255 0.368054
O O3 0.833640 0.848914 0.069513
O O4 0.777754 0.623214 0.232070
O O5 0.438707 0.106477 0.477375
O O6 0.350613 0.878206 0.538197
O O7 0.971786 0.863159 0.171441
O O8 0.927562 0.674536 0.926134
O O9 0.958702 0.933263 0.864647
O O10 0.806536 0.391502 0.643636
O O11 0.694628 0.343055 0.839829
O O12 0.661991 0.413841 0.546816
O O13 0.933201 0.359162 0.468232
O O14 0.969534 0.363485 0.164584
O O15 0.025215 0.571815 0.359063
O O16 0.420456 0.811300 0.922365
#
# Coordination Sequence:
#
# PCOD9341532 Si02
#       8
#     4   4   4   4   4   4   4   4
#     4  11  25  44  69  94 137 174 224 275 335 397
#     4  11  25  45  67  98 132 178 222 276 334 397
#     4  11  23  45  66  98 134 172 221 275 333 398
#     4  11  25  45  67  98 132 178 222 276 334 397
#     4  11  23  45  66  98 134 172 221 275 333 398
#     4  11  25  41  70  98 135 175 221 276 336 397
#     4  11  25  44  69  94 137 174 224 275 335 397
#     4  11  25  41  70  98 135 175 221 276 336 397
#
# _framework density 24.888034999999999
#
# number of rings (size 3 to 8) (size 9 to 14) (size 15 to 20)
#    0.000    1.000    2.500    3.000   14.000    4.000 
#    0.000    0.000    0.000    0.000    0.000    0.000 
#    0.000    0.000    0.000    0.000    0.000    0.000 
#
# Total GULP energy -178993.868939 kJ/mol
# GULP energy per Si atom -5593.558404 kJ/mol
# Density = 2.483139 g / cm^3
# Si number density = 24.888035 Si / 1000 Ang^3
#
#
#
# Elastic Constant Matrix: (Units=GPa)
#
#
# Indices 1 2 3 4 5 6 
#
# 1 86.1100 3.4233 17.0298 0.0000 0.0000 0.0000
# 2 3.4233 41.9157 -3.4169 0.0000 0.0000 0.0000
# 3 17.0298 -3.4169 71.5588 0.0000 0.0000 0.0000
# 4 0.0000 0.0000 0.0000 24.1800 0.0000 0.0000
# 5 0.0000 0.0000 0.0000 0.0000 51.5938 0.0000
# 6 0.0000 0.0000 0.0000 0.0000 0.0000 35.5190
#
#
#
# Elastic Compliance Matrix: (Units=1/GPa)
#
#
# Indices 1 2 3 4 5 6 
#
# 1 0.012251 -0.001243 -0.002975 0.000000 0.000000 0.000000
# 2 -0.001243 0.024077 0.001445 0.000000 0.000000 0.000000
# 3 -0.002975 0.001445 0.014751 0.000000 0.000000 0.000000
# 4 0.000000 0.000000 0.000000 0.041356 0.000000 0.000000
# 5 0.000000 0.000000 0.000000 0.000000 0.019382 0.000000
# 6 0.000000 0.000000 0.000000 0.000000 0.000000 0.028154
#
#
# Mechanical properties :
#
#
# Convention : Reuss Voigt Hill
#
# Bulk Modulus (GPa) = 21.96149 25.96187 23.96168
# Shear Modulus (GPa) = 31.11493 34.42843 32.77168
#
# Velocity S-wave (km/s) = 3.53965 3.72335 3.63266
# Velocity P-wave (km/s) = 5.05458 5.37946 5.21955
#
# Compressibility (1/GPa) = 0.04553425
#
# Stress axis : x y z
#
# Youngs Moduli (GPa) = 81.62731 41.53382 67.78975
#
# Poissons Ratio (x) = 0.05163 0.20166
# Poissons Ratio (y) = 0.10147 -0.09799
# Poissons Ratio (z) = 0.24283 -0.06004
#
# Static dielectric constant tensor:
#      x y z
#    x 1.922390 0.000000 0.000000 
#    y 0.000000 1.894980 0.000000 
#    z 0.000000 0.000000 2.054060 
# 
# From -- ./inp_files/1243.got.cif
#   From: 2010.05.17/outbox.cif.g08.bks.cpg/sg29_1_cif.got.tgz:1243.got - 2010.06.04 01:19:37.
