data_PCOD9341562
_publ_section_title
;
Structure prediction by ZEFSAII (Michael W. Deem and Ramdas Pophale) SiO2 
 PCOD9341562
Probable space group: P C A 21
;
_chemical_formula_sum "Si O2"
_cell_formula_units_Z 16
_cell_length_a 21.183671
_cell_length_b 6.715183
_cell_length_c 5.067723
_cell_angle_alpha 90.000000
_cell_angle_beta 90.000000
_cell_angle_gamma 90.000000
_cell_volume 720.894884
_symmetry_space_group_name_H-M "P C A 21"
_symmetry_group_IT_number 29
_symmetry_cell_setting 'orthorhombic'
loop_
_space_group_symop_operation_xyz
x,y,z
-x,-y,1/2+z
1/2-x,y,1/2+z
1/2+x,-y,z
loop_
_atom_site_type_symbol
_atom_site_label
_atom_site_fract_x
_atom_site_fract_y
_atom_site_fract_z
Si Si1 0.051310 0.629395 0.261970
Si Si2 0.709053 0.414462 0.692094
Si Si3 0.395638 0.867041 0.264784
Si Si4 0.591342 0.669756 0.888584
O O1 0.072170 0.766530 0.508029
O O2 0.976036 0.606868 0.264655
O O3 0.073744 0.757751 0.013183
O O4 0.083237 0.414592 0.190167
O O5 0.734154 0.439901 0.397807
O O6 0.677311 0.198601 0.736857
O O7 0.652473 0.563472 0.767053
O O8 0.403192 0.098222 0.325741
#
# Coordination Sequence:
#
# PCOD9341562 Si02
#       4
#     4   4   4   4
#     4  11  24  42  68 107 135 165 224 281 342 426
#     4  11  25  43  62  93 131 174 234 280 320 402
#     4  11  25  43  68  98 136 176 222 281 345 410
#     4  11  24  44  72  98 136 181 216 282 355 400
#
# _framework density 22.194638000000001
#
# number of rings (size 3 to 8) (size 9 to 14) (size 15 to 20)
#    0.000    1.000    0.000    7.500    0.000   12.000 
#    0.000    0.000    0.000    0.000    0.000    0.000 
#    0.000    0.000    0.000    0.000    0.000    0.000 
#
# Total GULP energy -89389.220255 kJ/mol
# GULP energy per Si atom -5586.826266 kJ/mol
# Density = 2.214412 g / cm^3
# Si number density = 22.194638 Si / 1000 Ang^3
#
#
#
# Elastic Constant Matrix: (Units=GPa)
#
#
# Indices 1 2 3 4 5 6 
#
# 1 96.0806 31.6988 9.0850 0.0000 0.0000 0.0000
# 2 31.6988 174.9387 44.6059 0.0000 0.0000 0.0000
# 3 9.0850 44.6059 130.0358 0.0000 0.0000 0.0000
# 4 0.0000 0.0000 0.0000 32.0975 0.0000 0.0000
# 5 0.0000 0.0000 0.0000 0.0000 46.0530 0.0000
# 6 0.0000 0.0000 0.0000 0.0000 0.0000 27.8936
#
#
#
# Elastic Compliance Matrix: (Units=1/GPa)
#
#
# Indices 1 2 3 4 5 6 
#
# 1 0.011071 -0.001982 -0.000094 0.000000 0.000000 0.000000
# 2 -0.001982 0.006619 -0.002132 0.000000 0.000000 0.000000
# 3 -0.000094 -0.002132 0.008428 0.000000 0.000000 0.000000
# 4 0.000000 0.000000 0.000000 0.031155 0.000000 0.000000
# 5 0.000000 0.000000 0.000000 0.000000 0.021714 0.000000
# 6 0.000000 0.000000 0.000000 0.000000 0.000000 0.035851
#
#
# Mechanical properties :
#
#
# Convention : Reuss Voigt Hill
#
# Bulk Modulus (GPa) = 56.48944 63.53718 60.01331
# Shear Modulus (GPa) = 38.71352 42.25319 40.48335
#
# Velocity S-wave (km/s) = 4.18098 4.36794 4.27548
# Velocity P-wave (km/s) = 6.98674 7.35717 7.17435
#
# Compressibility (1/GPa) = 0.01770242
#
# Stress axis : x y z
#
# Youngs Moduli (GPa) = 90.32829 151.07829 118.65106
#
# Poissons Ratio (x) = 0.29946 0.01110
# Poissons Ratio (y) = 0.17905 0.25297
# Poissons Ratio (z) = 0.00845 0.32211
#
# Static dielectric constant tensor:
#      x y z
#    x 1.818730 0.000000 0.000000 
#    y 0.000000 1.856620 0.000000 
#    z 0.000000 0.000000 1.930620 
# 
# From -- ./inp_files/480.got.cif
#   From: 2010.05.17/outbox.cif.g08.bks.cpg/sg29_1_cif.got.tgz:480.got - 2010.06.04 01:19:37.
