data_PCOD9341945
_publ_section_title
;
Structure prediction by ZEFSAII (Michael W. Deem and Ramdas Pophale) SiO2 
 PCOD9341945
Probable space group: P N C 2
;
_chemical_formula_sum "Si O2"
_cell_formula_units_Z 24
_cell_length_a 12.183223
_cell_length_b 12.500189
_cell_length_c 8.246703
_cell_angle_alpha 90.000000
_cell_angle_beta 90.000000
_cell_angle_gamma 90.000000
_cell_volume 1255.911760
_symmetry_space_group_name_H-M "P N C 2"
_symmetry_group_IT_number 30
_symmetry_cell_setting 'orthorhombic'
loop_
_space_group_symop_operation_xyz
x,y,z
-x,-y,z
-x,1/2+y,1/2+z
x,1/2-y,1/2+z
loop_
_atom_site_type_symbol
_atom_site_label
_atom_site_fract_x
_atom_site_fract_y
_atom_site_fract_z
Si Si1 0.012393 0.374571 0.208490
Si Si2 0.762008 0.859640 0.886881
Si Si3 0.821522 0.531376 0.699896
Si Si4 0.030834 0.656761 0.826256
Si Si5 0.420046 0.093754 0.294091
Si Si6 0.626093 0.798041 0.601404
O O1 0.131090 0.344354 0.278719
O O2 0.000000 0.500000 0.249114
O O3 0.941762 0.280583 0.292050
O O4 0.993828 0.362558 0.016029
O O5 0.667433 0.867884 0.752435
O O6 0.787523 0.954720 0.011878
O O7 0.725847 0.758210 0.998117
O O8 0.873459 0.420522 0.759827
O O9 0.707838 0.558076 0.790119
O O10 0.920028 0.616140 0.733941
O O11 0.442649 0.134664 0.474846
O O12 0.432144 0.194600 0.175914
O O13 0.500000 0.000000 0.245162
#
# Coordination Sequence:
#
# PCOD9341945 Si02
#       6
#     4   4   4   4   4   4
#     4  12  23  35  58  85 121 168 200 247 296 360
#     4  10  19  33  60  87 113 157 207 246 288 351
#     4  10  21  39  60  88 123 158 198 257 303 348
#     4  11  23  39  56  88 129 158 205 250 293 369
#     4  10  20  39  65  88 117 156 199 252 306 352
#     4   9  19  37  62  89 114 150 212 250 286 360
#
# _framework density 19.109622000000002
#
# number of rings (size 3 to 8) (size 9 to 14) (size 15 to 20)
#    0.000    1.667    1.667    6.000    4.667    0.000 
#    0.000    9.167    0.000    0.000    0.000    0.000 
#    0.000    0.000    0.000    0.000    0.000    0.000 
#
# Total GULP energy -133724.609776 kJ/mol
# GULP energy per Si atom -5571.858741 kJ/mol
# Density = 1.906613 g / cm^3
# Si number density = 19.109622 Si / 1000 Ang^3
#
#
#
# Elastic Constant Matrix: (Units=GPa)
#
#
# Indices 1 2 3 4 5 6 
#
# 1 28.2905 12.7322 14.4350 0.0000 0.0000 0.0000
# 2 12.7322 118.6754 35.6123 0.0000 0.0000 0.0000
# 3 14.4350 35.6123 99.4675 0.0000 0.0000 0.0000
# 4 0.0000 0.0000 0.0000 -158.6976 0.0000 0.0000
# 5 0.0000 0.0000 0.0000 0.0000 9.7917 0.0000
# 6 0.0000 0.0000 0.0000 0.0000 0.0000 4.1085
#
#
#
# Elastic Compliance Matrix: (Units=1/GPa)
#
#
# Indices 1 2 3 4 5 6 
#
# 1 0.038978 -0.002783 -0.004660 0.000000 0.000000 0.000000
# 2 -0.002783 0.009639 -0.003047 0.000000 0.000000 0.000000
# 3 -0.004660 -0.003047 0.011821 0.000000 0.000000 0.000000
# 4 0.000000 0.000000 0.000000 -0.006301 0.000000 0.000000
# 5 0.000000 0.000000 0.000000 0.000000 0.102128 0.000000
# 6 0.000000 0.000000 0.000000 0.000000 0.000000 0.243397
#
#
# Mechanical properties :
#
#
# Convention : Reuss Voigt Hill
#
# Bulk Modulus (GPa) = 25.34420 41.33250 33.33835
# Shear Modulus (GPa) = 11.52617 -16.71589 -2.59486
#
# Velocity S-wave (km/s) = 2.45860 -2.96080 -1.16655
# Velocity P-wave (km/s) = 4.62071 3.16032 3.95844
#
# Compressibility (1/GPa) = 0.03945675
#
# Stress axis : x y z
#
# Youngs Moduli (GPa) = 25.65552 103.74105 84.59644
#
# Poissons Ratio (x) = 0.28875 0.39423
# Poissons Ratio (y) = 0.07141 0.25779
# Poissons Ratio (z) = 0.11956 0.31612
#
# Static dielectric constant tensor:
#      x y z
#    x 1.665820 0.000000 0.000000 
#    y 0.000000 1.713510 0.000000 
#    z 0.000000 0.000000 1.698580 
# 
# From -- ./inp_files/2333.got.cif
#   From: 2010.05.17/outbox.cif.g08.bks.cpg/sg30_2_cif.got.tgz:2333.got - 2010.06.03 17:03:02.
