data_PCOD9341759
_publ_section_title
;
Structure prediction by ZEFSAII (Michael W. Deem and Ramdas Pophale) SiO2 
 PCOD9341759
Probable space group: P C A 21
;
_chemical_formula_sum "Si O2"
_cell_formula_units_Z 24
_cell_length_a 14.567702
_cell_length_b 7.432047
_cell_length_c 8.079648
_cell_angle_alpha 90.000000
_cell_angle_beta 90.000000
_cell_angle_gamma 90.000000
_cell_volume 874.766085
_symmetry_space_group_name_H-M "P C A 21"
_symmetry_group_IT_number 29
_symmetry_cell_setting 'orthorhombic'
loop_
_space_group_symop_operation_xyz
x,y,z
-x,-y,1/2+z
1/2-x,y,1/2+z
1/2+x,-y,z
loop_
_atom_site_type_symbol
_atom_site_label
_atom_site_fract_x
_atom_site_fract_y
_atom_site_fract_z
Si Si1 0.551019 0.428619 0.375000
Si Si2 0.095089 0.903102 0.839577
Si Si3 0.772388 0.803588 0.333430
Si Si4 0.639004 0.558888 0.049141
Si Si5 0.688657 0.429596 0.661100
Si Si6 0.596337 0.033136 0.238109
O O1 0.583571 0.543173 0.219538
O O2 0.611416 0.486573 0.531466
O O3 0.444337 0.452008 0.417893
O O4 0.576635 0.221611 0.333713
O O5 0.151981 0.741317 0.758110
O O6 0.143447 0.080925 0.766167
O O7 0.097580 0.919796 0.040503
O O8 0.991482 0.908868 0.776524
O O9 0.778770 0.598847 0.270011
O O10 0.806106 0.747073 0.519997
O O11 0.684497 0.931283 0.317362
O O12 0.715759 0.401919 0.063277
#
# Coordination Sequence:
#
# PCOD9341759 Si02
#       6
#     4   4   4   4   4   4
#     4  12  28  55  90 135 187 242 312 392 470 562
#     4  12  29  57  87 139 188 244 308 386 470 555
#     4  12  28  56  88 133 176 242 310 375 475 556
#     4  12  27  53  85 137 179 238 309 380 466 556
#     4  12  29  53  92 132 180 242 309 380 471 562
#     4  12  29  56  96 132 192 246 314 393 468 565
#
# _framework density 27.435905999999999
#
# number of rings (size 3 to 8) (size 9 to 14) (size 15 to 20)
#    0.000    0.000    1.667    6.000    2.333    8.000 
#    6.000    0.000    0.000    0.000    0.000    0.000 
#    0.000    0.000    0.000    0.000    0.000    0.000 
#
# Total GULP energy -134457.414570 kJ/mol
# GULP energy per Si atom -5602.392274 kJ/mol
# Density = 2.737346 g / cm^3
# Si number density = 27.435906 Si / 1000 Ang^3
#
#
#
# Elastic Constant Matrix: (Units=GPa)
#
#
# Indices 1 2 3 4 5 6 
#
# 1 246.8954 75.3388 58.7559 0.0000 0.0000 0.0000
# 2 75.3388 172.9605 62.1108 0.0000 0.0000 0.0000
# 3 58.7559 62.1108 126.7710 0.0000 0.0000 0.0000
# 4 0.0000 0.0000 0.0000 34.4535 0.0000 0.0000
# 5 0.0000 0.0000 0.0000 0.0000 49.1396 0.0000
# 6 0.0000 0.0000 0.0000 0.0000 0.0000 52.6772
#
#
#
# Elastic Compliance Matrix: (Units=1/GPa)
#
#
# Indices 1 2 3 4 5 6 
#
# 1 0.004891 -0.001597 -0.001484 0.000000 0.000000 0.000000
# 2 -0.001597 0.007538 -0.002953 0.000000 0.000000 0.000000
# 3 -0.001484 -0.002953 0.010023 0.000000 0.000000 0.000000
# 4 0.000000 0.000000 0.000000 0.029025 0.000000 0.000000
# 5 0.000000 0.000000 0.000000 0.000000 0.020350 0.000000
# 6 0.000000 0.000000 0.000000 0.000000 0.000000 0.018984
#
#
# Mechanical properties :
#
#
# Convention : Reuss Voigt Hill
#
# Bulk Modulus (GPa) = 96.31279 104.33755 100.32517
# Shear Modulus (GPa) = 47.01913 50.61548 48.81730
#
# Velocity S-wave (km/s) = 4.14427 4.29985 4.22278
# Velocity P-wave (km/s) = 7.62108 7.92235 7.77318
#
# Compressibility (1/GPa) = 0.01038284
#
# Stress axis : x y z
#
# Youngs Moduli (GPa) = 204.45899 132.66422 99.77228
#
# Poissons Ratio (x) = 0.21192 0.14808
# Poissons Ratio (y) = 0.32661 0.29460
# Poissons Ratio (z) = 0.30346 0.39172
#
# Static dielectric constant tensor:
#      x y z
#    x 2.141240 0.000000 0.000000 
#    y 0.000000 2.116610 0.000000 
#    z 0.000000 0.000000 2.687440 
# 
# From -- ./inp_files/1763.got.cif
#   From: 2010.05.17/outbox.cif.g08.bks.cpg/sg29_1_cif.got.tgz:1763.got - 2010.06.04 01:19:37.
