data_PCOD9341161
_publ_section_title
;
Structure prediction by ZEFSAII (Michael W. Deem and Ramdas Pophale) SiO2 
 PCOD9341161
Probable space group: P C A 21
;
_chemical_formula_sum "Si O2"
_cell_formula_units_Z 24
_cell_length_a 10.385974
_cell_length_b 5.394136
_cell_length_c 17.908523
_cell_angle_alpha 90.000000
_cell_angle_beta 90.000000
_cell_angle_gamma 90.000000
_cell_volume 1003.295564
_symmetry_space_group_name_H-M "P C A 21"
_symmetry_group_IT_number 29
_symmetry_cell_setting 'orthorhombic'
loop_
_space_group_symop_operation_xyz
x,y,z
-x,-y,1/2+z
1/2-x,y,1/2+z
1/2+x,-y,z
loop_
_atom_site_type_symbol
_atom_site_label
_atom_site_fract_x
_atom_site_fract_y
_atom_site_fract_z
Si Si1 0.195546 0.323398 0.320750
Si Si2 0.533453 0.432529 0.202680
Si Si3 0.109559 0.055154 0.619520
Si Si4 0.458500 0.332500 0.549068
Si Si5 0.300696 0.363830 0.990617
Si Si6 0.732810 0.177093 0.755395
O O1 0.070785 0.371015 0.267157
O O2 0.156990 0.310832 0.406664
O O3 0.281036 0.568922 0.301886
O O4 0.272351 0.073659 0.302013
O O5 0.406574 0.296563 0.172220
O O6 0.588095 0.540067 0.125626
O O7 0.619010 0.199628 0.229040
O O8 0.196248 0.139551 0.550534
O O9 0.153383 0.847469 0.678676
O O10 0.985691 0.949098 0.575370
O O11 0.598017 0.436644 0.522944
O O12 0.352207 0.411080 0.489120
#
# Coordination Sequence:
#
# PCOD9341161 Si02
#       6
#     4   4   4   4   4   4
#     4  10  24  45  67 106 146 193 245 312 383 445
#     4   9  21  39  68  99 136 186 244 299 354 447
#     4  11  22  39  75 105 143 200 253 312 364 462
#     4  11  24  46  74 106 150 193 259 302 386 451
#     4  11  26  45  71 109 150 200 241 325 382 457
#     4  10  23  44  69  97 145 186 254 300 367 450
#
# _framework density 23.921168000000002
#
# number of rings (size 3 to 8) (size 9 to 14) (size 15 to 20)
#    1.000    0.667    0.000    4.000    7.000    2.667 
#    3.000    0.000    0.000    0.000    0.000    0.000 
#    0.000    0.000    0.000    0.000    0.000    0.000 
#
# Total GULP energy -133603.537785 kJ/mol
# GULP energy per Si atom -5566.814074 kJ/mol
# Density = 2.386672 g / cm^3
# Si number density = 23.921168 Si / 1000 Ang^3
#
#
#
# Elastic Constant Matrix: (Units=GPa)
#
#
# Indices 1 2 3 4 5 6 
#
# 1 63.6568 19.2792 8.4197 0.0000 0.0000 0.0000
# 2 19.2792 115.2713 31.7930 0.0000 0.0000 0.0000
# 3 8.4197 31.7930 131.7928 0.0000 0.0000 0.0000
# 4 0.0000 0.0000 0.0000 22.8704 0.0000 0.0000
# 5 0.0000 0.0000 0.0000 0.0000 27.1939 0.0000
# 6 0.0000 0.0000 0.0000 0.0000 0.0000 25.1907
#
#
#
# Elastic Compliance Matrix: (Units=1/GPa)
#
#
# Indices 1 2 3 4 5 6 
#
# 1 0.016569 -0.002656 -0.000418 0.000000 0.000000 0.000000
# 2 -0.002656 0.009719 -0.002175 0.000000 0.000000 0.000000
# 3 -0.000418 -0.002175 0.008139 0.000000 0.000000 0.000000
# 4 0.000000 0.000000 0.000000 0.043725 0.000000 0.000000
# 5 0.000000 0.000000 0.000000 0.000000 0.036773 0.000000
# 6 0.000000 0.000000 0.000000 0.000000 0.000000 0.039697
#
#
# Mechanical properties :
#
#
# Convention : Reuss Voigt Hill
#
# Bulk Modulus (GPa) = 41.78889 47.74498 44.76694
# Shear Modulus (GPa) = 28.88570 31.79959 30.34264
#
# Velocity S-wave (km/s) = 3.47873 3.64998 3.56538
# Velocity P-wave (km/s) = 5.80024 6.14539 5.97531
#
# Compressibility (1/GPa) = 0.02392980
#
# Stress axis : x y z
#
# Youngs Moduli (GPa) = 60.35411 102.88846 122.86467
#
# Poissons Ratio (x) = 0.27326 0.05134
# Poissons Ratio (y) = 0.16030 0.26722
# Poissons Ratio (z) = 0.02522 0.22378
#
# Static dielectric constant tensor:
#      x y z
#    x 2.106890 0.000000 0.000000 
#    y 0.000000 2.034240 0.000000 
#    z 0.000000 0.000000 1.871270 
# 
# From -- ./inp_files/4468.got.cif
#   From: 2010.05.17/outbox.cif.g08.bks.cpg/sg29_3_cif.got.tgz:4468.got - 2010.06.04 01:19:37.
