data_PCOD9341257
_publ_section_title
;
Structure prediction by ZEFSAII (Michael W. Deem and Ramdas Pophale) SiO2 
 PCOD9341257
Probable space group: P C A 21
;
_chemical_formula_sum "Si O2"
_cell_formula_units_Z 28
_cell_length_a 16.128813
_cell_length_b 7.235927
_cell_length_c 10.767710
_cell_angle_alpha 90.000000
_cell_angle_beta 90.000000
_cell_angle_gamma 90.000000
_cell_volume 1256.666199
_symmetry_space_group_name_H-M "P C A 21"
_symmetry_group_IT_number 29
_symmetry_cell_setting 'orthorhombic'
loop_
_space_group_symop_operation_xyz
x,y,z
-x,-y,1/2+z
1/2-x,y,1/2+z
1/2+x,-y,z
loop_
_atom_site_type_symbol
_atom_site_label
_atom_site_fract_x
_atom_site_fract_y
_atom_site_fract_z
Si Si1 0.860270 0.764614 0.121670
Si Si2 0.030932 0.712313 0.222732
Si Si3 0.062237 0.365495 0.363838
Si Si4 0.212947 0.966800 0.793297
Si Si5 0.381979 0.664241 0.451126
Si Si6 0.385096 0.056754 0.693403
Si Si7 0.690949 0.735438 0.994748
O O1 0.847479 0.969366 0.180383
O O2 0.764656 0.706775 0.095968
O O3 0.932800 0.672308 0.204951
O O4 0.899038 0.720703 0.987546
O O5 0.067746 0.582417 0.329982
O O6 0.040769 0.930432 0.242136
O O7 0.082654 0.692229 0.092700
O O8 0.105535 0.255078 0.255237
O O9 0.964988 0.326104 0.370381
O O10 0.303206 0.942987 0.732962
O O11 0.181557 0.804809 0.883609
O O12 0.222682 0.151274 0.876735
O O13 0.343541 0.460699 0.456088
O O14 0.376379 0.120497 0.551426
#
# Coordination Sequence:
#
# PCOD9341257 Si02
#       7
#     4   4   4   4   4   4   4
#     4  10  24  43  67  97 141 176 233 290 358 410
#     4  11  23  44  65 100 133 184 231 281 352 430
#     4  11  23  44  64 102 137 181 228 290 347 427
#     4  11  23  43  66 102 132 180 230 289 354 428
#     4  11  24  41  71  99 137 178 236 284 357 416
#     4  11  23  41  70  94 141 179 228 287 353 416
#     4  11  22  44  67  98 137 182 224 299 345 421
#
# _framework density 22.281174
#
# number of rings (size 3 to 8) (size 9 to 14) (size 15 to 20)
#    0.000    1.143    4.286    1.714    2.000    0.000 
#    2.571    4.286    0.000    0.000    0.000    0.000 
#    0.000    0.000    0.000    0.000    0.000    0.000 
#
# Total GULP energy -155883.786066 kJ/mol
# GULP energy per Si atom -5567.278074 kJ/mol
# Density = 2.223046 g / cm^3
# Si number density = 22.281174 Si / 1000 Ang^3
#
#
#
# Elastic Constant Matrix: (Units=GPa)
#
#
# Indices 1 2 3 4 5 6 
#
# 1 94.8639 35.5157 15.7263 0.0000 0.0000 0.0000
# 2 35.5157 96.9989 20.4956 0.0000 0.0000 0.0000
# 3 15.7263 20.4956 54.3273 0.0000 0.0000 0.0000
# 4 0.0000 0.0000 0.0000 34.3306 0.0000 0.0000
# 5 0.0000 0.0000 0.0000 0.0000 30.2480 0.0000
# 6 0.0000 0.0000 0.0000 0.0000 0.0000 25.4345
#
#
#
# Elastic Compliance Matrix: (Units=1/GPa)
#
#
# Indices 1 2 3 4 5 6 
#
# 1 0.012421 -0.004116 -0.002043 0.000000 0.000000 0.000000
# 2 -0.004116 0.012567 -0.003549 0.000000 0.000000 0.000000
# 3 -0.002043 -0.003549 0.020337 0.000000 0.000000 0.000000
# 4 0.000000 0.000000 0.000000 0.029129 0.000000 0.000000
# 5 0.000000 0.000000 0.000000 0.000000 0.033060 0.000000
# 6 0.000000 0.000000 0.000000 0.000000 0.000000 0.039317
#
#
# Mechanical properties :
#
#
# Convention : Reuss Voigt Hill
#
# Bulk Modulus (GPa) = 38.59759 43.29614 40.94687
# Shear Modulus (GPa) = 28.59056 29.63278 29.11167
#
# Velocity S-wave (km/s) = 3.58602 3.65080 3.61856
# Velocity P-wave (km/s) = 5.87424 6.10287 5.98964
#
# Compressibility (1/GPa) = 0.02590835
#
# Stress axis : x y z
#
# Youngs Moduli (GPa) = 80.50795 79.57646 49.17085
#
# Poissons Ratio (x) = 0.32756 0.10044
# Poissons Ratio (y) = 0.33140 0.17452
# Poissons Ratio (z) = 0.16445 0.28244
#
# Static dielectric constant tensor:
#      x y z
#    x 1.863980 0.000000 0.000000 
#    y 0.000000 1.855610 0.000000 
#    z 0.000000 0.000000 1.886780 
# 
# From -- ./inp_files/3586.got.cif
#   From: 2010.05.17/outbox.cif.g08.bks.cpg/sg29_2_cif.got.tgz:3586.got - 2010.06.04 01:19:37.
