data_PCOD9341491
_publ_section_title
;
Structure prediction by ZEFSAII (Michael W. Deem and Ramdas Pophale) SiO2 
 PCOD9341491
Probable space group: P C A 21
;
_chemical_formula_sum "Si O2"
_cell_formula_units_Z 24
_cell_length_a 11.035094
_cell_length_b 5.435862
_cell_length_c 17.160199
_cell_angle_alpha 90.000000
_cell_angle_beta 90.000000
_cell_angle_gamma 90.000000
_cell_volume 1029.358795
_symmetry_space_group_name_H-M "P C A 21"
_symmetry_group_IT_number 29
_symmetry_cell_setting 'orthorhombic'
loop_
_space_group_symop_operation_xyz
x,y,z
-x,-y,1/2+z
1/2-x,y,1/2+z
1/2+x,-y,z
loop_
_atom_site_type_symbol
_atom_site_label
_atom_site_fract_x
_atom_site_fract_y
_atom_site_fract_z
Si Si1 0.403962 0.070854 0.728850
Si Si2 0.885932 0.319482 0.293017
Si Si3 0.979419 0.406172 0.919318
Si Si4 0.200611 0.972752 0.391156
Si Si5 0.735411 0.613996 0.994754
Si Si6 0.801078 0.442344 0.664942
O O1 0.542727 0.087856 0.756772
O O2 0.383569 0.317991 0.679633
O O3 0.323982 0.103520 0.807953
O O4 0.366154 0.820129 0.684364
O O5 0.793561 0.233421 0.360073
O O6 0.809320 0.445256 0.225785
O O7 0.982220 0.498099 0.334217
O O8 0.931704 0.128481 0.913643
O O9 0.858707 0.536601 0.949947
O O10 0.097026 0.446391 0.971265
O O11 0.258390 0.100994 0.466283
O O12 0.748911 0.491849 0.078884
#
# Coordination Sequence:
#
# PCOD9341491 Si02
#       6
#     4   4   4   4   4   4
#     4  11  24  47  73 110 149 205 263 327 395 485
#     4  11  22  48  81 113 153 212 276 334 401 490
#     4  12  25  49  78 112 155 209 277 331 399 488
#     4  11  24  47  78 111 149 208 270 332 392 485
#     4  12  28  48  75 115 161 210 264 338 410 485
#     4  11  29  47  73 115 163 206 262 336 417 477
#
# _framework density 23.315484999999999
#
# number of rings (size 3 to 8) (size 9 to 14) (size 15 to 20)
#    0.000    0.667    3.333    4.000    4.667    4.000 
#    0.000    0.000    0.000    0.000    0.000    0.000 
#    0.000    0.000    0.000    0.000    0.000    0.000 
#
# Total GULP energy -133836.204554 kJ/mol
# GULP energy per Si atom -5576.508523 kJ/mol
# Density = 2.326242 g / cm^3
# Si number density = 23.315485 Si / 1000 Ang^3
#
#
#
# Elastic Constant Matrix: (Units=GPa)
#
#
# Indices 1 2 3 4 5 6 
#
# 1 150.6818 39.5212 56.4236 0.0000 0.0000 0.0000
# 2 39.5212 94.7714 64.0343 0.0000 0.0000 0.0000
# 3 56.4236 64.0343 115.2006 0.0000 0.0000 0.0000
# 4 0.0000 0.0000 0.0000 36.4321 0.0000 0.0000
# 5 0.0000 0.0000 0.0000 0.0000 25.5700 0.0000
# 6 0.0000 0.0000 0.0000 0.0000 0.0000 15.9820
#
#
#
# Elastic Compliance Matrix: (Units=1/GPa)
#
#
# Indices 1 2 3 4 5 6 
#
# 1 0.008202 -0.001131 -0.003389 0.000000 0.000000 0.000000
# 2 -0.001131 0.017054 -0.008926 0.000000 0.000000 0.000000
# 3 -0.003389 -0.008926 0.015302 0.000000 0.000000 0.000000
# 4 0.000000 0.000000 0.000000 0.027448 0.000000 0.000000
# 5 0.000000 0.000000 0.000000 0.000000 0.039108 0.000000
# 6 0.000000 0.000000 0.000000 0.000000 0.000000 0.062570
#
#
# Mechanical properties :
#
#
# Convention : Reuss Voigt Hill
#
# Bulk Modulus (GPa) = 73.16670 75.62353 74.39512
# Shear Modulus (GPa) = 24.85947 28.97514 26.91730
#
# Velocity S-wave (km/s) = 3.26885 3.52908 3.40145
# Velocity P-wave (km/s) = 6.75991 7.00794 6.88504
#
# Compressibility (1/GPa) = 0.01366742
#
# Stress axis : x y z
#
# Youngs Moduli (GPa) = 121.92167 58.63706 65.35263
#
# Poissons Ratio (x) = 0.06630 0.22146
# Poissons Ratio (y) = 0.13786 0.58332
# Poissons Ratio (z) = 0.41316 0.52338
#
# Static dielectric constant tensor:
#      x y z
#    x 1.859430 0.000000 0.000000 
#    y 0.000000 2.117320 0.000000 
#    z 0.000000 0.000000 1.921510 
# 
# From -- ./inp_files/5081.got.cif
#   From: 2010.05.17/outbox.cif.g08.bks.cpg/sg29_3_cif.got.tgz:5081.got - 2010.06.04 01:19:37.
