data_PCOD9341554
_publ_section_title
;
Structure prediction by ZEFSAII (Michael W. Deem and Ramdas Pophale) SiO2 
 PCOD9341554
Probable space group: P C A 21
;
_chemical_formula_sum "Si O2"
_cell_formula_units_Z 32
_cell_length_a 19.116923
_cell_length_b 6.658207
_cell_length_c 12.729176
_cell_angle_alpha 90.000000
_cell_angle_beta 90.000000
_cell_angle_gamma 90.000000
_cell_volume 1620.225918
_symmetry_space_group_name_H-M "P C A 21"
_symmetry_group_IT_number 29
_symmetry_cell_setting 'orthorhombic'
loop_
_space_group_symop_operation_xyz
x,y,z
-x,-y,1/2+z
1/2-x,y,1/2+z
1/2+x,-y,z
loop_
_atom_site_type_symbol
_atom_site_label
_atom_site_fract_x
_atom_site_fract_y
_atom_site_fract_z
Si Si1 0.564167 0.570734 0.075490
Si Si2 0.687465 0.737025 0.578391
Si Si3 0.870961 0.027946 0.254224
Si Si4 0.279199 0.586705 0.254223
Si Si5 0.468279 0.111471 0.754223
Si Si6 0.687466 0.737026 0.930055
Si Si7 0.064166 0.429267 0.432956
Si Si8 0.378176 0.720707 0.754223
O O1 0.540062 0.748708 0.152525
O O2 0.592361 0.395394 0.151902
O O3 0.625796 0.649617 0.001400
O O4 0.500001 0.500000 0.004222
O O5 0.658729 0.911961 0.652980
O O6 0.715406 0.558991 0.653693
O O7 0.749999 0.809155 0.504223
O O8 0.625795 0.649614 0.507048
O O9 0.841270 0.911962 0.355467
O O10 0.842529 0.254866 0.254223
O O11 0.954624 0.017385 0.254224
O O12 0.284594 0.441009 0.354753
O O13 0.205575 0.702707 0.254223
O O14 0.459937 0.251293 0.855921
O O15 0.408369 0.943801 0.754222
O O16 0.092361 0.604608 0.356544
#
# Coordination Sequence:
#
# PCOD9341554 Si02
#       8
#     4   4   4   4   4   4   4   4
#     4  11  24  44  69  93 134 174 216 270 334 392
#     4  11  24  43  66  96 133 173 220 272 328 397
#     4  11  26  42  65  99 133 169 221 279 330 394
#     4  11  24  43  66  95 136 173 222 270 336 389
#     4  11  26  44  67 101 135 171 225 277 332 396
#     4  11  24  43  66  96 133 173 220 272 328 397
#     4  11  24  44  69  93 134 174 216 270 334 392
#     4  11  24  41  66  97 130 173 218 276 322 395
#
# _framework density 19.750333000000001
#
# number of rings (size 3 to 8) (size 9 to 14) (size 15 to 20)
#    0.000    1.000    2.500    3.000    3.500   11.000 
#    0.000    0.000    0.000    0.000    0.000    0.000 
#    0.000    0.000    0.000    0.000    0.000    0.000 
#
# Total GULP energy -179114.789247 kJ/mol
# GULP energy per Si atom -5597.337164 kJ/mol
# Density = 1.970538 g / cm^3
# Si number density = 19.750333 Si / 1000 Ang^3
#
#
#
# Elastic Constant Matrix: (Units=GPa)
#
#
# Indices 1 2 3 4 5 6 
#
# 1 119.3591 7.6795 47.7177 0.0000 0.0000 0.0000
# 2 7.6795 70.4838 29.3461 0.0000 0.0000 0.0000
# 3 47.7177 29.3461 135.8331 0.0000 0.0000 0.0000
# 4 0.0000 0.0000 0.0000 0.5127 0.0000 0.0000
# 5 0.0000 0.0000 0.0000 0.0000 37.9403 0.0000
# 6 0.0000 0.0000 0.0000 0.0000 0.0000 38.4193
#
#
#
# Elastic Compliance Matrix: (Units=1/GPa)
#
#
# Indices 1 2 3 4 5 6 
#
# 1 0.009757 0.000400 -0.003514 0.000000 0.000000 0.000000
# 2 0.000400 0.015606 -0.003512 0.000000 0.000000 0.000000
# 3 -0.003514 -0.003512 0.009355 0.000000 0.000000 0.000000
# 4 0.000000 0.000000 0.000000 1.950587 0.000000 0.000000
# 5 0.000000 0.000000 0.000000 0.000000 0.026357 0.000000
# 6 0.000000 0.000000 0.000000 0.000000 0.000000 0.026029
#
#
# Mechanical properties :
#
#
# Convention : Reuss Voigt Hill
#
# Bulk Modulus (GPa) = 46.58468 55.01806 50.80137
# Shear Modulus (GPa) = 2.42943 31.43663 16.93303
#
# Velocity S-wave (km/s) = 1.11029 3.99394 2.93124
# Velocity P-wave (km/s) = 5.02809 7.01327 6.10195
#
# Compressibility (1/GPa) = 0.02146628
#
# Stress axis : x y z
#
# Youngs Moduli (GPa) = 102.48829 64.07632 106.89174
#
# Poissons Ratio (x) = -0.02563 0.37563
# Poissons Ratio (y) = -0.04100 0.37543
# Poissons Ratio (z) = 0.36015 0.22505
#
# Static dielectric constant tensor:
#      x y z
#    x 1.663780 0.000000 0.000000 
#    y 0.000000 1.663060 0.000000 
#    z 0.000000 0.000000 1.663890 
# 
# From -- ./inp_files/3857.got.cif
#   From: 2010.05.17/outbox.cif.g08.bks.cpg/sg29_2_cif.got.tgz:3857.got - 2010.06.04 01:19:37.
