data_PCOD9341249
_publ_section_title
;
Structure prediction by ZEFSAII (Michael W. Deem and Ramdas Pophale) SiO2 
 PCOD9341249
Probable space group: P C A 21
;
_chemical_formula_sum "Si O2"
_cell_formula_units_Z 20
_cell_length_a 8.812565
_cell_length_b 5.100078
_cell_length_c 17.549473
_cell_angle_alpha 90.000000
_cell_angle_beta 90.000000
_cell_angle_gamma 90.000000
_cell_volume 788.757008
_symmetry_space_group_name_H-M "P C A 21"
_symmetry_group_IT_number 29
_symmetry_cell_setting 'orthorhombic'
loop_
_space_group_symop_operation_xyz
x,y,z
-x,-y,1/2+z
1/2-x,y,1/2+z
1/2+x,-y,z
loop_
_atom_site_type_symbol
_atom_site_label
_atom_site_fract_x
_atom_site_fract_y
_atom_site_fract_z
Si Si1 0.643889 0.777531 0.272070
Si Si2 0.896930 0.464806 0.187719
Si Si3 0.965742 0.153849 0.486922
Si Si4 0.291533 0.311637 0.435980
Si Si5 0.638267 0.158550 0.144122
O O1 0.766571 0.661991 0.212472
O O2 0.481703 0.640330 0.262351
O O3 0.713123 0.713489 0.352835
O O4 0.614001 0.055066 0.230477
O O5 0.812670 0.237066 0.142983
O O6 0.025705 0.594928 0.138181
O O7 0.864455 0.409448 0.461801
O O8 0.908160 0.023564 0.566544
O O9 0.142689 0.233117 0.486492
O O10 0.923317 0.910377 0.432232
#
# Coordination Sequence:
#
# PCOD9341249 Si02
#       5
#     4   4   4   4   4
#     4  11  25  43  74 102 143 189 248 299 368 442
#     4  10  24  42  72 100 140 180 246 296 364 426
#     4  12  29  49  76 109 154 197 249 308 384 449
#     4  12  29  49  76 109 154 197 249 308 384 449
#     4  11  25  43  74 102 143 189 248 299 368 442
#
# _framework density 25.356354
#
# number of rings (size 3 to 8) (size 9 to 14) (size 15 to 20)
#    0.000    0.800    0.000    4.800   22.400    0.000 
#    0.000    0.000    0.000    0.000    0.000    0.000 
#    0.000    0.000    0.000    0.000    0.000    0.000 
#
# Total GULP energy -111606.702992 kJ/mol
# GULP energy per Si atom -5580.335150 kJ/mol
# Density = 2.529864 g / cm^3
# Si number density = 25.356354 Si / 1000 Ang^3
#
#
#
# Elastic Constant Matrix: (Units=GPa)
#
#
# Indices 1 2 3 4 5 6 
#
# 1 109.8611 27.1916 3.0927 0.0000 0.0000 0.0000
# 2 27.1916 86.7734 -3.9991 0.0000 0.0000 0.0000
# 3 3.0927 -3.9991 68.9727 0.0000 0.0000 0.0000
# 4 0.0000 0.0000 0.0000 27.0125 0.0000 0.0000
# 5 0.0000 0.0000 0.0000 0.0000 42.6787 0.0000
# 6 0.0000 0.0000 0.0000 0.0000 0.0000 -68.7165
#
#
#
# Elastic Compliance Matrix: (Units=1/GPa)
#
#
# Indices 1 2 3 4 5 6 
#
# 1 0.009895 -0.003129 -0.000625 0.000000 0.000000 0.000000
# 2 -0.003129 0.012545 0.000868 0.000000 0.000000 0.000000
# 3 -0.000625 0.000868 0.014577 0.000000 0.000000 0.000000
# 4 0.000000 0.000000 0.000000 0.037020 0.000000 0.000000
# 5 0.000000 0.000000 0.000000 0.000000 0.023431 0.000000
# 6 0.000000 0.000000 0.000000 0.000000 0.000000 -0.014553
#
#
# Mechanical properties :
#
#
# Convention : Reuss Voigt Hill
#
# Bulk Modulus (GPa) = 32.00755 35.35307 33.68031
# Shear Modulus (GPa) = 50.45288 16.14974 33.30131
#
# Velocity S-wave (km/s) = 4.46550 2.52645 3.62792
# Velocity P-wave (km/s) = 6.26403 4.74166 5.55524
#
# Compressibility (1/GPa) = 0.03124262
#
# Stress axis : x y z
#
# Youngs Moduli (GPa) = 101.06563 79.71366 68.60200
#
# Poissons Ratio (x) = 0.24946 0.04288
# Poissons Ratio (y) = 0.31628 -0.05953
# Poissons Ratio (z) = 0.06318 -0.06917
#
# Static dielectric constant tensor:
#      x y z
#    x 1.935160 0.000000 0.000000 
#    y 0.000000 2.132540 0.000000 
#    z 0.000000 0.000000 2.192930 
# 
# From -- ./inp_files/4920.got.cif
#   From: 2010.05.17/outbox.cif.g08.bks.cpg/sg29_3_cif.got.tgz:4920.got - 2010.06.04 01:19:37.
