data_PCOD9341255
_publ_section_title
;
Structure prediction by ZEFSAII (Michael W. Deem and Ramdas Pophale) SiO2 
 PCOD9341255
Probable space group: P C A 21
;
_chemical_formula_sum "Si O2"
_cell_formula_units_Z 28
_cell_length_a 21.122394
_cell_length_b 5.434682
_cell_length_c 9.077378
_cell_angle_alpha 90.000000
_cell_angle_beta 90.000000
_cell_angle_gamma 90.000000
_cell_volume 1042.023941
_symmetry_space_group_name_H-M "P C A 21"
_symmetry_group_IT_number 29
_symmetry_cell_setting 'orthorhombic'
loop_
_space_group_symop_operation_xyz
x,y,z
-x,-y,1/2+z
1/2-x,y,1/2+z
1/2+x,-y,z
loop_
_atom_site_type_symbol
_atom_site_label
_atom_site_fract_x
_atom_site_fract_y
_atom_site_fract_z
Si Si1 0.892357 0.866297 0.744370
Si Si2 0.931645 0.482748 0.509086
Si Si3 0.514338 0.247689 0.280397
Si Si4 0.876827 0.482000 0.978620
Si Si5 0.238872 0.029313 0.159969
Si Si6 0.746941 0.629325 0.904016
Si Si7 0.354223 0.709083 0.291034
O O1 0.891564 0.645781 0.625579
O O2 0.882743 0.756744 0.909237
O O3 0.833456 0.046270 0.698812
O O4 0.963275 0.973511 0.742017
O O5 0.984912 0.379530 0.621621
O O6 0.907483 0.242840 0.414699
O O7 0.957754 0.669690 0.384664
O O8 0.575597 0.329189 0.378537
O O9 0.801398 0.446954 0.956152
O O10 0.884668 0.415746 0.148073
O O11 0.239801 0.297472 0.236760
O O12 0.299815 0.888694 0.225999
O O13 0.245760 0.114102 0.992188
O O14 0.681817 0.490807 0.891691
#
# Coordination Sequence:
#
# PCOD9341255 Si02
#       7
#     4   4   4   4   4   4   4
#     4  10  24  47  73 100 142 185 241 291 356 431
#     4  11  26  46  69 104 138 184 240 308 351 433
#     4  11  25  47  72  99 138 185 241 290 369 423
#     4  10  24  43  67 101 140 181 228 298 345 423
#     4  11  25  40  68 105 138 188 229 282 372 428
#     4  11  23  42  62 103 143 178 233 284 350 438
#     4  12  25  41  69 100 147 183 230 299 361 422
#
# _framework density 26.870787
#
# number of rings (size 3 to 8) (size 9 to 14) (size 15 to 20)
#    0.000    1.143    2.857    1.714    8.000    3.429 
#    0.000    0.000    0.000    0.000    0.000    0.000 
#    0.000    0.000    0.000    0.000    0.000    0.000 
#
# Total GULP energy -156157.819155 kJ/mol
# GULP energy per Si atom -5577.064970 kJ/mol
# Density = 2.680963 g / cm^3
# Si number density = 26.870787 Si / 1000 Ang^3
#
#
#
# Elastic Constant Matrix: (Units=GPa)
#
#
# Indices 1 2 3 4 5 6 
#
# 1 71.0604 15.3551 30.0302 0.0000 0.0000 0.0000
# 2 15.3551 52.1874 30.6662 0.0000 0.0000 0.0000
# 3 30.0302 30.6662 134.5707 0.0000 0.0000 0.0000
# 4 0.0000 0.0000 0.0000 28.5230 0.0000 0.0000
# 5 0.0000 0.0000 0.0000 0.0000 53.1464 0.0000
# 6 0.0000 0.0000 0.0000 0.0000 0.0000 35.1673
#
#
#
# Elastic Compliance Matrix: (Units=1/GPa)
#
#
# Indices 1 2 3 4 5 6 
#
# 1 0.015935 -0.003001 -0.002872 0.000000 0.000000 0.000000
# 2 -0.003001 0.022689 -0.004501 0.000000 0.000000 0.000000
# 3 -0.002872 -0.004501 0.009098 0.000000 0.000000 0.000000
# 4 0.000000 0.000000 0.000000 0.035059 0.000000 0.000000
# 5 0.000000 0.000000 0.000000 0.000000 0.018816 0.000000
# 6 0.000000 0.000000 0.000000 0.000000 0.000000 0.028435
#
#
# Mechanical properties :
#
#
# Convention : Reuss Voigt Hill
#
# Bulk Modulus (GPa) = 37.07235 45.54685 41.30960
# Shear Modulus (GPa) = 31.29469 35.48515 33.38992
#
# Velocity S-wave (km/s) = 3.41638 3.63793 3.52889
# Velocity P-wave (km/s) = 5.42113 5.88499 5.65782
#
# Compressibility (1/GPa) = 0.02697428
#
# Stress axis : x y z
#
# Youngs Moduli (GPa) = 62.75609 44.07338 109.91866
#
# Poissons Ratio (x) = 0.13225 0.31570
# Poissons Ratio (y) = 0.18832 0.49473
# Poissons Ratio (z) = 0.18024 0.19837
#
# Static dielectric constant tensor:
#      x y z
#    x 2.344340 0.000000 0.000000 
#    y 0.000000 2.191410 0.000000 
#    z 0.000000 0.000000 2.003880 
# 
# From -- ./inp_files/2422.got.cif
#   From: 2010.05.17/outbox.cif.g08.bks.cpg/sg29_2_cif.got.tgz:2422.got - 2010.06.04 01:19:37.
