data_PCOD9341335
_publ_section_title
;
Structure prediction by ZEFSAII (Michael W. Deem and Ramdas Pophale) SiO2 
 PCOD9341335
Probable space group: P C A 21
;
_chemical_formula_sum "Si O2"
_cell_formula_units_Z 28
_cell_length_a 13.397903
_cell_length_b 11.869309
_cell_length_c 8.852873
_cell_angle_alpha 90.000000
_cell_angle_beta 90.000000
_cell_angle_gamma 90.000000
_cell_volume 1407.817954
_symmetry_space_group_name_H-M "P C A 21"
_symmetry_group_IT_number 29
_symmetry_cell_setting 'orthorhombic'
loop_
_space_group_symop_operation_xyz
x,y,z
-x,-y,1/2+z
1/2-x,y,1/2+z
1/2+x,-y,z
loop_
_atom_site_type_symbol
_atom_site_label
_atom_site_fract_x
_atom_site_fract_y
_atom_site_fract_z
Si Si1 0.876837 0.406139 0.936010
Si Si2 0.520659 0.993179 0.090420
Si Si3 0.215011 0.966129 0.280953
Si Si4 0.598328 0.885246 0.805458
Si Si5 0.150873 0.839746 0.573032
Si Si6 0.108881 0.364089 0.933201
Si Si7 0.757814 0.531401 0.684289
O O1 0.825690 0.441253 0.777126
O O2 0.997625 0.419251 0.932412
O O3 0.856642 0.278545 0.990690
O O4 0.817797 0.478425 0.061716
O O5 0.455218 0.883675 0.132402
O O6 0.623892 0.000881 0.176441
O O7 0.458311 0.101826 0.146178
O O8 0.544663 0.975675 0.915440
O O9 0.181302 0.931097 0.446578
O O10 0.270530 0.858200 0.206404
O O11 0.290840 0.069626 0.285980
O O12 0.593390 0.765965 0.886490
O O13 0.184915 0.411178 0.806444
O O14 0.165677 0.387968 0.091687
#
# Coordination Sequence:
#
# PCOD9341335 Si02
#       7
#     4   4   4   4   4   4   4
#     4  11  21  43  64  88 124 159 210 272 313 365
#     4  11  21  40  56  91 123 162 198 248 296 373
#     4  11  22  37  56  90 125 158 204 245 302 374
#     4  11  24  38  63  86 127 162 200 247 302 373
#     4  11  22  36  62  85 120 164 200 251 313 364
#     4  11  23  43  64  91 126 165 207 262 317 366
#     4  10  25  41  65  93 119 162 219 259 319 371
#
# _framework density 19.888935
#
# number of rings (size 3 to 8) (size 9 to 14) (size 15 to 20)
#    0.000    1.143    4.286    1.714    2.000    0.000 
#    0.000    0.000    0.000    0.000    0.000    0.000 
#    0.000    0.000    0.000    0.000    0.000    0.000 
#
# Total GULP energy -156159.671613 kJ/mol
# GULP energy per Si atom -5577.131129 kJ/mol
# Density = 1.984367 g / cm^3
# Si number density = 19.888935 Si / 1000 Ang^3
#
#
#
# Elastic Constant Matrix: (Units=GPa)
#
#
# Indices 1 2 3 4 5 6 
#
# 1 126.2204 35.5484 18.4969 0.0000 0.0000 0.0000
# 2 35.5484 75.0777 27.7587 0.0000 0.0000 0.0000
# 3 18.4969 27.7587 53.3658 0.0000 0.0000 0.0000
# 4 0.0000 0.0000 0.0000 30.2920 0.0000 0.0000
# 5 0.0000 0.0000 0.0000 0.0000 30.3836 0.0000
# 6 0.0000 0.0000 0.0000 0.0000 0.0000 15.0855
#
#
#
# Elastic Compliance Matrix: (Units=1/GPa)
#
#
# Indices 1 2 3 4 5 6 
#
# 1 0.009198 -0.003933 -0.001142 0.000000 0.000000 0.000000
# 2 -0.003933 0.018173 -0.008090 0.000000 0.000000 0.000000
# 3 -0.001142 -0.008090 0.023342 0.000000 0.000000 0.000000
# 4 0.000000 0.000000 0.000000 0.033012 0.000000 0.000000
# 5 0.000000 0.000000 0.000000 0.000000 0.032913 0.000000
# 6 0.000000 0.000000 0.000000 0.000000 0.000000 0.066289
#
#
# Mechanical properties :
#
#
# Convention : Reuss Voigt Hill
#
# Bulk Modulus (GPa) = 41.01130 46.47466 43.74298
# Shear Modulus (GPa) = 23.00087 26.67618 24.83852
#
# Velocity S-wave (km/s) = 3.40437 3.66629 3.53776
# Velocity P-wave (km/s) = 6.00982 6.42962 6.22326
#
# Compressibility (1/GPa) = 0.02438352
#
# Stress axis : x y z
#
# Youngs Moduli (GPa) = 108.72364 55.02801 42.84050
#
# Poissons Ratio (x) = 0.21640 0.04894
# Poissons Ratio (y) = 0.42757 0.34656
# Poissons Ratio (z) = 0.12420 0.44515
#
# Static dielectric constant tensor:
#      x y z
#    x 1.736770 0.000000 0.000000 
#    y 0.000000 1.693040 0.000000 
#    z 0.000000 0.000000 1.714800 
# 
# From -- ./inp_files/1454.got.cif
#   From: 2010.05.17/outbox.cif.g08.bks.cpg/sg29_1_cif.got.tgz:1454.got - 2010.06.04 01:19:37.
