data_PCOD9341030
_publ_section_title
;
Structure prediction by ZEFSAII (Michael W. Deem and Ramdas Pophale) SiO2 
 PCOD9341030
Probable space group: P C A 21
;
_chemical_formula_sum "Si O2"
_cell_formula_units_Z 28
_cell_length_a 14.639849
_cell_length_b 5.061852
_cell_length_c 15.437648
_cell_angle_alpha 90.000000
_cell_angle_beta 90.000000
_cell_angle_gamma 90.000000
_cell_volume 1144.003029
_symmetry_space_group_name_H-M "P C A 21"
_symmetry_group_IT_number 29
_symmetry_cell_setting 'orthorhombic'
loop_
_space_group_symop_operation_xyz
x,y,z
-x,-y,1/2+z
1/2-x,y,1/2+z
1/2+x,-y,z
loop_
_atom_site_type_symbol
_atom_site_label
_atom_site_fract_x
_atom_site_fract_y
_atom_site_fract_z
Si Si1 0.439500 0.209932 0.712730
Si Si2 0.699867 0.381519 0.270357
Si Si3 0.029667 0.793723 0.351668
Si Si4 0.988472 0.286590 0.462567
Si Si5 0.875525 0.400651 0.195436
Si Si6 0.155351 0.114587 0.580724
Si Si7 0.343067 0.894903 0.583717
O O1 0.350734 0.335066 0.759623
O O2 0.517783 0.430887 0.714471
O O3 0.482146 0.957374 0.761530
O O4 0.410730 0.123376 0.617435
O O5 0.640325 0.243183 0.344833
O O6 0.808720 0.361066 0.277498
O O7 0.683702 0.243375 0.175636
O O8 0.996474 0.520142 0.393540
O O9 0.986554 0.007546 0.414911
O O10 0.900170 0.298633 0.523586
O O11 0.081282 0.249881 0.518632
O O12 0.832142 0.658788 0.152342
O O13 0.876237 0.152584 0.129484
O O14 0.253124 0.026174 0.543238
#
# Coordination Sequence:
#
# PCOD9341030 Si02
#       7
#     4   4   4   4   4   4   4
#     4  11  21  45  70 105 136 184 240 287 351 419
#     4  10  22  45  67  99 134 176 237 284 342 410
#     4  11  26  43  66  94 144 192 218 286 353 426
#     4  12  24  44  67  99 144 183 229 283 363 416
#     4  11  23  38  74 100 130 171 235 291 342 408
#     4  11  23  41  66 107 129 176 228 292 351 406
#     4  10  23  40  74 100 137 180 237 295 340 421
#
# _framework density 24.475462
#
# number of rings (size 3 to 8) (size 9 to 14) (size 15 to 20)
#    0.000    1.143    4.286    1.714    4.000    0.000 
#    2.571    1.429    0.000    0.000    0.000    0.000 
#    0.000    0.000    0.000    0.000    0.000    0.000 
#
# Total GULP energy -156220.693690 kJ/mol
# GULP energy per Si atom -5579.310489 kJ/mol
# Density = 2.441975 g / cm^3
# Si number density = 24.475462 Si / 1000 Ang^3
#
#
#
# Elastic Constant Matrix: (Units=GPa)
#
#
# Indices 1 2 3 4 5 6 
#
# 1 123.0229 16.8718 19.1025 0.0000 0.0000 0.0000
# 2 16.8718 140.0268 18.3585 0.0000 0.0000 0.0000
# 3 19.1025 18.3585 35.5105 0.0000 0.0000 0.0000
# 4 0.0000 0.0000 0.0000 25.6844 0.0000 0.0000
# 5 0.0000 0.0000 0.0000 0.0000 21.1634 0.0000
# 6 0.0000 0.0000 0.0000 0.0000 0.0000 0.8131
#
#
#
# Elastic Compliance Matrix: (Units=1/GPa)
#
#
# Indices 1 2 3 4 5 6 
#
# 1 0.008899 -0.000477 -0.004541 0.000000 0.000000 0.000000
# 2 -0.000477 0.007686 -0.003717 0.000000 0.000000 0.000000
# 3 -0.004541 -0.003717 0.032525 0.000000 0.000000 0.000000
# 4 0.000000 0.000000 0.000000 0.038934 0.000000 0.000000
# 5 0.000000 0.000000 0.000000 0.000000 0.047251 0.000000
# 6 0.000000 0.000000 0.000000 0.000000 0.000000 1.229885
#
#
# Mechanical properties :
#
#
# Convention : Reuss Voigt Hill
#
# Bulk Modulus (GPa) = 31.60461 45.24732 38.42597
# Shear Modulus (GPa) = 3.58887 25.81401 14.70144
#
# Velocity S-wave (km/s) = 1.21223 3.25112 2.45350
# Velocity P-wave (km/s) = 3.86007 5.71139 4.87443
#
# Compressibility (1/GPa) = 0.03164095
#
# Stress axis : x y z
#
# Youngs Moduli (GPa) = 112.37196 130.10156 30.74563
#
# Poissons Ratio (x) = 0.06205 0.13960
# Poissons Ratio (y) = 0.05360 0.11429
# Poissons Ratio (z) = 0.51023 0.48361
#
# Static dielectric constant tensor:
#      x y z
#    x 2.066370 0.000000 0.000000 
#    y 0.000000 1.979420 0.000000 
#    z 0.000000 0.000000 1.992590 
# 
# From -- ./inp_files/5180.got.cif
#   From: 2010.05.17/outbox.cif.g08.bks.cpg/sg29_3_cif.got.tgz:5180.got - 2010.06.04 01:19:37.
