data_PCOD9341198
_publ_section_title
;
Structure prediction by ZEFSAII (Michael W. Deem and Ramdas Pophale) SiO2 
 PCOD9341198
Probable space group: P C A 21
;
_chemical_formula_sum "Si O2"
_cell_formula_units_Z 24
_cell_length_a 8.253148
_cell_length_b 11.936293
_cell_length_c 11.625844
_cell_angle_alpha 90.000000
_cell_angle_beta 90.000000
_cell_angle_gamma 90.000000
_cell_volume 1145.285059
_symmetry_space_group_name_H-M "P C A 21"
_symmetry_group_IT_number 29
_symmetry_cell_setting 'orthorhombic'
loop_
_space_group_symop_operation_xyz
x,y,z
-x,-y,1/2+z
1/2-x,y,1/2+z
1/2+x,-y,z
loop_
_atom_site_type_symbol
_atom_site_label
_atom_site_fract_x
_atom_site_fract_y
_atom_site_fract_z
Si Si1 0.001136 0.148071 0.470010
Si Si2 0.384577 0.344203 0.132319
Si Si3 0.025086 0.423610 0.078409
Si Si4 0.963679 0.287068 0.861082
Si Si5 0.617230 0.239049 0.742028
Si Si6 0.374303 0.903148 0.018826
O O1 0.065992 0.235338 0.562079
O O2 0.002924 0.205689 0.345060
O O3 0.811410 0.124326 0.490707
O O4 0.089833 0.030537 0.488216
O O5 0.209907 0.385896 0.092083
O O6 0.505261 0.445985 0.103046
O O7 0.401675 0.314936 0.266741
O O8 0.931088 0.350265 0.173222
O O9 0.956544 0.387423 0.953728
O O10 0.796303 0.262922 0.792854
O O11 0.987136 0.176950 0.940003
O O12 0.607868 0.137096 0.650450
#
# Coordination Sequence:
#
# PCOD9341198 Si02
#       6
#     4   4   4   4   4   4
#     4  11  26  42  72 102 141 185 235 290 354 420
#     4  12  27  45  72 104 140 188 239 295 362 423
#     4  11  28  44  73 104 141 186 242 294 361 434
#     4  10  24  48  70  98 145 186 240 294 354 425
#     4  10  23  47  72  99 143 190 235 291 356 415
#     4  10  24  44  69 105 138 189 233 292 351 419
#
# _framework density 20.955480999999999
#
# number of rings (size 3 to 8) (size 9 to 14) (size 15 to 20)
#    0.000    1.333    1.667    1.000   16.333    0.000 
#    0.000    0.000    0.000    0.000    0.000    0.000 
#    0.000    0.000    0.000    0.000    0.000    0.000 
#
# Total GULP energy -134180.697577 kJ/mol
# GULP energy per Si atom -5590.862399 kJ/mol
# Density = 2.090778 g / cm^3
# Si number density = 20.955481 Si / 1000 Ang^3
#
#
#
# Elastic Constant Matrix: (Units=GPa)
#
#
# Indices 1 2 3 4 5 6 
#
# 1 43.5799 16.1886 12.4283 0.0000 0.0000 0.0000
# 2 16.1886 89.1597 32.8785 0.0000 0.0000 0.0000
# 3 12.4283 32.8785 122.1976 0.0000 0.0000 0.0000
# 4 0.0000 0.0000 0.0000 10.3727 0.0000 0.0000
# 5 0.0000 0.0000 0.0000 0.0000 7.1478 0.0000
# 6 0.0000 0.0000 0.0000 0.0000 0.0000 42.5849
#
#
#
# Elastic Compliance Matrix: (Units=1/GPa)
#
#
# Indices 1 2 3 4 5 6 
#
# 1 0.024838 -0.003972 -0.001457 0.000000 0.000000 0.000000
# 2 -0.003972 0.013087 -0.003117 0.000000 0.000000 0.000000
# 3 -0.001457 -0.003117 0.009170 0.000000 0.000000 0.000000
# 4 0.000000 0.000000 0.000000 0.096407 0.000000 0.000000
# 5 0.000000 0.000000 0.000000 0.000000 0.139904 0.000000
# 6 0.000000 0.000000 0.000000 0.000000 0.000000 0.023483
#
#
# Mechanical properties :
#
#
# Convention : Reuss Voigt Hill
#
# Bulk Modulus (GPa) = 33.33218 41.99199 37.66209
# Shear Modulus (GPa) = 14.97091 24.91720 19.94405
#
# Velocity S-wave (km/s) = 2.67575 3.45201 3.08837
# Velocity P-wave (km/s) = 5.04846 5.99755 5.54336
#
# Compressibility (1/GPa) = 0.03000103
#
# Stress axis : x y z
#
# Youngs Moduli (GPa) = 40.26156 76.41454 109.04696
#
# Poissons Ratio (x) = 0.30354 0.15892
# Poissons Ratio (y) = 0.15993 0.33990
# Poissons Ratio (z) = 0.05868 0.23819
#
# Static dielectric constant tensor:
#      x y z
#    x 1.782890 0.000000 0.000000 
#    y 0.000000 1.711920 0.000000 
#    z 0.000000 0.000000 1.770940 
# 
# From -- ./inp_files/2831.got.cif
#   From: 2010.05.17/outbox.cif.g08.bks.cpg/sg29_2_cif.got.tgz:2831.got - 2010.06.04 01:19:37.
