data_PCOD9341165
_publ_section_title
;
Structure prediction by ZEFSAII (Michael W. Deem and Ramdas Pophale) SiO2 
 PCOD9341165
Probable space group: P C A 21
;
_chemical_formula_sum "Si O2"
_cell_formula_units_Z 20
_cell_length_a 8.542110
_cell_length_b 11.111140
_cell_length_c 8.330813
_cell_angle_alpha 90.000000
_cell_angle_beta 90.000000
_cell_angle_gamma 90.000000
_cell_volume 790.698956
_symmetry_space_group_name_H-M "P C A 21"
_symmetry_group_IT_number 29
_symmetry_cell_setting 'orthorhombic'
loop_
_space_group_symop_operation_xyz
x,y,z
-x,-y,1/2+z
1/2-x,y,1/2+z
1/2+x,-y,z
loop_
_atom_site_type_symbol
_atom_site_label
_atom_site_fract_x
_atom_site_fract_y
_atom_site_fract_z
Si Si1 0.763092 0.722017 0.262240
Si Si2 0.568191 0.591980 0.024836
Si Si3 0.569136 0.342148 0.840568
Si Si4 0.408122 0.040393 0.140549
Si Si5 0.808337 0.109741 0.443726
O O1 0.720365 0.614735 0.138652
O O2 0.902750 0.684538 0.379420
O O3 0.597461 0.728126 0.356381
O O4 0.796947 0.845177 0.172691
O O5 0.432312 0.622860 0.152011
O O6 0.563191 0.461188 0.947576
O O7 0.699557 0.248853 0.895136
O O8 0.389279 0.957763 0.295662
O O9 0.578049 0.090513 0.097036
O O10 0.348217 0.957134 0.995182
#
# Coordination Sequence:
#
# PCOD9341165 Si02
#       5
#     4   4   4   4   4
#     4  10  23  44  73 100 142 200 233 306 379 448
#     4  10  24  40  72  97 140 188 245 296 366 448
#     4  10  25  44  68 107 139 190 244 304 365 438
#     4  12  26  47  75 111 146 196 247 308 375 447
#     4  12  26  47  74 107 149 194 245 310 373 445
#
# _framework density 25.294076
#
# number of rings (size 3 to 8) (size 9 to 14) (size 15 to 20)
#    1.200    0.000    0.000    6.000    8.400    1.600 
#    0.000    0.000    0.000    0.000    0.000    0.000 
#    0.000    0.000    0.000    0.000    0.000    0.000 
#
# Total GULP energy -111882.324204 kJ/mol
# GULP energy per Si atom -5594.116210 kJ/mol
# Density = 2.523651 g / cm^3
# Si number density = 25.294076 Si / 1000 Ang^3
#
#
#
# Elastic Constant Matrix: (Units=GPa)
#
#
# Indices 1 2 3 4 5 6 
#
# 1 55.1070 34.5788 17.6557 0.0000 0.0000 0.0000
# 2 34.5788 157.8571 51.7190 0.0000 0.0000 0.0000
# 3 17.6557 51.7190 119.8481 0.0000 0.0000 0.0000
# 4 0.0000 0.0000 0.0000 49.0499 0.0000 0.0000
# 5 0.0000 0.0000 0.0000 0.0000 46.7439 0.0000
# 6 0.0000 0.0000 0.0000 0.0000 0.0000 16.6863
#
#
#
# Elastic Compliance Matrix: (Units=1/GPa)
#
#
# Indices 1 2 3 4 5 6 
#
# 1 0.021212 -0.004219 -0.001304 0.000000 0.000000 0.000000
# 2 -0.004219 0.008217 -0.002924 0.000000 0.000000 0.000000
# 3 -0.001304 -0.002924 0.009798 0.000000 0.000000 0.000000
# 4 0.000000 0.000000 0.000000 0.020387 0.000000 0.000000
# 5 0.000000 0.000000 0.000000 0.000000 0.021393 0.000000
# 6 0.000000 0.000000 0.000000 0.000000 0.000000 0.059929
#
#
# Mechanical properties :
#
#
# Convention : Reuss Voigt Hill
#
# Bulk Modulus (GPa) = 44.77984 60.07992 52.42988
# Shear Modulus (GPa) = 30.25236 37.75326 34.00281
#
# Velocity S-wave (km/s) = 3.46211 3.86757 3.67045
# Velocity P-wave (km/s) = 5.80722 6.61425 6.22383
#
# Compressibility (1/GPa) = 0.02233148
#
# Stress axis : x y z
#
# Youngs Moduli (GPa) = 47.14346 121.69570 102.06118
#
# Poissons Ratio (x) = 0.51346 0.13310
# Poissons Ratio (y) = 0.19891 0.29848
# Poissons Ratio (z) = 0.06148 0.35590
#
# Static dielectric constant tensor:
#      x y z
#    x 2.026390 0.000000 0.000000 
#    y 0.000000 1.946870 0.000000 
#    z 0.000000 0.000000 2.021570 
# 
# From -- ./inp_files/1078.got.cif
#   From: 2010.05.17/outbox.cif.g08.bks.cpg/sg29_1_cif.got.tgz:1078.got - 2010.06.04 01:19:37.
