data_PCOD9341003
_publ_section_title
;
Structure prediction by ZEFSAII (Michael W. Deem and Ramdas Pophale) SiO2 
 PCOD9341003
Probable space group: P C A 21
;
_chemical_formula_sum "Si O2"
_cell_formula_units_Z 28
_cell_length_a 23.721113
_cell_length_b 5.134351
_cell_length_c 7.980630
_cell_angle_alpha 90.000000
_cell_angle_beta 90.000000
_cell_angle_gamma 90.000000
_cell_volume 971.981041
_symmetry_space_group_name_H-M "P C A 21"
_symmetry_group_IT_number 29
_symmetry_cell_setting 'orthorhombic'
loop_
_space_group_symop_operation_xyz
x,y,z
-x,-y,1/2+z
1/2-x,y,1/2+z
1/2+x,-y,z
loop_
_atom_site_type_symbol
_atom_site_label
_atom_site_fract_x
_atom_site_fract_y
_atom_site_fract_z
Si Si1 0.558967 0.518818 0.984070
Si Si2 0.601425 0.136878 0.721601
Si Si3 0.668230 0.302482 0.385247
Si Si4 0.739573 0.552172 0.648292
Si Si5 0.611333 0.855381 0.381008
Si Si6 0.489357 0.842597 0.773697
Si Si7 0.826856 0.808681 0.437899
O O1 0.570850 0.380609 0.804995
O O2 0.503806 0.693488 0.946609
O O3 0.616778 0.675382 0.018675
O O4 0.542922 0.319938 0.131613
O O5 0.621625 0.083928 0.530799
O O6 0.551596 0.923110 0.720521
O O7 0.649316 0.073762 0.858551
O O8 0.712719 0.327008 0.537767
O O9 0.708288 0.442229 0.246663
O O10 0.654026 0.034471 0.276974
O O11 0.625220 0.559241 0.414253
O O12 0.768233 0.775516 0.534315
O O13 0.689671 0.655348 0.765538
O O14 0.548911 0.908540 0.317086
#
# Coordination Sequence:
#
# PCOD9341003 Si02
#       7
#     4   4   4   4   4   4   4
#     4  11  24  44  68 102 139 185 241 295 361 442
#     4  11  24  42  68  99 143 186 235 296 359 436
#     4  11  26  45  72 104 140 184 239 295 357 428
#     4  10  22  47  69  98 140 183 236 298 364 420
#     4  12  26  46  71 105 144 186 240 295 356 436
#     4  11  26  42  71 101 141 191 234 296 364 436
#     4  10  22  44  65 101 133 183 235 297 357 428
#
# _framework density 28.807148000000002
#
# number of rings (size 3 to 8) (size 9 to 14) (size 15 to 20)
#    0.000    1.143    1.429    3.429    8.000    2.286 
#   10.286    0.000    0.000    0.000    0.000    0.000 
#    0.000    0.000    0.000    0.000    0.000    0.000 
#
# Total GULP energy -156603.524860 kJ/mol
# GULP energy per Si atom -5592.983031 kJ/mol
# Density = 2.874158 g / cm^3
# Si number density = 28.807148 Si / 1000 Ang^3
#
#
#
# Elastic Constant Matrix: (Units=GPa)
#
#
# Indices 1 2 3 4 5 6 
#
# 1 147.7213 63.4979 40.1708 0.0000 0.0000 0.0000
# 2 63.4979 172.4753 26.6381 0.0000 0.0000 0.0000
# 3 40.1708 26.6381 76.2056 0.0000 0.0000 0.0000
# 4 0.0000 0.0000 0.0000 40.4008 0.0000 0.0000
# 5 0.0000 0.0000 0.0000 0.0000 55.9536 0.0000
# 6 0.0000 0.0000 0.0000 0.0000 0.0000 62.2445
#
#
#
# Elastic Compliance Matrix: (Units=1/GPa)
#
#
# Indices 1 2 3 4 5 6 
#
# 1 0.008964 -0.002717 -0.003776 0.000000 0.000000 0.000000
# 2 -0.002717 0.006952 -0.000998 0.000000 0.000000 0.000000
# 3 -0.003776 -0.000998 0.015461 0.000000 0.000000 0.000000
# 4 0.000000 0.000000 0.000000 0.024752 0.000000 0.000000
# 5 0.000000 0.000000 0.000000 0.000000 0.017872 0.000000
# 6 0.000000 0.000000 0.000000 0.000000 0.000000 0.016066
#
#
# Mechanical properties :
#
#
# Convention : Reuss Voigt Hill
#
# Bulk Modulus (GPa) = 60.98762 73.00175 66.99469
# Shear Modulus (GPa) = 45.24297 49.45950 47.35124
#
# Velocity S-wave (km/s) = 3.96731 4.14807 4.05870
# Velocity P-wave (km/s) = 6.49639 6.95259 6.72836
#
# Compressibility (1/GPa) = 0.01639677
#
# Stress axis : x y z
#
# Youngs Moduli (GPa) = 111.55536 143.83574 64.67689
#
# Poissons Ratio (x) = 0.39081 0.24419
# Poissons Ratio (y) = 0.30311 0.06455
# Poissons Ratio (z) = 0.42118 0.14354
#
# Static dielectric constant tensor:
#      x y z
#    x 2.241450 0.000000 0.000000 
#    y 0.000000 2.268980 0.000000 
#    z 0.000000 0.000000 2.540400 
# 
# From -- ./inp_files/2396.got.cif
#   From: 2010.05.17/outbox.cif.g08.bks.cpg/sg29_2_cif.got.tgz:2396.got - 2010.06.04 01:19:37.
