data_PCOD9341141
_publ_section_title
;
Structure prediction by ZEFSAII (Michael W. Deem and Ramdas Pophale) SiO2 
 PCOD9341141
Probable space group: P C A 21
;
_chemical_formula_sum "Si O2"
_cell_formula_units_Z 28
_cell_length_a 14.934380
_cell_length_b 10.342875
_cell_length_c 8.586194
_cell_angle_alpha 90.000000
_cell_angle_beta 90.000000
_cell_angle_gamma 90.000000
_cell_volume 1326.261524
_symmetry_space_group_name_H-M "P C A 21"
_symmetry_group_IT_number 29
_symmetry_cell_setting 'orthorhombic'
loop_
_space_group_symop_operation_xyz
x,y,z
-x,-y,1/2+z
1/2-x,y,1/2+z
1/2+x,-y,z
loop_
_atom_site_type_symbol
_atom_site_label
_atom_site_fract_x
_atom_site_fract_y
_atom_site_fract_z
Si Si1 0.868674 0.289594 0.313450
Si Si2 0.994544 0.280914 0.776840
Si Si3 0.643497 0.523651 0.274559
Si Si4 0.767195 0.163191 0.584271
Si Si5 0.544523 0.770943 0.415476
Si Si6 0.652838 0.557599 0.902318
Si Si7 0.374663 0.954562 0.852533
O O1 0.826263 0.256329 0.479580
O O2 0.794006 0.252477 0.191935
O O3 0.895617 0.437823 0.316046
O O4 0.958244 0.208138 0.304627
O O5 0.916392 0.392187 0.799643
O O6 0.955161 0.149801 0.852346
O O7 0.013845 0.255149 0.593493
O O8 0.089945 0.323302 0.850855
O O9 0.594477 0.643994 0.355728
O O10 0.744672 0.534688 0.344686
O O11 0.649407 0.545550 0.088582
O O12 0.700654 0.087348 0.474033
O O13 0.828437 0.068033 0.684810
O O14 0.599588 0.901060 0.394974
#
# Coordination Sequence:
#
# PCOD9341141 Si02
#       7
#     4   4   4   4   4   4   4
#     4  11  21  43  70 103 138 183 236 286 352 426
#     4  12  25  47  71 105 140 188 238 291 357 425
#     4  12  25  47  69 105 139 183 236 294 355 425
#     4  10  23  43  71 102 138 189 232 286 354 428
#     4  12  27  45  69 104 144 181 233 297 356 423
#     4  12  25  42  74  99 141 183 234 297 353 413
#     4  11  26  45  72 102 142 181 237 289 351 428
#
# _framework density 21.111975000000001
#
# number of rings (size 3 to 8) (size 9 to 14) (size 15 to 20)
#    0.000    0.571    4.286    3.429    4.000    3.429 
#    2.571    0.000    0.000    0.000    0.000    0.000 
#    0.000    0.000    0.000    0.000    0.000    0.000 
#
# Total GULP energy -156407.287797 kJ/mol
# GULP energy per Si atom -5585.974564 kJ/mol
# Density = 2.106392 g / cm^3
# Si number density = 21.111975 Si / 1000 Ang^3
#
#
#
# Elastic Constant Matrix: (Units=GPa)
#
#
# Indices 1 2 3 4 5 6 
#
# 1 71.2462 12.8781 1.6792 0.0000 0.0000 0.0000
# 2 12.8781 100.5195 6.4183 0.0000 0.0000 0.0000
# 3 1.6792 6.4183 30.6445 0.0000 0.0000 0.0000
# 4 0.0000 0.0000 0.0000 11.4975 0.0000 0.0000
# 5 0.0000 0.0000 0.0000 0.0000 126.7898 0.0000
# 6 0.0000 0.0000 0.0000 0.0000 0.0000 25.2302
#
#
#
# Elastic Compliance Matrix: (Units=1/GPa)
#
#
# Indices 1 2 3 4 5 6 
#
# 1 0.014374 -0.001815 -0.000407 0.000000 0.000000 0.000000
# 2 -0.001815 0.010312 -0.002060 0.000000 0.000000 0.000000
# 3 -0.000407 -0.002060 0.033086 0.000000 0.000000 0.000000
# 4 0.000000 0.000000 0.000000 0.086975 0.000000 0.000000
# 5 0.000000 0.000000 0.000000 0.000000 0.007887 0.000000
# 6 0.000000 0.000000 0.000000 0.000000 0.000000 0.039635
#
#
# Mechanical properties :
#
#
# Convention : Reuss Voigt Hill
#
# Bulk Modulus (GPa) = 20.32285 27.15128 23.73706
# Shear Modulus (GPa) = 23.01621 44.79914 33.90767
#
# Velocity S-wave (km/s) = 3.30539 4.61149 4.01195
# Velocity P-wave (km/s) = 4.92084 6.42207 5.72091
#
# Compressibility (1/GPa) = 0.04920571
#
# Stress axis : x y z
#
# Youngs Moduli (GPa) = 69.57208 96.97002 30.22410
#
# Poissons Ratio (x) = 0.17605 0.01231
# Poissons Ratio (y) = 0.12631 0.06227
# Poissons Ratio (z) = 0.02834 0.19980
#
# Static dielectric constant tensor:
#      x y z
#    x 1.808780 0.000000 0.000000 
#    y 0.000000 1.740900 0.000000 
#    z 0.000000 0.000000 1.757980 
# 
# From -- ./inp_files/1773.got.cif
#   From: 2010.05.17/outbox.cif.g08.bks.cpg/sg29_1_cif.got.tgz:1773.got - 2010.06.04 01:19:37.
