data_PCOD9341814
_publ_section_title
;
Structure prediction by ZEFSAII (Michael W. Deem and Ramdas Pophale) SiO2 
 PCOD9341814
Probable space group: P N C 2
;
_chemical_formula_sum "Si O2"
_cell_formula_units_Z 24
_cell_length_a 7.052205
_cell_length_b 5.330501
_cell_length_c 27.607207
_cell_angle_alpha 90.000000
_cell_angle_beta 90.000000
_cell_angle_gamma 90.000000
_cell_volume 1037.804212
_symmetry_space_group_name_H-M "P N C 2"
_symmetry_group_IT_number 30
_symmetry_cell_setting 'orthorhombic'
loop_
_space_group_symop_operation_xyz
x,y,z
-x,-y,z
-x,1/2+y,1/2+z
x,1/2-y,1/2+z
loop_
_atom_site_type_symbol
_atom_site_label
_atom_site_fract_x
_atom_site_fract_y
_atom_site_fract_z
Si Si1 0.729667 0.754913 0.560920
Si Si2 0.370779 0.247888 0.667027
Si Si3 0.782558 0.945951 0.370196
Si Si4 0.296835 0.742771 0.519615
Si Si5 0.771409 0.053053 0.913120
Si Si6 0.370469 0.250849 0.773474
O O1 0.749976 0.775622 0.618405
O O2 0.505887 0.750237 0.544269
O O3 0.803181 0.488719 0.544855
O O4 0.797384 0.994372 0.531625
O O5 0.500000 0.500000 0.662629
O O6 0.276123 0.245449 0.720108
O O7 0.500000 0.000000 0.666622
O O8 0.697042 0.730674 0.405020
O O9 0.767043 0.809265 0.318271
O O10 0.709034 0.232871 0.374028
O O11 0.000000 0.000000 0.383065
O O12 0.293420 0.674007 0.463420
O O13 0.000000 0.000000 0.912700
O O14 0.500000 0.500000 0.772958
O O15 0.500000 0.000000 0.778972
#
# Coordination Sequence:
#
# PCOD9341814 Si02
#       6
#     4   4   4   4   4   4
#     4  10  17  30  48  77 105 135 163 215 277 327
#     4  10  16  30  51  74 107 136 169 205 278 342
#     4  10  21  40  57  75 109 154 188 222 283 344
#     4  10  18  30  48  75 101 133 180 210 262 321
#     4  10  21  37  55  73 103 149 190 223 264 326
#     4  10  21  35  55  86 111 138 180 239 284 325
#
# _framework density 23.125751000000001
#
# number of rings (size 3 to 8) (size 9 to 14) (size 15 to 20)
#    0.000    2.000    3.333    2.000    0.000    0.000 
#   18.000    0.000    0.000    1.000    0.000    2.333 
#    0.000    0.000    0.000    0.000    0.000    0.000 
#
# Total GULP energy -133783.456343 kJ/mol
# GULP energy per Si atom -5574.310681 kJ/mol
# Density = 2.307312 g / cm^3
# Si number density = 23.125751 Si / 1000 Ang^3
#
#
#
# Elastic Constant Matrix: (Units=GPa)
#
#
# Indices 1 2 3 4 5 6 
#
# 1 71.6170 20.6011 -8.4369 0.0000 0.0000 0.0000
# 2 20.6011 212.2965 53.2729 0.0000 0.0000 0.0000
# 3 -8.4369 53.2729 153.1650 0.0000 0.0000 0.0000
# 4 0.0000 0.0000 0.0000 41.4518 0.0000 0.0000
# 5 0.0000 0.0000 0.0000 0.0000 -29.5042 0.0000
# 6 0.0000 0.0000 0.0000 0.0000 0.0000 -14.4479
#
#
#
# Elastic Compliance Matrix: (Units=1/GPa)
#
#
# Indices 1 2 3 4 5 6 
#
# 1 0.014643 -0.001779 0.001425 0.000000 0.000000 0.000000
# 2 -0.001779 0.005377 -0.001968 0.000000 0.000000 0.000000
# 3 0.001425 -0.001968 0.007292 0.000000 0.000000 0.000000
# 4 0.000000 0.000000 0.000000 0.024124 0.000000 0.000000
# 5 0.000000 0.000000 0.000000 0.000000 -0.033893 0.000000
# 6 0.000000 0.000000 0.000000 0.000000 0.000000 -0.069214
#
#
# Mechanical properties :
#
#
# Convention : Reuss Voigt Hill
#
# Bulk Modulus (GPa) = 44.11405 63.10586 53.60996
# Shear Modulus (GPa) = -126.67012 24.27603 -51.19705
#
# Velocity S-wave (km/s) = -7.40901 3.24348 -4.71027
# Velocity P-wave (km/s) = 7.35351 6.43229 2.51990
#
# Compressibility (1/GPa) = 0.02266851
#
# Stress axis : x y z
#
# Youngs Moduli (GPa) = 68.29354 185.98233 137.13759
#
# Poissons Ratio (x) = 0.33078 -0.19545
# Poissons Ratio (y) = 0.12146 0.26990
# Poissons Ratio (z) = -0.09733 0.36603
#
# Static dielectric constant tensor:
#      x y z
#    x 1.844750 0.000000 0.000000 
#    y 0.000000 1.884050 0.000000 
#    z 0.000000 0.000000 1.927970 
# 
# From -- ./inp_files/7322.got.cif
#   From: 2010.05.17/outbox.cif.g08.bks.cpg/sg30_4_cif.got.tgz:7322.got - 2010.06.03 17:03:02.
