data_PCOD9341523
_publ_section_title
;
Structure prediction by ZEFSAII (Michael W. Deem and Ramdas Pophale) SiO2 
 PCOD9341523
Probable space group: P C A 21
;
_chemical_formula_sum "Si O2"
_cell_formula_units_Z 28
_cell_length_a 11.034312
_cell_length_b 10.915697
_cell_length_c 9.369082
_cell_angle_alpha 90.000000
_cell_angle_beta 90.000000
_cell_angle_gamma 90.000000
_cell_volume 1128.479753
_symmetry_space_group_name_H-M "P C A 21"
_symmetry_group_IT_number 29
_symmetry_cell_setting 'orthorhombic'
loop_
_space_group_symop_operation_xyz
x,y,z
-x,-y,1/2+z
1/2-x,y,1/2+z
1/2+x,-y,z
loop_
_atom_site_type_symbol
_atom_site_label
_atom_site_fract_x
_atom_site_fract_y
_atom_site_fract_z
Si Si1 0.368527 0.338391 0.497700
Si Si2 0.460006 0.841815 0.179024
Si Si3 0.123917 0.959839 0.276580
Si Si4 0.282808 0.023855 0.039865
Si Si5 0.260210 0.705045 0.828415
Si Si6 0.616428 0.399161 0.083822
Si Si7 0.864939 0.717442 0.159741
O O1 0.441366 0.238948 0.593555
O O2 0.424768 0.472649 0.516233
O O3 0.238080 0.355290 0.572887
O O4 0.360022 0.301792 0.331143
O O5 0.363796 0.754946 0.257379
O O6 0.513859 0.944713 0.287114
O O7 0.385032 0.922809 0.067832
O O8 0.143348 0.817020 0.311558
O O9 0.162318 0.975573 0.112611
O O10 0.227284 0.027134 0.370941
O O11 0.331937 0.145966 0.110259
O O12 0.320461 0.595449 0.739217
O O13 0.217832 0.664013 0.983687
O O14 0.495949 0.319324 0.101679
#
# Coordination Sequence:
#
# PCOD9341523 Si02
#       7
#     4   4   4   4   4   4   4
#     4  12  30  49  77 110 155 202 274 322 396 468
#     4  11  26  43  76 107 154 194 252 323 386 468
#     4  11  23  44  70 109 149 190 242 316 388 468
#     4  11  24  42  72 104 146 190 248 308 392 463
#     4  11  26  49  75 118 153 206 261 318 393 474
#     4  12  29  49  81 108 158 206 268 321 395 467
#     4  12  28  52  77 110 151 206 259 326 400 472
#
# _framework density 24.812144
#
# number of rings (size 3 to 8) (size 9 to 14) (size 15 to 20)
#    0.000    0.571    1.429    5.143   12.000    1.143 
#    0.000    0.000    0.000    0.000    0.000    0.000 
#    0.000    0.000    0.000    0.000    0.000    0.000 
#
# Total GULP energy -156560.239250 kJ/mol
# GULP energy per Si atom -5591.437116 kJ/mol
# Density = 2.475567 g / cm^3
# Si number density = 24.812144 Si / 1000 Ang^3
#
#
#
# Elastic Constant Matrix: (Units=GPa)
#
#
# Indices 1 2 3 4 5 6 
#
# 1 55.4943 -0.5733 -7.7476 0.0000 0.0000 0.0000
# 2 -0.5733 97.8985 7.1273 0.0000 0.0000 0.0000
# 3 -7.7476 7.1273 73.7419 0.0000 0.0000 0.0000
# 4 0.0000 0.0000 0.0000 37.6874 0.0000 0.0000
# 5 0.0000 0.0000 0.0000 0.0000 33.0636 0.0000
# 6 0.0000 0.0000 0.0000 0.0000 0.0000 29.3545
#
#
#
# Elastic Compliance Matrix: (Units=1/GPa)
#
#
# Indices 1 2 3 4 5 6 
#
# 1 0.018288 -0.000033 0.001925 0.000000 0.000000 0.000000
# 2 -0.000033 0.010287 -0.000998 0.000000 0.000000 0.000000
# 3 0.001925 -0.000998 0.013859 0.000000 0.000000 0.000000
# 4 0.000000 0.000000 0.000000 0.026534 0.000000 0.000000
# 5 0.000000 0.000000 0.000000 0.000000 0.030245 0.000000
# 6 0.000000 0.000000 0.000000 0.000000 0.000000 0.034066
#
#
# Mechanical properties :
#
#
# Convention : Reuss Voigt Hill
#
# Bulk Modulus (GPa) = 22.61293 24.97195 23.79244
# Shear Modulus (GPa) = 34.19202 35.24300 34.71751
#
# Velocity S-wave (km/s) = 3.71622 3.77290 3.74467
# Velocity P-wave (km/s) = 5.24854 5.39128 5.32039
#
# Compressibility (1/GPa) = 0.04422249
#
# Stress axis : x y z
#
# Youngs Moduli (GPa) = 54.68003 97.20903 72.15293
#
# Poissons Ratio (x) = 0.00321 -0.13887
# Poissons Ratio (y) = 0.00181 0.07199
# Poissons Ratio (z) = -0.10524 0.09699
#
# Static dielectric constant tensor:
#      x y z
#    x 2.008140 0.000000 0.000000 
#    y 0.000000 2.029400 0.000000 
#    z 0.000000 0.000000 2.063220 
# 
# From -- ./inp_files/1486.got.cif
#   From: 2010.05.17/outbox.cif.g08.bks.cpg/sg29_1_cif.got.tgz:1486.got - 2010.06.04 01:19:37.
