data_PCOD9341718
_publ_section_title
;
Structure prediction by ZEFSAII (Michael W. Deem and Ramdas Pophale) SiO2 
 PCOD9341718
Probable space group: P C A 21
;
_chemical_formula_sum "Si O2"
_cell_formula_units_Z 28
_cell_length_a 24.735124
_cell_length_b 7.038033
_cell_length_c 6.741418
_cell_angle_alpha 90.000000
_cell_angle_beta 90.000000
_cell_angle_gamma 90.000000
_cell_volume 1173.590667
_symmetry_space_group_name_H-M "P C A 21"
_symmetry_group_IT_number 29
_symmetry_cell_setting 'orthorhombic'
loop_
_space_group_symop_operation_xyz
x,y,z
-x,-y,1/2+z
1/2-x,y,1/2+z
1/2+x,-y,z
loop_
_atom_site_type_symbol
_atom_site_label
_atom_site_fract_x
_atom_site_fract_y
_atom_site_fract_z
Si Si1 0.450055 0.173990 0.993020
Si Si2 0.067428 0.865488 0.163959
Si Si3 0.379025 0.528768 0.898646
Si Si4 0.813646 0.694009 0.566475
Si Si5 0.737438 0.360093 0.463802
Si Si6 0.247223 0.937305 0.699778
Si Si7 0.372064 0.029713 0.310821
O O1 0.419145 0.375012 0.992550
O O2 0.442348 0.060554 0.786346
O O3 0.512223 0.191729 0.054696
O O4 0.420914 0.047520 0.160578
O O5 0.087755 0.706545 0.315422
O O6 0.112533 0.895278 0.994653
O O7 0.349603 0.419834 0.720189
O O8 0.325973 0.601555 0.013512
O O9 0.770270 0.559493 0.458287
O O10 0.785143 0.874265 0.676196
O O11 0.856352 0.770709 0.407689
O O12 0.739320 0.307272 0.206218
O O13 0.748008 0.115334 0.449894
O O14 0.182979 0.976995 0.704996
#
# Coordination Sequence:
#
# PCOD9341718 Si02
#       7
#     4   4   4   4   4   4   4
#     4  12  28  50  79 106 146 202 257 327 387 456
#     4  12  27  55  74 110 148 198 262 325 386 461
#     4  12  27  45  75 109 153 189 256 312 380 453
#     4  12  25  45  71 109 158 193 245 309 370 463
#     4  12  25  43  68 109 149 197 244 299 372 464
#     4  12  25  43  69 106 150 199 245 298 369 461
#     4  12  25  47  80 103 152 202 243 308 388 440
#
# _framework density 23.858404
#
# number of rings (size 3 to 8) (size 9 to 14) (size 15 to 20)
#    0.000    0.000    5.714    4.286    4.000    2.286 
#    5.143    0.000    0.000    0.000    0.000    0.000 
#    0.000    0.000    0.000    0.000    0.000    0.000 
#
# Total GULP energy -156555.474962 kJ/mol
# GULP energy per Si atom -5591.266963 kJ/mol
# Density = 2.380410 g / cm^3
# Si number density = 23.858404 Si / 1000 Ang^3
#
#
#
# Elastic Constant Matrix: (Units=GPa)
#
#
# Indices 1 2 3 4 5 6 
#
# 1 113.3844 25.7798 11.0818 0.0000 0.0000 0.0000
# 2 25.7798 80.0669 26.7954 0.0000 0.0000 0.0000
# 3 11.0818 26.7954 108.3267 0.0000 0.0000 0.0000
# 4 0.0000 0.0000 0.0000 68.7818 0.0000 0.0000
# 5 0.0000 0.0000 0.0000 0.0000 44.4325 0.0000
# 6 0.0000 0.0000 0.0000 0.0000 0.0000 34.6369
#
#
#
# Elastic Compliance Matrix: (Units=1/GPa)
#
#
# Indices 1 2 3 4 5 6 
#
# 1 0.009522 -0.002987 -0.000235 0.000000 0.000000 0.000000
# 2 -0.002987 0.014554 -0.003294 0.000000 0.000000 0.000000
# 3 -0.000235 -0.003294 0.010070 0.000000 0.000000 0.000000
# 4 0.000000 0.000000 0.000000 0.014539 0.000000 0.000000
# 5 0.000000 0.000000 0.000000 0.000000 0.022506 0.000000
# 6 0.000000 0.000000 0.000000 0.000000 0.000000 0.028871
#
#
# Mechanical properties :
#
#
# Convention : Reuss Voigt Hill
#
# Bulk Modulus (GPa) = 47.36539 47.67690 47.52115
# Shear Modulus (GPa) = 41.62074 45.44497 43.53285
#
# Velocity S-wave (km/s) = 4.18124 4.36911 4.27621
# Velocity P-wave (km/s) = 6.57314 6.74380 6.65902
#
# Compressibility (1/GPa) = 0.02111246
#
# Stress axis : x y z
#
# Youngs Moduli (GPa) = 105.02328 68.71038 99.30195
#
# Poissons Ratio (x) = 0.20524 0.02336
# Poissons Ratio (y) = 0.31371 0.32714
# Poissons Ratio (z) = 0.02470 0.22636
#
# Static dielectric constant tensor:
#      x y z
#    x 1.795050 0.000000 0.000000 
#    y 0.000000 1.950060 0.000000 
#    z 0.000000 0.000000 2.048680 
# 
# From -- ./inp_files/2543.got.cif
#   From: 2010.05.17/outbox.cif.g08.bks.cpg/sg29_2_cif.got.tgz:2543.got - 2010.06.04 01:19:37.
