data_PCOD9341119
_publ_section_title
;
Structure prediction by ZEFSAII (Michael W. Deem and Ramdas Pophale) SiO2 
 PCOD9341119
Probable space group: P C A 21
;
_chemical_formula_sum "Si O2"
_cell_formula_units_Z 32
_cell_length_a 22.000353
_cell_length_b 5.453852
_cell_length_c 12.568557
_cell_angle_alpha 90.000000
_cell_angle_beta 90.000000
_cell_angle_gamma 90.000000
_cell_volume 1508.059291
_symmetry_space_group_name_H-M "P C A 21"
_symmetry_group_IT_number 29
_symmetry_cell_setting 'orthorhombic'
loop_
_space_group_symop_operation_xyz
x,y,z
-x,-y,1/2+z
1/2-x,y,1/2+z
1/2+x,-y,z
loop_
_atom_site_type_symbol
_atom_site_label
_atom_site_fract_x
_atom_site_fract_y
_atom_site_fract_z
Si Si1 0.140964 0.898462 0.427110
Si Si2 0.827784 0.879256 0.700238
Si Si3 0.471139 0.585959 0.391512
Si Si4 0.089489 0.494288 0.283875
Si Si5 0.310198 0.016006 0.144557
Si Si6 0.029868 0.781712 0.541931
Si Si7 0.436411 0.862800 0.606109
Si Si8 0.881569 0.478275 0.197091
O O1 0.125339 0.627234 0.380906
O O2 0.079255 0.961683 0.490151
O O3 0.156751 0.038768 0.320620
O O4 0.189649 0.952351 0.518250
O O5 0.859236 0.614674 0.705486
O O6 0.757568 0.914985 0.679507
O O7 0.868547 0.034335 0.618887
O O8 0.534387 0.663015 0.333613
O O9 0.490496 0.334071 0.448739
O O10 0.449444 0.751247 0.490344
O O11 0.418358 0.538678 0.306929
O O12 0.055478 0.684135 0.206086
O O13 0.350283 0.258103 0.174676
O O14 0.336299 0.759905 0.193228
O O15 0.069293 0.580797 0.604587
O O16 0.984758 0.920434 0.619059
#
# Coordination Sequence:
#
# PCOD9341119 Si02
#       8
#     4   4   4   4   4   4   4   4
#     4   9  23  43  73  96 137 184 237 282 365 417
#     4  11  24  45  69  99 139 189 246 288 354 422
#     4  11  23  39  72 103 144 178 230 303 381 413
#     4  10  23  43  70 107 136 188 239 301 360 451
#     4  11  28  48  71 100 144 194 240 298 338 434
#     4  10  23  42  70 102 139 182 230 298 368 436
#     4  11  23  40  67 103 143 177 238 300 364 433
#     4  11  27  46  70 106 146 186 246 292 364 428
#
# _framework density 21.219324
#
# number of rings (size 3 to 8) (size 9 to 14) (size 15 to 20)
#    0.000    1.500    0.000    3.000   17.500    2.000 
#    2.250    0.000    0.000    0.000    0.000    0.000 
#    0.000    0.000    0.000    0.000    0.000    0.000 
#
# Total GULP energy -178482.864102 kJ/mol
# GULP energy per Si atom -5577.589503 kJ/mol
# Density = 2.117103 g / cm^3
# Si number density = 21.219324 Si / 1000 Ang^3
#
#
#
# Elastic Constant Matrix: (Units=GPa)
#
#
# Indices 1 2 3 4 5 6 
#
# 1 126.9896 50.3379 53.0552 0.0000 0.0000 0.0000
# 2 50.3379 80.2259 37.4867 0.0000 0.0000 0.0000
# 3 53.0552 37.4867 114.3949 0.0000 0.0000 0.0000
# 4 0.0000 0.0000 0.0000 33.1972 0.0000 0.0000
# 5 0.0000 0.0000 0.0000 0.0000 18.7486 0.0000
# 6 0.0000 0.0000 0.0000 0.0000 0.0000 22.5045
#
#
#
# Elastic Compliance Matrix: (Units=1/GPa)
#
#
# Indices 1 2 3 4 5 6 
#
# 1 0.011574 -0.005613 -0.003528 0.000000 0.000000 0.000000
# 2 -0.005613 0.017441 -0.003112 0.000000 0.000000 0.000000
# 3 -0.003528 -0.003112 0.011398 0.000000 0.000000 0.000000
# 4 0.000000 0.000000 0.000000 0.030123 0.000000 0.000000
# 5 0.000000 0.000000 0.000000 0.000000 0.053337 0.000000
# 6 0.000000 0.000000 0.000000 0.000000 0.000000 0.044435
#
#
# Mechanical properties :
#
#
# Convention : Reuss Voigt Hill
#
# Bulk Modulus (GPa) = 62.87170 67.04109 64.95640
# Shear Modulus (GPa) = 25.23751 26.93878 26.08815
#
# Velocity S-wave (km/s) = 3.45246 3.56693 3.51016
# Velocity P-wave (km/s) = 6.75177 6.97330 6.86343
#
# Compressibility (1/GPa) = 0.01590541
#
# Stress axis : x y z
#
# Youngs Moduli (GPa) = 86.40136 57.33618 87.73605
#
# Poissons Ratio (x) = 0.32185 0.30957
# Poissons Ratio (y) = 0.48500 0.27303
# Poissons Ratio (z) = 0.30486 0.17842
#
# Static dielectric constant tensor:
#      x y z
#    x 1.758170 0.000000 0.000000 
#    y 0.000000 1.911380 0.000000 
#    z 0.000000 0.000000 1.759430 
# 
# From -- ./inp_files/3822.got.cif
#   From: 2010.05.17/outbox.cif.g08.bks.cpg/sg29_2_cif.got.tgz:3822.got - 2010.06.04 01:19:37.
