data_PCOD9341657
_publ_section_title
;
Structure prediction by ZEFSAII (Michael W. Deem and Ramdas Pophale) SiO2 
 PCOD9341657
Probable space group: P C A 21
;
_chemical_formula_sum "Si O2"
_cell_formula_units_Z 16
_cell_length_a 10.458577
_cell_length_b 5.138623
_cell_length_c 13.261215
_cell_angle_alpha 90.000000
_cell_angle_beta 90.000000
_cell_angle_gamma 90.000000
_cell_volume 712.693291
_symmetry_space_group_name_H-M "P C A 21"
_symmetry_group_IT_number 29
_symmetry_cell_setting 'orthorhombic'
loop_
_space_group_symop_operation_xyz
x,y,z
-x,-y,1/2+z
1/2-x,y,1/2+z
1/2+x,-y,z
loop_
_atom_site_type_symbol
_atom_site_label
_atom_site_fract_x
_atom_site_fract_y
_atom_site_fract_z
Si Si1 0.084522 0.520013 0.566460
Si Si2 0.733652 0.875074 0.112102
Si Si3 0.459988 0.977421 0.461026
Si Si4 0.974587 0.128558 0.225953
O O1 0.230328 0.424572 0.584855
O O2 0.039330 0.767154 0.499092
O O3 0.037407 0.579009 0.680626
O O4 0.020943 0.275766 0.512006
O O5 0.615637 0.936072 0.185839
O O6 0.857104 0.991346 0.167514
O O7 0.682294 0.987669 0.006242
O O8 0.461985 0.930788 0.342492
#
# Coordination Sequence:
#
# PCOD9341657 Si02
#       4
#     4   4   4   4
#     4  11  25  50  74 112 159 196 264 325 372 474
#     4  11  25  51  75 116 159 202 262 332 373 481
#     4  11  28  49  80 115 157 214 253 322 402 462
#     4  11  28  48  81 113 161 208 263 319 401 465
#
# _framework density 22.450050999999998
#
# number of rings (size 3 to 8) (size 9 to 14) (size 15 to 20)
#    0.000    1.000    5.000    0.000   14.000    0.000 
#    4.500    0.000    0.000    0.000    0.000    0.000 
#    0.000    0.000    0.000    0.000    0.000    0.000 
#
# Total GULP energy -89133.971859 kJ/mol
# GULP energy per Si atom -5570.873241 kJ/mol
# Density = 2.239895 g / cm^3
# Si number density = 22.450051 Si / 1000 Ang^3
#
#
#
# Elastic Constant Matrix: (Units=GPa)
#
#
# Indices 1 2 3 4 5 6 
#
# 1 167.4468 65.2962 84.8130 0.0000 0.0000 0.0000
# 2 65.2962 152.7776 78.3874 0.0000 0.0000 0.0000
# 3 84.8130 78.3874 228.1235 0.0000 0.0000 0.0000
# 4 0.0000 0.0000 0.0000 25.1637 0.0000 0.0000
# 5 0.0000 0.0000 0.0000 0.0000 20.6838 0.0000
# 6 0.0000 0.0000 0.0000 0.0000 0.0000 47.9207
#
#
#
# Elastic Compliance Matrix: (Units=1/GPa)
#
#
# Indices 1 2 3 4 5 6 
#
# 1 0.007966 -0.002289 -0.002175 0.000000 0.000000 0.000000
# 2 -0.002289 0.008604 -0.002106 0.000000 0.000000 0.000000
# 3 -0.002175 -0.002106 0.005916 0.000000 0.000000 0.000000
# 4 0.000000 0.000000 0.000000 0.039740 0.000000 0.000000
# 5 0.000000 0.000000 0.000000 0.000000 0.048347 0.000000
# 6 0.000000 0.000000 0.000000 0.000000 0.000000 0.020868
#
#
# Mechanical properties :
#
#
# Convention : Reuss Voigt Hill
#
# Bulk Modulus (GPa) = 106.98611 111.70455 109.34533
# Shear Modulus (GPa) = 33.85343 40.07707 36.96525
#
# Velocity S-wave (km/s) = 3.88744 4.22971 4.06218
# Velocity P-wave (km/s) = 8.24064 8.58597 8.41508
#
# Compressibility (1/GPa) = 0.00934701
#
# Stress axis : x y z
#
# Youngs Moduli (GPa) = 125.52825 116.22564 169.03673
#
# Poissons Ratio (x) = 0.26600 0.36771
# Poissons Ratio (y) = 0.28729 0.35592
# Poissons Ratio (z) = 0.27307 0.24472
#
# Static dielectric constant tensor:
#      x y z
#    x 1.911660 0.000000 0.000000 
#    y 0.000000 1.981030 0.000000 
#    z 0.000000 0.000000 1.793280 
# 
# From -- ./inp_files/2988.got.cif
#   From: 2010.05.17/outbox.cif.g08.bks.cpg/sg29_2_cif.got.tgz:2988.got - 2010.06.04 01:19:37.
