data_PCOD9341801
_publ_section_title
;
Structure prediction by ZEFSAII (Michael W. Deem and Ramdas Pophale) SiO2 
 PCOD9341801
Probable space group: P N C 2
;
_chemical_formula_sum "Si O2"
_cell_formula_units_Z 24
_cell_length_a 28.035540
_cell_length_b 7.232351
_cell_length_c 5.476481
_cell_angle_alpha 90.000000
_cell_angle_beta 90.000000
_cell_angle_gamma 90.000000
_cell_volume 1110.426982
_symmetry_space_group_name_H-M "P N C 2"
_symmetry_group_IT_number 30
_symmetry_cell_setting 'orthorhombic'
loop_
_space_group_symop_operation_xyz
x,y,z
-x,-y,z
-x,1/2+y,1/2+z
x,1/2-y,1/2+z
loop_
_atom_site_type_symbol
_atom_site_label
_atom_site_fract_x
_atom_site_fract_y
_atom_site_fract_z
Si Si1 0.246135 0.977688 0.910480
Si Si2 0.095043 0.947932 0.402037
Si Si3 0.651011 0.371416 0.382244
Si Si4 0.792247 0.055227 0.410216
Si Si5 0.056158 0.970380 0.902003
Si Si6 0.454712 0.631765 0.378926
O O1 0.302709 0.000241 0.885033
O O2 0.219587 0.039753 0.666392
O O3 0.233755 0.755863 0.919830
O O4 0.227262 0.044622 0.170208
O O5 0.151414 0.915817 0.385097
O O6 0.081621 0.040649 0.657512
O O7 0.069187 0.748026 0.409952
O O8 0.076044 0.043866 0.158285
O O9 0.654309 0.250107 0.632549
O O10 0.598181 0.459032 0.381481
O O11 0.000000 0.000000 0.885096
O O12 0.500000 0.500000 0.381625
O O13 0.456853 0.752597 0.626815
#
# Coordination Sequence:
#
# PCOD9341801 Si02
#       6
#     4   4   4   4   4   4
#     4  10  14  22  36  59  83 120 142 170 227 294
#     4  10  19  30  40  62  86 116 141 179 232 279
#     4  10  16  27  41  66  97 131 161 197 244 297
#     4  10  16  23  39  56  89 118 134 172 235 300
#     4  10  18  29  43  56  79 115 143 176 210 264
#     4  10  21  35  55  77 110 154 190 234 280 328
#
# _framework density 21.613306999999999
#
# number of rings (size 3 to 8) (size 9 to 14) (size 15 to 20)
#    0.000    2.000    3.333    6.000    0.000    0.000 
#    0.000    0.000    0.000    0.000    0.000    0.000 
#    0.000    0.000  192.667    0.667    0.000    0.000 
#
# Total GULP energy -133921.615396 kJ/mol
# GULP energy per Si atom -5580.067308 kJ/mol
# Density = 2.156411 g / cm^3
# Si number density = 21.613307 Si / 1000 Ang^3
#
#
#
# Elastic Constant Matrix: (Units=GPa)
#
#
# Indices 1 2 3 4 5 6 
#
# 1 154.6134 -9.8979 -24.8928 0.0000 0.0000 0.0000
# 2 -9.8979 47.1796 -23.7762 0.0000 0.0000 0.0000
# 3 -24.8928 -23.7762 155.1529 0.0000 0.0000 0.0000
# 4 0.0000 0.0000 0.0000 -13.2046 0.0000 0.0000
# 5 0.0000 0.0000 0.0000 0.0000 42.4431 0.0000
# 6 0.0000 0.0000 0.0000 0.0000 0.0000 2.6686
#
#
#
# Elastic Compliance Matrix: (Units=1/GPa)
#
#
# Indices 1 2 3 4 5 6 
#
# 1 0.006835 0.002153 0.001427 0.000000 0.000000 0.000000
# 2 0.002153 0.023648 0.003969 0.000000 0.000000 0.000000
# 3 0.001427 0.003969 0.007282 0.000000 0.000000 0.000000
# 4 0.000000 0.000000 0.000000 -0.075731 0.000000 0.000000
# 5 0.000000 0.000000 0.000000 0.000000 0.023561 0.000000
# 6 0.000000 0.000000 0.000000 0.000000 0.000000 0.374732
#
#
# Mechanical properties :
#
#
# Convention : Reuss Voigt Hill
#
# Bulk Modulus (GPa) = 18.91697 26.64581 22.78139
# Shear Modulus (GPa) = 13.77978 34.08228 23.93103
#
# Velocity S-wave (km/s) = 2.52773 3.97534 3.33113
# Velocity P-wave (km/s) = 4.15821 5.78155 5.03572
#
# Compressibility (1/GPa) = 0.05286259
#
# Stress axis : x y z
#
# Youngs Moduli (GPa) = 146.30059 42.28768 137.31748
#
# Poissons Ratio (x) = -0.09104 -0.19589
# Poissons Ratio (y) = -0.31497 -0.54505
# Poissons Ratio (z) = -0.20871 -0.16785
#
# Static dielectric constant tensor:
#      x y z
#    x 1.747030 0.000000 0.000000 
#    y 0.000000 1.765860 0.000000 
#    z 0.000000 0.000000 1.876070 
# 
# From -- ./inp_files/1054.got.cif
#   From: 2010.05.17/outbox.cif.g08.bks.cpg/sg30_1_cif.got.tgz:1054.got - 2010.06.03 17:03:02.
