data_PCOD9341909
_publ_section_title
;
Structure prediction by ZEFSAII (Michael W. Deem and Ramdas Pophale) SiO2 
 PCOD9341909
Probable space group: P N C 2
;
_chemical_formula_sum "Si O2"
_cell_formula_units_Z 18
_cell_length_a 9.898497
_cell_length_b 16.286300
_cell_length_c 5.166264
_cell_angle_alpha 90.000000
_cell_angle_beta 90.000000
_cell_angle_gamma 90.000000
_cell_volume 832.852860
_symmetry_space_group_name_H-M "P N C 2"
_symmetry_group_IT_number 30
_symmetry_cell_setting 'orthorhombic'
loop_
_space_group_symop_operation_xyz
x,y,z
-x,-y,z
-x,1/2+y,1/2+z
x,1/2-y,1/2+z
loop_
_atom_site_type_symbol
_atom_site_label
_atom_site_fract_x
_atom_site_fract_y
_atom_site_fract_z
Si Si1 0.884403 0.201948 0.174260
Si Si2 0.320596 0.106480 0.599556
Si Si3 0.181498 0.146499 0.102965
Si Si4 0.232401 0.976685 0.246287
Si Si5 0.500000 0.500000 0.403597
O O1 0.842557 0.266436 0.393052
O O2 0.826742 0.112931 0.240894
O O3 0.047453 0.194736 0.169999
O O4 0.297827 0.151581 0.325408
O O5 0.256388 0.016667 0.529694
O O6 0.240955 0.156058 0.818016
O O7 0.461340 0.078125 0.723941
O O8 0.143988 0.049029 0.116743
O O9 0.373878 0.980861 0.090292
#
# Coordination Sequence:
#
# PCOD9341909 Si02
#       5
#     4   4   4   4   2
#     4  12  26  40  61  93 136 169 202 264 334 387
#     4   9  19  34  65  91 118 150 211 265 295 355
#     4   9  20  39  60  88 121 163 210 252 303 375
#     4   9  22  39  65  94 120 161 222 260 308 368
#     4  10  18  38  64  98 116 148 210 278 306 356
#
# _framework density 21.612461
#
# number of rings (size 3 to 8) (size 9 to 14) (size 15 to 20)
#    1.333    0.889    0.000    2.667    6.222    0.000 
#    8.000    0.000    0.000   18.667    0.000    0.000 
#    0.000    0.000    0.000    0.000    0.000    0.000 
#
# Total GULP energy -100228.391984 kJ/mol
# GULP energy per Si atom -5568.243999 kJ/mol
# Density = 2.156327 g / cm^3
# Si number density = 21.612461 Si / 1000 Ang^3
#
#
#
# Elastic Constant Matrix: (Units=GPa)
#
#
# Indices 1 2 3 4 5 6 
#
# 1 41.0919 9.4423 22.3522 0.0000 0.0000 0.0000
# 2 9.4423 79.5159 12.9369 0.0000 0.0000 0.0000
# 3 22.3522 12.9369 140.6988 0.0000 0.0000 0.0000
# 4 0.0000 0.0000 0.0000 18.8158 0.0000 0.0000
# 5 0.0000 0.0000 0.0000 0.0000 16.4939 0.0000
# 6 0.0000 0.0000 0.0000 0.0000 0.0000 30.5833
#
#
#
# Elastic Compliance Matrix: (Units=1/GPa)
#
#
# Indices 1 2 3 4 5 6 
#
# 1 0.027141 -0.002560 -0.004076 0.000000 0.000000 0.000000
# 2 -0.002560 0.013009 -0.000789 0.000000 0.000000 0.000000
# 3 -0.004076 -0.000789 0.007828 0.000000 0.000000 0.000000
# 4 0.000000 0.000000 0.000000 0.053147 0.000000 0.000000
# 5 0.000000 0.000000 0.000000 0.000000 0.060629 0.000000
# 6 0.000000 0.000000 0.000000 0.000000 0.000000 0.032698
#
#
# Mechanical properties :
#
#
# Convention : Reuss Voigt Hill
#
# Bulk Modulus (GPa) = 30.18768 38.97438 34.58103
# Shear Modulus (GPa) = 22.69183 27.61694 25.15439
#
# Velocity S-wave (km/s) = 3.24380 3.57855 3.41527
# Velocity P-wave (km/s) = 5.29412 5.92850 5.62026
#
# Compressibility (1/GPa) = 0.03312609
#
# Stress axis : x y z
#
# Youngs Moduli (GPa) = 36.84425 76.87281 127.75343
#
# Poissons Ratio (x) = 0.19677 0.52078
# Poissons Ratio (y) = 0.09431 0.10085
# Poissons Ratio (z) = 0.15019 0.06069
#
# Static dielectric constant tensor:
#      x y z
#    x 1.777530 0.000000 0.000000 
#    y 0.000000 1.823170 0.000000 
#    z 0.000000 0.000000 1.830760 
# 
# From -- ./inp_files/355.got.cif
#   From: 2010.05.17/outbox.cif.g08.bks.cpg/sg30_1_cif.got.tgz:355.got - 2010.06.03 17:03:02.
