data_PCOD9341086
_publ_section_title
;
Structure prediction by ZEFSAII (Michael W. Deem and Ramdas Pophale) SiO2 
 PCOD9341086
Probable space group: P C A 21
;
_chemical_formula_sum "Si O2"
_cell_formula_units_Z 28
_cell_length_a 10.783570
_cell_length_b 5.297624
_cell_length_c 18.636494
_cell_angle_alpha 90.000000
_cell_angle_beta 90.000000
_cell_angle_gamma 90.000000
_cell_volume 1064.652569
_symmetry_space_group_name_H-M "P C A 21"
_symmetry_group_IT_number 29
_symmetry_cell_setting 'orthorhombic'
loop_
_space_group_symop_operation_xyz
x,y,z
-x,-y,1/2+z
1/2-x,y,1/2+z
1/2+x,-y,z
loop_
_atom_site_type_symbol
_atom_site_label
_atom_site_fract_x
_atom_site_fract_y
_atom_site_fract_z
Si Si1 0.303854 0.456945 0.899710
Si Si2 0.166315 0.959727 0.152114
Si Si3 0.457101 0.319440 0.423668
Si Si4 0.195082 0.320838 0.562250
Si Si5 0.958451 0.171375 0.516468
Si Si6 0.093870 0.289755 0.266386
Si Si7 0.340024 0.579376 0.205364
O O1 0.402762 0.687030 0.890532
O O2 0.160960 0.411239 0.876916
O O3 0.379277 0.257113 0.850518
O O4 0.282899 0.441257 0.985348
O O5 0.289386 0.861178 0.190713
O O6 0.188288 0.201507 0.101658
O O7 0.081954 0.039712 0.218089
O O8 0.119127 0.779974 0.089093
O O9 0.470896 0.560895 0.476996
O O10 0.421965 0.054122 0.462196
O O11 0.133923 0.481989 0.624958
O O12 0.096644 0.099959 0.543382
O O13 0.217495 0.438773 0.237897
O O14 0.966594 0.431786 0.249016
#
# Coordination Sequence:
#
# PCOD9341086 Si02
#       7
#     4   4   4   4   4   4   4
#     4  11  24  48  68 109 144 199 241 319 375 461
#     4  11  23  41  70 101 146 193 245 308 374 456
#     4  11  26  44  76 106 152 185 258 307 387 442
#     4  10  23  40  72  99 138 183 252 304 365 440
#     4  11  24  42  73 113 139 193 243 326 367 449
#     4  11  26  47  69 106 153 197 252 312 393 463
#     4  11  24  46  74 106 144 202 255 318 379 463
#
# _framework density 26.299655999999999
#
# number of rings (size 3 to 8) (size 9 to 14) (size 15 to 20)
#    0.000    1.143    1.429    3.429   12.000    1.143 
#   12.857    0.000    0.000    0.000    0.000    0.000 
#    0.000    0.000    0.000    0.000    0.000    0.000 
#
# Total GULP energy -155928.420523 kJ/mol
# GULP energy per Si atom -5568.872162 kJ/mol
# Density = 2.623980 g / cm^3
# Si number density = 26.299656 Si / 1000 Ang^3
#
#
#
# Elastic Constant Matrix: (Units=GPa)
#
#
# Indices 1 2 3 4 5 6 
#
# 1 136.3919 13.8537 32.8380 0.0000 0.0000 0.0000
# 2 13.8537 78.1930 22.8909 0.0000 0.0000 0.0000
# 3 32.8380 22.8909 127.3705 0.0000 0.0000 0.0000
# 4 0.0000 0.0000 0.0000 15.6235 0.0000 0.0000
# 5 0.0000 0.0000 0.0000 0.0000 40.1263 0.0000
# 6 0.0000 0.0000 0.0000 0.0000 0.0000 26.5007
#
#
#
# Elastic Compliance Matrix: (Units=1/GPa)
#
#
# Indices 1 2 3 4 5 6 
#
# 1 0.007870 -0.000845 -0.001877 0.000000 0.000000 0.000000
# 2 -0.000845 0.013590 -0.002225 0.000000 0.000000 0.000000
# 3 -0.001877 -0.002225 0.008735 0.000000 0.000000 0.000000
# 4 0.000000 0.000000 0.000000 0.064006 0.000000 0.000000
# 5 0.000000 0.000000 0.000000 0.000000 0.024921 0.000000
# 6 0.000000 0.000000 0.000000 0.000000 0.000000 0.037735
#
#
# Mechanical properties :
#
#
# Convention : Reuss Voigt Hill
#
# Bulk Modulus (GPa) = 49.25768 53.45785 51.35776
# Shear Modulus (GPa) = 28.81569 34.60827 31.71198
#
# Velocity S-wave (km/s) = 3.31368 3.63150 3.47622
# Velocity P-wave (km/s) = 5.78020 6.16070 5.97348
#
# Compressibility (1/GPa) = 0.02030140
#
# Stress axis : x y z
#
# Youngs Moduli (GPa) = 127.07215 73.58475 114.48413
#
# Poissons Ratio (x) = 0.06216 0.21489
# Poissons Ratio (y) = 0.10735 0.25467
# Poissons Ratio (z) = 0.23852 0.16369
#
# Static dielectric constant tensor:
#      x y z
#    x 2.266010 0.000000 0.000000 
#    y 0.000000 2.160100 0.000000 
#    z 0.000000 0.000000 2.128950 
# 
# From -- ./inp_files/5096.got.cif
#   From: 2010.05.17/outbox.cif.g08.bks.cpg/sg29_3_cif.got.tgz:5096.got - 2010.06.04 01:19:37.
