data_PCOD9341216
_publ_section_title
;
Structure prediction by ZEFSAII (Michael W. Deem and Ramdas Pophale) SiO2 
 PCOD9341216
Probable space group: P C A 21
;
_chemical_formula_sum "Si O2"
_cell_formula_units_Z 32
_cell_length_a 8.990857
_cell_length_b 12.477434
_cell_length_c 12.364253
_cell_angle_alpha 90.000000
_cell_angle_beta 90.000000
_cell_angle_gamma 90.000000
_cell_volume 1387.056828
_symmetry_space_group_name_H-M "P C A 21"
_symmetry_group_IT_number 29
_symmetry_cell_setting 'orthorhombic'
loop_
_space_group_symop_operation_xyz
x,y,z
-x,-y,1/2+z
1/2-x,y,1/2+z
1/2+x,-y,z
loop_
_atom_site_type_symbol
_atom_site_label
_atom_site_fract_x
_atom_site_fract_y
_atom_site_fract_z
Si Si1 0.967537 0.868493 0.041960
Si Si2 0.552044 0.818805 0.893235
Si Si3 0.314770 0.315302 0.964830
Si Si4 0.507289 0.059056 0.807602
Si Si5 0.462618 0.581531 0.296217
Si Si6 0.018949 0.334350 0.062301
Si Si7 0.377758 0.622625 0.849062
Si Si8 0.739716 0.026247 0.157555
O O1 0.121524 0.899820 0.096874
O O2 0.842699 0.954432 0.078913
O O3 0.898747 0.751951 0.057643
O O4 0.993388 0.871601 0.913758
O O5 0.714926 0.765335 0.888947
O O6 0.517032 0.790593 0.020232
O O7 0.539657 0.938795 0.854588
O O8 0.435412 0.743885 0.829919
O O9 0.430503 0.376267 0.891335
O O10 0.180440 0.377493 0.023304
O O11 0.646867 0.088850 0.734358
O O12 0.361388 0.048896 0.734479
O O13 0.494501 0.643911 0.185601
O O14 0.510938 0.457633 0.288099
O O15 0.290326 0.597634 0.321669
O O16 0.903522 0.387811 0.979063
#
# Coordination Sequence:
#
# PCOD9341216 Si02
#       8
#     4   4   4   4   4   4   4   4
#     4  11  22  43  60  96 130 170 226 281 322 402
#     4   8  20  46  59  93 137 167 220 287 318 391
#     4   9  22  40  66  91 131 174 224 274 332 394
#     4  11  21  42  64  87 133 172 215 280 329 392
#     4  12  21  44  71  96 133 184 213 272 357 388
#     4   8  23  45  62  97 135 169 226 276 323 405
#     4   9  23  40  66 101 134 168 224 277 326 411
#     4  10  24  36  62  91 121 174 218 261 339 389
#
# _framework density 23.070430000000002
#
# number of rings (size 3 to 8) (size 9 to 14) (size 15 to 20)
#    1.500    0.500    0.000    3.750    0.000    7.000 
#    4.500    6.250    0.000    0.000    0.000    0.000 
#    0.000    0.000    0.000    0.000    0.000    0.000 
#
# Total GULP energy -178618.847408 kJ/mol
# GULP energy per Si atom -5581.838981 kJ/mol
# Density = 2.301792 g / cm^3
# Si number density = 23.070430 Si / 1000 Ang^3
#
#
#
# Elastic Constant Matrix: (Units=GPa)
#
#
# Indices 1 2 3 4 5 6 
#
# 1 157.2800 12.9900 58.2195 0.0000 0.0000 0.0000
# 2 12.9900 50.6627 -2.3974 0.0000 0.0000 0.0000
# 3 58.2195 -2.3974 94.8760 0.0000 0.0000 0.0000
# 4 0.0000 0.0000 0.0000 15.7683 0.0000 0.0000
# 5 0.0000 0.0000 0.0000 0.0000 27.0887 0.0000
# 6 0.0000 0.0000 0.0000 0.0000 0.0000 19.0948
#
#
#
# Elastic Compliance Matrix: (Units=1/GPa)
#
#
# Indices 1 2 3 4 5 6 
#
# 1 0.008516 -0.002434 -0.005287 0.000000 0.000000 0.000000
# 2 -0.002434 0.020458 0.002010 0.000000 0.000000 0.000000
# 3 -0.005287 0.002010 0.013835 0.000000 0.000000 0.000000
# 4 0.000000 0.000000 0.000000 0.063419 0.000000 0.000000
# 5 0.000000 0.000000 0.000000 0.000000 0.036916 0.000000
# 6 0.000000 0.000000 0.000000 0.000000 0.000000 0.052370
#
#
# Mechanical properties :
#
#
# Convention : Reuss Voigt Hill
#
# Bulk Modulus (GPa) = 31.85967 48.93811 40.39889
# Shear Modulus (GPa) = 22.99928 27.99079 25.49504
#
# Velocity S-wave (km/s) = 3.16082 3.48699 3.32790
# Velocity P-wave (km/s) = 5.21160 6.12133 5.68469
#
# Compressibility (1/GPa) = 0.03138765
#
# Stress axis : x y z
#
# Youngs Moduli (GPa) = 117.42153 48.88173 72.27812
#
# Poissons Ratio (x) = 0.11897 0.38217
# Poissons Ratio (y) = 0.28578 -0.14531
# Poissons Ratio (z) = 0.62086 -0.09827
#
# Static dielectric constant tensor:
#      x y z
#    x 1.852400 0.000000 0.000000 
#    y 0.000000 1.931090 0.000000 
#    z 0.000000 0.000000 1.882850 
# 
# From -- ./inp_files/2969.got.cif
#   From: 2010.05.17/outbox.cif.g08.bks.cpg/sg29_2_cif.got.tgz:2969.got - 2010.06.04 01:19:37.
