data_PCOD9341932
_publ_section_title
;
Structure prediction by ZEFSAII (Michael W. Deem and Ramdas Pophale) SiO2 
 PCOD9341932
Probable space group: P N C 2
;
_chemical_formula_sum "Si O2"
_cell_formula_units_Z 22
_cell_length_a 5.456350
_cell_length_b 23.159615
_cell_length_c 6.919431
_cell_angle_alpha 90.000000
_cell_angle_beta 90.000000
_cell_angle_gamma 90.000000
_cell_volume 874.387497
_symmetry_space_group_name_H-M "P N C 2"
_symmetry_group_IT_number 30
_symmetry_cell_setting 'orthorhombic'
loop_
_space_group_symop_operation_xyz
x,y,z
-x,-y,z
-x,1/2+y,1/2+z
x,1/2-y,1/2+z
loop_
_atom_site_type_symbol
_atom_site_label
_atom_site_fract_x
_atom_site_fract_y
_atom_site_fract_z
Si Si1 0.000000 0.000000 0.357020
Si Si2 0.243782 0.017643 0.723998
Si Si3 0.297661 0.663712 0.604238
Si Si4 0.800955 0.612778 0.664613
Si Si5 0.711195 0.296758 0.047523
Si Si6 0.785102 0.849295 0.601483
O O1 0.207067 0.982279 0.518502
O O2 0.128424 0.048769 0.232573
O O3 0.226484 0.084941 0.674310
O O4 0.500000 0.000000 0.811508
O O5 0.000000 0.000000 0.836562
O O6 0.538840 0.624906 0.567239
O O7 0.309323 0.728348 0.524643
O O8 0.038257 0.635298 0.550944
O O9 0.287279 0.673020 0.837441
O O10 0.785942 0.647062 0.867520
O O11 0.466411 0.317909 0.154713
O O12 0.965680 0.315276 0.147329
#
# Coordination Sequence:
#
# PCOD9341932 Si02
#       6
#     2   4   4   4   4   4
#     4   8  18  24  44  64 100 118 150 184 254 274
#     4   9  16  23  40  64  95 121 147 180 238 292
#     4  10  20  32  47  69  96 125 158 192 230 275
#     4   9  18  28  45  68  97 121 153 191 237 282
#     4  10  19  32  47  65  97 125 159 193 228 271
#     4   9  17  28  44  65  94 129 147 187 235 279
#
# _framework density 25.16047
#
# number of rings (size 3 to 8) (size 9 to 14) (size 15 to 20)
#    0.545    2.182    0.000    2.182    7.636    0.000 
#    0.000    0.000    0.000    0.000    0.000    0.000 
#   27.273    0.000    0.000    0.000    0.000    0.000 
#
# Total GULP energy -122939.407925 kJ/mol
# GULP energy per Si atom -5588.154906 kJ/mol
# Density = 2.510320 g / cm^3
# Si number density = 25.160470 Si / 1000 Ang^3
#
#
#
# Elastic Constant Matrix: (Units=GPa)
#
#
# Indices 1 2 3 4 5 6 
#
# 1 229.6306 55.4712 18.7922 0.0000 0.0000 0.0000
# 2 55.4712 67.2232 6.5697 0.0000 0.0000 0.0000
# 3 18.7922 6.5697 84.2803 0.0000 0.0000 0.0000
# 4 0.0000 0.0000 0.0000 -92.1990 0.0000 0.0000
# 5 0.0000 0.0000 0.0000 0.0000 -17.1771 0.0000
# 6 0.0000 0.0000 0.0000 0.0000 0.0000 39.2617
#
#
#
# Elastic Compliance Matrix: (Units=1/GPa)
#
#
# Indices 1 2 3 4 5 6 
#
# 1 0.005503 -0.004455 -0.000880 0.000000 0.000000 0.000000
# 2 -0.004455 0.018597 -0.000456 0.000000 0.000000 0.000000
# 3 -0.000880 -0.000456 0.012097 0.000000 0.000000 0.000000
# 4 0.000000 0.000000 0.000000 -0.010846 0.000000 0.000000
# 5 0.000000 0.000000 0.000000 0.000000 -0.058217 0.000000
# 6 0.000000 0.000000 0.000000 0.000000 0.000000 0.025470
#
#
# Mechanical properties :
#
#
# Convention : Reuss Voigt Hill
#
# Bulk Modulus (GPa) = 40.62655 60.31115 50.46885
# Shear Modulus (GPa) = 403.54771 5.99720 204.77246
#
# Velocity S-wave (km/s) = 12.67824 1.54556 9.03124
# Velocity P-wave (km/s) = 15.18220 5.21609 11.35136
#
# Compressibility (1/GPa) = 0.02461444
#
# Stress axis : x y z
#
# Youngs Moduli (GPa) = 181.71932 53.77338 82.66583
#
# Poissons Ratio (x) = 0.23956 0.07273
# Poissons Ratio (y) = 0.80956 0.03772
# Poissons Ratio (z) = 0.15987 0.02454
#
# Static dielectric constant tensor:
#      x y z
#    x 2.008120 0.000000 0.000000 
#    y 0.000000 1.923690 0.000000 
#    z 0.000000 0.000000 2.044600 
# 
# From -- ./inp_files/3193.got.cif
#   From: 2010.05.17/outbox.cif.g08.bks.cpg/sg30_2_cif.got.tgz:3193.got - 2010.06.03 17:03:02.
