data_PCOD9341498
_publ_section_title
;
Structure prediction by ZEFSAII (Michael W. Deem and Ramdas Pophale) SiO2 
 PCOD9341498
Probable space group: P C A 21
;
_chemical_formula_sum "Si O2"
_cell_formula_units_Z 20
_cell_length_a 15.219773
_cell_length_b 9.379468
_cell_length_c 5.082848
_cell_angle_alpha 90.000000
_cell_angle_beta 90.000000
_cell_angle_gamma 90.000000
_cell_volume 725.593701
_symmetry_space_group_name_H-M "P C A 21"
_symmetry_group_IT_number 29
_symmetry_cell_setting 'orthorhombic'
loop_
_space_group_symop_operation_xyz
x,y,z
-x,-y,1/2+z
1/2-x,y,1/2+z
1/2+x,-y,z
loop_
_atom_site_type_symbol
_atom_site_label
_atom_site_fract_x
_atom_site_fract_y
_atom_site_fract_z
Si Si1 0.975315 0.572331 0.016120
Si Si2 0.800441 0.631268 0.349742
Si Si3 0.053394 0.836666 0.243459
Si Si4 0.696793 0.225279 0.605297
Si Si5 0.861552 0.951704 0.379000
O O1 0.886260 0.583846 0.187426
O O2 0.031783 0.474300 0.215843
O O3 0.022520 0.725862 0.023072
O O4 0.776134 0.588471 0.645204
O O5 0.812146 0.802680 0.382754
O O6 0.123598 0.949575 0.134429
O O7 0.102478 0.746476 0.470834
O O8 0.963630 0.913720 0.320545
O O9 0.732468 0.274926 0.887210
O O10 0.682994 0.056089 0.667736
#
# Coordination Sequence:
#
# PCOD9341498 Si02
#       5
#     4   4   4   4   4
#     4  11  27  50  76 101 140 201 258 291 344 427
#     4  11  25  44  74 108 143 183 237 309 366 424
#     4  11  25  42  72 102 144 188 237 290 361 438
#     4  12  24  38  60  98 142 177 216 278 355 428
#     4  11  23  40  70 105 145 181 228 288 372 447
#
# _framework density 27.563635000000001
#
# number of rings (size 3 to 8) (size 9 to 14) (size 15 to 20)
#    0.000    0.800    4.000    2.400    5.600    0.000 
#    0.000    6.000    0.000    0.000    0.000    0.000 
#    0.000    0.000    0.000    0.000    0.000    0.000 
#
# Total GULP energy -111900.720764 kJ/mol
# GULP energy per Si atom -5595.036038 kJ/mol
# Density = 2.750090 g / cm^3
# Si number density = 27.563635 Si / 1000 Ang^3
#
#
#
# Elastic Constant Matrix: (Units=GPa)
#
#
# Indices 1 2 3 4 5 6 
#
# 1 143.4177 6.2791 32.5311 0.0000 0.0000 0.0000
# 2 6.2791 68.3547 18.6550 0.0000 0.0000 0.0000
# 3 32.5311 18.6550 179.2302 0.0000 0.0000 0.0000
# 4 0.0000 0.0000 0.0000 37.3310 0.0000 0.0000
# 5 0.0000 0.0000 0.0000 0.0000 35.1996 0.0000
# 6 0.0000 0.0000 0.0000 0.0000 0.0000 16.3435
#
#
#
# Elastic Compliance Matrix: (Units=1/GPa)
#
#
# Indices 1 2 3 4 5 6 
#
# 1 0.007279 -0.000317 -0.001288 0.000000 0.000000 0.000000
# 2 -0.000317 0.015071 -0.001511 0.000000 0.000000 0.000000
# 3 -0.001288 -0.001511 0.005970 0.000000 0.000000 0.000000
# 4 0.000000 0.000000 0.000000 0.026787 0.000000 0.000000
# 5 0.000000 0.000000 0.000000 0.000000 0.028409 0.000000
# 6 0.000000 0.000000 0.000000 0.000000 0.000000 0.061186
#
#
# Mechanical properties :
#
#
# Convention : Reuss Voigt Hill
#
# Bulk Modulus (GPa) = 45.27407 56.21475 50.74441
# Shear Modulus (GPa) = 31.58590 40.01067 35.79828
#
# Velocity S-wave (km/s) = 3.38883 3.81409 3.60773
# Velocity P-wave (km/s) = 5.63677 6.31151 5.98366
#
# Compressibility (1/GPa) = 0.02208770
#
# Stress axis : x y z
#
# Youngs Moduli (GPa) = 137.38712 66.35219 167.49028
#
# Poissons Ratio (x) = 0.02104 0.21575
# Poissons Ratio (y) = 0.04356 0.25310
# Poissons Ratio (z) = 0.17697 0.10027
#
# Static dielectric constant tensor:
#      x y z
#    x 2.204320 0.000000 0.000000 
#    y 0.000000 2.208750 0.000000 
#    z 0.000000 0.000000 2.087480 
# 
# From -- ./inp_files/361.got.cif
#   From: 2010.05.17/outbox.cif.g08.bks.cpg/sg29_1_cif.got.tgz:361.got - 2010.06.04 01:19:37.
