data_PCOD9341103
_publ_section_title
;
Structure prediction by ZEFSAII (Michael W. Deem and Ramdas Pophale) SiO2 
 PCOD9341103
Probable space group: P C A 21
;
_chemical_formula_sum "Si O2"
_cell_formula_units_Z 32
_cell_length_a 5.644051
_cell_length_b 18.148341
_cell_length_c 12.797088
_cell_angle_alpha 90.000000
_cell_angle_beta 90.000000
_cell_angle_gamma 90.000000
_cell_volume 1310.807799
_symmetry_space_group_name_H-M "P C A 21"
_symmetry_group_IT_number 29
_symmetry_cell_setting 'orthorhombic'
loop_
_space_group_symop_operation_xyz
x,y,z
-x,-y,1/2+z
1/2-x,y,1/2+z
1/2+x,-y,z
loop_
_atom_site_type_symbol
_atom_site_label
_atom_site_fract_x
_atom_site_fract_y
_atom_site_fract_z
Si Si1 0.778047 0.773263 0.332890
Si Si2 0.878945 0.149649 0.985520
Si Si3 0.359869 0.793761 0.676457
Si Si4 0.582704 0.097834 0.817653
Si Si5 0.436293 0.658621 0.273860
Si Si6 0.162540 0.531986 0.916160
Si Si7 0.113335 0.476604 0.155678
Si Si8 0.373348 0.036708 0.625453
O O1 0.583113 0.834957 0.352484
O O2 0.656853 0.694659 0.334929
O O3 0.993051 0.793110 0.408669
O O4 0.874349 0.783593 0.214777
O O5 0.747756 0.085961 0.917634
O O6 0.694480 0.193899 0.056543
O O7 0.068509 0.110447 0.060558
O O8 0.261498 0.868286 0.731121
O O9 0.215796 0.724455 0.723310
O O10 0.408858 0.045874 0.751610
O O11 0.298039 0.611129 0.361308
O O12 0.525511 0.606503 0.178945
O O13 0.393340 0.486150 0.883001
O O14 0.149972 0.514166 0.040737
O O15 0.381887 0.480202 0.197791
O O16 0.105272 0.013471 0.601151
#
# Coordination Sequence:
#
# PCOD9341103 Si02
#       8
#     4   4   4   4   4   4   4   4
#     4  10  23  43  70  97 138 188 232 301 358 420
#     4  10  23  44  70 101 145 180 241 296 360 407
#     4   9  22  42  64  99 132 180 229 295 354 417
#     4   9  22  43  67  97 139 187 228 296 350 410
#     4  11  23  40  68  94 130 182 237 285 356 438
#     4  10  23  42  65  92 136 178 226 290 357 417
#     4  10  23  42  62  95 131 179 222 288 358 417
#     4  11  27  44  72 107 143 190 237 285 349 428
#
# _framework density 24.412428999999999
#
# number of rings (size 3 to 8) (size 9 to 14) (size 15 to 20)
#    0.000    2.000    0.000    0.750   10.500    5.000 
#   11.250    0.000    0.000    0.000    0.000    0.000 
#    0.000    0.000    0.000    0.000    0.000    0.000 
#
# Total GULP energy -178456.628916 kJ/mol
# GULP energy per Si atom -5576.769654 kJ/mol
# Density = 2.435687 g / cm^3
# Si number density = 24.412429 Si / 1000 Ang^3
#
#
#
# Elastic Constant Matrix: (Units=GPa)
#
#
# Indices 1 2 3 4 5 6 
#
# 1 96.9420 10.9063 31.5234 0.0000 0.0000 0.0000
# 2 10.9063 65.0954 32.7925 0.0000 0.0000 0.0000
# 3 31.5234 32.7925 120.7343 0.0000 0.0000 0.0000
# 4 0.0000 0.0000 0.0000 34.6329 0.0000 0.0000
# 5 0.0000 0.0000 0.0000 0.0000 42.2181 0.0000
# 6 0.0000 0.0000 0.0000 0.0000 0.0000 35.9390
#
#
#
# Elastic Compliance Matrix: (Units=1/GPa)
#
#
# Indices 1 2 3 4 5 6 
#
# 1 0.011285 -0.000471 -0.002819 0.000000 0.000000 0.000000
# 2 -0.000471 0.017817 -0.004716 0.000000 0.000000 0.000000
# 3 -0.002819 -0.004716 0.010300 0.000000 0.000000 0.000000
# 4 0.000000 0.000000 0.000000 0.028874 0.000000 0.000000
# 5 0.000000 0.000000 0.000000 0.000000 0.023687 0.000000
# 6 0.000000 0.000000 0.000000 0.000000 0.000000 0.027825
#
#
# Mechanical properties :
#
#
# Convention : Reuss Voigt Hill
#
# Bulk Modulus (GPa) = 42.75340 48.13513 45.44426
# Shear Modulus (GPa) = 34.82014 36.39465 35.60739
#
# Velocity S-wave (km/s) = 3.78077 3.86531 3.82327
# Velocity P-wave (km/s) = 6.05062 6.29929 6.17621
#
# Compressibility (1/GPa) = 0.02338995
#
# Stress axis : x y z
#
# Youngs Moduli (GPa) = 88.61348 56.12675 97.09156
#
# Poissons Ratio (x) = 0.02643 0.27366
# Poissons Ratio (y) = 0.04172 0.45791
# Poissons Ratio (z) = 0.24977 0.26471
#
# Static dielectric constant tensor:
#      x y z
#    x 1.938580 0.000000 0.000000 
#    y 0.000000 1.947460 0.000000 
#    z 0.000000 0.000000 2.111230 
# 
# From -- ./inp_files/4109.got.cif
#   From: 2010.05.17/outbox.cif.g08.bks.cpg/sg29_3_cif.got.tgz:4109.got - 2010.06.04 01:19:37.
