data_PCOD9341445
_publ_section_title
;
Structure prediction by ZEFSAII (Michael W. Deem and Ramdas Pophale) SiO2 
 PCOD9341445
Probable space group: P C A 21
;
_chemical_formula_sum "Si O2"
_cell_formula_units_Z 32
_cell_length_a 11.456825
_cell_length_b 13.804875
_cell_length_c 9.277897
_cell_angle_alpha 90.000000
_cell_angle_beta 90.000000
_cell_angle_gamma 90.000000
_cell_volume 1467.392533
_symmetry_space_group_name_H-M "P C A 21"
_symmetry_group_IT_number 29
_symmetry_cell_setting 'orthorhombic'
loop_
_space_group_symop_operation_xyz
x,y,z
-x,-y,1/2+z
1/2-x,y,1/2+z
1/2+x,-y,z
loop_
_atom_site_type_symbol
_atom_site_label
_atom_site_fract_x
_atom_site_fract_y
_atom_site_fract_z
Si Si1 0.331812 0.336389 0.022970
Si Si2 0.098654 0.324056 0.854043
Si Si3 0.812815 0.159321 0.639846
Si Si4 0.620406 0.452184 0.438685
Si Si5 0.018272 0.791113 0.881593
Si Si6 0.991198 0.895094 0.345067
Si Si7 0.806069 0.355209 0.236205
Si Si8 0.431219 0.943592 0.146324
O O1 0.348119 0.335955 0.194480
O O2 0.198170 0.337200 0.973468
O O3 0.389241 0.433420 0.957666
O O4 0.400084 0.245672 0.954194
O O5 0.049672 0.214886 0.864908
O O6 0.994304 0.400159 0.877024
O O7 0.896915 0.165189 0.503287
O O8 0.779207 0.268677 0.683888
O O9 0.693408 0.103678 0.611839
O O10 0.881651 0.111162 0.771374
O O11 0.730486 0.424448 0.338238
O O12 0.646323 0.408886 0.596332
O O13 0.089397 0.699715 0.817221
O O14 0.004750 0.869288 0.755323
O O15 0.998705 0.947879 0.497940
O O16 0.916939 0.956279 0.230797
#
# Coordination Sequence:
#
# PCOD9341445 Si02
#       8
#     4   4   4   4   4   4   4   4
#     4  12  30  46  74 106 157 205 249 311 381 446
#     4  12  29  52  72 112 157 203 250 318 382 450
#     4  11  21  46  73 104 139 190 248 303 366 437
#     4  12  26  46  75 110 151 198 262 304 371 452
#     4  11  23  45  70 104 140 192 252 304 366 437
#     4  12  25  49  72 109 149 185 242 311 376 451
#     4  11  22  42  74 106 141 192 248 314 361 431
#     4  11  26  42  78 109 140 193 245 305 377 454
#
# _framework density 21.807388
#
# number of rings (size 3 to 8) (size 9 to 14) (size 15 to 20)
#    0.000    0.500    3.750    4.500    7.000    1.000 
#    2.250    0.000    0.000    0.000    0.000    0.000 
#    0.000    0.000    0.000    0.000    0.000    0.000 
#
# Total GULP energy -179245.893604 kJ/mol
# GULP energy per Si atom -5601.434175 kJ/mol
# Density = 2.175775 g / cm^3
# Si number density = 21.807388 Si / 1000 Ang^3
#
#
#
# Elastic Constant Matrix: (Units=GPa)
#
#
# Indices 1 2 3 4 5 6 
#
# 1 38.4167 -0.9046 15.8050 0.0000 0.0000 0.0000
# 2 -0.9046 52.2516 7.2996 0.0000 0.0000 0.0000
# 3 15.8050 7.2996 113.5310 0.0000 0.0000 0.0000
# 4 0.0000 0.0000 0.0000 23.0354 0.0000 0.0000
# 5 0.0000 0.0000 0.0000 0.0000 23.2020 0.0000
# 6 0.0000 0.0000 0.0000 0.0000 0.0000 12.5286
#
#
#
# Elastic Compliance Matrix: (Units=1/GPa)
#
#
# Indices 1 2 3 4 5 6 
#
# 1 0.027666 0.001026 -0.003917 0.000000 0.000000 0.000000
# 2 0.001026 0.019350 -0.001387 0.000000 0.000000 0.000000
# 3 -0.003917 -0.001387 0.009443 0.000000 0.000000 0.000000
# 4 0.000000 0.000000 0.000000 0.043411 0.000000 0.000000
# 5 0.000000 0.000000 0.000000 0.000000 0.043100 0.000000
# 6 0.000000 0.000000 0.000000 0.000000 0.000000 0.079818
#
#
# Mechanical properties :
#
#
# Convention : Reuss Voigt Hill
#
# Bulk Modulus (GPa) = 20.87591 27.62216 24.24904
# Shear Modulus (GPa) = 20.21746 23.88650 22.05198
#
# Velocity S-wave (km/s) = 3.04812 3.31318 3.18341
# Velocity P-wave (km/s) = 4.68847 5.22783 4.96547
#
# Compressibility (1/GPa) = 0.04790211
#
# Stress axis : x y z
#
# Youngs Moduli (GPa) = 36.14524 51.68042 105.90189
#
# Poissons Ratio (x) = -0.05304 0.41487
# Poissons Ratio (y) = -0.03709 0.14688
# Poissons Ratio (z) = 0.14160 0.07168
#
# Static dielectric constant tensor:
#      x y z
#    x 1.766560 0.000000 0.000000 
#    y 0.000000 1.802080 0.000000 
#    z 0.000000 0.000000 1.783520 
# 
# From -- ./inp_files/1557.got.cif
#   From: 2010.05.17/outbox.cif.g08.bks.cpg/sg29_1_cif.got.tgz:1557.got - 2010.06.04 01:19:37.
