data_PCOD9341279
_publ_section_title
;
Structure prediction by ZEFSAII (Michael W. Deem and Ramdas Pophale) SiO2 
 PCOD9341279
Probable space group: P C A 21
;
_chemical_formula_sum "Si O2"
_cell_formula_units_Z 32
_cell_length_a 12.210201
_cell_length_b 7.785935
_cell_length_c 14.315146
_cell_angle_alpha 90.000000
_cell_angle_beta 90.000000
_cell_angle_gamma 90.000000
_cell_volume 1360.909885
_symmetry_space_group_name_H-M "P C A 21"
_symmetry_group_IT_number 29
_symmetry_cell_setting 'orthorhombic'
loop_
_space_group_symop_operation_xyz
x,y,z
-x,-y,1/2+z
1/2-x,y,1/2+z
1/2+x,-y,z
loop_
_atom_site_type_symbol
_atom_site_label
_atom_site_fract_x
_atom_site_fract_y
_atom_site_fract_z
Si Si1 0.680987 0.197934 0.182510
Si Si2 0.586547 0.735869 0.922394
Si Si3 0.172490 0.602889 0.015372
Si Si4 0.841652 0.938323 0.115333
Si Si5 0.013636 0.913551 0.961445
Si Si6 0.263915 0.284394 0.761777
Si Si7 0.157694 0.637057 0.359217
Si Si8 0.521188 0.944646 0.241105
O O1 0.687348 0.372796 0.125310
O O2 0.714320 0.221982 0.290512
O O3 0.735424 0.058333 0.115439
O O4 0.559059 0.129234 0.199881
O O5 0.680072 0.773660 0.844815
O O6 0.470912 0.674103 0.875566
O O7 0.628317 0.580334 0.985349
O O8 0.564960 0.901853 0.985562
O O9 0.283326 0.636045 0.958444
O O10 0.084837 0.747702 0.984796
O O11 0.810589 0.763153 0.170690
O O12 0.899378 0.902665 0.017291
O O13 0.915465 0.073017 0.177428
O O14 0.004453 0.935697 0.850241
O O15 0.311771 0.460938 0.805487
O O16 0.373002 0.176276 0.738129
#
# Coordination Sequence:
#
# PCOD9341279 Si02
#       8
#     4   4   4   4   4   4   4   4
#     4  11  23  42  69  97 147 180 237 303 348 433
#     4  11  24  45  72 105 142 190 242 287 365 437
#     4  11  26  45  68 110 138 187 247 296 364 431
#     4  11  23  43  67 109 134 190 244 284 368 428
#     4  12  23  43  76  97 146 191 230 307 356 433
#     4  10  24  44  70 101 143 185 239 295 357 432
#     4  11  23  46  70 101 148 191 230 304 363 425
#     4  11  22  44  68 100 138 186 237 288 363 421
#
# _framework density 23.513681999999999
#
# number of rings (size 3 to 8) (size 9 to 14) (size 15 to 20)
#    0.000    1.000    3.750    2.250    1.750    2.000 
#    9.000    0.000    0.000    0.000    0.000    0.000 
#    0.000    0.000    0.000    0.000    0.000    0.000 
#
# Total GULP energy -178441.353799 kJ/mol
# GULP energy per Si atom -5576.292306 kJ/mol
# Density = 2.346016 g / cm^3
# Si number density = 23.513682 Si / 1000 Ang^3
#
#
#
# Elastic Constant Matrix: (Units=GPa)
#
#
# Indices 1 2 3 4 5 6 
#
# 1 80.7199 0.5351 17.5872 0.0000 0.0000 0.0000
# 2 0.5351 49.8371 -10.9803 0.0000 0.0000 0.0000
# 3 17.5872 -10.9803 96.2746 0.0000 0.0000 0.0000
# 4 0.0000 0.0000 0.0000 38.9131 0.0000 0.0000
# 5 0.0000 0.0000 0.0000 0.0000 34.3331 0.0000
# 6 0.0000 0.0000 0.0000 0.0000 0.0000 30.9634
#
#
#
# Elastic Compliance Matrix: (Units=1/GPa)
#
#
# Indices 1 2 3 4 5 6 
#
# 1 0.012924 -0.000676 -0.002438 0.000000 0.000000 0.000000
# 2 -0.000676 0.020618 0.002475 0.000000 0.000000 0.000000
# 3 -0.002438 0.002475 0.011115 0.000000 0.000000 0.000000
# 4 0.000000 0.000000 0.000000 0.025698 0.000000 0.000000
# 5 0.000000 0.000000 0.000000 0.000000 0.029126 0.000000
# 6 0.000000 0.000000 0.000000 0.000000 0.000000 0.032296
#
#
# Mechanical properties :
#
#
# Convention : Reuss Voigt Hill
#
# Bulk Modulus (GPa) = 23.05278 26.79064 24.92171
# Shear Modulus (GPa) = 33.89481 35.48789 34.69135
#
# Velocity S-wave (km/s) = 3.80082 3.88911 3.84522
# Velocity P-wave (km/s) = 5.39323 5.62008 5.50782
#
# Compressibility (1/GPa) = 0.04337872
#
# Stress axis : x y z
#
# Youngs Moduli (GPa) = 77.37426 48.50152 89.97162
#
# Poissons Ratio (x) = 0.03278 0.21936
# Poissons Ratio (y) = 0.05230 -0.22268
# Poissons Ratio (z) = 0.18864 -0.12004
#
# Static dielectric constant tensor:
#      x y z
#    x 1.942710 0.000000 0.000000 
#    y 0.000000 2.011900 0.000000 
#    z 0.000000 0.000000 1.917490 
# 
# From -- ./inp_files/4553.got.cif
#   From: 2010.05.17/outbox.cif.g08.bks.cpg/sg29_3_cif.got.tgz:4553.got - 2010.06.04 01:19:37.
