data_PCOD9341589
_publ_section_title
;
Structure prediction by ZEFSAII (Michael W. Deem and Ramdas Pophale) SiO2 
 PCOD9341589
Probable space group: P C A 21
;
_chemical_formula_sum "Si O2"
_cell_formula_units_Z 32
_cell_length_a 18.945304
_cell_length_b 5.030680
_cell_length_c 13.333368
_cell_angle_alpha 90.000000
_cell_angle_beta 90.000000
_cell_angle_gamma 90.000000
_cell_volume 1270.773463
_symmetry_space_group_name_H-M "P C A 21"
_symmetry_group_IT_number 29
_symmetry_cell_setting 'orthorhombic'
loop_
_space_group_symop_operation_xyz
x,y,z
-x,-y,1/2+z
1/2-x,y,1/2+z
1/2+x,-y,z
loop_
_atom_site_type_symbol
_atom_site_label
_atom_site_fract_x
_atom_site_fract_y
_atom_site_fract_z
Si Si1 0.957599 0.993700 0.802320
Si Si2 0.381787 0.413069 0.508266
Si Si3 0.718793 0.795394 0.735810
Si Si4 0.276700 0.693043 0.364896
Si Si5 0.026479 0.376558 0.469114
Si Si6 0.863774 0.250745 0.982938
Si Si7 0.153684 0.928665 0.126416
Si Si8 0.077501 0.110943 0.651270
O O1 0.915259 0.132516 0.894934
O O2 0.900228 0.987864 0.714470
O O3 0.980632 0.723998 0.857014
O O4 0.029463 0.088818 0.750185
O O5 0.341382 0.540183 0.415078
O O6 0.465171 0.416213 0.490337
O O7 0.361915 0.112817 0.531028
O O8 0.358097 0.620354 0.597016
O O9 0.702907 0.029003 0.815596
O O10 0.645405 0.718009 0.683732
O O11 0.751456 0.529720 0.785656
O O12 0.771598 0.955920 0.663309
O O13 0.215913 0.758060 0.446284
O O14 0.108576 0.449796 0.481242
O O15 0.020449 0.191694 0.566522
O O16 0.884484 0.131405 0.090691
#
# Coordination Sequence:
#
# PCOD9341589 Si02
#       8
#     4   4   4   4   4   4   4   4
#     4  11  24  46  72 103 147 189 245 299 370 440
#     4  12  27  46  73 105 146 187 243 296 365 432
#     4  12  27  46  74 107 145 191 245 299 362 435
#     4  12  27  48  73 108 148 194 243 302 368 432
#     4  11  26  43  73 104 145 195 239 309 366 436
#     4  11  26  45  73 103 149 195 243 307 371 439
#     4  12  25  47  72 103 140 192 238 294 362 438
#     4  11  26  45  72 107 144 191 248 302 370 438
#
# _framework density 25.181512000000001
#
# number of rings (size 3 to 8) (size 9 to 14) (size 15 to 20)
#    0.000    0.500    2.500    4.500   10.500    1.000 
#    0.000    0.000    0.000    0.000    0.000    0.000 
#    0.000    0.000    0.000    0.000    0.000    0.000 
#
# Total GULP energy -178703.391500 kJ/mol
# GULP energy per Si atom -5584.480984 kJ/mol
# Density = 2.512420 g / cm^3
# Si number density = 25.181512 Si / 1000 Ang^3
#
#
#
# Elastic Constant Matrix: (Units=GPa)
#
#
# Indices 1 2 3 4 5 6 
#
# 1 110.9732 -7.2982 9.0201 0.0000 0.0000 0.0000
# 2 -7.2982 66.8471 16.0405 0.0000 0.0000 0.0000
# 3 9.0201 16.0405 65.1876 0.0000 0.0000 0.0000
# 4 0.0000 0.0000 0.0000 24.9148 0.0000 0.0000
# 5 0.0000 0.0000 0.0000 0.0000 50.4607 0.0000
# 6 0.0000 0.0000 0.0000 0.0000 0.0000 30.2696
#
#
#
# Elastic Compliance Matrix: (Units=1/GPa)
#
#
# Indices 1 2 3 4 5 6 
#
# 1 0.009235 0.001397 -0.001622 0.000000 0.000000 0.000000
# 2 0.001397 0.016110 -0.004157 0.000000 0.000000 0.000000
# 3 -0.001622 -0.004157 0.016588 0.000000 0.000000 0.000000
# 4 0.000000 0.000000 0.000000 0.040137 0.000000 0.000000
# 5 0.000000 0.000000 0.000000 0.000000 0.019817 0.000000
# 6 0.000000 0.000000 0.000000 0.000000 0.000000 0.033036
#
#
# Mechanical properties :
#
#
# Convention : Reuss Voigt Hill
#
# Bulk Modulus (GPa) = 30.14876 30.94807 30.54842
# Shear Modulus (GPa) = 32.31172 36.14540 34.22856
#
# Velocity S-wave (km/s) = 3.58600 3.79277 3.69083
# Velocity P-wave (km/s) = 5.39856 5.61220 5.50642
#
# Compressibility (1/GPa) = 0.03316886
#
# Stress axis : x y z
#
# Youngs Moduli (GPa) = 108.28486 62.07450 60.28548
#
# Poissons Ratio (x) = -0.08674 0.09776
# Poissons Ratio (y) = -0.15132 0.25063
# Poissons Ratio (z) = 0.17561 0.25807
#
# Static dielectric constant tensor:
#      x y z
#    x 1.935210 0.000000 0.000000 
#    y 0.000000 2.117120 0.000000 
#    z 0.000000 0.000000 2.078920 
# 
# From -- ./inp_files/3896.got.cif
#   From: 2010.05.17/outbox.cif.g08.bks.cpg/sg29_2_cif.got.tgz:3896.got - 2010.06.04 01:19:37.
