data_PCOD9341016
_publ_section_title
;
Structure prediction by ZEFSAII (Michael W. Deem and Ramdas Pophale) SiO2 
 PCOD9341016
Probable space group: P C A 21
;
_chemical_formula_sum "Si O2"
_cell_formula_units_Z 16
_cell_length_a 10.656557
_cell_length_b 4.993612
_cell_length_c 10.513451
_cell_angle_alpha 90.000000
_cell_angle_beta 90.000000
_cell_angle_gamma 90.000000
_cell_volume 559.470256
_symmetry_space_group_name_H-M "P C A 21"
_symmetry_group_IT_number 29
_symmetry_cell_setting 'orthorhombic'
loop_
_space_group_symop_operation_xyz
x,y,z
-x,-y,1/2+z
1/2-x,y,1/2+z
1/2+x,-y,z
loop_
_atom_site_type_symbol
_atom_site_label
_atom_site_fract_x
_atom_site_fract_y
_atom_site_fract_z
Si Si1 0.984461 0.177004 0.012910
Si Si2 0.945623 0.691953 0.857328
Si Si3 0.722705 0.099990 0.081390
Si Si4 0.208903 0.576094 0.814313
O O1 0.118091 0.127632 0.076693
O O2 0.869500 0.029635 0.083052
O O3 0.985129 0.994611 0.885711
O O4 0.958754 0.481501 0.975714
O O5 0.795980 0.684786 0.831267
O O6 0.062428 0.572579 0.774382
O O7 0.710930 0.275390 0.206850
O O8 0.709655 0.272482 0.950756
#
# Coordination Sequence:
#
# PCOD9341016 Si02
#       4
#     4   4   4   4
#     4  10  22  44  68  98 132 172 216 268 324 386
#     4  10  22  44  68  98 132 172 216 268 324 386
#     4  10  23  42  66  96 130 170 216 266 322 384
#     4  10  23  42  66  96 130 170 216 266 322 384
#
# _framework density 28.598479999999999
#
# number of rings (size 3 to 8) (size 9 to 14) (size 15 to 20)
#    0.000    2.000    0.000    1.500    0.000   16.000 
#    0.000   22.500    0.000    0.000    0.000    0.000 
#    0.000    0.000    0.000    0.000    0.000    0.000 
#
# Total GULP energy -89404.412661 kJ/mol
# GULP energy per Si atom -5587.775791 kJ/mol
# Density = 2.853339 g / cm^3
# Si number density = 28.598480 Si / 1000 Ang^3
#
#
#
# Elastic Constant Matrix: (Units=GPa)
#
#
# Indices 1 2 3 4 5 6 
#
# 1 207.0736 15.8610 17.6696 0.0000 0.0000 0.0000
# 2 15.8610 104.0393 12.1097 0.0000 0.0000 0.0000
# 3 17.6696 12.1097 40.1089 0.0000 0.0000 0.0000
# 4 0.0000 0.0000 0.0000 35.7948 0.0000 0.0000
# 5 0.0000 0.0000 0.0000 0.0000 21.6325 0.0000
# 6 0.0000 0.0000 0.0000 0.0000 0.0000 48.0830
#
#
#
# Elastic Compliance Matrix: (Units=1/GPa)
#
#
# Indices 1 2 3 4 5 6 
#
# 1 0.005046 -0.000529 -0.002063 0.000000 0.000000 0.000000
# 2 -0.000529 0.010017 -0.002791 0.000000 0.000000 0.000000
# 3 -0.002063 -0.002791 0.026684 0.000000 0.000000 0.000000
# 4 0.000000 0.000000 0.000000 0.027937 0.000000 0.000000
# 5 0.000000 0.000000 0.000000 0.000000 0.046227 0.000000
# 6 0.000000 0.000000 0.000000 0.000000 0.000000 0.020797
#
#
# Mechanical properties :
#
#
# Convention : Reuss Voigt Hill
#
# Bulk Modulus (GPa) = 32.27919 49.16693 40.72306
# Shear Modulus (GPa) = 31.68538 41.47419 36.57978
#
# Velocity S-wave (km/s) = 3.33218 3.81231 3.58030
# Velocity P-wave (km/s) = 5.11039 6.05043 5.60017
#
# Compressibility (1/GPa) = 0.03097972
#
# Stress axis : x y z
#
# Youngs Moduli (GPa) = 198.18565 99.82721 37.47601
#
# Poissons Ratio (x) = 0.05282 0.07732
# Poissons Ratio (y) = 0.10486 0.10461
# Poissons Ratio (z) = 0.40888 0.27865
#
# Static dielectric constant tensor:
#      x y z
#    x 2.320630 0.000000 0.000000 
#    y 0.000000 2.229010 0.000000 
#    z 0.000000 0.000000 2.419900 
# 
# From -- ./inp_files/2984.got.cif
#   From: 2010.05.17/outbox.cif.g08.bks.cpg/sg29_2_cif.got.tgz:2984.got - 2010.06.04 01:19:37.
