data_PCOD9341057
_publ_section_title
;
Structure prediction by ZEFSAII (Michael W. Deem and Ramdas Pophale) SiO2 
 PCOD9341057
Probable space group: P C A 21
;
_chemical_formula_sum "Si O2"
_cell_formula_units_Z 32
_cell_length_a 15.518672
_cell_length_b 6.420248
_cell_length_c 13.445642
_cell_angle_alpha 90.000000
_cell_angle_beta 90.000000
_cell_angle_gamma 90.000000
_cell_volume 1339.639369
_symmetry_space_group_name_H-M "P C A 21"
_symmetry_group_IT_number 29
_symmetry_cell_setting 'orthorhombic'
loop_
_space_group_symop_operation_xyz
x,y,z
-x,-y,1/2+z
1/2-x,y,1/2+z
1/2+x,-y,z
loop_
_atom_site_type_symbol
_atom_site_label
_atom_site_fract_x
_atom_site_fract_y
_atom_site_fract_z
Si Si1 0.367626 0.361086 0.611430
Si Si2 0.566123 0.965527 0.990664
Si Si3 0.551370 0.399880 0.716183
Si Si4 0.915780 0.746207 0.070688
Si Si5 0.815154 0.310774 0.450930
Si Si6 0.296254 0.638683 0.769513
Si Si7 0.963040 0.423527 0.898392
Si Si8 0.200732 0.883019 0.619100
O O1 0.362503 0.137443 0.562478
O O2 0.460589 0.355407 0.662631
O O3 0.364490 0.527813 0.521895
O O4 0.302256 0.447238 0.692629
O O5 0.512735 0.778764 0.940168
O O6 0.497993 0.107037 0.049494
O O7 0.624482 0.115440 0.924315
O O8 0.578205 0.623794 0.673429
O O9 0.724842 0.403952 0.852034
O O10 0.619664 0.235317 0.672656
O O11 0.920992 0.571150 0.983519
O O12 0.833820 0.896031 0.080717
O O13 0.736217 0.234684 0.521400
O O14 0.973465 0.435451 0.330851
O O15 0.387193 0.654552 0.825290
O O16 0.272546 0.842175 0.704696
#
# Coordination Sequence:
#
# PCOD9341057 Si02
#       8
#     4   4   4   4   4   4   4   4
#     4  10  22  47  71 100 146 195 242 310 365 448
#     4  12  23  43  76 105 142 200 251 306 373 451
#     4  11  23  44  73 104 141 193 248 304 373 445
#     4  12  23  45  75 104 144 196 252 312 371 447
#     4  11  24  45  71 105 152 191 250 311 379 445
#     4  10  25  47  71 105 153 194 241 316 379 445
#     4  11  26  46  74 108 149 200 250 312 376 458
#     4  11  26  45  73 107 151 191 250 319 378 447
#
# _framework density 23.887027
#
# number of rings (size 3 to 8) (size 9 to 14) (size 15 to 20)
#    0.000    1.000    3.750    1.500    5.250    3.000 
#    0.000    8.750    0.000    0.000    0.000    0.000 
#    0.000    0.000    0.000    0.000    0.000    0.000 
#
# Total GULP energy -178981.632853 kJ/mol
# GULP energy per Si atom -5593.176027 kJ/mol
# Density = 2.383266 g / cm^3
# Si number density = 23.887027 Si / 1000 Ang^3
#
#
#
# Elastic Constant Matrix: (Units=GPa)
#
#
# Indices 1 2 3 4 5 6 
#
# 1 115.2559 64.5639 49.8320 0.0000 0.0000 0.0000
# 2 64.5639 106.3156 60.1856 0.0000 0.0000 0.0000
# 3 49.8320 60.1856 140.2328 0.0000 0.0000 0.0000
# 4 0.0000 0.0000 0.0000 35.6827 0.0000 0.0000
# 5 0.0000 0.0000 0.0000 0.0000 48.9341 0.0000
# 6 0.0000 0.0000 0.0000 0.0000 0.0000 49.7980
#
#
#
# Elastic Compliance Matrix: (Units=1/GPa)
#
#
# Indices 1 2 3 4 5 6 
#
# 1 0.013443 -0.007212 -0.001682 0.000000 0.000000 0.000000
# 2 -0.007212 0.016294 -0.004430 0.000000 0.000000 0.000000
# 3 -0.001682 -0.004430 0.009630 0.000000 0.000000 0.000000
# 4 0.000000 0.000000 0.000000 0.028025 0.000000 0.000000
# 5 0.000000 0.000000 0.000000 0.000000 0.020436 0.000000
# 6 0.000000 0.000000 0.000000 0.000000 0.000000 0.020081
#
#
# Mechanical properties :
#
#
# Convention : Reuss Voigt Hill
#
# Bulk Modulus (GPa) = 78.62197 78.99636 78.80917
# Shear Modulus (GPa) = 36.02400 39.36449 37.69424
#
# Velocity S-wave (km/s) = 3.88764 4.06389 3.97674
# Velocity P-wave (km/s) = 7.28953 7.42717 7.35867
#
# Compressibility (1/GPa) = 0.01271909
#
# Stress axis : x y z
#
# Youngs Moduli (GPa) = 74.38542 61.37389 103.84172
#
# Poissons Ratio (x) = 0.44262 0.17466
# Poissons Ratio (y) = 0.53646 0.46004
# Poissons Ratio (z) = 0.12511 0.27190
#
# Static dielectric constant tensor:
#      x y z
#    x 1.975480 0.000000 0.000000 
#    y 0.000000 1.890750 0.000000 
#    z 0.000000 0.000000 1.911260 
# 
# From -- ./inp_files/5321.got.cif
#   From: 2010.05.17/outbox.cif.g08.bks.cpg/sg29_3_cif.got.tgz:5321.got - 2010.06.04 01:19:37.
