data_PCOD9341377
_publ_section_title
;
Structure prediction by ZEFSAII (Michael W. Deem and Ramdas Pophale) SiO2 
 PCOD9341377
Probable space group: P C A 21
;
_chemical_formula_sum "Si O2"
_cell_formula_units_Z 24
_cell_length_a 9.695601
_cell_length_b 5.303537
_cell_length_c 16.244790
_cell_angle_alpha 90.000000
_cell_angle_beta 90.000000
_cell_angle_gamma 90.000000
_cell_volume 835.323000
_symmetry_space_group_name_H-M "P C A 21"
_symmetry_group_IT_number 29
_symmetry_cell_setting 'orthorhombic'
loop_
_space_group_symop_operation_xyz
x,y,z
-x,-y,1/2+z
1/2-x,y,1/2+z
1/2+x,-y,z
loop_
_atom_site_type_symbol
_atom_site_label
_atom_site_fract_x
_atom_site_fract_y
_atom_site_fract_z
Si Si1 0.748744 0.735309 0.029740
Si Si2 0.729332 0.292086 0.634227
Si Si3 0.981738 0.936483 0.155575
Si Si4 0.294067 0.339763 0.273388
Si Si5 0.629768 0.969121 0.387399
Si Si6 0.963483 0.538920 0.424081
O O1 0.797306 0.446890 0.051178
O O2 0.866682 0.867851 0.086158
O O3 0.750124 0.933833 0.954067
O O4 0.591934 0.635916 0.012339
O O5 0.777282 0.496260 0.702968
O O6 0.861675 0.102436 0.627932
O O7 0.582248 0.209674 0.672634
O O8 0.931482 0.772452 0.232235
O O9 0.193570 0.111233 0.300051
O O10 0.337238 0.476421 0.357729
O O11 0.535929 0.731309 0.417521
O O12 0.559864 0.236024 0.392053
#
# Coordination Sequence:
#
# PCOD9341377 Si02
#       6
#     4   4   4   4   4   4
#     4  10  26  46  71 109 153 198 265 323 395 467
#     4  11  26  48  73 116 154 214 258 332 392 475
#     4  11  26  44  79 106 158 204 268 318 400 471
#     4  10  26  46  71 109 153 198 265 323 395 467
#     4  11  26  45  77 106 152 200 256 318 394 466
#     4  11  26  45  77 106 152 200 256 318 394 466
#
# _framework density 28.731399
#
# number of rings (size 3 to 8) (size 9 to 14) (size 15 to 20)
#    0.000    1.333    0.000    2.000   14.000    8.000 
#    0.000    0.000    0.000    0.000    0.000    0.000 
#    0.000    0.000    0.000    0.000    0.000    0.000 
#
# Total GULP energy -133862.018941 kJ/mol
# GULP energy per Si atom -5577.584123 kJ/mol
# Density = 2.866601 g / cm^3
# Si number density = 28.731399 Si / 1000 Ang^3
#
#
#
# Elastic Constant Matrix: (Units=GPa)
#
#
# Indices 1 2 3 4 5 6 
#
# 1 161.4095 44.4998 18.2017 0.0000 0.0000 0.0000
# 2 44.4998 65.0999 -3.0716 0.0000 0.0000 0.0000
# 3 18.2017 -3.0716 89.7563 0.0000 0.0000 0.0000
# 4 0.0000 0.0000 0.0000 39.1156 0.0000 0.0000
# 5 0.0000 0.0000 0.0000 0.0000 42.0837 0.0000
# 6 0.0000 0.0000 0.0000 0.0000 0.0000 44.3826
#
#
#
# Elastic Compliance Matrix: (Units=1/GPa)
#
#
# Indices 1 2 3 4 5 6 
#
# 1 0.007912 -0.005493 -0.001792 0.000000 0.000000 0.000000
# 2 -0.005493 0.019199 0.001771 0.000000 0.000000 0.000000
# 3 -0.001792 0.001771 0.011565 0.000000 0.000000 0.000000
# 4 0.000000 0.000000 0.000000 0.025565 0.000000 0.000000
# 5 0.000000 0.000000 0.000000 0.000000 0.023762 0.000000
# 6 0.000000 0.000000 0.000000 0.000000 0.000000 0.022531
#
#
# Mechanical properties :
#
#
# Convention : Reuss Voigt Hill
#
# Bulk Modulus (GPa) = 36.16919 48.39173 42.28046
# Shear Modulus (GPa) = 38.23214 42.22542 40.22878
#
# Velocity S-wave (km/s) = 3.65180 3.83777 3.74594
# Velocity P-wave (km/s) = 5.51334 6.04296 5.78422
#
# Compressibility (1/GPa) = 0.02764784
#
# Stress axis : x y z
#
# Youngs Moduli (GPa) = 126.39186 52.08531 86.46501
#
# Poissons Ratio (x) = 0.28610 0.15498
# Poissons Ratio (y) = 0.69425 -0.15312
# Poissons Ratio (z) = 0.22655 -0.09224
#
# Static dielectric constant tensor:
#      x y z
#    x 2.252480 0.000000 0.000000 
#    y 0.000000 2.448960 0.000000 
#    z 0.000000 0.000000 2.543700 
# 
# From -- ./inp_files/5071.got.cif
#   From: 2010.05.17/outbox.cif.g08.bks.cpg/sg29_3_cif.got.tgz:5071.got - 2010.06.04 01:19:37.
