data_PCOD9341934
_publ_section_title
;
Structure prediction by ZEFSAII (Michael W. Deem and Ramdas Pophale) SiO2 
 PCOD9341934
Probable space group: P N C 2
;
_chemical_formula_sum "Si O2"
_cell_formula_units_Z 28
_cell_length_a 15.648904
_cell_length_b 7.555735
_cell_length_c 9.741201
_cell_angle_alpha 90.000000
_cell_angle_beta 90.000000
_cell_angle_gamma 90.000000
_cell_volume 1151.789589
_symmetry_space_group_name_H-M "P N C 2"
_symmetry_group_IT_number 30
_symmetry_cell_setting 'orthorhombic'
loop_
_space_group_symop_operation_xyz
x,y,z
-x,-y,z
-x,1/2+y,1/2+z
x,1/2-y,1/2+z
loop_
_atom_site_type_symbol
_atom_site_label
_atom_site_fract_x
_atom_site_fract_y
_atom_site_fract_z
Si Si1 0.117124 0.938619 0.335270
Si Si2 0.598180 0.961673 0.653953
Si Si3 0.291890 0.423004 0.400026
Si Si4 0.403138 0.461317 0.637343
Si Si5 0.000000 0.000000 0.090301
Si Si6 0.693518 0.011480 0.393179
Si Si7 0.000000 0.000000 0.580689
Si Si8 0.107743 0.360955 0.335348
O O1 0.217090 0.896701 0.353441
O O2 0.118470 0.151724 0.329553
O O3 0.062897 0.893814 0.197498
O O4 0.061297 0.895765 0.471229
O O5 0.636138 0.000519 0.801449
O O6 0.602878 0.750129 0.643465
O O7 0.657454 0.054729 0.542091
O O8 0.500000 0.000000 0.634522
O O9 0.320171 0.500722 0.544793
O O10 0.295241 0.205720 0.397981
O O11 0.197601 0.460774 0.347487
O O12 0.500000 0.500000 0.591025
O O13 0.381766 0.544120 0.784110
O O14 0.060145 0.098319 0.979119
O O15 0.936577 0.911523 0.691973
#
# Coordination Sequence:
#
# PCOD9341934 Si02
#       8
#     4   4   4   4   2   4   2   4
#     4  10  19  34  53  75 104 134 174 224 262 305
#     4  10  19  32  52  77 104 134 172 214 259 310
#     4   9  18  32  53  76  96 127 170 215 257 303
#     4  10  19  32  52  77 104 134 172 214 259 310
#     4  10  20  30  52  80  98 130 168 212 272 316
#     4   9  18  32  53  76  96 127 170 215 257 303
#     4  10  20  30  52  80  98 130 168 212 272 316
#     4  10  19  34  53  75 104 134 174 224 262 305
#
# _framework density 24.309995000000001
#
# number of rings (size 3 to 8) (size 9 to 14) (size 15 to 20)
#    0.000    2.286    0.000    3.429    0.000    4.571 
#    0.000    0.000    0.000   34.286    0.000    0.000 
#    0.000    0.000    0.000    0.000    0.000    0.000 
#
# Total GULP energy -156265.884806 kJ/mol
# GULP energy per Si atom -5580.924457 kJ/mol
# Density = 2.425466 g / cm^3
# Si number density = 24.309995 Si / 1000 Ang^3
#
#
#
# Elastic Constant Matrix: (Units=GPa)
#
#
# Indices 1 2 3 4 5 6 
#
# 1 109.9438 -5.9971 5.1129 0.0000 0.0000 0.0000
# 2 -5.9971 38.5746 1.3593 0.0000 0.0000 0.0000
# 3 5.1129 1.3593 103.6795 0.0000 0.0000 0.0000
# 4 0.0000 0.0000 0.0000 16.8910 0.0000 0.0000
# 5 0.0000 0.0000 0.0000 0.0000 25.1058 0.0000
# 6 0.0000 0.0000 0.0000 0.0000 0.0000 24.9253
#
#
#
# Elastic Compliance Matrix: (Units=1/GPa)
#
#
# Indices 1 2 3 4 5 6 
#
# 1 0.009196 0.001446 -0.000472 0.000000 0.000000 0.000000
# 2 0.001446 0.026163 -0.000414 0.000000 0.000000 0.000000
# 3 -0.000472 -0.000414 0.009674 0.000000 0.000000 0.000000
# 4 0.000000 0.000000 0.000000 0.059203 0.000000 0.000000
# 5 0.000000 0.000000 0.000000 0.000000 0.039831 0.000000
# 6 0.000000 0.000000 0.000000 0.000000 0.000000 0.040120
#
#
# Mechanical properties :
#
#
# Convention : Reuss Voigt Hill
#
# Bulk Modulus (GPa) = 21.66723 28.12758 24.89741
# Shear Modulus (GPa) = 25.19489 30.16595 27.68042
#
# Velocity S-wave (km/s) = 3.22281 3.52644 3.37804
# Velocity P-wave (km/s) = 4.77294 5.30816 5.04765
#
# Compressibility (1/GPa) = 0.04615265
#
# Stress axis : x y z
#
# Youngs Moduli (GPa) = 108.73796 38.22151 103.37161
#
# Poissons Ratio (x) = -0.05528 0.04884
# Poissons Ratio (y) = -0.15728 0.04283
# Poissons Ratio (z) = 0.05138 0.01584
#
# Static dielectric constant tensor:
#      x y z
#    x 1.921510 0.000000 0.000000 
#    y 0.000000 1.858060 0.000000 
#    z 0.000000 0.000000 1.888570 
# 
# From -- ./inp_files/2654.got.cif
#   From: 2010.05.17/outbox.cif.g08.bks.cpg/sg30_2_cif.got.tgz:2654.got - 2010.06.03 17:03:02.
