data_PCOD9341222
_publ_section_title
;
Structure prediction by ZEFSAII (Michael W. Deem and Ramdas Pophale) SiO2 
 PCOD9341222
Probable space group: P C A 21
;
_chemical_formula_sum "Si O2"
_cell_formula_units_Z 28
_cell_length_a 8.992732
_cell_length_b 16.144074
_cell_length_c 9.523637
_cell_angle_alpha 90.000000
_cell_angle_beta 90.000000
_cell_angle_gamma 90.000000
_cell_volume 1382.635247
_symmetry_space_group_name_H-M "P C A 21"
_symmetry_group_IT_number 29
_symmetry_cell_setting 'orthorhombic'
loop_
_space_group_symop_operation_xyz
x,y,z
-x,-y,1/2+z
1/2-x,y,1/2+z
1/2+x,-y,z
loop_
_atom_site_type_symbol
_atom_site_label
_atom_site_fract_x
_atom_site_fract_y
_atom_site_fract_z
Si Si1 0.999922 0.880737 0.743640
Si Si2 0.501304 0.119353 0.044615
Si Si3 0.901340 0.568409 0.230631
Si Si4 0.747416 0.000235 0.644295
Si Si5 0.602090 0.264208 0.555731
Si Si6 0.094195 0.735273 0.230166
Si Si7 0.408608 0.430976 0.564548
O O1 0.017710 0.814522 0.620907
O O2 0.857021 0.938456 0.724592
O O3 0.141122 0.941979 0.736889
O O4 0.997227 0.837422 0.894114
O O5 0.363241 0.057303 0.056451
O O6 0.506873 0.186192 0.167585
O O7 0.647630 0.062710 0.059409
O O8 0.744974 0.576789 0.150052
O O9 0.883968 0.548562 0.398075
O O10 0.993184 0.653828 0.221539
O O11 0.994620 0.499460 0.146336
O O12 0.755607 0.274449 0.640246
O O13 0.633742 0.249981 0.392120
O O14 0.500325 0.345345 0.569230
#
# Coordination Sequence:
#
# PCOD9341222 Si02
#       7
#     4   4   4   4   4   4   4
#     4  11  23  41  65  92 128 172 218 272 327 386
#     4  11  23  41  65  92 128 172 218 272 327 386
#     4  11  25  45  71 103 136 174 215 266 321 389
#     4  10  24  40  62  96 126 166 222 272 330 384
#     4  11  25  43  65  96 132 171 218 268 325 386
#     4  11  25  43  65  96 132 171 218 268 325 386
#     4  11  25  45  71 103 136 174 215 266 321 389
#
# _framework density 20.251183000000001
#
# number of rings (size 3 to 8) (size 9 to 14) (size 15 to 20)
#    0.000    1.143    1.429    3.429    2.000   12.571 
#    0.000    0.000    0.000    0.000    0.000    0.000 
#    0.000    0.000    0.000    0.000    0.000    0.000 
#
# Total GULP energy -156541.050503 kJ/mol
# GULP energy per Si atom -5590.751804 kJ/mol
# Density = 2.020509 g / cm^3
# Si number density = 20.251183 Si / 1000 Ang^3
#
#
#
# Elastic Constant Matrix: (Units=GPa)
#
#
# Indices 1 2 3 4 5 6 
#
# 1 50.3198 9.1694 8.0549 0.0000 0.0000 0.0000
# 2 9.1694 71.5332 19.2784 0.0000 0.0000 0.0000
# 3 8.0549 19.2784 115.8252 0.0000 0.0000 0.0000
# 4 0.0000 0.0000 0.0000 31.6584 0.0000 0.0000
# 5 0.0000 0.0000 0.0000 0.0000 13.1954 0.0000
# 6 0.0000 0.0000 0.0000 0.0000 0.0000 25.0607
#
#
#
# Elastic Compliance Matrix: (Units=1/GPa)
#
#
# Indices 1 2 3 4 5 6 
#
# 1 0.020466 -0.002345 -0.001033 0.000000 0.000000 0.000000
# 2 -0.002345 0.014905 -0.002318 0.000000 0.000000 0.000000
# 3 -0.001033 -0.002318 0.009091 0.000000 0.000000 0.000000
# 4 0.000000 0.000000 0.000000 0.031587 0.000000 0.000000
# 5 0.000000 0.000000 0.000000 0.000000 0.075784 0.000000
# 6 0.000000 0.000000 0.000000 0.000000 0.000000 0.039903
#
#
# Mechanical properties :
#
#
# Convention : Reuss Voigt Hill
#
# Bulk Modulus (GPa) = 30.23861 34.52041 32.37951
# Shear Modulus (GPa) = 23.34805 27.39461 25.37133
#
# Velocity S-wave (km/s) = 3.39916 3.68195 3.54338
# Velocity P-wave (km/s) = 5.51089 5.92949 5.72402
#
# Compressibility (1/GPa) = 0.03307030
#
# Stress axis : x y z
#
# Youngs Moduli (GPa) = 48.86262 67.09275 109.99522
#
# Poissons Ratio (x) = 0.15733 0.11362
# Poissons Ratio (y) = 0.11458 0.25494
# Poissons Ratio (z) = 0.05047 0.15550
#
# Static dielectric constant tensor:
#      x y z
#    x 1.699110 0.000000 0.000000 
#    y 0.000000 1.679640 0.000000 
#    z 0.000000 0.000000 1.730770 
# 
# From -- ./inp_files/1188.got.cif
#   From: 2010.05.17/outbox.cif.g08.bks.cpg/sg29_1_cif.got.tgz:1188.got - 2010.06.04 01:19:37.
