data_PCOD9341649
_publ_section_title
;
Structure prediction by ZEFSAII (Michael W. Deem and Ramdas Pophale) SiO2 
 PCOD9341649
Probable space group: P C A 21
;
_chemical_formula_sum "Si O2"
_cell_formula_units_Z 24
_cell_length_a 11.745101
_cell_length_b 6.541745
_cell_length_c 13.537301
_cell_angle_alpha 90.000000
_cell_angle_beta 90.000000
_cell_angle_gamma 90.000000
_cell_volume 1040.117617
_symmetry_space_group_name_H-M "P C A 21"
_symmetry_group_IT_number 29
_symmetry_cell_setting 'orthorhombic'
loop_
_space_group_symop_operation_xyz
x,y,z
-x,-y,1/2+z
1/2-x,y,1/2+z
1/2+x,-y,z
loop_
_atom_site_type_symbol
_atom_site_label
_atom_site_fract_x
_atom_site_fract_y
_atom_site_fract_z
Si Si1 0.739670 0.253254 0.746730
Si Si2 0.754926 0.908467 0.412192
Si Si3 0.940898 0.552417 0.436719
Si Si4 0.885102 0.621824 0.793469
Si Si5 0.518386 0.213499 0.613212
Si Si6 0.375337 0.843978 0.561273
O O1 0.775782 0.473025 0.788998
O O2 0.627703 0.239707 0.680777
O O3 0.843410 0.214252 0.671845
O O4 0.726185 0.081585 0.829590
O O5 0.851680 0.734109 0.418862
O O6 0.642079 0.795883 0.374622
O O7 0.771016 0.024102 0.515464
O O8 0.027621 0.641273 0.518570
O O9 0.891402 0.350730 0.490372
O O10 0.007553 0.498372 0.337480
O O11 0.915057 0.714269 0.686353
O O12 0.484756 0.990862 0.571828
#
# Coordination Sequence:
#
# PCOD9341649 Si02
#       6
#     4   4   4   4   4   4
#     4  12  27  45  75 105 143 191 242 300 366 440
#     4  11  26  45  70 106 139 189 241 294 364 435
#     4  11  27  47  72 104 148 187 244 297 369 429
#     4  12  25  46  72 107 144 189 242 306 360 436
#     4  11  26  45  72 106 143 190 239 302 364 435
#     4  11  25  48  71 106 143 190 240 301 369 435
#
# _framework density 23.074314999999999
#
# number of rings (size 3 to 8) (size 9 to 14) (size 15 to 20)
#    0.000    0.667    3.333    3.000    9.333    2.667 
#    0.000    0.000    0.000    0.000    0.000    0.000 
#    0.000    0.000    0.000    0.000    0.000    0.000 
#
# Total GULP energy -134173.605733 kJ/mol
# GULP energy per Si atom -5590.566906 kJ/mol
# Density = 2.302180 g / cm^3
# Si number density = 23.074315 Si / 1000 Ang^3
#
#
#
# Elastic Constant Matrix: (Units=GPa)
#
#
# Indices 1 2 3 4 5 6 
#
# 1 26.7899 16.4991 -0.1260 0.0000 0.0000 0.0000
# 2 16.4991 105.4178 34.7481 0.0000 0.0000 0.0000
# 3 -0.1260 34.7481 92.4018 0.0000 0.0000 0.0000
# 4 0.0000 0.0000 0.0000 60.3059 0.0000 0.0000
# 5 0.0000 0.0000 0.0000 0.0000 39.8123 0.0000
# 6 0.0000 0.0000 0.0000 0.0000 0.0000 20.3208
#
#
#
# Elastic Compliance Matrix: (Units=1/GPa)
#
#
# Indices 1 2 3 4 5 6 
#
# 1 0.041973 -0.007520 0.002885 0.000000 0.000000 0.000000
# 2 -0.007520 0.012176 -0.004589 0.000000 0.000000 0.000000
# 3 0.002885 -0.004589 0.012552 0.000000 0.000000 0.000000
# 4 0.000000 0.000000 0.000000 0.016582 0.000000 0.000000
# 5 0.000000 0.000000 0.000000 0.000000 0.025118 0.000000
# 6 0.000000 0.000000 0.000000 0.000000 0.000000 0.049211
#
#
# Mechanical properties :
#
#
# Convention : Reuss Voigt Hill
#
# Bulk Modulus (GPa) = 20.72440 36.31686 28.52063
# Shear Modulus (GPa) = 26.02233 35.65371 30.83802
#
# Velocity S-wave (km/s) = 3.36186 3.93513 3.65974
# Velocity P-wave (km/s) = 4.90618 6.03492 5.49958
#
# Compressibility (1/GPa) = 0.04825229
#
# Stress axis : x y z
#
# Youngs Moduli (GPa) = 23.82510 82.13085 79.66900
#
# Poissons Ratio (x) = 0.61764 -0.22987
# Poissons Ratio (y) = 0.17917 0.36560
# Poissons Ratio (z) = -0.06874 0.37690
#
# Static dielectric constant tensor:
#      x y z
#    x 1.881710 0.000000 0.000000 
#    y 0.000000 1.873180 0.000000 
#    z 0.000000 0.000000 2.071270 
# 
# From -- ./inp_files/4419.got.cif
#   From: 2010.05.17/outbox.cif.g08.bks.cpg/sg29_3_cif.got.tgz:4419.got - 2010.06.04 01:19:37.
