data_PCOD9341311
_publ_section_title
;
Structure prediction by ZEFSAII (Michael W. Deem and Ramdas Pophale) SiO2 
 PCOD9341311
Probable space group: P C A 21
;
_chemical_formula_sum "Si O2"
_cell_formula_units_Z 20
_cell_length_a 9.513249
_cell_length_b 8.763495
_cell_length_c 9.964658
_cell_angle_alpha 90.000000
_cell_angle_beta 90.000000
_cell_angle_gamma 90.000000
_cell_volume 830.746662
_symmetry_space_group_name_H-M "P C A 21"
_symmetry_group_IT_number 29
_symmetry_cell_setting 'orthorhombic'
loop_
_space_group_symop_operation_xyz
x,y,z
-x,-y,1/2+z
1/2-x,y,1/2+z
1/2+x,-y,z
loop_
_atom_site_type_symbol
_atom_site_label
_atom_site_fract_x
_atom_site_fract_y
_atom_site_fract_z
Si Si1 0.390205 0.215668 0.367450
Si Si2 0.375470 0.607968 0.188476
Si Si3 0.141388 0.283822 0.573941
Si Si4 0.192155 0.688431 0.410414
Si Si5 0.059604 0.866697 0.865186
O O1 0.277684 0.262668 0.479707
O O2 0.324883 0.219010 0.219882
O O3 0.528560 0.320749 0.380347
O O4 0.456979 0.046195 0.371944
O O5 0.416112 0.453032 0.112458
O O6 0.278604 0.570106 0.317856
O O7 0.476014 0.743575 0.245029
O O8 0.284921 0.680330 0.068710
O O9 0.018541 0.199112 0.494492
O O10 0.271420 0.842331 0.367174
#
# Coordination Sequence:
#
# PCOD9341311 Si02
#       5
#     4   4   4   4   4
#     4  12  28  44  78 113 155 200 256 323 381 470
#     4  10  25  47  76 101 149 201 247 313 375 461
#     4  12  28  48  77 114 150 202 265 314 391 465
#     4  10  24  46  74 102 152 193 250 311 384 442
#     4  10  27  47  77 106 154 198 256 313 389 452
#
# _framework density 24.074729000000001
#
# number of rings (size 3 to 8) (size 9 to 14) (size 15 to 20)
#    1.200    0.000    0.000    3.600   11.200    1.600 
#    0.000    0.000    0.000    0.000    0.000    0.000 
#    0.000    0.000    0.000    0.000    0.000    0.000 
#
# Total GULP energy -111352.316187 kJ/mol
# GULP energy per Si atom -5567.615809 kJ/mol
# Density = 2.401993 g / cm^3
# Si number density = 24.074729 Si / 1000 Ang^3
#
#
#
# Elastic Constant Matrix: (Units=GPa)
#
#
# Indices 1 2 3 4 5 6 
#
# 1 110.1414 -13.2039 35.6863 0.0000 0.0000 0.0000
# 2 -13.2039 98.1946 33.3256 0.0000 0.0000 0.0000
# 3 35.6863 33.3256 159.2236 0.0000 0.0000 0.0000
# 4 0.0000 0.0000 0.0000 26.3665 0.0000 0.0000
# 5 0.0000 0.0000 0.0000 0.0000 43.4431 0.0000
# 6 0.0000 0.0000 0.0000 0.0000 0.0000 16.0049
#
#
#
# Elastic Compliance Matrix: (Units=1/GPa)
#
#
# Indices 1 2 3 4 5 6 
#
# 1 0.010261 0.002325 -0.002786 0.000000 0.000000 0.000000
# 2 0.002325 0.011490 -0.002926 0.000000 0.000000 0.000000
# 3 -0.002786 -0.002926 0.007517 0.000000 0.000000 0.000000
# 4 0.000000 0.000000 0.000000 0.037927 0.000000 0.000000
# 5 0.000000 0.000000 0.000000 0.000000 0.023019 0.000000
# 6 0.000000 0.000000 0.000000 0.000000 0.000000 0.062481
#
#
# Mechanical properties :
#
#
# Convention : Reuss Voigt Hill
#
# Bulk Modulus (GPa) = 44.45665 53.24172 48.84919
# Shear Modulus (GPa) = 29.94616 37.94634 33.94625
#
# Velocity S-wave (km/s) = 3.53070 3.97443 3.75912
# Velocity P-wave (km/s) = 5.92683 6.57455 6.25907
#
# Compressibility (1/GPa) = 0.02249382
#
# Stress axis : x y z
#
# Youngs Moduli (GPa) = 97.45800 87.03548 133.02479
#
# Poissons Ratio (x) = -0.20239 0.37067
# Poissons Ratio (y) = -0.22663 0.38923
# Poissons Ratio (z) = 0.27156 0.25466
#
# Static dielectric constant tensor:
#      x y z
#    x 1.885460 0.000000 0.000000 
#    y 0.000000 2.087630 0.000000 
#    z 0.000000 0.000000 1.947920 
# 
# From -- ./inp_files/1370.got.cif
#   From: 2010.05.17/outbox.cif.g08.bks.cpg/sg29_1_cif.got.tgz:1370.got - 2010.06.04 01:19:37.
