data_PCOD9341622
_publ_section_title
;
Structure prediction by ZEFSAII (Michael W. Deem and Ramdas Pophale) SiO2 
 PCOD9341622
Probable space group: P C A 21
;
_chemical_formula_sum "Si O2"
_cell_formula_units_Z 32
_cell_length_a 19.455077
_cell_length_b 6.614718
_cell_length_c 10.584107
_cell_angle_alpha 90.000000
_cell_angle_beta 90.000000
_cell_angle_gamma 90.000000
_cell_volume 1362.067121
_symmetry_space_group_name_H-M "P C A 21"
_symmetry_group_IT_number 29
_symmetry_cell_setting 'orthorhombic'
loop_
_space_group_symop_operation_xyz
x,y,z
-x,-y,1/2+z
1/2-x,y,1/2+z
1/2+x,-y,z
loop_
_atom_site_type_symbol
_atom_site_label
_atom_site_fract_x
_atom_site_fract_y
_atom_site_fract_z
Si Si1 0.444175 0.839501 0.398020
Si Si2 0.055826 0.660499 0.163323
Si Si3 0.931638 0.396726 0.140996
Si Si4 0.344845 0.193632 0.395034
Si Si5 0.213836 0.949822 0.341384
Si Si6 0.931637 0.103273 0.920347
Si Si7 0.844844 0.693632 0.666309
Si Si8 0.786165 0.449823 0.219959
O O1 0.415272 0.750000 0.530671
O O2 0.441954 0.686591 0.282459
O O3 0.401066 0.033609 0.346368
O O4 0.521894 0.905877 0.425618
O O5 0.058047 0.813410 0.278883
O O6 0.098935 0.466394 0.214976
O O7 0.978107 0.594121 0.135725
O O8 0.849787 0.413547 0.127535
O O9 0.957402 0.249999 0.030671
O O10 0.373026 0.249999 0.530672
O O11 0.321299 0.392551 0.319308
O O12 0.275010 0.066825 0.409312
O O13 0.150214 0.913545 0.433807
O O14 0.250000 0.750000 0.280671
O O15 0.178702 0.107449 0.242036
O O16 0.775009 0.566827 0.652031
#
# Coordination Sequence:
#
# PCOD9341622 Si02
#       8
#     4   4   4   4   4   4   4   4
#     4  12  25  47  72 106 154 196 252 315 376 459
#     4  12  25  47  72 106 154 196 252 315 376 459
#     4  12  26  43  74 103 148 191 248 305 376 438
#     4  11  25  42  73 101 142 193 248 298 380 452
#     4  11  25  45  68 107 143 193 243 314 369 446
#     4  12  26  43  74 103 148 191 248 305 376 438
#     4  11  25  42  73 101 142 193 248 298 380 452
#     4  11  25  45  68 107 143 193 243 314 369 446
#
# _framework density 23.493704000000001
#
# number of rings (size 3 to 8) (size 9 to 14) (size 15 to 20)
#    0.000    0.500    2.500    5.250    3.500    1.000 
#    0.000    0.000    0.000    0.000    0.000    0.000 
#    0.000    0.000    0.000    0.000    0.000    0.000 
#
# Total GULP energy -178820.928479 kJ/mol
# GULP energy per Si atom -5588.154015 kJ/mol
# Density = 2.344023 g / cm^3
# Si number density = 23.493704 Si / 1000 Ang^3
#
#
#
# Elastic Constant Matrix: (Units=GPa)
#
#
# Indices 1 2 3 4 5 6 
#
# 1 142.7521 43.5257 -3.2983 0.0000 0.0000 0.0000
# 2 43.5257 100.6620 17.7401 0.0000 0.0000 0.0000
# 3 -3.2983 17.7401 70.5118 0.0000 0.0000 0.0000
# 4 0.0000 0.0000 0.0000 41.5198 0.0000 0.0000
# 5 0.0000 0.0000 0.0000 0.0000 27.2190 0.0000
# 6 0.0000 0.0000 0.0000 0.0000 0.0000 42.8093
#
#
#
# Elastic Compliance Matrix: (Units=1/GPa)
#
#
# Indices 1 2 3 4 5 6 
#
# 1 0.008187 -0.003775 0.001333 0.000000 0.000000 0.000000
# 2 -0.003775 0.012136 -0.003230 0.000000 0.000000 0.000000
# 3 0.001333 -0.003230 0.015057 0.000000 0.000000 0.000000
# 4 0.000000 0.000000 0.000000 0.024085 0.000000 0.000000
# 5 0.000000 0.000000 0.000000 0.000000 0.036739 0.000000
# 6 0.000000 0.000000 0.000000 0.000000 0.000000 0.023359
#
#
# Mechanical properties :
#
#
# Convention : Reuss Voigt Hill
#
# Bulk Modulus (GPa) = 41.60498 47.76233 44.68365
# Shear Modulus (GPa) = 35.99228 39.37350 37.68289
#
# Velocity S-wave (km/s) = 3.91832 4.09824 4.00929
# Velocity P-wave (km/s) = 6.18210 6.53973 6.36343
#
# Compressibility (1/GPa) = 0.02403558
#
# Stress axis : x y z
#
# Youngs Moduli (GPa) = 122.14632 82.40186 66.41456
#
# Poissons Ratio (x) = 0.31105 -0.08851
# Poissons Ratio (y) = 0.46108 0.21451
# Poissons Ratio (z) = -0.16278 0.26614
#
# Static dielectric constant tensor:
#      x y z
#    x 1.870250 0.000000 0.000000 
#    y 0.000000 1.975670 0.000000 
#    z 0.000000 0.000000 1.901790 
# 
# From -- ./inp_files/3869.got.cif
#   From: 2010.05.17/outbox.cif.g08.bks.cpg/sg29_2_cif.got.tgz:3869.got - 2010.06.04 01:19:37.
