data_PCOD9341262
_publ_section_title
;
Structure prediction by ZEFSAII (Michael W. Deem and Ramdas Pophale) SiO2 
 PCOD9341262
Probable space group: P C A 21
;
_chemical_formula_sum "Si O2"
_cell_formula_units_Z 28
_cell_length_a 17.730164
_cell_length_b 8.416434
_cell_length_c 7.523618
_cell_angle_alpha 90.000000
_cell_angle_beta 90.000000
_cell_angle_gamma 90.000000
_cell_volume 1122.710054
_symmetry_space_group_name_H-M "P C A 21"
_symmetry_group_IT_number 29
_symmetry_cell_setting 'orthorhombic'
loop_
_space_group_symop_operation_xyz
x,y,z
-x,-y,1/2+z
1/2-x,y,1/2+z
1/2+x,-y,z
loop_
_atom_site_type_symbol
_atom_site_label
_atom_site_fract_x
_atom_site_fract_y
_atom_site_fract_z
Si Si1 0.354470 0.334511 0.169940
Si Si2 0.527072 0.131659 0.781141
Si Si3 0.638226 0.801606 0.290001
Si Si4 0.671695 0.143889 0.182797
Si Si5 0.292435 0.423134 0.512960
Si Si6 0.492982 0.778988 0.692437
Si Si7 0.173777 0.740765 0.814217
O O1 0.311248 0.296911 0.354174
O O2 0.294545 0.453002 0.071225
O O3 0.443406 0.357077 0.216431
O O4 0.360518 0.213655 0.004033
O O5 0.445454 0.177574 0.706899
O O6 0.599959 0.218240 0.700108
O O7 0.529002 0.941262 0.770156
O O8 0.519212 0.193535 0.982536
O O9 0.670368 0.649117 0.188186
O O10 0.678901 0.966608 0.253005
O O11 0.594270 0.224856 0.254670
O O12 0.745529 0.243436 0.226850
O O13 0.669654 0.129146 0.970307
O O14 0.330021 0.576578 0.423719
#
# Coordination Sequence:
#
# PCOD9341262 Si02
#       7
#     4   4   4   4   4   4   4
#     4  11  24  41  71  96 139 180 235 279 347 419
#     4   9  21  42  66  95 139 173 232 294 351 411
#     4  10  24  46  71 100 135 187 236 294 343 432
#     4  10  24  43  69  99 138 177 234 298 354 403
#     4  12  25  43  69 102 141 186 230 288 351 435
#     4   9  21  41  65  98 131 180 229 293 341 417
#     4  11  25  44  65 104 143 179 232 296 361 421
#
# _framework density 24.939654000000001
#
# number of rings (size 3 to 8) (size 9 to 14) (size 15 to 20)
#    0.000    1.714    1.429    0.857   10.000    2.286 
#    7.714    1.429    0.000    0.000    0.000    0.000 
#    0.000    0.000    0.000    0.000    0.000    0.000 
#
# Total GULP energy -156047.079860 kJ/mol
# GULP energy per Si atom -5573.109995 kJ/mol
# Density = 2.488289 g / cm^3
# Si number density = 24.939654 Si / 1000 Ang^3
#
#
#
# Elastic Constant Matrix: (Units=GPa)
#
#
# Indices 1 2 3 4 5 6 
#
# 1 172.4076 53.1575 5.3504 0.0000 0.0000 0.0000
# 2 53.1575 64.8409 -15.2830 0.0000 0.0000 0.0000
# 3 5.3504 -15.2830 60.1014 0.0000 0.0000 0.0000
# 4 0.0000 0.0000 0.0000 26.3422 0.0000 0.0000
# 5 0.0000 0.0000 0.0000 0.0000 28.0674 0.0000
# 6 0.0000 0.0000 0.0000 0.0000 0.0000 29.6169
#
#
#
# Elastic Compliance Matrix: (Units=1/GPa)
#
#
# Indices 1 2 3 4 5 6 
#
# 1 0.008119 -0.007262 -0.002569 0.000000 0.000000 0.000000
# 2 -0.007262 0.022900 0.006470 0.000000 0.000000 0.000000
# 3 -0.002569 0.006470 0.018512 0.000000 0.000000 0.000000
# 4 0.000000 0.000000 0.000000 0.037962 0.000000 0.000000
# 5 0.000000 0.000000 0.000000 0.000000 0.035629 0.000000
# 6 0.000000 0.000000 0.000000 0.000000 0.000000 0.033765
#
#
# Mechanical properties :
#
#
# Convention : Reuss Voigt Hill
#
# Bulk Modulus (GPa) = 23.35932 42.64441 33.00186
# Shear Modulus (GPa) = 28.10906 33.74697 30.92801
#
# Velocity S-wave (km/s) = 3.36085 3.68250 3.52535
# Velocity P-wave (km/s) = 4.94440 5.93441 5.46188
#
# Compressibility (1/GPa) = 0.04280946
#
# Stress axis : x y z
#
# Youngs Moduli (GPa) = 123.17016 43.66740 54.01780
#
# Poissons Ratio (x) = 0.31709 0.13879
# Poissons Ratio (y) = 0.89440 -0.34948
# Poissons Ratio (z) = 0.31646 -0.28252
#
# Static dielectric constant tensor:
#      x y z
#    x 2.149750 0.000000 0.000000 
#    y 0.000000 2.095030 0.000000 
#    z 0.000000 0.000000 2.028680 
# 
# From -- ./inp_files/2060.got.cif
#   From: 2010.05.17/outbox.cif.g08.bks.cpg/sg29_2_cif.got.tgz:2060.got - 2010.06.04 01:19:37.
