data_PCOD9341887
_publ_section_title
;
Structure prediction by ZEFSAII (Michael W. Deem and Ramdas Pophale) SiO2 
 PCOD9341887
Probable space group: P N C 2
;
_chemical_formula_sum "Si O2"
_cell_formula_units_Z 26
_cell_length_a 9.015117
_cell_length_b 16.985554
_cell_length_c 9.498977
_cell_angle_alpha 90.000000
_cell_angle_beta 90.000000
_cell_angle_gamma 90.000000
_cell_volume 1454.547539
_symmetry_space_group_name_H-M "P N C 2"
_symmetry_group_IT_number 30
_symmetry_cell_setting 'orthorhombic'
loop_
_space_group_symop_operation_xyz
x,y,z
-x,-y,z
-x,1/2+y,1/2+z
x,1/2-y,1/2+z
loop_
_atom_site_type_symbol
_atom_site_label
_atom_site_fract_x
_atom_site_fract_y
_atom_site_fract_z
Si Si1 0.274732 0.379849 0.585600
Si Si2 0.855830 0.860169 0.382770
Si Si3 0.597828 0.073298 0.664901
Si Si4 0.936245 0.420582 0.121814
Si Si5 0.633492 0.799041 0.610682
Si Si6 0.103888 0.316806 0.329870
Si Si7 0.500000 0.000000 0.943066
O O1 0.199254 0.395887 0.736269
O O2 0.361000 0.295314 0.596401
O O3 0.144585 0.362727 0.471944
O O4 0.387209 0.446540 0.532108
O O5 0.711613 0.838284 0.475666
O O6 0.927871 0.774472 0.356625
O O7 0.969993 0.907639 0.479371
O O8 0.761818 0.071847 0.604432
O O9 0.518988 0.156190 0.636434
O O10 0.500000 0.000000 0.606012
O O11 0.592700 0.054564 0.832708
O O12 0.000000 0.500000 0.188532
O O13 0.978454 0.352657 0.231310
O O14 0.743775 0.819680 0.739333
#
# Coordination Sequence:
#
# PCOD9341887 Si02
#       7
#     4   4   4   4   4   4   2
#     4  10  18  35  61  84 121 148 193 238 305 350
#     4   9  20  35  59  86 116 151 189 242 302 348
#     4  10  20  37  63  85 111 153 211 237 276 353
#     4  11  21  38  60  85 114 156 201 241 284 351
#     4   9  17  35  61  86 108 159 198 232 288 361
#     4   9  17  37  63  82 110 157 201 230 284 363
#     4  10  20  36  58  94 112 154 198 252 288 348
#
# _framework density 17.874974999999999
#
# number of rings (size 3 to 8) (size 9 to 14) (size 15 to 20)
#    0.462    1.846    1.538    3.692    0.000    0.000 
#    6.923    2.308    0.000    0.000    0.000    0.000 
#    0.000    0.000    0.000    0.000    0.000    0.000 
#
# Total GULP energy -144867.808537 kJ/mol
# GULP energy per Si atom -5571.838790 kJ/mol
# Density = 1.783429 g / cm^3
# Si number density = 17.874975 Si / 1000 Ang^3
#
#
#
# Elastic Constant Matrix: (Units=GPa)
#
#
# Indices 1 2 3 4 5 6 
#
# 1 92.7359 44.5030 21.7728 0.0000 0.0000 0.0000
# 2 44.5030 59.0794 26.4840 0.0000 0.0000 0.0000
# 3 21.7728 26.4840 106.9347 0.0000 0.0000 0.0000
# 4 0.0000 0.0000 0.0000 124.0586 0.0000 0.0000
# 5 0.0000 0.0000 0.0000 0.0000 12.9168 0.0000
# 6 0.0000 0.0000 0.0000 0.0000 0.0000 27.4280
#
#
#
# Elastic Compliance Matrix: (Units=1/GPa)
#
#
# Indices 1 2 3 4 5 6 
#
# 1 0.016898 -0.012584 -0.000324 0.000000 0.000000 0.000000
# 2 -0.012584 0.028411 -0.004474 0.000000 0.000000 0.000000
# 3 -0.000324 -0.004474 0.010526 0.000000 0.000000 0.000000
# 4 0.000000 0.000000 0.000000 0.008061 0.000000 0.000000
# 5 0.000000 0.000000 0.000000 0.000000 0.077419 0.000000
# 6 0.000000 0.000000 0.000000 0.000000 0.000000 0.036459
#
#
# Mechanical properties :
#
#
# Convention : Reuss Voigt Hill
#
# Bulk Modulus (GPa) = 47.45911 49.36327 48.41119
# Shear Modulus (GPa) = 22.77273 43.94669 33.35971
#
# Velocity S-wave (km/s) = 3.57319 4.96377 4.32473
# Velocity P-wave (km/s) = 6.60544 7.77996 7.21663
#
# Compressibility (1/GPa) = 0.02107077
#
# Stress axis : x y z
#
# Youngs Moduli (GPa) = 59.17803 35.19760 95.00638
#
# Poissons Ratio (x) = 0.44291 0.03079
# Poissons Ratio (y) = 0.74468 0.42509
# Poissons Ratio (z) = 0.01918 0.15748
#
# Static dielectric constant tensor:
#      x y z
#    x 1.589080 0.000000 0.000000 
#    y 0.000000 1.631640 0.000000 
#    z 0.000000 0.000000 1.644830 
# 
# From -- ./inp_files/1969.got.cif
#   From: 2010.05.17/outbox.cif.g08.bks.cpg/sg30_1_cif.got.tgz:1969.got - 2010.06.03 17:03:02.
