data_PCOD9341987
_publ_section_title
;
Structure prediction by ZEFSAII (Michael W. Deem and Ramdas Pophale) SiO2 
 PCOD9341987
Probable space group: P N C 2
;
_chemical_formula_sum "Si O2"
_cell_formula_units_Z 24
_cell_length_a 5.351913
_cell_length_b 8.651971
_cell_length_c 25.782701
_cell_angle_alpha 90.000000
_cell_angle_beta 90.000000
_cell_angle_gamma 90.000000
_cell_volume 1193.857555
_symmetry_space_group_name_H-M "P N C 2"
_symmetry_group_IT_number 30
_symmetry_cell_setting 'orthorhombic'
loop_
_space_group_symop_operation_xyz
x,y,z
-x,-y,z
-x,1/2+y,1/2+z
x,1/2-y,1/2+z
loop_
_atom_site_type_symbol
_atom_site_label
_atom_site_fract_x
_atom_site_fract_y
_atom_site_fract_z
Si Si1 0.000000 0.500000 0.201200
Si Si2 0.038149 0.316636 0.486586
Si Si3 0.500000 0.500000 0.133447
Si Si4 0.168168 0.728596 0.883267
Si Si5 0.469199 0.825412 0.531826
Si Si6 0.500000 0.500000 0.360317
Si Si7 0.500000 0.000000 0.332303
Si Si8 0.176675 0.220494 0.790268
O O1 0.249586 0.520440 0.166979
O O2 0.075942 0.352010 0.236983
O O3 0.028369 0.244594 0.428803
O O4 0.801898 0.240658 0.516842
O O5 0.000000 0.500000 0.484118
O O6 0.302859 0.276415 0.511641
O O7 0.494028 0.355663 0.093366
O O8 0.305613 0.570347 0.873430
O O9 0.059385 0.749822 0.826129
O O10 0.361686 0.868916 0.893014
O O11 0.500000 0.000000 0.509474
O O12 0.685624 0.585710 0.321678
O O13 0.359559 0.129815 0.296825
#
# Coordination Sequence:
#
# PCOD9341987 Si02
#       8
#     2   4   2   4   4   2   2   4
#     4  12  22  42  82 100 128 186 240 292 366 404
#     4  12  25  41  74 105 140 189 235 279 360 416
#     4  10  25  47  76 104 124 178 249 307 350 422
#     4  11  24  39  61  97 144 191 225 276 335 435
#     4  10  25  47  70  99 139 174 236 306 346 420
#     4  10  19  38  58  92 144 180 222 273 314 406
#     4  10  26  39  60  88 162 180 227 278 352 384
#     4  11  22  39  64 101 136 181 226 284 333 429
#
# _framework density 20.102902
#
# number of rings (size 3 to 8) (size 9 to 14) (size 15 to 20)
#    0.500    0.667    1.667    4.000   10.500    1.333 
#    0.000    0.000    7.333    0.000    0.000    0.000 
#    0.000    0.000    0.000    0.000    0.000    0.000 
#
# Total GULP energy -133879.440790 kJ/mol
# GULP energy per Si atom -5578.310033 kJ/mol
# Density = 2.005715 g / cm^3
# Si number density = 20.102902 Si / 1000 Ang^3
#
#
#
# Elastic Constant Matrix: (Units=GPa)
#
#
# Indices 1 2 3 4 5 6 
#
# 1 78.9441 17.0251 27.0034 0.0000 0.0000 0.0000
# 2 17.0251 86.0803 23.5425 0.0000 0.0000 0.0000
# 3 27.0034 23.5425 107.0033 0.0000 0.0000 0.0000
# 4 0.0000 0.0000 0.0000 24.3681 0.0000 0.0000
# 5 0.0000 0.0000 0.0000 0.0000 41.0792 0.0000
# 6 0.0000 0.0000 0.0000 0.0000 0.0000 43.3918
#
#
#
# Elastic Compliance Matrix: (Units=1/GPa)
#
#
# Indices 1 2 3 4 5 6 
#
# 1 0.014162 -0.001940 -0.003147 0.000000 0.000000 0.000000
# 2 -0.001940 0.012627 -0.002288 0.000000 0.000000 0.000000
# 3 -0.003147 -0.002288 0.010643 0.000000 0.000000 0.000000
# 4 0.000000 0.000000 0.000000 0.041037 0.000000 0.000000
# 5 0.000000 0.000000 0.000000 0.000000 0.024343 0.000000
# 6 0.000000 0.000000 0.000000 0.000000 0.000000 0.023046
#
#
# Mechanical properties :
#
#
# Convention : Reuss Voigt Hill
#
# Bulk Modulus (GPa) = 44.09088 45.24106 44.66597
# Shear Modulus (GPa) = 33.74503 35.39828 34.57165
#
# Velocity S-wave (km/s) = 4.10153 4.20081 4.15147
# Velocity P-wave (km/s) = 6.66411 6.78842 6.72655
#
# Compressibility (1/GPa) = 0.02268043
#
# Stress axis : x y z
#
# Youngs Moduli (GPa) = 70.61099 79.19737 93.95681
#
# Poissons Ratio (x) = 0.15367 0.29569
# Poissons Ratio (y) = 0.13701 0.21501
# Poissons Ratio (z) = 0.22222 0.18124
#
# Static dielectric constant tensor:
#      x y z
#    x 1.754350 0.000000 0.000000 
#    y 0.000000 1.808490 0.000000 
#    z 0.000000 0.000000 1.707830 
# 
# From -- ./inp_files/7222.got.cif
#   From: 2010.05.17/outbox.cif.g08.bks.cpg/sg30_4_cif.got.tgz:7222.got - 2010.06.03 17:03:02.
