data_PCOD9341105
_publ_section_title
;
Structure prediction by ZEFSAII (Michael W. Deem and Ramdas Pophale) SiO2 
 PCOD9341105
Probable space group: P C A 21
;
_chemical_formula_sum "Si O2"
_cell_formula_units_Z 28
_cell_length_a 26.368569
_cell_length_b 7.385089
_cell_length_c 5.903375
_cell_angle_alpha 90.000000
_cell_angle_beta 90.000000
_cell_angle_gamma 90.000000
_cell_volume 1149.589178
_symmetry_space_group_name_H-M "P C A 21"
_symmetry_group_IT_number 29
_symmetry_cell_setting 'orthorhombic'
loop_
_space_group_symop_operation_xyz
x,y,z
-x,-y,1/2+z
1/2-x,y,1/2+z
1/2+x,-y,z
loop_
_atom_site_type_symbol
_atom_site_label
_atom_site_fract_x
_atom_site_fract_y
_atom_site_fract_z
Si Si1 0.960912 0.795793 0.020060
Si Si2 0.888160 0.662983 0.376040
Si Si3 0.117961 0.944525 0.007784
Si Si4 0.269110 0.945397 0.354621
Si Si5 0.546192 0.339247 0.800742
Si Si6 0.054684 0.799431 0.357347
Si Si7 0.769894 0.620737 0.353105
O O1 0.908749 0.741010 0.136005
O O2 0.006484 0.755952 0.199593
O O3 0.986265 0.687017 0.815037
O O4 0.960525 0.005199 0.957015
O O5 0.925349 0.498051 0.431046
O O6 0.830629 0.597796 0.360587
O O7 0.890095 0.840726 0.534532
O O8 0.170950 0.916630 0.887307
O O9 0.073209 0.850191 0.867689
O O10 0.108761 0.841386 0.242144
O O11 0.246657 0.880117 0.600574
O O12 0.258749 0.162311 0.350945
O O13 0.559870 0.356012 0.539131
O O14 0.749360 0.554953 0.602295
#
# Coordination Sequence:
#
# PCOD9341105 Si02
#       7
#     4   4   4   4   4   4   4
#     4  11  22  39  63  94 128 177 216 270 336 405
#     4  11  24  42  69 100 125 184 227 282 349 415
#     4  10  23  42  64  90 132 176 220 281 353 407
#     4   9  19  35  66  98 125 171 232 286 346 420
#     4  11  25  42  61  97 139 166 235 276 337 419
#     4  11  21  41  65  88 139 180 213 280 342 407
#     4   9  20  43  66  97 136 174 227 293 353 417
#
# _framework density 24.356525999999999
#
# number of rings (size 3 to 8) (size 9 to 14) (size 15 to 20)
#    0.000    1.714    2.857    0.857    4.000    3.429 
#    7.714    1.429    0.000    0.000    0.000    0.000 
#    0.000    0.000    0.000    0.000    0.000    0.000 
#
# Total GULP energy -156135.260574 kJ/mol
# GULP energy per Si atom -5576.259306 kJ/mol
# Density = 2.430109 g / cm^3
# Si number density = 24.356526 Si / 1000 Ang^3
#
#
#
# Elastic Constant Matrix: (Units=GPa)
#
#
# Indices 1 2 3 4 5 6 
#
# 1 108.2910 17.7451 49.6222 0.0000 0.0000 0.0000
# 2 17.7451 57.4670 4.0910 0.0000 0.0000 0.0000
# 3 49.6222 4.0910 110.6314 0.0000 0.0000 0.0000
# 4 0.0000 0.0000 0.0000 18.4087 0.0000 0.0000
# 5 0.0000 0.0000 0.0000 0.0000 25.5509 0.0000
# 6 0.0000 0.0000 0.0000 0.0000 0.0000 3.5606
#
#
#
# Elastic Compliance Matrix: (Units=1/GPa)
#
#
# Indices 1 2 3 4 5 6 
#
# 1 0.012252 -0.003401 -0.005370 0.000000 0.000000 0.000000
# 2 -0.003401 0.018391 0.000845 0.000000 0.000000 0.000000
# 3 -0.005370 0.000845 0.011416 0.000000 0.000000 0.000000
# 4 0.000000 0.000000 0.000000 0.054322 0.000000 0.000000
# 5 0.000000 0.000000 0.000000 0.000000 0.039138 0.000000
# 6 0.000000 0.000000 0.000000 0.000000 0.000000 0.280855
#
#
# Mechanical properties :
#
#
# Convention : Reuss Voigt Hill
#
# Bulk Modulus (GPa) = 38.15492 46.58957 42.37224
# Shear Modulus (GPa) = 11.33886 23.16610 17.25248
#
# Velocity S-wave (km/s) = 2.15997 3.08738 2.66434
# Velocity P-wave (km/s) = 4.68186 5.64614 5.18646
#
# Compressibility (1/GPa) = 0.02620894
#
# Stress axis : x y z
#
# Youngs Moduli (GPa) = 81.61713 54.37348 87.59377
#
# Poissons Ratio (x) = 0.18493 0.47037
# Poissons Ratio (y) = 0.27759 -0.07405
# Poissons Ratio (z) = 0.43827 -0.04597
#
# Static dielectric constant tensor:
#      x y z
#    x 1.864540 0.000000 0.000000 
#    y 0.000000 1.923240 0.000000 
#    z 0.000000 0.000000 2.265580 
# 
# From -- ./inp_files/769.got.cif
#   From: 2010.05.17/outbox.cif.g08.bks.cpg/sg29_1_cif.got.tgz:769.got - 2010.06.04 01:19:37.
