data_PCOD9341106
_publ_section_title
;
Structure prediction by ZEFSAII (Michael W. Deem and Ramdas Pophale) SiO2 
 PCOD9341106
Probable space group: P C A 21
;
_chemical_formula_sum "Si O2"
_cell_formula_units_Z 24
_cell_length_a 14.309474
_cell_length_b 7.846939
_cell_length_c 9.277906
_cell_angle_alpha 90.000000
_cell_angle_beta 90.000000
_cell_angle_gamma 90.000000
_cell_volume 1041.774960
_symmetry_space_group_name_H-M "P C A 21"
_symmetry_group_IT_number 29
_symmetry_cell_setting 'orthorhombic'
loop_
_space_group_symop_operation_xyz
x,y,z
-x,-y,1/2+z
1/2-x,y,1/2+z
1/2+x,-y,z
loop_
_atom_site_type_symbol
_atom_site_label
_atom_site_fract_x
_atom_site_fract_y
_atom_site_fract_z
Si Si1 0.133937 0.421654 0.184370
Si Si2 0.222579 0.946845 0.863478
Si Si3 0.945292 0.620774 0.244890
Si Si4 0.445292 0.120774 0.512798
Si Si5 0.277421 0.553154 0.394211
Si Si6 0.633937 0.921654 0.573318
O O1 0.101376 0.234457 0.137276
O O2 0.195504 0.440480 0.326329
O O3 0.040584 0.533732 0.198101
O O4 0.196821 0.497849 0.055063
O O5 0.249007 0.750000 0.878844
O O6 0.196821 0.002150 0.702626
O O7 0.304496 0.059520 0.931359
O O8 0.129082 0.983360 0.956200
O O9 0.961674 0.750000 0.378844
O O10 0.870918 0.483360 0.301489
O O11 0.898624 0.734457 0.120412
O O12 0.540584 0.033732 0.559588
#
# Coordination Sequence:
#
# PCOD9341106 Si02
#       6
#     4   4   4   4   4   4
#     4  11  23  42  65  94 130 172 220 274 332 394
#     4  11  23  40  65  95 128 171 219 275 334 391
#     4  10  23  42  64  97 134 175 224 275 330 395
#     4  10  23  42  64  97 134 175 224 275 330 395
#     4  11  23  40  65  95 128 171 219 275 334 391
#     4  11  23  42  65  94 130 172 220 274 332 394
#
# _framework density 23.037603000000001
#
# number of rings (size 3 to 8) (size 9 to 14) (size 15 to 20)
#    0.000    1.333    0.000    5.000    0.000    5.333 
#    0.000   11.667    0.000    0.000    0.000    0.000 
#    0.000    0.000    0.000    0.000    0.000    0.000 
#
# Total GULP energy -134569.042913 kJ/mol
# GULP energy per Si atom -5607.043455 kJ/mol
# Density = 2.298517 g / cm^3
# Si number density = 23.037603 Si / 1000 Ang^3
#
#
#
# Elastic Constant Matrix: (Units=GPa)
#
#
# Indices 1 2 3 4 5 6 
#
# 1 75.6586 29.6743 59.1818 0.0000 0.0000 0.0000
# 2 29.6743 67.1809 47.4310 0.0000 0.0000 0.0000
# 3 59.1818 47.4310 91.7448 0.0000 0.0000 0.0000
# 4 0.0000 0.0000 0.0000 7.6423 0.0000 0.0000
# 5 0.0000 0.0000 0.0000 0.0000 42.8967 0.0000
# 6 0.0000 0.0000 0.0000 0.0000 0.0000 15.5876
#
#
#
# Elastic Compliance Matrix: (Units=1/GPa)
#
#
# Indices 1 2 3 4 5 6 
#
# 1 0.026694 0.000577 -0.017517 0.000000 0.000000 0.000000
# 2 0.000577 0.023454 -0.012498 0.000000 0.000000 0.000000
# 3 -0.017517 -0.012498 0.028661 0.000000 0.000000 0.000000
# 4 0.000000 0.000000 0.000000 0.130851 0.000000 0.000000
# 5 0.000000 0.000000 0.000000 0.000000 0.023312 0.000000
# 6 0.000000 0.000000 0.000000 0.000000 0.000000 0.064154
#
#
# Mechanical properties :
#
#
# Convention : Reuss Voigt Hill
#
# Bulk Modulus (GPa) = 50.17027 56.35094 53.26061
# Shear Modulus (GPa) = 13.78761 19.77846 16.78303
#
# Velocity S-wave (km/s) = 2.44904 2.93325 2.70201
# Velocity P-wave (km/s) = 5.46095 5.99879 5.73617
#
# Compressibility (1/GPa) = 0.01993212
#
# Stress axis : x y z
#
# Youngs Moduli (GPa) = 37.46226 42.63696 34.89082
#
# Poissons Ratio (x) = -0.02460 0.61120
# Poissons Ratio (y) = -0.02161 0.43605
# Poissons Ratio (z) = 0.65624 0.53286
#
# Static dielectric constant tensor:
#      x y z
#    x 1.803030 0.000000 0.000000 
#    y 0.000000 1.841350 0.000000 
#    z 0.000000 0.000000 1.863900 
# 
# From -- ./inp_files/1395.got.cif
#   From: 2010.05.17/outbox.cif.g08.bks.cpg/sg29_1_cif.got.tgz:1395.got - 2010.06.04 01:19:37.
