data_PCOD9341251
_publ_section_title
;
Structure prediction by ZEFSAII (Michael W. Deem and Ramdas Pophale) SiO2 
 PCOD9341251
Probable space group: P C A 21
;
_chemical_formula_sum "Si O2"
_cell_formula_units_Z 24
_cell_length_a 8.559243
_cell_length_b 8.564064
_cell_length_c 14.022420
_cell_angle_alpha 90.000000
_cell_angle_beta 90.000000
_cell_angle_gamma 90.000000
_cell_volume 1027.870097
_symmetry_space_group_name_H-M "P C A 21"
_symmetry_group_IT_number 29
_symmetry_cell_setting 'orthorhombic'
loop_
_space_group_symop_operation_xyz
x,y,z
-x,-y,1/2+z
1/2-x,y,1/2+z
1/2+x,-y,z
loop_
_atom_site_type_symbol
_atom_site_label
_atom_site_fract_x
_atom_site_fract_y
_atom_site_fract_z
Si Si1 0.662629 0.229231 0.765440
Si Si2 0.363260 0.175802 0.428778
Si Si3 0.905073 0.978707 0.824402
Si Si4 0.179569 0.337932 0.560563
Si Si5 0.990937 0.512272 0.879044
Si Si6 0.123529 0.575562 0.169834
O O1 0.522910 0.107641 0.754021
O O2 0.611088 0.348192 0.849872
O O3 0.716638 0.324369 0.673893
O O4 0.817442 0.132334 0.790064
O O5 0.231076 0.141019 0.349977
O O6 0.262317 0.179804 0.525343
O O7 0.437521 0.345555 0.409631
O O8 0.488858 0.038869 0.413021
O O9 0.322493 0.432055 0.606459
O O10 0.114743 0.423484 0.464950
O O11 0.029777 0.338274 0.629930
O O12 0.907891 0.481301 0.777442
#
# Coordination Sequence:
#
# PCOD9341251 Si02
#       6
#     4   4   4   4   4   4
#     4  11  23  44  72 107 141 194 241 300 370 436
#     4  11  23  44  72 107 141 194 241 300 370 436
#     4  10  24  42  74 106 146 198 236 296 392 440
#     4  12  26  42  72 113 143 183 252 310 361 431
#     4  12  24  44  82 100 144 192 252 310 356 426
#     4  12  26  42  72 113 143 183 252 310 361 431
#
# _framework density 23.349253000000001
#
# number of rings (size 3 to 8) (size 9 to 14) (size 15 to 20)
#    0.000    0.667    6.667    1.000    0.000    0.000 
#    0.000    1.667    0.000    0.000    0.000    0.000 
#    0.000    0.000    0.000    0.000    0.000    0.000 
#
# Total GULP energy -134017.239583 kJ/mol
# GULP energy per Si atom -5584.051649 kJ/mol
# Density = 2.329611 g / cm^3
# Si number density = 23.349253 Si / 1000 Ang^3
#
#
#
# Elastic Constant Matrix: (Units=GPa)
#
#
# Indices 1 2 3 4 5 6 
#
# 1 76.5183 14.0039 16.2570 0.0000 0.0000 0.0000
# 2 14.0039 67.1338 2.6038 0.0000 0.0000 0.0000
# 3 16.2570 2.6038 77.4909 0.0000 0.0000 0.0000
# 4 0.0000 0.0000 0.0000 26.3336 0.0000 0.0000
# 5 0.0000 0.0000 0.0000 0.0000 47.8410 0.0000
# 6 0.0000 0.0000 0.0000 0.0000 0.0000 40.6862
#
#
#
# Elastic Compliance Matrix: (Units=1/GPa)
#
#
# Indices 1 2 3 4 5 6 
#
# 1 0.014203 -0.002851 -0.002884 0.000000 0.000000 0.000000
# 2 -0.002851 0.015487 0.000078 0.000000 0.000000 0.000000
# 3 -0.002884 0.000078 0.013507 0.000000 0.000000 0.000000
# 4 0.000000 0.000000 0.000000 0.037974 0.000000 0.000000
# 5 0.000000 0.000000 0.000000 0.000000 0.020903 0.000000
# 6 0.000000 0.000000 0.000000 0.000000 0.000000 0.024578
#
#
# Mechanical properties :
#
#
# Convention : Reuss Voigt Hill
#
# Bulk Modulus (GPa) = 31.36426 31.87472 31.61949
# Shear Modulus (GPa) = 33.64852 35.52406 34.58629
#
# Velocity S-wave (km/s) = 3.80030 3.90477 3.85289
# Velocity P-wave (km/s) = 5.71998 5.83186 5.77619
#
# Compressibility (1/GPa) = 0.03188343
#
# Stress axis : x y z
#
# Youngs Moduli (GPa) = 70.40642 64.56906 74.03480
#
# Poissons Ratio (x) = 0.18408 0.21351
# Poissons Ratio (y) = 0.20072 -0.00575
# Poissons Ratio (z) = 0.20305 -0.00502
#
# Static dielectric constant tensor:
#      x y z
#    x 1.927270 0.000000 0.000000 
#    y 0.000000 1.914020 0.000000 
#    z 0.000000 0.000000 1.864870 
# 
# From -- ./inp_files/4201.got.cif
#   From: 2010.05.17/outbox.cif.g08.bks.cpg/sg29_3_cif.got.tgz:4201.got - 2010.06.04 01:19:37.
