data_PCOD9341178
_publ_section_title
;
Structure prediction by ZEFSAII (Michael W. Deem and Ramdas Pophale) SiO2 
 PCOD9341178
Probable space group: P C A 21
;
_chemical_formula_sum "Si O2"
_cell_formula_units_Z 32
_cell_length_a 10.836253
_cell_length_b 11.910992
_cell_length_c 11.059717
_cell_angle_alpha 90.000000
_cell_angle_beta 90.000000
_cell_angle_gamma 90.000000
_cell_volume 1427.483455
_symmetry_space_group_name_H-M "P C A 21"
_symmetry_group_IT_number 29
_symmetry_cell_setting 'orthorhombic'
loop_
_space_group_symop_operation_xyz
x,y,z
-x,-y,1/2+z
1/2-x,y,1/2+z
1/2+x,-y,z
loop_
_atom_site_type_symbol
_atom_site_label
_atom_site_fract_x
_atom_site_fract_y
_atom_site_fract_z
Si Si1 0.472298 0.111427 0.012330
Si Si2 0.297595 0.750168 0.615278
Si Si3 0.911927 0.768293 0.788008
Si Si4 0.675244 0.722958 0.656911
Si Si5 0.996913 0.467147 0.293792
Si Si6 0.049711 0.694845 0.332234
Si Si7 0.754346 0.490969 0.638545
Si Si8 0.959506 0.148198 0.055337
O O1 0.590894 0.183414 0.053048
O O2 0.353855 0.170184 0.075284
O O3 0.485797 0.983014 0.047928
O O4 0.448326 0.127840 0.870695
O O5 0.326529 0.723979 0.757109
O O6 0.268877 0.624525 0.564137
O O7 0.179028 0.826732 0.598448
O O8 0.768391 0.746780 0.766834
O O9 0.977280 0.657471 0.841107
O O10 0.957224 0.789877 0.652934
O O11 0.548305 0.694756 0.723515
O O12 0.719959 0.612696 0.584008
O O13 0.025531 0.570043 0.385228
O O14 0.111453 0.487909 0.199839
O O15 0.861298 0.471306 0.232104
O O16 0.025328 0.790653 0.427714
#
# Coordination Sequence:
#
# PCOD9341178 Si02
#       8
#     4   4   4   4   4   4   4   4
#     4  11  28  43  65 102 136 189 229 292 350 409
#     4  10  23  45  69  97 137 174 236 287 348 424
#     4  11  25  44  67 101 133 175 242 282 344 425
#     4   9  22  44  70  97 139 176 227 291 347 413
#     4   9  18  39  66  99 135 171 223 285 348 413
#     4   9  22  43  69 101 136 181 221 288 359 403
#     4   9  17  39  70  99 134 171 222 287 352 414
#     4  12  27  41  70  98 134 191 234 280 348 417
#
# _framework density 22.417074
#
# number of rings (size 3 to 8) (size 9 to 14) (size 15 to 20)
#    0.000    2.000    1.250    0.750    8.750    1.000 
#    6.750    0.000    0.000    0.000    0.000    0.000 
#    0.000    0.000    0.000    0.000    0.000    0.000 
#
# Total GULP energy -178540.205011 kJ/mol
# GULP energy per Si atom -5579.381407 kJ/mol
# Density = 2.236605 g / cm^3
# Si number density = 22.417074 Si / 1000 Ang^3
#
#
#
# Elastic Constant Matrix: (Units=GPa)
#
#
# Indices 1 2 3 4 5 6 
#
# 1 94.4182 33.8968 -3.0919 0.0000 0.0000 0.0000
# 2 33.8968 147.5047 25.0877 0.0000 0.0000 0.0000
# 3 -3.0919 25.0877 30.7415 0.0000 0.0000 0.0000
# 4 0.0000 0.0000 0.0000 29.3598 0.0000 0.0000
# 5 0.0000 0.0000 0.0000 0.0000 11.8182 0.0000
# 6 0.0000 0.0000 0.0000 0.0000 0.0000 27.1687
#
#
#
# Elastic Compliance Matrix: (Units=1/GPa)
#
#
# Indices 1 2 3 4 5 6 
#
# 1 0.011952 -0.003427 0.003999 0.000000 0.000000 0.000000
# 2 -0.003427 0.008855 -0.007571 0.000000 0.000000 0.000000
# 3 0.003999 -0.007571 0.039110 0.000000 0.000000 0.000000
# 4 0.000000 0.000000 0.000000 0.034060 0.000000 0.000000
# 5 0.000000 0.000000 0.000000 0.000000 0.084615 0.000000
# 6 0.000000 0.000000 0.000000 0.000000 0.000000 0.036807
#
#
# Mechanical properties :
#
#
# Convention : Reuss Voigt Hill
#
# Bulk Modulus (GPa) = 21.77742 42.71661 32.24702
# Shear Modulus (GPa) = 20.43292 28.12080 24.27686
#
# Velocity S-wave (km/s) = 3.02236 3.54565 3.29441
# Velocity P-wave (km/s) = 4.68138 5.98823 5.37467
#
# Compressibility (1/GPa) = 0.04591911
#
# Stress axis : x y z
#
# Youngs Moduli (GPa) = 83.66556 112.93624 25.56901
#
# Poissons Ratio (x) = 0.38701 -0.10224
# Poissons Ratio (y) = 0.28670 0.19358
# Poissons Ratio (z) = -0.33455 0.85501
#
# Static dielectric constant tensor:
#      x y z
#    x 2.587530 0.000000 0.000000 
#    y 0.000000 1.873790 0.000000 
#    z 0.000000 0.000000 1.836920 
# 
# From -- ./inp_files/3212.got.cif
#   From: 2010.05.17/outbox.cif.g08.bks.cpg/sg29_2_cif.got.tgz:3212.got - 2010.06.04 01:19:37.
