data_PCOD9342141
_publ_section_title
;
Structure prediction by ZEFSAII (Michael W. Deem and Ramdas Pophale) SiO2 
 PCOD9342141
Probable space group: P N C 2
;
_chemical_formula_sum "Si O2"
_cell_formula_units_Z 30
_cell_length_a 11.038199
_cell_length_b 17.193739
_cell_length_c 5.348821
_cell_angle_alpha 90.000000
_cell_angle_beta 90.000000
_cell_angle_gamma 90.000000
_cell_volume 1015.141573
_symmetry_space_group_name_H-M "P N C 2"
_symmetry_group_IT_number 30
_symmetry_cell_setting 'orthorhombic'
loop_
_space_group_symop_operation_xyz
x,y,z
-x,-y,z
-x,1/2+y,1/2+z
x,1/2-y,1/2+z
loop_
_atom_site_type_symbol
_atom_site_label
_atom_site_fract_x
_atom_site_fract_y
_atom_site_fract_z
Si Si1 0.068603 0.417038 0.413640
Si Si2 0.154461 0.801984 0.950262
Si Si3 0.137398 0.030109 0.418035
Si Si4 0.514564 0.296901 0.516015
Si Si5 0.500000 0.000000 0.059657
Si Si6 0.745381 0.775121 0.515323
Si Si7 0.320187 0.570730 0.212907
Si Si8 0.548372 0.902658 0.402577
O O1 0.157269 0.429940 0.648509
O O2 0.000000 0.500000 0.384905
O O3 0.967552 0.352428 0.456670
O O4 0.130145 0.406684 0.142748
O O5 0.162310 0.754735 0.209230
O O6 0.262420 0.865053 0.902993
O O7 0.211316 0.957986 0.537199
O O8 0.000000 0.000000 0.382195
O O9 0.555141 0.246275 0.275509
O O10 0.368928 0.286605 0.500125
O O11 0.386776 0.999523 0.854134
O O12 0.510606 0.112091 0.115048
O O13 0.813889 0.751867 0.263102
O O14 0.658912 0.649452 0.987347
O O15 0.402892 0.484331 0.812541
O O16 0.437977 0.610483 0.087324
#
# Coordination Sequence:
#
# PCOD9342141 Si02
#       8
#     4   4   4   4   2   4   4   4
#     4  10  20  43  76 115 159 216 254 314 417 531
#     4  12  28  46  78 131 175 201 258 358 465 520
#     4  10  21  41  81 104 148 209 273 327 405 497
#     4   8  16  31  57  82 108 162 225 280 374 441
#     4  12  30  44  64  92 160 220 286 342 370 486
#     4   8  16  31  57  82 108 162 225 280 374 441
#     4  12  28  47  69 113 163 215 283 339 418 490
#     4  10  23  39  59  86 141 192 257 320 376 451
#
# _framework density 29.552527999999999
#
# number of rings (size 3 to 8) (size 9 to 14) (size 15 to 20)
#    0.000    2.133    2.667    1.200   13.067    3.200 
#    0.000    0.000    0.000    0.000    0.000   22.400 
#    0.000    0.000    0.000    0.000    0.000    0.000 
#
# Total GULP energy -167358.545150 kJ/mol
# GULP energy per Si atom -5578.618172 kJ/mol
# Density = 2.948527 g / cm^3
# Si number density = 29.552528 Si / 1000 Ang^3
#
#
#
# Elastic Constant Matrix: (Units=GPa)
#
#
# Indices 1 2 3 4 5 6 
#
# 1 143.4224 47.2510 35.0444 0.0000 0.0000 0.0000
# 2 47.2510 91.8759 3.0342 0.0000 0.0000 0.0000
# 3 35.0444 3.0342 209.6112 0.0000 0.0000 0.0000
# 4 0.0000 0.0000 0.0000 48.4865 0.0000 0.0000
# 5 0.0000 0.0000 0.0000 0.0000 36.1791 0.0000
# 6 0.0000 0.0000 0.0000 0.0000 0.0000 49.5216
#
#
#
# Elastic Compliance Matrix: (Units=1/GPa)
#
#
# Indices 1 2 3 4 5 6 
#
# 1 0.008790 -0.004474 -0.001405 0.000000 0.000000 0.000000
# 2 -0.004474 0.013167 0.000557 0.000000 0.000000 0.000000
# 3 -0.001405 0.000557 0.004998 0.000000 0.000000 0.000000
# 4 0.000000 0.000000 0.000000 0.020624 0.000000 0.000000
# 5 0.000000 0.000000 0.000000 0.000000 0.027640 0.000000
# 6 0.000000 0.000000 0.000000 0.000000 0.000000 0.020193
#
#
# Mechanical properties :
#
#
# Convention : Reuss Voigt Hill
#
# Bulk Modulus (GPa) = 61.30762 68.39653 64.85208
# Shear Modulus (GPa) = 44.84645 50.80945 47.82795
#
# Velocity S-wave (km/s) = 3.89976 4.15093 4.02730
# Velocity P-wave (km/s) = 6.40842 6.79470 6.60438
#
# Compressibility (1/GPa) = 0.01631119
#
# Stress axis : x y z
#
# Youngs Moduli (GPa) = 113.77030 75.94860 200.09899
#
# Poissons Ratio (x) = 0.33980 0.28109
# Poissons Ratio (y) = 0.50901 -0.11154
# Poissons Ratio (z) = 0.15982 -0.04233
#
# Static dielectric constant tensor:
#      x y z
#    x 2.716090 0.000000 0.000000 
#    y 0.000000 3.399700 0.000000 
#    z 0.000000 0.000000 2.691080 
# 
# From -- ./inp_files/798.got.cif
#   From: 2010.05.17/outbox.cif.g08.bks.cpg/sg30_1_cif.got.tgz:798.got - 2010.06.03 17:03:02.
