data_PCOD9342402
_publ_section_title
;
Structure prediction by ZEFSAII (Michael W. Deem and Ramdas Pophale) SiO2 
 PCOD9342402
Probable space group: P N C 2
;
_chemical_formula_sum "Si O2"
_cell_formula_units_Z 30
_cell_length_a 5.661458
_cell_length_b 19.539636
_cell_length_c 11.920644
_cell_angle_alpha 90.000000
_cell_angle_beta 90.000000
_cell_angle_gamma 90.000000
_cell_volume 1318.695357
_symmetry_space_group_name_H-M "P N C 2"
_symmetry_group_IT_number 30
_symmetry_cell_setting 'orthorhombic'
loop_
_space_group_symop_operation_xyz
x,y,z
-x,-y,z
-x,1/2+y,1/2+z
x,1/2-y,1/2+z
loop_
_atom_site_type_symbol
_atom_site_label
_atom_site_fract_x
_atom_site_fract_y
_atom_site_fract_z
Si Si1 0.500000 0.000000 0.814560
Si Si2 0.184828 0.296610 0.637760
Si Si3 0.495286 0.263106 0.834910
Si Si4 0.252592 0.473168 0.098742
Si Si5 0.856650 0.669952 0.016876
Si Si6 0.541312 0.367061 0.466397
Si Si7 0.876843 0.376270 0.808531
Si Si8 0.755580 0.464186 0.627089
O O1 0.716166 0.000136 0.726493
O O2 0.517258 0.932514 0.889773
O O3 0.343639 0.251119 0.723199
O O4 0.033663 0.236299 0.578900
O O5 0.329692 0.337910 0.543621
O O6 0.079525 0.352509 0.722107
O O7 0.610138 0.195038 0.885319
O O8 0.680487 0.318910 0.797182
O O9 0.339145 0.297062 0.934062
O O10 0.500000 0.500000 0.043464
O O11 0.248386 0.390782 0.092181
O O12 0.000000 0.500000 0.056499
O O13 0.034854 0.631163 0.933980
O O14 0.734274 0.394978 0.553632
O O15 0.780939 0.446341 0.758474
O O16 0.500000 0.500000 0.611833
O O17 0.000000 0.500000 0.592002
#
# Coordination Sequence:
#
# PCOD9342402 Si02
#       8
#     2   4   4   4   4   4   4   4
#     4  10  24  42  72 104 140 186 242 292 366 438
#     4  10  22  45  69 100 148 184 242 307 364 439
#     4  10  23  42  69 104 138 185 247 300 366 436
#     4  10  25  48  68 103 143 187 240 299 359 441
#     4  10  24  43  69  98 142 194 238 302 371 429
#     4  11  22  45  72 104 141 190 241 301 369 437
#     4  11  25  42  67 108 137 191 249 297 372 438
#     4  12  27  48  72 102 154 194 244 308 362 443
#
# _framework density 22.749758
#
# number of rings (size 3 to 8) (size 9 to 14) (size 15 to 20)
#    0.400    1.067    2.000    1.600    5.600    2.133 
#    2.400    0.000    0.000    0.000    0.000    0.000 
#    0.000    0.000    0.000    0.000    0.000    0.000 
#
# Total GULP energy -167295.136876 kJ/mol
# GULP energy per Si atom -5576.504563 kJ/mol
# Density = 2.269798 g / cm^3
# Si number density = 22.749758 Si / 1000 Ang^3
#
#
#
# Elastic Constant Matrix: (Units=GPa)
#
#
# Indices 1 2 3 4 5 6 
#
# 1 74.4808 21.5323 9.8332 0.0000 0.0000 0.0000
# 2 21.5323 89.9675 20.4893 0.0000 0.0000 0.0000
# 3 9.8332 20.4893 66.0275 0.0000 0.0000 0.0000
# 4 0.0000 0.0000 0.0000 38.8322 0.0000 0.0000
# 5 0.0000 0.0000 0.0000 0.0000 14.5577 0.0000
# 6 0.0000 0.0000 0.0000 0.0000 0.0000 25.7791
#
#
#
# Elastic Compliance Matrix: (Units=1/GPa)
#
#
# Indices 1 2 3 4 5 6 
#
# 1 0.014507 -0.003207 -0.001165 0.000000 0.000000 0.000000
# 2 -0.003207 0.012669 -0.003454 0.000000 0.000000 0.000000
# 3 -0.001165 -0.003454 0.016391 0.000000 0.000000 0.000000
# 4 0.000000 0.000000 0.000000 0.025752 0.000000 0.000000
# 5 0.000000 0.000000 0.000000 0.000000 0.068692 0.000000
# 6 0.000000 0.000000 0.000000 0.000000 0.000000 0.038791
#
#
# Mechanical properties :
#
#
# Convention : Reuss Voigt Hill
#
# Bulk Modulus (GPa) = 35.82301 37.13171 36.47736
# Shear Modulus (GPa) = 24.78206 27.74187 26.26197
#
# Velocity S-wave (km/s) = 3.30409 3.49583 3.40131
# Velocity P-wave (km/s) = 5.50788 5.71416 5.61197
#
# Compressibility (1/GPa) = 0.02791502
#
# Stress axis : x y z
#
# Youngs Moduli (GPa) = 68.93135 78.93176 61.01079
#
# Poissons Ratio (x) = 0.25311 0.07110
# Poissons Ratio (y) = 0.22104 0.21072
# Poissons Ratio (z) = 0.08033 0.27262
#
# Static dielectric constant tensor:
#      x y z
#    x 2.023030 0.000000 0.000000 
#    y 0.000000 1.883590 0.000000 
#    z 0.000000 0.000000 1.898100 
# 
# From -- ./inp_files/3242.got.cif
#   From: 2010.05.17/outbox.cif.g08.bks.cpg/sg30_2_cif.got.tgz:3242.got - 2010.06.03 17:03:02.
