data_PCOD9342636
_publ_section_title
;
Structure prediction by ZEFSAII (Michael W. Deem and Ramdas Pophale) SiO2 
 PCOD9342636
Probable space group: P N C 2
;
_chemical_formula_sum "Si O2"
_cell_formula_units_Z 12
_cell_length_a 6.389502
_cell_length_b 8.005508
_cell_length_c 10.136910
_cell_angle_alpha 90.000000
_cell_angle_beta 90.000000
_cell_angle_gamma 90.000000
_cell_volume 518.515206
_symmetry_space_group_name_H-M "P N C 2"
_symmetry_group_IT_number 30
_symmetry_cell_setting 'orthorhombic'
loop_
_space_group_symop_operation_xyz
x,y,z
-x,-y,z
-x,1/2+y,1/2+z
x,1/2-y,1/2+z
loop_
_atom_site_type_symbol
_atom_site_label
_atom_site_fract_x
_atom_site_fract_y
_atom_site_fract_z
Si Si1 0.676799 0.610013 0.468060
Si Si2 0.296607 0.730469 0.601986
Si Si3 0.945165 0.315474 0.855895
O O1 0.500000 0.500000 0.390615
O O2 0.542540 0.733135 0.563638
O O3 0.760338 0.461995 0.561451
O O4 0.851047 0.702425 0.384254
O O5 0.211096 0.760750 0.747076
O O6 0.174353 0.836212 0.494272
O O7 0.000000 0.500000 0.811647
#
# Coordination Sequence:
#
# PCOD9342636 Si02
#       3
#     4   4   4
#     4   8  22  45  63  95 143 184 215 287 353 410
#     4   9  24  42  65  91 142 183 226 282 357 404
#     4  12  22  39  71 101 132 183 235 284 341 413
#
# _framework density 23.143003
#
# number of rings (size 3 to 8) (size 9 to 14) (size 15 to 20)
#    2.000    0.000    0.000    3.000    0.000   12.000 
#    0.000    0.000    0.000    0.000    0.000    0.000 
#    0.000    0.000    0.000    0.000    0.000    0.000 
#
# Total GULP energy -66809.456677 kJ/mol
# GULP energy per Si atom -5567.454723 kJ/mol
# Density = 2.309033 g / cm^3
# Si number density = 23.143003 Si / 1000 Ang^3
#
#
#
# Elastic Constant Matrix: (Units=GPa)
#
#
# Indices 1 2 3 4 5 6 
#
# 1 83.7835 35.8525 28.8852 0.0000 0.0000 0.0000
# 2 35.8525 35.7622 24.3611 0.0000 0.0000 0.0000
# 3 28.8852 24.3611 95.5859 0.0000 0.0000 0.0000
# 4 0.0000 0.0000 0.0000 -34.7787 0.0000 0.0000
# 5 0.0000 0.0000 0.0000 0.0000 44.6394 0.0000
# 6 0.0000 0.0000 0.0000 0.0000 0.0000 37.3652
#
#
#
# Elastic Compliance Matrix: (Units=1/GPa)
#
#
# Indices 1 2 3 4 5 6 
#
# 1 0.021014 -0.020258 -0.001187 0.000000 0.000000 0.000000
# 2 -0.020258 0.053366 -0.007479 0.000000 0.000000 0.000000
# 3 -0.001187 -0.007479 0.012727 0.000000 0.000000 0.000000
# 4 0.000000 0.000000 0.000000 -0.028753 0.000000 0.000000
# 5 0.000000 0.000000 0.000000 0.000000 0.022402 0.000000
# 6 0.000000 0.000000 0.000000 0.000000 0.000000 0.026763
#
#
# Mechanical properties :
#
#
# Convention : Reuss Voigt Hill
#
# Bulk Modulus (GPa) = 34.17869 43.70325 38.94097
# Shear Modulus (GPa) = 28.55198 17.84737 23.19967
#
# Velocity S-wave (km/s) = 3.51624 2.78002 3.16958
# Velocity P-wave (km/s) = 5.59337 5.40645 5.50071
#
# Compressibility (1/GPa) = 0.02925800
#
# Stress axis : x y z
#
# Youngs Moduli (GPa) = 47.58834 18.73840 78.57491
#
# Poissons Ratio (x) = 0.37960 0.09328
# Poissons Ratio (y) = 0.96404 0.58768
# Poissons Ratio (z) = 0.05650 0.14015
#
# Static dielectric constant tensor:
#      x y z
#    x 1.940420 0.000000 0.000000 
#    y 0.000000 2.194820 0.000000 
#    z 0.000000 0.000000 1.859090 
# 
# From -- ./inp_files/2905.got.cif
#   From: 2010.05.17/outbox.cif.g08.bks.cpg/sg30_2_cif.got.tgz:2905.got - 2010.06.03 17:03:02.
