data_PCOD9342735
_publ_section_title
;
Structure prediction by ZEFSAII (Michael W. Deem and Ramdas Pophale) SiO2 
 PCOD9342735
Probable space group: P M N 21
;
_chemical_formula_sum "Si O2"
_cell_formula_units_Z 32
_cell_length_a 7.511799
_cell_length_b 10.494626
_cell_length_c 20.135429
_cell_angle_alpha 90.000000
_cell_angle_beta 90.000000
_cell_angle_gamma 90.000000
_cell_volume 1587.346767
_symmetry_space_group_name_H-M "P M N 21"
_symmetry_group_IT_number 31
_symmetry_cell_setting 'orthorhombic'
loop_
_space_group_symop_operation_xyz
x,y,z
1/2-x,-y,1/2+z
-x,y,z
1/2+x,-y,1/2+z
loop_
_atom_site_type_symbol
_atom_site_label
_atom_site_fract_x
_atom_site_fract_y
_atom_site_fract_z
Si Si1 0.282301 0.772079 0.806260
Si Si2 0.712666 0.767643 0.953720
Si Si3 0.216321 0.524102 0.308079
Si Si4 0.705803 0.892731 0.673024
Si Si5 0.215779 0.611111 0.168001
Si Si6 0.286693 0.135443 0.594359
Si Si7 0.782183 0.524932 0.456559
Si Si8 0.208106 0.647999 0.589804
O O1 0.500000 0.774525 0.804416
O O2 0.224576 0.809453 0.880617
O O3 0.231939 0.623667 0.797242
O O4 0.215811 0.855205 0.744662
O O5 0.500000 0.758172 0.948789
O O6 0.775874 0.622278 0.967178
O O7 0.752193 0.856288 0.015948
O O8 0.274560 0.604908 0.244731
O O9 0.273073 0.562758 0.382110
O O10 0.000000 0.526069 0.308754
O O11 0.500000 0.926045 0.686187
O O12 0.708075 0.766005 0.628138
O O13 0.783527 0.010917 0.632100
O O14 0.280614 0.734843 0.128679
O O15 0.272100 0.481368 0.131988
O O16 0.000000 0.612272 0.167303
O O17 0.500000 0.136116 0.600961
O O18 0.720946 0.613820 0.516546
O O19 0.000000 0.524979 0.458605
O O20 0.000000 0.678674 0.583984
#
# Coordination Sequence:
#
# PCOD9342735 Si02
#       8
#     4   4   4   4   4   4   4   4
#     4   8  14  27  51  74  92 126 172 207 241 288
#     4   9  16  30  52  74  98 130 166 205 249 294
#     4   8  13  25  48  73  95 123 162 204 247 288
#     4  10  20  36  52  71 103 138 170 208 244 290
#     4  10  18  31  52  75  98 129 165 203 246 297
#     4  10  21  33  49  76 106 134 166 201 250 301
#     4   8  15  27  46  74 102 125 156 205 252 290
#     4  11  20  31  50  77 102 127 163 207 255 300
#
# _framework density 20.159427000000001
#
# number of rings (size 3 to 8) (size 9 to 14) (size 15 to 20)
#    0.000    2.750    2.500    1.875    0.000    0.500 
#    0.000    1.875    0.000    6.000    0.000    0.000 
#    0.000    0.000    0.000    0.000    0.000    0.000 
#
# Total GULP energy -178475.717434 kJ/mol
# GULP energy per Si atom -5577.366170 kJ/mol
# Density = 2.011354 g / cm^3
# Si number density = 20.159427 Si / 1000 Ang^3
#
#
#
# Elastic Constant Matrix: (Units=GPa)
#
#
# Indices 1 2 3 4 5 6 
#
# 1 51.9556 -5.6638 -2.2868 0.0000 0.0000 0.0000
# 2 -5.6638 84.4863 63.9586 0.0000 0.0000 0.0000
# 3 -2.2868 63.9586 189.1197 0.0000 0.0000 0.0000
# 4 0.0000 0.0000 0.0000 30.2615 0.0000 0.0000
# 5 0.0000 0.0000 0.0000 0.0000 12.4571 0.0000
# 6 0.0000 0.0000 0.0000 0.0000 0.0000 -49.9182
#
#
#
# Elastic Compliance Matrix: (Units=1/GPa)
#
#
# Indices 1 2 3 4 5 6 
#
# 1 0.019400 0.001509 -0.000276 0.000000 0.000000 0.000000
# 2 0.001509 0.016027 -0.005402 0.000000 0.000000 0.000000
# 3 -0.000276 -0.005402 0.007111 0.000000 0.000000 0.000000
# 4 0.000000 0.000000 0.000000 0.033045 0.000000 0.000000
# 5 0.000000 0.000000 0.000000 0.000000 0.080275 0.000000
# 6 0.000000 0.000000 0.000000 0.000000 0.000000 -0.020033
#
#
# Mechanical properties :
#
#
# Convention : Reuss Voigt Hill
#
# Bulk Modulus (GPa) = 29.23906 48.61973 38.92940
# Shear Modulus (GPa) = 32.14142 16.53033 24.33587
#
# Velocity S-wave (km/s) = 3.99728 2.86664 3.47821
# Velocity P-wave (km/s) = 5.98663 5.92678 5.95678
#
# Compressibility (1/GPa) = 0.03420082
#
# Stress axis : x y z
#
# Youngs Moduli (GPa) = 51.54746 62.39551 140.62362
#
# Poissons Ratio (x) = -0.09418 0.03880
# Poissons Ratio (y) = -0.07780 0.75963
# Poissons Ratio (z) = 0.01422 0.33705
#
# Static dielectric constant tensor:
#      x y z
#    x 1.785670 0.000000 0.000000 
#    y 0.000000 1.675450 0.000000 
#    z 0.000000 0.000000 1.745590 
# 
# From -- ./inp_files/5843.got.cif
#   From: 2010.05.17/outbox.cif.g08.bks.cpg/sg31_3_cif.got.tgz:5843.got - 2010.06.03 17:08:30.
