data_PCOD9342133
_publ_section_title
;
Structure prediction by ZEFSAII (Michael W. Deem and Ramdas Pophale) SiO2 
 PCOD9342133
Probable space group: P N C 2
;
_chemical_formula_sum "Si O2"
_cell_formula_units_Z 22
_cell_length_a 15.185114
_cell_length_b 6.012835
_cell_length_c 10.558975
_cell_angle_alpha 90.000000
_cell_angle_beta 90.000000
_cell_angle_gamma 90.000000
_cell_volume 964.093389
_symmetry_space_group_name_H-M "P N C 2"
_symmetry_group_IT_number 30
_symmetry_cell_setting 'orthorhombic'
loop_
_space_group_symop_operation_xyz
x,y,z
-x,-y,z
-x,1/2+y,1/2+z
x,1/2-y,1/2+z
loop_
_atom_site_type_symbol
_atom_site_label
_atom_site_fract_x
_atom_site_fract_y
_atom_site_fract_z
Si Si1 0.664593 0.160835 0.582240
Si Si2 0.089788 0.101149 0.261497
Si Si3 0.398026 0.550116 0.818283
Si Si4 0.000000 0.000000 0.924270
Si Si5 0.737176 0.678834 0.250332
Si Si6 0.174083 0.797805 0.927267
O O1 0.630990 0.309416 0.696652
O O2 0.761737 0.228726 0.538517
O O3 0.609495 0.171639 0.453776
O O4 0.675422 0.916472 0.640287
O O5 0.173936 0.211466 0.192901
O O6 0.046389 0.303340 0.342760
O O7 0.139117 0.911970 0.345425
O O8 0.000000 0.000000 0.205073
O O9 0.500000 0.500000 0.800296
O O10 0.326136 0.350086 0.824354
O O11 0.914625 0.105686 0.986508
O O12 0.774057 0.477473 0.339228
#
# Coordination Sequence:
#
# PCOD9342133 Si02
#       6
#     4   4   4   2   4   4
#     4  12  26  49  76 109 154 195 249 313 384 462
#     4   9  17  37  68 103 147 198 258 306 365 440
#     4  12  31  50  79 112 147 196 252 321 393 475
#     4   8  18  32  74 102 148 200 256 308 364 438
#     4  11  23  43  74 105 146 203 247 312 385 453
#     4  10  20  42  72 105 148 198 258 308 373 444
#
# _framework density 22.819365000000001
#
# number of rings (size 3 to 8) (size 9 to 14) (size 15 to 20)
#    0.000    1.455    3.636    0.000    5.091    0.000 
#    0.000    0.000   86.000    0.000    0.000    0.000 
#    0.000    0.000    0.000    0.000    0.000    0.000 
#
# Total GULP energy -122764.316458 kJ/mol
# GULP energy per Si atom -5580.196203 kJ/mol
# Density = 2.276743 g / cm^3
# Si number density = 22.819365 Si / 1000 Ang^3
#
#
#
# Elastic Constant Matrix: (Units=GPa)
#
#
# Indices 1 2 3 4 5 6 
#
# 1 150.9812 44.4201 35.5965 0.0000 0.0000 0.0000
# 2 44.4201 93.9675 45.6774 0.0000 0.0000 0.0000
# 3 35.5965 45.6774 123.7987 0.0000 0.0000 0.0000
# 4 0.0000 0.0000 0.0000 22.3502 0.0000 0.0000
# 5 0.0000 0.0000 0.0000 0.0000 -16.4421 0.0000
# 6 0.0000 0.0000 0.0000 0.0000 0.0000 23.7623
#
#
#
# Elastic Compliance Matrix: (Units=1/GPa)
#
#
# Indices 1 2 3 4 5 6 
#
# 1 0.007809 -0.003168 -0.001076 0.000000 0.000000 0.000000
# 2 -0.003168 0.014253 -0.004348 0.000000 0.000000 0.000000
# 3 -0.001076 -0.004348 0.009991 0.000000 0.000000 0.000000
# 4 0.000000 0.000000 0.000000 0.044742 0.000000 0.000000
# 5 0.000000 0.000000 0.000000 0.000000 -0.060820 0.000000
# 6 0.000000 0.000000 0.000000 0.000000 0.000000 0.042083
#
#
# Mechanical properties :
#
#
# Convention : Reuss Voigt Hill
#
# Bulk Modulus (GPa) = 67.25638 68.90392 68.08015
# Shear Modulus (GPa) = 62.34279 22.13765 42.24022
#
# Velocity S-wave (km/s) = 5.23254 3.11806 4.30707
# Velocity P-wave (km/s) = 8.12670 6.57450 7.39146
#
# Compressibility (1/GPa) = 0.01486848
#
# Stress axis : x y z
#
# Youngs Moduli (GPa) = 128.05273 70.15958 100.08631
#
# Poissons Ratio (x) = 0.22229 0.10774
# Poissons Ratio (y) = 0.40571 0.43517
# Poissons Ratio (z) = 0.13784 0.30505
#
# Static dielectric constant tensor:
#      x y z
#    x 1.824010 0.000000 0.000000 
#    y 0.000000 1.946510 0.000000 
#    z 0.000000 0.000000 1.941740 
# 
# From -- ./inp_files/4275.got.cif
#   From: 2010.05.17/outbox.cif.g08.bks.cpg/sg30_3_cif.got.tgz:4275.got - 2010.06.03 17:03:02.
