data_PCOD9342317
_publ_section_title
;
Structure prediction by ZEFSAII (Michael W. Deem and Ramdas Pophale) SiO2 
 PCOD9342317
Probable space group: P N C 2
;
_chemical_formula_sum "Si O2"
_cell_formula_units_Z 26
_cell_length_a 12.580775
_cell_length_b 10.818741
_cell_length_c 9.364803
_cell_angle_alpha 90.000000
_cell_angle_beta 90.000000
_cell_angle_gamma 90.000000
_cell_volume 1274.625977
_symmetry_space_group_name_H-M "P N C 2"
_symmetry_group_IT_number 30
_symmetry_cell_setting 'orthorhombic'
loop_
_space_group_symop_operation_xyz
x,y,z
-x,-y,z
-x,1/2+y,1/2+z
x,1/2-y,1/2+z
loop_
_atom_site_type_symbol
_atom_site_label
_atom_site_fract_x
_atom_site_fract_y
_atom_site_fract_z
Si Si1 0.755774 0.770719 0.201470
Si Si2 0.367720 0.353212 0.426001
Si Si3 0.125677 0.502940 0.834680
Si Si4 0.500000 0.000000 0.115660
Si Si5 0.292454 0.622749 0.353261
Si Si6 0.305023 0.649266 0.682999
Si Si7 0.875689 0.991035 0.671936
O O1 0.650777 0.740003 0.296488
O O2 0.823514 0.875331 0.279417
O O3 0.824622 0.644807 0.196028
O O4 0.720664 0.815751 0.044516
O O5 0.472702 0.379068 0.518619
O O6 0.349165 0.490131 0.363218
O O7 0.196029 0.607021 0.757688
O O8 0.000000 0.500000 0.802470
O O9 0.139480 0.518188 0.004306
O O10 0.393857 0.958967 0.197075
O O11 0.281104 0.666001 0.515893
O O12 0.346564 0.727794 0.258924
O O13 0.184090 0.588270 0.272269
O O14 0.000000 0.000000 0.703024
#
# Coordination Sequence:
#
# PCOD9342317 Si02
#       7
#     4   4   4   2   4   4   4
#     4  11  20  42  62  91 130 170 213 269 320 389
#     4  10  22  40  66  89 126 166 217 270 324 381
#     4  11  23  40  63  96 129 173 215 260 326 390
#     4  10  22  42  66  98 124 172 218 274 326 392
#     4  10  22  41  60  92 129 167 212 274 322 382
#     4  11  23  43  65  92 136 168 220 270 328 391
#     4  10  23  40  64  95 130 174 222 265 323 388
#
# _framework density 20.398142
#
# number of rings (size 3 to 8) (size 9 to 14) (size 15 to 20)
#    0.000    1.538    4.615    0.923    2.154    3.077 
#    0.000    0.000    0.000    5.538    0.000    0.000 
#    0.000    0.000    0.000    0.000    0.000    0.000 
#
# Total GULP energy -145046.515593 kJ/mol
# GULP energy per Si atom -5578.712138 kJ/mol
# Density = 2.035171 g / cm^3
# Si number density = 20.398142 Si / 1000 Ang^3
#
#
#
# Elastic Constant Matrix: (Units=GPa)
#
#
# Indices 1 2 3 4 5 6 
#
# 1 80.1499 18.1425 30.7754 0.0000 0.0000 0.0000
# 2 18.1425 98.7007 34.8841 0.0000 0.0000 0.0000
# 3 30.7754 34.8841 89.7222 0.0000 0.0000 0.0000
# 4 0.0000 0.0000 0.0000 38.8091 0.0000 0.0000
# 5 0.0000 0.0000 0.0000 0.0000 22.6082 0.0000
# 6 0.0000 0.0000 0.0000 0.0000 0.0000 26.4795
#
#
#
# Elastic Compliance Matrix: (Units=1/GPa)
#
#
# Indices 1 2 3 4 5 6 
#
# 1 0.014462 -0.001049 -0.004553 0.000000 0.000000 0.000000
# 2 -0.001049 0.011822 -0.004236 0.000000 0.000000 0.000000
# 3 -0.004553 -0.004236 0.014354 0.000000 0.000000 0.000000
# 4 0.000000 0.000000 0.000000 0.025767 0.000000 0.000000
# 5 0.000000 0.000000 0.000000 0.000000 0.044232 0.000000
# 6 0.000000 0.000000 0.000000 0.000000 0.000000 0.037765
#
#
# Mechanical properties :
#
#
# Convention : Reuss Voigt Hill
#
# Bulk Modulus (GPa) = 47.70649 48.46407 48.08528
# Shear Modulus (GPa) = 28.56062 29.89742 29.22902
#
# Velocity S-wave (km/s) = 3.74593 3.83259 3.78951
# Velocity P-wave (km/s) = 6.49213 6.58754 6.54001
#
# Compressibility (1/GPa) = 0.02096151
#
# Stress axis : x y z
#
# Youngs Moduli (GPa) = 69.14555 84.58948 69.66577
#
# Poissons Ratio (x) = 0.08876 0.31717
# Poissons Ratio (y) = 0.07255 0.29513
# Poissons Ratio (z) = 0.31480 0.35836
#
# Static dielectric constant tensor:
#      x y z
#    x 1.746650 0.000000 0.000000 
#    y 0.000000 1.756410 0.000000 
#    z 0.000000 0.000000 1.725010 
# 
# From -- ./inp_files/2367.got.cif
#   From: 2010.05.17/outbox.cif.g08.bks.cpg/sg30_2_cif.got.tgz:2367.got - 2010.06.03 17:03:02.
