data_PCOD9342356
_publ_section_title
;
Structure prediction by ZEFSAII (Michael W. Deem and Ramdas Pophale) SiO2 
 PCOD9342356
Probable space group: P N C 2
;
_chemical_formula_sum "Si O2"
_cell_formula_units_Z 18
_cell_length_a 5.276437
_cell_length_b 16.617561
_cell_length_c 9.394761
_cell_angle_alpha 90.000000
_cell_angle_beta 90.000000
_cell_angle_gamma 90.000000
_cell_volume 823.746865
_symmetry_space_group_name_H-M "P N C 2"
_symmetry_group_IT_number 30
_symmetry_cell_setting 'orthorhombic'
loop_
_space_group_symop_operation_xyz
x,y,z
-x,-y,z
-x,1/2+y,1/2+z
x,1/2-y,1/2+z
loop_
_atom_site_type_symbol
_atom_site_label
_atom_site_fract_x
_atom_site_fract_y
_atom_site_fract_z
Si Si1 0.667378 0.694445 0.519070
Si Si2 0.830570 0.219209 0.855687
Si Si3 0.655860 0.334779 0.062349
Si Si4 0.500000 0.500000 0.993636
Si Si5 0.744240 0.547806 0.714626
O O1 0.405105 0.674469 0.435315
O O2 0.609432 0.786224 0.564971
O O3 0.725639 0.636602 0.650746
O O4 0.903511 0.690784 0.414765
O O5 0.808461 0.206902 0.689102
O O6 0.779734 0.310620 0.910580
O O7 0.628283 0.428945 0.079913
O O8 0.694605 0.543405 0.884297
O O9 0.500000 0.500000 0.654518
O O10 0.000000 0.500000 0.680324
#
# Coordination Sequence:
#
# PCOD9342356 Si02
#       5
#     4   4   4   2   4
#     4  10  23  43  69  96 137 178 227 284 343 416
#     4  10  24  40  74  95 131 184 228 278 347 420
#     4  10  24  44  68 102 137 181 233 283 353 417
#     4  10  24  44  68 102 144 178 232 294 350 412
#     4  10  22  42  70 100 127 182 229 282 340 420
#
# _framework density 21.851372999999999
#
# number of rings (size 3 to 8) (size 9 to 14) (size 15 to 20)
#    2.000    0.000    0.000    2.667    3.111    1.778 
#    6.000    0.000    0.000    0.000    0.000    0.000 
#    0.000    0.000    0.000    0.000    0.000    0.000 
#
# Total GULP energy -100376.950957 kJ/mol
# GULP energy per Si atom -5576.497275 kJ/mol
# Density = 2.180164 g / cm^3
# Si number density = 21.851373 Si / 1000 Ang^3
#
#
#
# Elastic Constant Matrix: (Units=GPa)
#
#
# Indices 1 2 3 4 5 6 
#
# 1 137.1230 0.9951 17.8584 0.0000 0.0000 0.0000
# 2 0.9951 89.4469 30.0398 0.0000 0.0000 0.0000
# 3 17.8584 30.0398 68.6301 0.0000 0.0000 0.0000
# 4 0.0000 0.0000 0.0000 33.4858 0.0000 0.0000
# 5 0.0000 0.0000 0.0000 0.0000 17.5480 0.0000
# 6 0.0000 0.0000 0.0000 0.0000 0.0000 16.3333
#
#
#
# Elastic Compliance Matrix: (Units=1/GPa)
#
#
# Indices 1 2 3 4 5 6 
#
# 1 0.007583 0.000678 -0.002270 0.000000 0.000000 0.000000
# 2 0.000678 0.013167 -0.005940 0.000000 0.000000 0.000000
# 3 -0.002270 -0.005940 0.017761 0.000000 0.000000 0.000000
# 4 0.000000 0.000000 0.000000 0.029863 0.000000 0.000000
# 5 0.000000 0.000000 0.000000 0.000000 0.056987 0.000000
# 6 0.000000 0.000000 0.000000 0.000000 0.000000 0.061224
#
#
# Mechanical properties :
#
#
# Convention : Reuss Voigt Hill
#
# Bulk Modulus (GPa) = 42.64692 43.66517 43.15604
# Shear Modulus (GPa) = 23.87020 29.89387 26.88204
#
# Velocity S-wave (km/s) = 3.30872 3.70273 3.51126
# Velocity P-wave (km/s) = 5.84431 6.18923 6.01924
#
# Compressibility (1/GPa) = 0.02344835
#
# Stress axis : x y z
#
# Youngs Moduli (GPa) = 131.86609 75.94701 56.30174
#
# Poissons Ratio (x) = -0.05149 0.12781
# Poissons Ratio (y) = -0.08941 0.33442
# Poissons Ratio (z) = 0.29935 0.45111
#
# Static dielectric constant tensor:
#      x y z
#    x 1.840200 0.000000 0.000000 
#    y 0.000000 1.814310 0.000000 
#    z 0.000000 0.000000 1.818930 
# 
# From -- ./inp_files/1357.got.cif
#   From: 2010.05.17/outbox.cif.g08.bks.cpg/sg30_1_cif.got.tgz:1357.got - 2010.06.03 17:03:02.
