data_PCOD9342572
_publ_section_title
;
Structure prediction by ZEFSAII (Michael W. Deem and Ramdas Pophale) SiO2 
 PCOD9342572
Probable space group: P N C 2
;
_chemical_formula_sum "Si O2"
_cell_formula_units_Z 32
_cell_length_a 11.427558
_cell_length_b 8.206256
_cell_length_c 15.039955
_cell_angle_alpha 90.000000
_cell_angle_beta 90.000000
_cell_angle_gamma 90.000000
_cell_volume 1410.408875
_symmetry_space_group_name_H-M "P N C 2"
_symmetry_group_IT_number 30
_symmetry_cell_setting 'orthorhombic'
loop_
_space_group_symop_operation_xyz
x,y,z
-x,-y,z
-x,1/2+y,1/2+z
x,1/2-y,1/2+z
loop_
_atom_site_type_symbol
_atom_site_label
_atom_site_fract_x
_atom_site_fract_y
_atom_site_fract_z
Si Si1 0.635993 0.823254 0.434410
Si Si2 0.130503 0.319777 0.357582
Si Si3 0.473427 0.812170 0.789700
Si Si4 0.984954 0.317030 0.016071
Si Si5 0.004905 0.317906 0.696968
Si Si6 0.278329 0.814406 0.488349
Si Si7 0.209405 0.833004 0.798891
Si Si8 0.502094 0.800802 0.598971
O O1 0.742348 0.727250 0.392228
O O2 0.523627 0.799402 0.369215
O O3 0.599895 0.750081 0.528929
O O4 0.681097 0.005504 0.455798
O O5 0.144111 0.495727 0.312800
O O6 0.040385 0.298548 0.440231
O O7 0.093028 0.199115 0.279015
O O8 0.338424 0.825525 0.757588
O O9 0.532403 0.751554 0.698629
O O10 0.500000 0.000000 0.814758
O O11 0.040993 0.292579 0.112999
O O12 0.847012 0.305146 0.035442
O O13 0.000000 0.500000 0.980764
O O14 0.881450 0.272855 0.743058
O O15 0.000000 0.500000 0.661176
O O16 0.247151 0.721681 0.397760
O O17 0.380109 0.749907 0.552611
O O18 0.500000 0.000000 0.601064
#
# Coordination Sequence:
#
# PCOD9342572 Si02
#       8
#     4   4   4   4   4   4   4   4
#     4  11  22  42  69 100 139 184 232 293 358 424
#     4  12  25  44  71 103 143 187 237 292 359 429
#     4  11  22  42  70 103 141 183 236 297 355 423
#     4  12  25  45  73 101 140 187 234 297 367 428
#     4  12  28  46  68 106 143 180 246 301 356 430
#     4  11  22  41  71  95 137 184 236 288 357 423
#     4  12  24  43  75  97 139 193 238 290 360 418
#     4   9  21  38  65  99 134 179 234 283 349 424
#
# _framework density 22.688455000000001
#
# number of rings (size 3 to 8) (size 9 to 14) (size 15 to 20)
#    0.000    0.750    5.000    3.000    1.750    1.000 
#    0.000    0.000    5.500    0.000    0.000    0.000 
#    0.000    0.000    0.000    0.000    0.000    0.000 
#
# Total GULP energy -178660.016792 kJ/mol
# GULP energy per Si atom -5583.125525 kJ/mol
# Density = 2.263681 g / cm^3
# Si number density = 22.688455 Si / 1000 Ang^3
#
#
#
# Elastic Constant Matrix: (Units=GPa)
#
#
# Indices 1 2 3 4 5 6 
#
# 1 82.4980 5.7221 -4.8835 0.0000 0.0000 0.0000
# 2 5.7221 46.1117 2.3356 0.0000 0.0000 0.0000
# 3 -4.8835 2.3356 116.8868 0.0000 0.0000 0.0000
# 4 0.0000 0.0000 0.0000 14.1042 0.0000 0.0000
# 5 0.0000 0.0000 0.0000 0.0000 15.2113 0.0000
# 6 0.0000 0.0000 0.0000 0.0000 0.0000 29.7694
#
#
#
# Elastic Compliance Matrix: (Units=1/GPa)
#
#
# Indices 1 2 3 4 5 6 
#
# 1 0.012261 -0.001549 0.000543 0.000000 0.000000 0.000000
# 2 -0.001549 0.021904 -0.000502 0.000000 0.000000 0.000000
# 3 0.000543 -0.000502 0.008588 0.000000 0.000000 0.000000
# 4 0.000000 0.000000 0.000000 0.070901 0.000000 0.000000
# 5 0.000000 0.000000 0.000000 0.000000 0.065741 0.000000
# 6 0.000000 0.000000 0.000000 0.000000 0.000000 0.033591
#
#
# Mechanical properties :
#
#
# Convention : Reuss Voigt Hill
#
# Bulk Modulus (GPa) = 25.16557 27.98279 26.57418
# Shear Modulus (GPa) = 21.81042 27.97181 24.89112
#
# Velocity S-wave (km/s) = 3.10385 3.51503 3.31582
# Velocity P-wave (km/s) = 4.89500 5.36974 5.13786
#
# Compressibility (1/GPa) = 0.03973682
#
# Stress axis : x y z
#
# Youngs Moduli (GPa) = 81.55874 45.65346 116.44132
#
# Poissons Ratio (x) = 0.07072 -0.06325
# Poissons Ratio (y) = 0.12634 0.05850
# Poissons Ratio (z) = -0.04430 0.02294
#
# Static dielectric constant tensor:
#      x y z
#    x 2.150590 0.000000 0.000000 
#    y 0.000000 2.054490 0.000000 
#    z 0.000000 0.000000 1.873820 
# 
# From -- ./inp_files/5534.got.cif
#   From: 2010.05.17/outbox.cif.g08.bks.cpg/sg30_3_cif.got.tgz:5534.got - 2010.06.03 17:03:02.
