data_PCOD9342415
_publ_section_title
;
Structure prediction by ZEFSAII (Michael W. Deem and Ramdas Pophale) SiO2 
 PCOD9342415
Probable space group: P N C 2
;
_chemical_formula_sum "Si O2"
_cell_formula_units_Z 16
_cell_length_a 5.366718
_cell_length_b 5.089489
_cell_length_c 23.891853
_cell_angle_alpha 90.000000
_cell_angle_beta 90.000000
_cell_angle_gamma 90.000000
_cell_volume 652.578542
_symmetry_space_group_name_H-M "P N C 2"
_symmetry_group_IT_number 30
_symmetry_cell_setting 'orthorhombic'
loop_
_space_group_symop_operation_xyz
x,y,z
-x,-y,z
-x,1/2+y,1/2+z
x,1/2-y,1/2+z
loop_
_atom_site_type_symbol
_atom_site_label
_atom_site_fract_x
_atom_site_fract_y
_atom_site_fract_z
Si Si1 0.821286 0.748722 0.997340
Si Si2 0.500000 0.000000 0.713330
Si Si3 0.500000 0.000000 0.287256
Si Si4 0.824646 0.752989 0.616483
Si Si5 0.743416 0.666151 0.372853
O O1 0.693541 0.748816 0.937168
O O2 0.000000 0.500000 0.995325
O O3 0.678628 0.762811 0.056875
O O4 0.000000 0.000000 0.998787
O O5 0.591738 0.246347 0.751129
O O6 0.326609 0.165245 0.670864
O O7 0.278941 0.100303 0.328101
O O8 0.000000 0.500000 0.624835
O O9 0.000000 0.000000 0.607771
O O10 0.500000 0.500000 0.358677
O O11 0.000000 0.500000 0.370154
#
# Coordination Sequence:
#
# PCOD9342415 Si02
#       5
#     4   2   2   4   4
#     4   9  21  42  74 110 149 187 244 312 394 465
#     4  12  26  49  72 109 150 210 264 316 378 454
#     4  12  28  49  72 111 150 214 266 316 378 460
#     4  10  22  46  72 108 146 193 248 316 385 459
#     4  11  27  52  78 115 154 199 254 323 391 462
#
# _framework density 24.518122000000002
#
# number of rings (size 3 to 8) (size 9 to 14) (size 15 to 20)
#    0.000    1.500    1.250    1.500    7.000    2.000 
#   24.750    0.000    0.000    0.000    0.000    0.000 
#    0.000    0.000    0.000    0.000    0.000    0.000 
#
# Total GULP energy -89306.218217 kJ/mol
# GULP energy per Si atom -5581.638639 kJ/mol
# Density = 2.446232 g / cm^3
# Si number density = 24.518122 Si / 1000 Ang^3
#
#
#
# Elastic Constant Matrix: (Units=GPa)
#
#
# Indices 1 2 3 4 5 6 
#
# 1 86.3051 50.9776 50.3154 0.0000 0.0000 0.0000
# 2 50.9776 205.1745 76.8293 0.0000 0.0000 0.0000
# 3 50.3154 76.8293 234.7449 0.0000 0.0000 0.0000
# 4 0.0000 0.0000 0.0000 43.7280 0.0000 0.0000
# 5 0.0000 0.0000 0.0000 0.0000 26.8109 0.0000
# 6 0.0000 0.0000 0.0000 0.0000 0.0000 50.0800
#
#
#
# Elastic Compliance Matrix: (Units=1/GPa)
#
#
# Indices 1 2 3 4 5 6 
#
# 1 0.014513 -0.002782 -0.002200 0.000000 0.000000 0.000000
# 2 -0.002782 0.006088 -0.001396 0.000000 0.000000 0.000000
# 3 -0.002200 -0.001396 0.005188 0.000000 0.000000 0.000000
# 4 0.000000 0.000000 0.000000 0.022869 0.000000 0.000000
# 5 0.000000 0.000000 0.000000 0.000000 0.037298 0.000000
# 6 0.000000 0.000000 0.000000 0.000000 0.000000 0.019968
#
#
# Mechanical properties :
#
#
# Convention : Reuss Voigt Hill
#
# Bulk Modulus (GPa) = 76.73156 98.05211 87.39183
# Shear Modulus (GPa) = 40.64219 47.33060 43.98640
#
# Velocity S-wave (km/s) = 4.07583 4.39844 4.24020
# Velocity P-wave (km/s) = 7.31530 8.11625 7.72616
#
# Compressibility (1/GPa) = 0.01303245
#
# Stress axis : x y z
#
# Youngs Moduli (GPa) = 68.90519 164.25939 192.73410
#
# Poissons Ratio (x) = 0.45696 0.42405
# Poissons Ratio (y) = 0.19169 0.26910
# Poissons Ratio (z) = 0.15160 0.22934
#
# Static dielectric constant tensor:
#      x y z
#    x 1.960240 0.000000 0.000000 
#    y 0.000000 2.015950 0.000000 
#    z 0.000000 0.000000 2.149660 
# 
# From -- ./inp_files/7127.got.cif
#   From: 2010.05.17/outbox.cif.g08.bks.cpg/sg30_4_cif.got.tgz:7127.got - 2010.06.03 17:03:02.
