data_PCOD9342657
_publ_section_title
;
Structure prediction by ZEFSAII (Michael W. Deem and Ramdas Pophale) SiO2 
 PCOD9342657
Probable space group: P N C 2
;
_chemical_formula_sum "Si O2"
_cell_formula_units_Z 14
_cell_length_a 5.397683
_cell_length_b 11.108103
_cell_length_c 8.801214
_cell_angle_alpha 90.000000
_cell_angle_beta 90.000000
_cell_angle_gamma 90.000000
_cell_volume 527.703354
_symmetry_space_group_name_H-M "P N C 2"
_symmetry_group_IT_number 30
_symmetry_cell_setting 'orthorhombic'
loop_
_space_group_symop_operation_xyz
x,y,z
-x,-y,z
-x,1/2+y,1/2+z
x,1/2-y,1/2+z
loop_
_atom_site_type_symbol
_atom_site_label
_atom_site_fract_x
_atom_site_fract_y
_atom_site_fract_z
Si Si1 0.500000 0.500000 0.902411
Si Si2 0.729359 0.699149 0.706389
Si Si3 0.139595 0.870754 0.637571
Si Si4 0.459761 0.639719 0.425404
O O1 0.700992 0.574278 0.800647
O O2 0.652836 0.406780 0.009032
O O3 0.494428 0.689249 0.593744
O O4 0.678210 0.802148 0.827556
O O5 0.960682 0.754338 0.612921
O O6 0.237475 0.847760 0.808279
O O7 0.000000 0.000000 0.641681
O O8 0.500000 0.500000 0.444048
#
# Coordination Sequence:
#
# PCOD9342657 Si02
#       4
#     2   4   4   4
#     4  12  28  54  86 134 166 220 294 350 418 524
#     4  12  28  51  87 121 169 226 275 356 432 505
#     4  12  25  54  84 122 173 223 281 358 428 491
#     4  12  25  52  81 124 169 214 284 347 423 522
#
# _framework density 26.530055999999998
#
# number of rings (size 3 to 8) (size 9 to 14) (size 15 to 20)
#    0.000    0.000    5.714    3.429    0.000    9.143 
#    0.000    4.286    0.000    0.000    0.000    0.000 
#    0.000    0.000    0.000    0.000    0.000    0.000 
#
# Total GULP energy -78129.281888 kJ/mol
# GULP energy per Si atom -5580.662992 kJ/mol
# Density = 2.646967 g / cm^3
# Si number density = 26.530056 Si / 1000 Ang^3
#
#
#
# Elastic Constant Matrix: (Units=GPa)
#
#
# Indices 1 2 3 4 5 6 
#
# 1 108.0912 50.1395 40.4830 0.0000 0.0000 0.0000
# 2 50.1395 181.2848 73.6963 0.0000 0.0000 0.0000
# 3 40.4830 73.6963 156.9629 0.0000 0.0000 0.0000
# 4 0.0000 0.0000 0.0000 64.2076 0.0000 0.0000
# 5 0.0000 0.0000 0.0000 0.0000 34.7143 0.0000
# 6 0.0000 0.0000 0.0000 0.0000 0.0000 51.5190
#
#
#
# Elastic Compliance Matrix: (Units=1/GPa)
#
#
# Indices 1 2 3 4 5 6 
#
# 1 0.010984 -0.002331 -0.001738 0.000000 0.000000 0.000000
# 2 -0.002331 0.007312 -0.002832 0.000000 0.000000 0.000000
# 3 -0.001738 -0.002832 0.008149 0.000000 0.000000 0.000000
# 4 0.000000 0.000000 0.000000 0.015574 0.000000 0.000000
# 5 0.000000 0.000000 0.000000 0.000000 0.028807 0.000000
# 6 0.000000 0.000000 0.000000 0.000000 0.000000 0.019410
#
#
# Mechanical properties :
#
#
# Convention : Reuss Voigt Hill
#
# Bulk Modulus (GPa) = 79.10163 86.10851 82.60507
# Shear Modulus (GPa) = 46.18798 48.88954 47.53876
#
# Velocity S-wave (km/s) = 4.17702 4.29744 4.23766
# Velocity P-wave (km/s) = 7.28999 7.55986 7.42615
#
# Compressibility (1/GPa) = 0.01264196
#
# Stress axis : x y z
#
# Youngs Moduli (GPa) = 91.04256 136.75799 122.71587
#
# Poissons Ratio (x) = 0.31881 0.21332
# Poissons Ratio (y) = 0.21224 0.34752
# Poissons Ratio (z) = 0.15826 0.38729
#
# Static dielectric constant tensor:
#      x y z
#    x 2.250760 0.000000 0.000000 
#    y 0.000000 2.099040 0.000000 
#    z 0.000000 0.000000 2.007260 
# 
# From -- ./inp_files/1184.got.cif
#   From: 2010.05.17/outbox.cif.g08.bks.cpg/sg30_1_cif.got.tgz:1184.got - 2010.06.03 17:03:02.
