data_PCOD9342883
_publ_section_title
;
Structure prediction by ZEFSAII (Michael W. Deem and Ramdas Pophale) SiO2 
 PCOD9342883
Probable space group: P M N 21
;
_chemical_formula_sum "Si O2"
_cell_formula_units_Z 24
_cell_length_a 8.683295
_cell_length_b 9.460823
_cell_length_c 16.724969
_cell_angle_alpha 90.000000
_cell_angle_beta 90.000000
_cell_angle_gamma 90.000000
_cell_volume 1373.974886
_symmetry_space_group_name_H-M "P M N 21"
_symmetry_group_IT_number 31
_symmetry_cell_setting 'orthorhombic'
loop_
_space_group_symop_operation_xyz
x,y,z
1/2-x,-y,1/2+z
-x,y,z
1/2+x,-y,1/2+z
loop_
_atom_site_type_symbol
_atom_site_label
_atom_site_fract_x
_atom_site_fract_y
_atom_site_fract_z
Si Si1 0.182183 0.687123 0.242700
Si Si2 0.314089 0.841504 0.398605
Si Si3 0.318467 0.581960 0.496059
Si Si4 0.317377 0.574584 0.843578
Si Si5 0.318729 0.677194 0.073161
Si Si6 0.315771 0.168535 0.418061
O O1 0.239339 0.777920 0.318447
O O2 0.208772 0.521983 0.266203
O O3 0.267091 0.723062 0.160965
O O4 0.000000 0.706836 0.232638
O O5 0.500000 0.830334 0.390813
O O6 0.271030 0.741780 0.474242
O O7 0.273213 0.004409 0.411091
O O8 0.500000 0.577171 0.513400
O O9 0.280907 0.501170 0.413076
O O10 0.230387 0.486746 0.560103
O O11 0.500000 0.565539 0.862494
O O12 0.263760 0.735830 0.849498
O O13 0.500000 0.690628 0.062761
O O14 0.237101 0.767294 0.003220
O O15 0.500000 0.181463 0.411673
#
# Coordination Sequence:
#
# PCOD9342883 Si02
#       6
#     4   4   4   4   4   4
#     4  10  20  34  53  75 100 131 168 210 255 299
#     4   9  19  34  53  77 103 133 167 204 248 301
#     4   9  16  30  51  72  96 126 162 201 242 290
#     4   9  17  30  49  73  97 125 164 203 241 291
#     4  11  21  33  51  75 102 131 169 212 252 296
#     4  10  19  33  53  76 104 136 168 202 248 303
#
# _framework density 17.467569000000001
#
# number of rings (size 3 to 8) (size 9 to 14) (size 15 to 20)
#    0.000    2.333    0.000    5.500    0.000    4.000 
#    0.000    1.667    0.000    2.000    0.000    0.000 
#    0.000    0.000    0.000    0.000    0.000    0.000 
#
# Total GULP energy -133723.394666 kJ/mol
# GULP energy per Si atom -5571.808111 kJ/mol
# Density = 1.742781 g / cm^3
# Si number density = 17.467569 Si / 1000 Ang^3
#
#
#
# Elastic Constant Matrix: (Units=GPa)
#
#
# Indices 1 2 3 4 5 6 
#
# 1 40.2622 24.5452 15.3429 0.0000 0.0000 0.0000
# 2 24.5452 124.8331 23.1936 0.0000 0.0000 0.0000
# 3 15.3429 23.1936 61.8663 0.0000 0.0000 0.0000
# 4 0.0000 0.0000 0.0000 15.1301 0.0000 0.0000
# 5 0.0000 0.0000 0.0000 0.0000 17.7176 0.0000
# 6 0.0000 0.0000 0.0000 0.0000 0.0000 23.0456
#
#
#
# Elastic Compliance Matrix: (Units=1/GPa)
#
#
# Indices 1 2 3 4 5 6 
#
# 1 0.029926 -0.004843 -0.005606 0.000000 0.000000 0.000000
# 2 -0.004843 0.009394 -0.002321 0.000000 0.000000 0.000000
# 3 -0.005606 -0.002321 0.018424 0.000000 0.000000 0.000000
# 4 0.000000 0.000000 0.000000 0.066094 0.000000 0.000000
# 5 0.000000 0.000000 0.000000 0.000000 0.056441 0.000000
# 6 0.000000 0.000000 0.000000 0.000000 0.000000 0.043392
#
#
# Mechanical properties :
#
#
# Convention : Reuss Voigt Hill
#
# Bulk Modulus (GPa) = 31.05106 39.23612 35.14359
# Shear Modulus (GPa) = 19.23482 22.10397 20.66939
#
# Velocity S-wave (km/s) = 3.32199 3.56115 3.44365
# Velocity P-wave (km/s) = 5.70344 6.27854 5.99788
#
# Compressibility (1/GPa) = 0.03220502
#
# Stress axis : x y z
#
# Youngs Moduli (GPa) = 33.41603 106.45023 54.27614
#
# Poissons Ratio (x) = 0.51549 0.30428
# Poissons Ratio (y) = 0.16182 0.12597
# Poissons Ratio (z) = 0.18734 0.24706
#
# Static dielectric constant tensor:
#      x y z
#    x 1.585580 0.000000 0.000000 
#    y 0.000000 1.633760 0.000000 
#    z 0.000000 0.000000 1.588200 
# 
# From -- ./inp_files/5712.got.cif
#   From: 2010.05.17/outbox.cif.g08.bks.cpg/sg31_3_cif.got.tgz:5712.got - 2010.06.03 17:08:30.
