data_PCOD9342902
_publ_section_title
;
Structure prediction by ZEFSAII (Michael W. Deem and Ramdas Pophale) SiO2 
 PCOD9342902
Probable space group: P M N 21
;
_chemical_formula_sum "Si O2"
_cell_formula_units_Z 32
_cell_length_a 30.475280
_cell_length_b 7.083169
_cell_length_c 8.582866
_cell_angle_alpha 90.000000
_cell_angle_beta 90.000000
_cell_angle_gamma 90.000000
_cell_volume 1852.710832
_symmetry_space_group_name_H-M "P M N 21"
_symmetry_group_IT_number 31
_symmetry_cell_setting 'orthorhombic'
loop_
_space_group_symop_operation_xyz
x,y,z
1/2-x,-y,1/2+z
-x,y,z
1/2+x,-y,1/2+z
loop_
_atom_site_type_symbol
_atom_site_label
_atom_site_fract_x
_atom_site_fract_y
_atom_site_fract_z
Si Si1 0.708072 0.606279 0.961190
Si Si2 0.879440 0.386407 0.257690
Si Si3 0.413991 0.938337 0.973965
Si Si4 0.135358 0.382840 0.892950
Si Si5 0.950554 0.384648 0.690242
Si Si6 0.172742 0.065496 0.671604
Si Si7 0.449674 0.343309 0.896616
Si Si8 0.793555 0.660416 0.752784
O O1 0.664146 0.577115 0.859754
O O2 0.750250 0.623118 0.853193
O O3 0.711908 0.437902 0.084946
O O4 0.701375 0.797376 0.061611
O O5 0.900348 0.196073 0.330274
O O6 0.914644 0.552248 0.287045
O O7 0.867395 0.369166 0.077770
O O8 0.438379 0.124756 0.918885
O O9 0.441930 0.806016 0.090609
O O10 0.369864 0.990346 0.069134
O O11 0.087101 0.402172 0.818245
O O12 0.165577 0.556653 0.836685
O O13 0.156465 0.197201 0.813399
O O14 0.945552 0.552148 0.563973
O O15 0.000000 0.386166 0.752172
O O16 0.197075 0.880537 0.729823
O O17 0.500000 0.368850 0.844283
#
# Coordination Sequence:
#
# PCOD9342902 Si02
#       8
#     4   4   4   4   4   4   4   4
#     4  10  22  36  55  81 106 140 179 214 266 319
#     4  10  21  36  52  78 113 141 174 219 265 316
#     4   9  17  34  55  76 104 138 179 221 261 311
#     4  10  21  36  55  81 109 142 179 215 267 318
#     4   9  18  33  54  78 105 139 179 223 266 315
#     4   9  20  36  55  78 105 139 177 218 262 312
#     4  10  19  33  56  80 103 140 183 220 266 317
#     4  11  21  38  59  80 109 139 175 222 262 312
#
# _framework density 17.271986999999999
#
# number of rings (size 3 to 8) (size 9 to 14) (size 15 to 20)
#    0.000    2.250    0.000    4.875    0.000    5.000 
#    0.000    2.500    0.000    0.000    0.000    0.000 
#    0.000    0.000    0.000    0.000    0.000    0.000 
#
# Total GULP energy -178607.132900 kJ/mol
# GULP energy per Si atom -5581.472903 kJ/mol
# Density = 1.723268 g / cm^3
# Si number density = 17.271987 Si / 1000 Ang^3
#
#
#
# Elastic Constant Matrix: (Units=GPa)
#
#
# Indices 1 2 3 4 5 6 
#
# 1 121.6802 57.4822 65.1826 0.0000 0.0000 0.0000
# 2 57.4822 86.6228 46.3522 0.0000 0.0000 0.0000
# 3 65.1826 46.3522 121.9916 0.0000 0.0000 0.0000
# 4 0.0000 0.0000 0.0000 5.7218 0.0000 0.0000
# 5 0.0000 0.0000 0.0000 0.0000 25.9635 0.0000
# 6 0.0000 0.0000 0.0000 0.0000 0.0000 17.7678
#
#
#
# Elastic Compliance Matrix: (Units=1/GPa)
#
#
# Indices 1 2 3 4 5 6 
#
# 1 0.014017 -0.006645 -0.004965 0.000000 0.000000 0.000000
# 2 -0.006645 0.017641 -0.003152 0.000000 0.000000 0.000000
# 3 -0.004965 -0.003152 0.012048 0.000000 0.000000 0.000000
# 4 0.000000 0.000000 0.000000 0.174771 0.000000 0.000000
# 5 0.000000 0.000000 0.000000 0.000000 0.038516 0.000000
# 6 0.000000 0.000000 0.000000 0.000000 0.000000 0.056282
#
#
# Mechanical properties :
#
#
# Convention : Reuss Voigt Hill
#
# Bulk Modulus (GPa) = 70.51416 74.25875 72.38646
# Shear Modulus (GPa) = 14.38750 20.64246 17.51498
#
# Velocity S-wave (km/s) = 2.88930 3.46083 3.18790
# Velocity P-wave (km/s) = 7.21423 7.68485 7.45325
#
# Compressibility (1/GPa) = 0.01418155
#
# Stress axis : x y z
#
# Youngs Moduli (GPa) = 71.34284 56.68753 83.00295
#
# Poissons Ratio (x) = 0.37668 0.41208
# Poissons Ratio (y) = 0.47406 0.26165
# Poissons Ratio (z) = 0.35419 0.17870
#
# Static dielectric constant tensor:
#      x y z
#    x 1.586270 0.000000 0.000000 
#    y 0.000000 1.567030 0.000000 
#    z 0.000000 0.000000 1.554980 
# 
# From -- ./inp_files/3194.got.cif
#   From: 2010.05.17/outbox.cif.g08.bks.cpg/sg31_2_cif.got.tgz:3194.got - 2010.06.03 17:08:30.
