data_PCOD9342170
_publ_section_title
;
Structure prediction by ZEFSAII (Michael W. Deem and Ramdas Pophale) SiO2 
 PCOD9342170
Probable space group: P N C 2
;
_chemical_formula_sum "Si O2"
_cell_formula_units_Z 32
_cell_length_a 18.424070
_cell_length_b 5.203577
_cell_length_c 16.052159
_cell_angle_alpha 90.000000
_cell_angle_beta 90.000000
_cell_angle_gamma 90.000000
_cell_volume 1538.937609
_symmetry_space_group_name_H-M "P N C 2"
_symmetry_group_IT_number 30
_symmetry_cell_setting 'orthorhombic'
loop_
_space_group_symop_operation_xyz
x,y,z
-x,-y,z
-x,1/2+y,1/2+z
x,1/2-y,1/2+z
loop_
_atom_site_type_symbol
_atom_site_label
_atom_site_fract_x
_atom_site_fract_y
_atom_site_fract_z
Si Si1 0.710326 0.273244 0.980070
Si Si2 0.951713 0.247653 0.469785
Si Si3 0.786219 0.855559 0.208900
Si Si4 0.544846 0.247558 0.217193
Si Si5 0.546041 0.248172 0.418429
Si Si6 0.295341 0.622684 0.164877
Si Si7 0.832344 0.585100 0.533131
Si Si8 0.837822 0.529136 0.883659
O O1 0.627648 0.243068 0.952876
O O2 0.761227 0.396771 0.909043
O O3 0.713319 0.429280 0.066464
O O4 0.752277 0.014273 0.007047
O O5 0.887564 0.342998 0.531835
O O6 0.000000 0.500000 0.457268
O O7 0.904607 0.167909 0.388956
O O8 0.000000 0.000000 0.494752
O O9 0.723024 0.641267 0.211921
O O10 0.831101 0.798092 0.124934
O O11 0.829668 0.845602 0.294301
O O12 0.756464 0.145069 0.194988
O O13 0.500000 0.500000 0.195461
O O14 0.551932 0.236218 0.317728
O O15 0.624161 0.274972 0.179764
O O16 0.500000 0.000000 0.189109
O O17 0.500000 0.500000 0.440597
O O18 0.500000 0.000000 0.446114
O O19 0.853311 0.774675 0.458888
#
# Coordination Sequence:
#
# PCOD9342170 Si02
#       8
#     4   4   4   4   4   4   4   4
#     4  10  23  39  64  93 127 168 222 273 328 388
#     4  11  23  43  72  98 135 179 209 257 324 385
#     4  11  25  40  65  99 130 164 221 269 322 383
#     4  10  21  37  54  80 120 165 215 267 330 395
#     4  10  23  37  56  86 122 167 219 270 327 393
#     4  11  23  40  60  91 126 164 216 280 325 386
#     4  10  23  44  67 101 132 169 220 268 321 389
#     4  11  23  42  72  97 132 177 212 273 323 382
#
# _framework density 20.793565000000001
#
# number of rings (size 3 to 8) (size 9 to 14) (size 15 to 20)
#    0.000    1.500    2.500    1.500    7.000    2.000 
#    0.000    1.250    0.000    0.000    0.000    0.000 
#    0.000    0.000    0.000    0.000    0.000    0.000 
#
# Total GULP energy -178677.774832 kJ/mol
# GULP energy per Si atom -5583.680463 kJ/mol
# Density = 2.074624 g / cm^3
# Si number density = 20.793565 Si / 1000 Ang^3
#
#
#
# Elastic Constant Matrix: (Units=GPa)
#
#
# Indices 1 2 3 4 5 6 
#
# 1 114.9107 46.5601 23.5559 0.0000 0.0000 0.0000
# 2 46.5601 116.1457 34.1301 0.0000 0.0000 0.0000
# 3 23.5559 34.1301 90.8450 0.0000 0.0000 0.0000
# 4 0.0000 0.0000 0.0000 18.6297 0.0000 0.0000
# 5 0.0000 0.0000 0.0000 0.0000 3.8435 0.0000
# 6 0.0000 0.0000 0.0000 0.0000 0.0000 30.7060
#
#
#
# Elastic Compliance Matrix: (Units=1/GPa)
#
#
# Indices 1 2 3 4 5 6 
#
# 1 0.010522 -0.003840 -0.001286 0.000000 0.000000 0.000000
# 2 -0.003840 0.011080 -0.003167 0.000000 0.000000 0.000000
# 3 -0.001286 -0.003167 0.012531 0.000000 0.000000 0.000000
# 4 0.000000 0.000000 0.000000 0.053678 0.000000 0.000000
# 5 0.000000 0.000000 0.000000 0.000000 0.260182 0.000000
# 6 0.000000 0.000000 0.000000 0.000000 0.000000 0.032567
#
#
# Mechanical properties :
#
#
# Convention : Reuss Voigt Hill
#
# Bulk Modulus (GPa) = 56.98862 58.93263 57.96063
# Shear Modulus (GPa) = 12.40712 25.14618 18.77665
#
# Velocity S-wave (km/s) = 2.44536 3.48131 3.00826
# Velocity P-wave (km/s) = 5.95310 6.67552 6.32463
#
# Compressibility (1/GPa) = 0.01754736
#
# Stress axis : x y z
#
# Youngs Moduli (GPa) = 95.03942 90.25309 79.80268
#
# Poissons Ratio (x) = 0.34659 0.10259
# Poissons Ratio (y) = 0.36497 0.25273
# Poissons Ratio (z) = 0.12218 0.28582
#
# Static dielectric constant tensor:
#      x y z
#    x 1.738590 0.000000 0.000000 
#    y 0.000000 1.795580 0.000000 
#    z 0.000000 0.000000 1.749020 
# 
# From -- ./inp_files/5661.got.cif
#   From: 2010.05.17/outbox.cif.g08.bks.cpg/sg30_3_cif.got.tgz:5661.got - 2010.06.03 17:03:02.
