data_PCOD9342677
_publ_section_title
;
Structure prediction by ZEFSAII (Michael W. Deem and Ramdas Pophale) SiO2 
 PCOD9342677
Probable space group: P M N 21
;
_chemical_formula_sum "Si O2"
_cell_formula_units_Z 16
_cell_length_a 19.291999
_cell_length_b 5.172074
_cell_length_c 6.311662
_cell_angle_alpha 90.000000
_cell_angle_beta 90.000000
_cell_angle_gamma 90.000000
_cell_volume 629.775403
_symmetry_space_group_name_H-M "P M N 21"
_symmetry_group_IT_number 31
_symmetry_cell_setting 'orthorhombic'
loop_
_space_group_symop_operation_xyz
x,y,z
1/2-x,-y,1/2+z
-x,y,z
1/2+x,-y,1/2+z
loop_
_atom_site_type_symbol
_atom_site_label
_atom_site_fract_x
_atom_site_fract_y
_atom_site_fract_z
Si Si1 0.000000 0.836207 0.767170
Si Si2 0.642902 0.972277 0.348656
Si Si3 0.000000 0.330808 0.463234
Si Si4 0.279789 0.243713 0.000807
Si Si5 0.645844 0.741396 0.905437
O O1 0.930703 0.900848 0.901745
O O2 0.000000 0.050199 0.577846
O O3 0.000000 0.564722 0.637689
O O4 0.686298 0.197381 0.229790
O O5 0.630568 0.766323 0.160048
O O6 0.698697 0.824138 0.492467
O O7 0.929733 0.335779 0.322252
O O8 0.322680 0.024784 0.870373
O O9 0.299901 0.510645 0.894631
#
# Coordination Sequence:
#
# PCOD9342677 Si02
#       5
#     2   4   2   4   4
#     4  10  18  30  54  74  99 131 172 212 246 291
#     4   9  21  33  54  77 103 132 171 209 256 299
#     4  10  14  32  48  76  99 129 172 214 240 293
#     4  10  20  31  51  78 104 132 167 211 253 302
#     4   9  19  29  52  75 102 129 168 208 255 290
#
# _framework density 25.405884
#
# number of rings (size 3 to 8) (size 9 to 14) (size 15 to 20)
#    1.500    1.000    2.500    0.000    3.500    0.000 
#    0.000    0.000    0.000    4.500    0.000    0.000 
#    0.000    0.000    0.000    0.000    0.000    0.000 
#
# Total GULP energy -89072.820809 kJ/mol
# GULP energy per Si atom -5567.051301 kJ/mol
# Density = 2.534806 g / cm^3
# Si number density = 25.405884 Si / 1000 Ang^3
#
#
#
# Elastic Constant Matrix: (Units=GPa)
#
#
# Indices 1 2 3 4 5 6 
#
# 1 195.8393 36.4631 -15.4817 0.0000 0.0000 0.0000
# 2 36.4631 170.9215 -2.5608 0.0000 0.0000 0.0000
# 3 -15.4817 -2.5608 10.1004 0.0000 0.0000 0.0000
# 4 0.0000 0.0000 0.0000 23.2278 0.0000 0.0000
# 5 0.0000 0.0000 0.0000 0.0000 23.8773 0.0000
# 6 0.0000 0.0000 0.0000 0.0000 0.0000 36.3983
#
#
#
# Elastic Compliance Matrix: (Units=1/GPa)
#
#
# Indices 1 2 3 4 5 6 
#
# 1 0.006028 -0.001152 0.008948 0.000000 0.000000 0.000000
# 2 -0.001152 0.006093 -0.000221 0.000000 0.000000 0.000000
# 3 0.008948 -0.000221 0.112665 0.000000 0.000000 0.000000
# 4 0.000000 0.000000 0.000000 0.043052 0.000000 0.000000
# 5 0.000000 0.000000 0.000000 0.000000 0.041881 0.000000
# 6 0.000000 0.000000 0.000000 0.000000 0.000000 0.027474
#
#
# Mechanical properties :
#
#
# Convention : Reuss Voigt Hill
#
# Bulk Modulus (GPa) = 7.14612 45.96691 26.55652
# Shear Modulus (GPa) = 18.60893 40.59672 29.60282
#
# Velocity S-wave (km/s) = 2.70935 4.00174 3.41720
# Velocity P-wave (km/s) = 3.55053 6.28365 5.10346
#
# Compressibility (1/GPa) = 0.13993602
#
# Stress axis : x y z
#
# Youngs Moduli (GPa) = 165.89146 164.12082 8.87586
#
# Poissons Ratio (x) = 0.18905 -0.07942
# Poissons Ratio (y) = 0.19109 0.00196
# Poissons Ratio (z) = -1.48433 0.03624
#
# Static dielectric constant tensor:
#      x y z
#    x 2.130330 0.000000 0.000000 
#    y 0.000000 1.910060 0.000000 
#    z 0.000000 0.000000 2.253400 
# 
# From -- ./inp_files/2641.got.cif
#   From: 2010.05.17/outbox.cif.g08.bks.cpg/sg31_2_cif.got.tgz:2641.got - 2010.06.03 17:08:30.
