data_PCOD9342725
_publ_section_title
;
Structure prediction by ZEFSAII (Michael W. Deem and Ramdas Pophale) SiO2 
 PCOD9342725
Probable space group: P M N 21
;
_chemical_formula_sum "Si O2"
_cell_formula_units_Z 24
_cell_length_a 16.890955
_cell_length_b 7.562153
_cell_length_c 7.550648
_cell_angle_alpha 90.000000
_cell_angle_beta 90.000000
_cell_angle_gamma 90.000000
_cell_volume 964.459265
_symmetry_space_group_name_H-M "P M N 21"
_symmetry_group_IT_number 31
_symmetry_cell_setting 'orthorhombic'
loop_
_space_group_symop_operation_xyz
x,y,z
1/2-x,-y,1/2+z
-x,y,z
1/2+x,-y,1/2+z
loop_
_atom_site_type_symbol
_atom_site_label
_atom_site_fract_x
_atom_site_fract_y
_atom_site_fract_z
Si Si1 0.165586 0.732368 0.821290
Si Si2 0.831636 0.742671 0.225614
Si Si3 0.333591 0.672402 0.221721
Si Si4 0.169348 0.327077 0.301936
Si Si5 0.000000 0.322682 0.226963
Si Si6 0.500000 0.281236 0.772422
Si Si7 0.500000 0.781264 0.349992
Si Si8 0.500000 0.177450 0.367546
O O1 0.164519 0.518974 0.812768
O O2 0.251391 0.772554 0.737513
O O3 0.079168 0.786962 0.754956
O O4 0.165405 0.803358 0.022257
O O5 0.742966 0.778263 0.294413
O O6 0.834471 0.525770 0.223144
O O7 0.913642 0.796126 0.319843
O O8 0.418993 0.756772 0.245976
O O9 0.320614 0.648492 0.012353
O O10 0.084857 0.237275 0.267775
O O11 0.000000 0.511822 0.327628
O O12 0.000000 0.348181 0.016430
O O13 0.500000 0.280006 0.555311
O O14 0.500000 0.976123 0.426581
#
# Coordination Sequence:
#
# PCOD9342725 Si02
#       8
#     4   4   4   4   2   2   2   2
#     4   9  17  33  55  79 104 132 164 206 255 310
#     4   8  15  28  52  80 105 127 158 203 252 302
#     4  10  18  30  52  79 104 130 166 209 255 298
#     4   9  17  30  54  83 105 126 160 211 262 304
#     4  10  19  34  55  78 101 128 170 214 254 302
#     4   8  14  31  55  75  95 123 159 204 249 298
#     4  12  23  33  48  71  98 141 183 212 242 292
#     4  10  20  34  50  70 100 138 176 206 245 300
#
# _framework density 24.884411
#
# number of rings (size 3 to 8) (size 9 to 14) (size 15 to 20)
#    0.000    2.667    0.000    4.000    0.000    1.333 
#    0.000    5.000    0.000   12.000    0.000    0.000 
#    0.000    0.000    0.000    0.000    0.000    0.000 
#
# Total GULP energy -133809.315802 kJ/mol
# GULP energy per Si atom -5575.388158 kJ/mol
# Density = 2.482777 g / cm^3
# Si number density = 24.884411 Si / 1000 Ang^3
#
#
#
# Elastic Constant Matrix: (Units=GPa)
#
#
# Indices 1 2 3 4 5 6 
#
# 1 314.2415 10.7668 11.1945 0.0000 0.0000 0.0000
# 2 10.7668 54.7835 -9.8041 0.0000 0.0000 0.0000
# 3 11.1945 -9.8041 74.9584 0.0000 0.0000 0.0000
# 4 0.0000 0.0000 0.0000 0.9101 0.0000 0.0000
# 5 0.0000 0.0000 0.0000 0.0000 15.6335 0.0000
# 6 0.0000 0.0000 0.0000 0.0000 0.0000 -71.8244
#
#
#
# Elastic Compliance Matrix: (Units=1/GPa)
#
#
# Indices 1 2 3 4 5 6 
#
# 1 0.003228 -0.000738 -0.000579 0.000000 0.000000 0.000000
# 2 -0.000738 0.018860 0.002577 0.000000 0.000000 0.000000
# 3 -0.000579 0.002577 0.013764 0.000000 0.000000 0.000000
# 4 0.000000 0.000000 0.000000 1.098740 0.000000 0.000000
# 5 0.000000 0.000000 0.000000 0.000000 0.063965 0.000000
# 6 0.000000 0.000000 0.000000 0.000000 0.000000 -0.013923
#
#
# Mechanical properties :
#
#
# Convention : Reuss Voigt Hill
#
# Bulk Modulus (GPa) = 26.06006 52.03311 39.04658
# Shear Modulus (GPa) = 4.18443 17.73226 10.95834
#
# Velocity S-wave (km/s) = 1.29815 2.67232 2.10078
# Velocity P-wave (km/s) = 3.56961 5.52060 4.64861
#
# Compressibility (1/GPa) = 0.03837289
#
# Stress axis : x y z
#
# Youngs Moduli (GPa) = 309.77351 53.02263 72.65231
#
# Poissons Ratio (x) = 0.03913 0.04204
# Poissons Ratio (y) = 0.22861 -0.18722
# Poissons Ratio (z) = 0.17924 -0.13664
#
# Static dielectric constant tensor:
#      x y z
#    x 2.146370 0.000000 0.000000 
#    y 0.000000 1.925800 0.000000 
#    z 0.000000 0.000000 1.962030 
# 
# From -- ./inp_files/2827.got.cif
#   From: 2010.05.17/outbox.cif.g08.bks.cpg/sg31_2_cif.got.tgz:2827.got - 2010.06.03 17:08:30.
