data_PCOD9342209
_publ_section_title
;
Structure prediction by ZEFSAII (Michael W. Deem and Ramdas Pophale) SiO2 
 PCOD9342209
Probable space group: P N C 2
;
_chemical_formula_sum "Si O2"
_cell_formula_units_Z 16
_cell_length_a 7.959058
_cell_length_b 9.603520
_cell_length_c 8.032579
_cell_angle_alpha 90.000000
_cell_angle_beta 90.000000
_cell_angle_gamma 90.000000
_cell_volume 613.969956
_symmetry_space_group_name_H-M "P N C 2"
_symmetry_group_IT_number 30
_symmetry_cell_setting 'orthorhombic'
loop_
_space_group_symop_operation_xyz
x,y,z
-x,-y,z
-x,1/2+y,1/2+z
x,1/2-y,1/2+z
loop_
_atom_site_type_symbol
_atom_site_label
_atom_site_fract_x
_atom_site_fract_y
_atom_site_fract_z
Si Si1 0.775717 0.293861 0.323620
Si Si2 0.169254 0.301825 0.414569
Si Si3 0.684755 0.462941 0.632731
Si Si4 0.199277 0.468624 0.088629
O O1 0.668256 0.364820 0.468000
O O2 0.761100 0.133013 0.276451
O O3 0.736288 0.382412 0.154965
O O4 0.968371 0.309510 0.385405
O O5 0.211738 0.404423 0.567818
O O6 0.240608 0.373883 0.250875
O O7 0.233323 0.145212 0.445675
O O8 0.500000 0.500000 0.687793
O O9 0.000000 0.500000 0.075912
#
# Coordination Sequence:
#
# PCOD9342209 Si02
#       4
#     4   4   4   4
#     4  10  22  43  65  95 137 177 227 286 344 416
#     4  10  21  39  63  92 125 168 224 282 336 405
#     4  11  25  44  65  97 138 180 229 290 349 409
#     4   9  19  34  58  90 120 157 213 278 329 388
#
# _framework density 26.059908
#
# number of rings (size 3 to 8) (size 9 to 14) (size 15 to 20)
#    0.000    2.000    0.000    5.250    0.000    8.000 
#    0.000    1.250    0.000    0.000    0.000    0.000 
#    0.000    0.000    0.000    0.000    0.000    0.000 
#
# Total GULP energy -89447.199340 kJ/mol
# GULP energy per Si atom -5590.449959 kJ/mol
# Density = 2.600059 g / cm^3
# Si number density = 26.059908 Si / 1000 Ang^3
#
#
#
# Elastic Constant Matrix: (Units=GPa)
#
#
# Indices 1 2 3 4 5 6 
#
# 1 64.1047 38.6065 20.9651 0.0000 0.0000 0.0000
# 2 38.6065 213.4435 26.3327 0.0000 0.0000 0.0000
# 3 20.9651 26.3327 75.5833 0.0000 0.0000 0.0000
# 4 0.0000 0.0000 0.0000 64.4395 0.0000 0.0000
# 5 0.0000 0.0000 0.0000 0.0000 21.0238 0.0000
# 6 0.0000 0.0000 0.0000 0.0000 0.0000 17.7454
#
#
#
# Elastic Compliance Matrix: (Units=1/GPa)
#
#
# Indices 1 2 3 4 5 6 
#
# 1 0.018694 -0.002865 -0.004187 0.000000 0.000000 0.000000
# 2 -0.002865 0.005334 -0.001064 0.000000 0.000000 0.000000
# 3 -0.004187 -0.001064 0.014763 0.000000 0.000000 0.000000
# 4 0.000000 0.000000 0.000000 0.015518 0.000000 0.000000
# 5 0.000000 0.000000 0.000000 0.000000 0.047565 0.000000
# 6 0.000000 0.000000 0.000000 0.000000 0.000000 0.056353
#
#
# Mechanical properties :
#
#
# Convention : Reuss Voigt Hill
#
# Bulk Modulus (GPa) = 44.32742 58.32669 51.32705
# Shear Modulus (GPa) = 27.47570 38.45689 32.96629
#
# Velocity S-wave (km/s) = 3.25056 3.84567 3.56057
# Velocity P-wave (km/s) = 5.57987 6.49224 6.05327
#
# Compressibility (1/GPa) = 0.02255940
#
# Stress axis : x y z
#
# Youngs Moduli (GPa) = 53.49265 187.45952 67.73894
#
# Poissons Ratio (x) = 0.53702 0.28364
# Poissons Ratio (y) = 0.15324 0.07207
# Poissons Ratio (z) = 0.22399 0.19944
#
# Static dielectric constant tensor:
#      x y z
#    x 1.962710 0.000000 0.000000 
#    y 0.000000 2.071700 0.000000 
#    z 0.000000 0.000000 2.148550 
# 
# From -- ./inp_files/1567.got.cif
#   From: 2010.05.17/outbox.cif.g08.bks.cpg/sg30_1_cif.got.tgz:1567.got - 2010.06.03 17:03:02.
