data_PCOD9342169
_publ_section_title
;
Structure prediction by ZEFSAII (Michael W. Deem and Ramdas Pophale) SiO2 
 PCOD9342169
Probable space group: P N C 2
;
_chemical_formula_sum "Si O2"
_cell_formula_units_Z 30
_cell_length_a 16.469186
_cell_length_b 5.344137
_cell_length_c 14.751437
_cell_angle_alpha 90.000000
_cell_angle_beta 90.000000
_cell_angle_gamma 90.000000
_cell_volume 1298.326873
_symmetry_space_group_name_H-M "P N C 2"
_symmetry_group_IT_number 30
_symmetry_cell_setting 'orthorhombic'
loop_
_space_group_symop_operation_xyz
x,y,z
-x,-y,z
-x,1/2+y,1/2+z
x,1/2-y,1/2+z
loop_
_atom_site_type_symbol
_atom_site_label
_atom_site_fract_x
_atom_site_fract_y
_atom_site_fract_z
Si Si1 0.548714 0.252186 0.165020
Si Si2 0.725803 0.583188 0.473303
Si Si3 0.872639 0.866970 0.404060
Si Si4 0.355096 0.972145 0.804678
Si Si5 0.684974 0.880431 0.159219
Si Si6 0.000000 0.000000 0.956449
Si Si7 0.189713 0.814643 0.251313
Si Si8 0.141485 0.717353 0.058626
O O1 0.500000 0.500000 0.130272
O O2 0.569892 0.306867 0.270402
O O3 0.500000 0.000000 0.149176
O O4 0.637898 0.142923 0.136461
O O5 0.787219 0.722150 0.404653
O O6 0.648794 0.524605 0.410732
O O7 0.698649 0.741245 0.561214
O O8 0.778642 0.353517 0.515066
O O9 0.950488 0.694134 0.394095
O O10 0.865423 0.094513 0.333911
O O11 0.873896 0.960826 0.507168
O O12 0.269264 0.830094 0.786674
O O13 0.357613 0.206589 0.734363
O O14 0.771516 0.941088 0.203276
O O15 0.066834 0.881125 0.022517
O O16 0.147808 0.684278 0.166000
#
# Coordination Sequence:
#
# PCOD9342169 Si02
#       8
#     4   4   4   4   4   2   4   4
#     4  11  23  43  67  92 137 188 218 273 335 409
#     4  10  21  37  65  99 125 164 212 285 324 397
#     4  11  20  40  66  92 136 166 223 278 353 402
#     4  11  20  39  66  99 130 166 224 270 342 390
#     4  10  21  39  65  97 128 171 221 270 337 397
#     4  10  24  40  58  86 130 182 212 284 334 418
#     4  10  21  36  66  96 121 171 216 281 332 408
#     4  10  21  41  59  86 132 165 221 266 339 399
#
# _framework density 23.106662
#
# number of rings (size 3 to 8) (size 9 to 14) (size 15 to 20)
#    0.000    1.600    4.000    1.200    0.000    0.000 
#    2.400    1.333    0.000    0.000    0.000    0.000 
#    0.000    0.000    0.000    0.000    0.000    0.000 
#
# Total GULP energy -167177.068610 kJ/mol
# GULP energy per Si atom -5572.568954 kJ/mol
# Density = 2.305407 g / cm^3
# Si number density = 23.106662 Si / 1000 Ang^3
#
#
#
# Elastic Constant Matrix: (Units=GPa)
#
#
# Indices 1 2 3 4 5 6 
#
# 1 62.2080 14.3840 5.2299 0.0000 0.0000 0.0000
# 2 14.3840 76.2807 11.1664 0.0000 0.0000 0.0000
# 3 5.2299 11.1664 109.6450 0.0000 0.0000 0.0000
# 4 0.0000 0.0000 0.0000 20.3240 0.0000 0.0000
# 5 0.0000 0.0000 0.0000 0.0000 13.5965 0.0000
# 6 0.0000 0.0000 0.0000 0.0000 0.0000 42.2320
#
#
#
# Elastic Compliance Matrix: (Units=1/GPa)
#
#
# Indices 1 2 3 4 5 6 
#
# 1 0.016834 -0.003103 -0.000487 0.000000 0.000000 0.000000
# 2 -0.003103 0.013880 -0.001266 0.000000 0.000000 0.000000
# 3 -0.000487 -0.001266 0.009272 0.000000 0.000000 0.000000
# 4 0.000000 0.000000 0.000000 0.049203 0.000000 0.000000
# 5 0.000000 0.000000 0.000000 0.000000 0.073548 0.000000
# 6 0.000000 0.000000 0.000000 0.000000 0.000000 0.023679
#
#
# Mechanical properties :
#
#
# Convention : Reuss Voigt Hill
#
# Bulk Modulus (GPa) = 33.03057 34.41047 33.72052
# Shear Modulus (GPa) = 24.24619 29.72076 26.98348
#
# Velocity S-wave (km/s) = 3.24283 3.59031 3.42099
# Velocity P-wave (km/s) = 5.32420 5.66670 5.49812
#
# Compressibility (1/GPa) = 0.03027498
#
# Stress axis : x y z
#
# Youngs Moduli (GPa) = 59.40532 72.04695 107.84639
#
# Poissons Ratio (x) = 0.22356 0.05251
# Poissons Ratio (y) = 0.18433 0.13648
# Poissons Ratio (z) = 0.02893 0.09118
#
# Static dielectric constant tensor:
#      x y z
#    x 2.014900 0.000000 0.000000 
#    y 0.000000 2.021780 0.000000 
#    z 0.000000 0.000000 1.879280 
# 
# From -- ./inp_files/5645.got.cif
#   From: 2010.05.17/outbox.cif.g08.bks.cpg/sg30_3_cif.got.tgz:5645.got - 2010.06.03 17:03:02.
