data_PCOD9342390
_publ_section_title
;
Structure prediction by ZEFSAII (Michael W. Deem and Ramdas Pophale) SiO2 
 PCOD9342390
Probable space group: P N C 2
;
_chemical_formula_sum "Si O2"
_cell_formula_units_Z 24
_cell_length_a 7.675519
_cell_length_b 15.138814
_cell_length_c 7.791146
_cell_angle_alpha 90.000000
_cell_angle_beta 90.000000
_cell_angle_gamma 90.000000
_cell_volume 905.317566
_symmetry_space_group_name_H-M "P N C 2"
_symmetry_group_IT_number 30
_symmetry_cell_setting 'orthorhombic'
loop_
_space_group_symop_operation_xyz
x,y,z
-x,-y,z
-x,1/2+y,1/2+z
x,1/2-y,1/2+z
loop_
_atom_site_type_symbol
_atom_site_label
_atom_site_fract_x
_atom_site_fract_y
_atom_site_fract_z
Si Si1 0.653517 0.183417 0.111120
Si Si2 0.339388 0.447843 0.178151
Si Si3 0.772355 0.135346 0.726257
Si Si4 0.369460 0.076801 0.282335
Si Si5 0.979009 0.870289 0.226535
Si Si6 0.125436 0.306470 0.351978
O O1 0.674351 0.289864 0.115625
O O2 0.463295 0.158084 0.183814
O O3 0.812273 0.143684 0.232240
O O4 0.696739 0.148253 0.919968
O O5 0.500000 0.500000 0.260774
O O6 0.214921 0.533451 0.169240
O O7 0.285006 0.364281 0.288084
O O8 0.387341 0.418544 0.987341
O O9 0.970407 0.167186 0.724773
O O10 0.165438 0.052302 0.247864
O O11 0.500000 0.000000 0.222700
O O12 0.880873 0.798511 0.347923
O O13 0.933579 0.840652 0.034533
#
# Coordination Sequence:
#
# PCOD9342390 Si02
#       6
#     4   4   4   4   4   4
#     4  10  25  45  74 104 136 188 237 289 355 425
#     4  11  26  43  65 107 140 182 231 290 349 419
#     4  10  24  45  73 101 140 183 237 292 353 422
#     4  11  27  45  67 101 141 181 235 288 350 421
#     4  10  23  44  73 100 139 186 236 292 350 422
#     4  10  22  44  69 102 139 185 235 289 356 414
#
# _framework density 26.510033
#
# number of rings (size 3 to 8) (size 9 to 14) (size 15 to 20)
#    0.000    1.667    0.000    1.500   11.667    2.000 
#    6.000    0.000    0.000    0.000    0.000    0.000 
#    0.000    0.000    0.000    0.000    0.000    0.000 
#
# Total GULP energy -133995.147304 kJ/mol
# GULP energy per Si atom -5583.131138 kJ/mol
# Density = 2.644970 g / cm^3
# Si number density = 26.510033 Si / 1000 Ang^3
#
#
#
# Elastic Constant Matrix: (Units=GPa)
#
#
# Indices 1 2 3 4 5 6 
#
# 1 148.0409 -6.1941 12.9936 0.0000 0.0000 0.0000
# 2 -6.1941 58.7055 17.1812 0.0000 0.0000 0.0000
# 3 12.9936 17.1812 96.1830 0.0000 0.0000 0.0000
# 4 0.0000 0.0000 0.0000 23.3606 0.0000 0.0000
# 5 0.0000 0.0000 0.0000 0.0000 23.7616 0.0000
# 6 0.0000 0.0000 0.0000 0.0000 0.0000 40.4587
#
#
#
# Elastic Compliance Matrix: (Units=1/GPa)
#
#
# Indices 1 2 3 4 5 6 
#
# 1 0.006897 0.001056 -0.001120 0.000000 0.000000 0.000000
# 2 0.001056 0.018135 -0.003382 0.000000 0.000000 0.000000
# 3 -0.001120 -0.003382 0.011152 0.000000 0.000000 0.000000
# 4 0.000000 0.000000 0.000000 0.042807 0.000000 0.000000
# 5 0.000000 0.000000 0.000000 0.000000 0.042085 0.000000
# 6 0.000000 0.000000 0.000000 0.000000 0.000000 0.024717
#
#
# Mechanical properties :
#
#
# Convention : Reuss Voigt Hill
#
# Bulk Modulus (GPa) = 34.13966 38.98786 36.56376
# Shear Modulus (GPa) = 30.77850 36.11277 33.44564
#
# Velocity S-wave (km/s) = 3.41106 3.69484 3.55578
# Velocity P-wave (km/s) = 5.33102 5.73945 5.53900
#
# Compressibility (1/GPa) = 0.02929145
#
# Stress axis : x y z
#
# Youngs Moduli (GPa) = 144.98229 55.14078 89.66725
#
# Poissons Ratio (x) = -0.05821 0.10046
# Poissons Ratio (y) = -0.15305 0.30327
# Poissons Ratio (z) = 0.16243 0.18649
#
# Static dielectric constant tensor:
#      x y z
#    x 2.325170 0.000000 0.000000 
#    y 0.000000 2.443980 0.000000 
#    z 0.000000 0.000000 2.020530 
# 
# From -- ./inp_files/1842.got.cif
#   From: 2010.05.17/outbox.cif.g08.bks.cpg/sg30_1_cif.got.tgz:1842.got - 2010.06.03 17:03:02.
