data_PCOD9342545
_publ_section_title
;
Structure prediction by ZEFSAII (Michael W. Deem and Ramdas Pophale) SiO2 
 PCOD9342545
Probable space group: P N C 2
;
_chemical_formula_sum "Si O2"
_cell_formula_units_Z 26
_cell_length_a 11.252384
_cell_length_b 11.631070
_cell_length_c 8.678440
_cell_angle_alpha 90.000000
_cell_angle_beta 90.000000
_cell_angle_gamma 90.000000
_cell_volume 1135.810500
_symmetry_space_group_name_H-M "P N C 2"
_symmetry_group_IT_number 30
_symmetry_cell_setting 'orthorhombic'
loop_
_space_group_symop_operation_xyz
x,y,z
-x,-y,z
-x,1/2+y,1/2+z
x,1/2-y,1/2+z
loop_
_atom_site_type_symbol
_atom_site_label
_atom_site_fract_x
_atom_site_fract_y
_atom_site_fract_z
Si Si1 0.288206 0.574498 0.487250
Si Si2 0.334857 0.158176 0.572449
Si Si3 0.291623 0.112252 0.229656
Si Si4 0.858080 0.507841 0.216913
Si Si5 0.984706 0.630194 0.717038
Si Si6 0.500000 0.000000 0.782711
Si Si7 0.868053 0.294370 0.011866
O O1 0.301187 0.512967 0.652099
O O2 0.194091 0.498518 0.388055
O O3 0.408784 0.566640 0.392348
O O4 0.234895 0.701542 0.487682
O O5 0.352541 0.128278 0.394248
O O6 0.339788 0.293086 0.609501
O O7 0.426965 0.088048 0.677063
O O8 0.205324 0.111342 0.628172
O O9 0.152783 0.140902 0.258641
O O10 0.821473 0.393246 0.124247
O O11 0.000000 0.500000 0.217145
O O12 0.027105 0.721434 0.591914
O O13 0.000000 0.500000 0.661274
O O14 0.073606 0.650063 0.860818
#
# Coordination Sequence:
#
# PCOD9342545 Si02
#       7
#     4   4   4   4   4   2   4
#     4  11  26  46  73 103 145 198 252 309 374 439
#     4  11  25  46  73 106 141 195 248 311 372 449
#     4  12  24  45  75 109 145 192 250 300 386 456
#     4  11  23  42  66 102 152 191 237 299 374 444
#     4  12  24  41  69 112 158 194 241 295 381 475
#     4  10  26  54  70 106 144 190 268 306 368 436
#     4  12  24  42  65 107 148 195 233 300 367 441
#
# _framework density 22.891143
#
# number of rings (size 3 to 8) (size 9 to 14) (size 15 to 20)
#    0.000    0.615    3.077    6.000    2.154    0.615 
#   11.077    0.000    0.000    0.000    0.000    0.000 
#    0.000    0.000    0.000    0.000    0.000    0.000 
#
# Total GULP energy -145658.302766 kJ/mol
# GULP energy per Si atom -5602.242414 kJ/mol
# Density = 2.283904 g / cm^3
# Si number density = 22.891143 Si / 1000 Ang^3
#
#
#
# Elastic Constant Matrix: (Units=GPa)
#
#
# Indices 1 2 3 4 5 6 
#
# 1 101.8152 14.6389 35.0516 0.0000 0.0000 0.0000
# 2 14.6389 71.5158 9.8913 0.0000 0.0000 0.0000
# 3 35.0516 9.8913 106.1364 0.0000 0.0000 0.0000
# 4 0.0000 0.0000 0.0000 25.4305 0.0000 0.0000
# 5 0.0000 0.0000 0.0000 0.0000 26.3397 0.0000
# 6 0.0000 0.0000 0.0000 0.0000 0.0000 19.8872
#
#
#
# Elastic Compliance Matrix: (Units=1/GPa)
#
#
# Indices 1 2 3 4 5 6 
#
# 1 0.011311 -0.001822 -0.003566 0.000000 0.000000 0.000000
# 2 -0.001822 0.014459 -0.000746 0.000000 0.000000 0.000000
# 3 -0.003566 -0.000746 0.010669 0.000000 0.000000 0.000000
# 4 0.000000 0.000000 0.000000 0.039323 0.000000 0.000000
# 5 0.000000 0.000000 0.000000 0.000000 0.037966 0.000000
# 6 0.000000 0.000000 0.000000 0.000000 0.000000 0.050284
#
#
# Mechanical properties :
#
#
# Convention : Reuss Voigt Hill
#
# Bulk Modulus (GPa) = 41.37027 44.29236 42.83131
# Shear Modulus (GPa) = 27.12440 28.99051 28.05746
#
# Velocity S-wave (km/s) = 3.44602 3.56258 3.50478
# Velocity P-wave (km/s) = 5.82625 6.02609 5.92701
#
# Compressibility (1/GPa) = 0.02417195
#
# Stress axis : x y z
#
# Youngs Moduli (GPa) = 88.40737 69.16083 93.73017
#
# Poissons Ratio (x) = 0.12602 0.33422
# Poissons Ratio (y) = 0.16109 0.06990
# Poissons Ratio (z) = 0.31524 0.05157
#
# Static dielectric constant tensor:
#      x y z
#    x 1.859000 0.000000 0.000000 
#    y 0.000000 1.825910 0.000000 
#    z 0.000000 0.000000 1.862470 
# 
# From -- ./inp_files/2381.got.cif
#   From: 2010.05.17/outbox.cif.g08.bks.cpg/sg30_2_cif.got.tgz:2381.got - 2010.06.03 17:03:02.
