data_PCOD9342973
_publ_section_title
;
Structure prediction by ZEFSAII (Michael W. Deem and Ramdas Pophale) SiO2 
 PCOD9342973
Probable space group: P M N 21
;
_chemical_formula_sum "Si O2"
_cell_formula_units_Z 32
_cell_length_a 8.466287
_cell_length_b 9.380808
_cell_length_c 21.547728
_cell_angle_alpha 90.000000
_cell_angle_beta 90.000000
_cell_angle_gamma 90.000000
_cell_volume 1711.333763
_symmetry_space_group_name_H-M "P M N 21"
_symmetry_group_IT_number 31
_symmetry_cell_setting 'orthorhombic'
loop_
_space_group_symop_operation_xyz
x,y,z
1/2-x,-y,1/2+z
-x,y,z
1/2+x,-y,1/2+z
loop_
_atom_site_type_symbol
_atom_site_label
_atom_site_fract_x
_atom_site_fract_y
_atom_site_fract_z
Si Si1 0.692442 0.669794 0.732180
Si Si2 0.192353 0.661619 0.226906
Si Si3 0.185043 0.662007 0.000790
Si Si4 0.689560 0.340877 0.996531
Si Si5 0.187591 0.161066 0.110703
Si Si6 0.818009 0.676901 0.362331
Si Si7 0.182684 0.330380 0.368288
Si Si8 0.814654 0.154702 0.612190
O O1 0.500000 0.671537 0.735041
O O2 0.737702 0.505067 0.720630
O O3 0.743055 0.767410 0.675218
O O4 0.745052 0.717532 0.801012
O O5 0.249503 0.714697 0.294933
O O6 0.258089 0.752846 0.170800
O O7 0.000000 0.666951 0.226464
O O8 0.237475 0.497133 0.007109
O O9 0.277624 0.756567 0.050164
O O10 0.000000 0.673753 0.013545
O O11 0.222958 0.706993 0.930037
O O12 0.500000 0.357926 0.991695
O O13 0.731900 0.238283 0.052656
O O14 0.749841 0.282944 0.929469
O O15 0.000000 0.185222 0.106051
O O16 0.224228 0.994638 0.110803
O O17 0.819038 0.503561 0.363688
O O18 0.000000 0.726419 0.361576
O O19 0.000000 0.285240 0.376045
O O20 0.000000 0.126769 0.616644
#
# Coordination Sequence:
#
# PCOD9342973 Si02
#       8
#     4   4   4   4   4   4   4   4
#     4   8  16  32  58  84 107 136 173 213 264 325
#     4   9  16  33  59  84 106 135 174 217 261 318
#     4  11  21  35  56  83 109 139 178 224 270 317
#     4  10  19  35  58  85 112 142 177 217 263 319
#     4  11  22  37  55  79 109 145 184 224 266 317
#     4   7  13  27  52  81 109 137 169 208 258 316
#     4   8  14  30  54  81 108 136 170 214 263 319
#     4  12  25  39  52  73 106 146 185 227 273 319
#
# _framework density 18.698864
#
# number of rings (size 3 to 8) (size 9 to 14) (size 15 to 20)
#    0.000    2.500    0.000    6.000    0.000    1.000 
#    0.000    9.375    0.000    3.000    0.000    0.000 
#    0.000    0.000    0.000    0.000    0.000    0.000 
#
# Total GULP energy -178439.147080 kJ/mol
# GULP energy per Si atom -5576.223346 kJ/mol
# Density = 1.865630 g / cm^3
# Si number density = 18.698864 Si / 1000 Ang^3
#
#
#
# Elastic Constant Matrix: (Units=GPa)
#
#
# Indices 1 2 3 4 5 6 
#
# 1 22.4209 -14.6822 -9.4482 0.0000 0.0000 0.0000
# 2 -14.6822 41.9126 38.6657 0.0000 0.0000 0.0000
# 3 -9.4482 38.6657 146.6532 0.0000 0.0000 0.0000
# 4 0.0000 0.0000 0.0000 -8.5873 0.0000 0.0000
# 5 0.0000 0.0000 0.0000 0.0000 29.1177 0.0000
# 6 0.0000 0.0000 0.0000 0.0000 0.0000 25.3637
#
#
#
# Elastic Compliance Matrix: (Units=1/GPa)
#
#
# Indices 1 2 3 4 5 6 
#
# 1 0.058389 0.022442 -0.002155 0.000000 0.000000 0.000000
# 2 0.022442 0.040154 -0.009141 0.000000 0.000000 0.000000
# 3 -0.002155 -0.009141 0.009090 0.000000 0.000000 0.000000
# 4 0.000000 0.000000 0.000000 -0.116451 0.000000 0.000000
# 5 0.000000 0.000000 0.000000 0.000000 0.034343 0.000000
# 6 0.000000 0.000000 0.000000 0.000000 0.000000 0.039426
#
#
# Mechanical properties :
#
#
# Convention : Reuss Voigt Hill
#
# Bulk Modulus (GPa) = 7.69672 26.67302 17.18487
# Shear Modulus (GPa) = 58.16166 22.27557 40.21862
#
# Velocity S-wave (km/s) = 5.58318 3.45524 4.64277
# Velocity P-wave (km/s) = 6.75926 5.49670 6.16041
#
# Compressibility (1/GPa) = 0.12992554
#
# Stress axis : x y z
#
# Youngs Moduli (GPa) = 17.12642 24.90443 110.01159
#
# Poissons Ratio (x) = -0.55892 0.23711
# Poissons Ratio (y) = -0.38436 1.00559
# Poissons Ratio (z) = 0.03691 0.22765
#
# Static dielectric constant tensor:
#      x y z
#    x 1.641650 0.000000 0.000000 
#    y 0.000000 1.603090 0.000000 
#    z 0.000000 0.000000 1.684490 
# 
# From -- ./inp_files/6236.got.cif
#   From: 2010.05.17/outbox.cif.g08.bks.cpg/sg31_4_cif.got.tgz:6236.got - 2010.06.03 17:08:30.
