data_PCOD9342760
_publ_section_title
;
Structure prediction by ZEFSAII (Michael W. Deem and Ramdas Pophale) SiO2 
 PCOD9342760
Probable space group: P M N 21
;
_chemical_formula_sum "Si O2"
_cell_formula_units_Z 32
_cell_length_a 7.773559
_cell_length_b 14.826815
_cell_length_c 12.989656
_cell_angle_alpha 90.000000
_cell_angle_beta 90.000000
_cell_angle_gamma 90.000000
_cell_volume 1497.150356
_symmetry_space_group_name_H-M "P M N 21"
_symmetry_group_IT_number 31
_symmetry_cell_setting 'orthorhombic'
loop_
_space_group_symop_operation_xyz
x,y,z
1/2-x,-y,1/2+z
-x,y,z
1/2+x,-y,1/2+z
loop_
_atom_site_type_symbol
_atom_site_label
_atom_site_fract_x
_atom_site_fract_y
_atom_site_fract_z
Si Si1 0.296882 0.254595 0.731600
Si Si2 0.194184 0.845359 0.038339
Si Si3 0.702519 0.662264 0.943994
Si Si4 0.710509 0.835034 0.650584
Si Si5 0.697486 0.854388 0.421185
Si Si6 0.790972 0.364215 0.209185
Si Si7 0.208265 0.558005 0.136378
Si Si8 0.699566 0.956783 0.843403
O O1 0.500000 0.256173 0.709078
O O2 0.227449 0.179308 0.650224
O O3 0.275019 0.222018 0.847690
O O4 0.231485 0.355123 0.704089
O O5 0.193037 0.746771 0.986427
O O6 0.286393 0.905648 0.953011
O O7 0.000000 0.882255 0.050556
O O8 0.500000 0.687157 0.945195
O O9 0.752107 0.639719 0.829103
O O10 0.735300 0.581103 0.021298
O O11 0.500000 0.837318 0.655840
O O12 0.767578 0.866757 0.537182
O O13 0.765884 0.730817 0.661666
O O14 0.766804 0.895146 0.748835
O O15 0.500000 0.828703 0.434546
O O16 0.710831 0.948046 0.360378
O O17 0.727490 0.459290 0.166314
O O18 0.000000 0.364807 0.200362
O O19 0.000000 0.556475 0.142867
O O20 0.500000 0.976041 0.821750
#
# Coordination Sequence:
#
# PCOD9342760 Si02
#       8
#     4   4   4   4   4   4   4   4
#     4   9  20  38  56  80 117 156 190 234 295 346
#     4  10  20  36  59  84 112 147 190 243 294 344
#     4  10  18  32  55  82 111 147 194 242 287 345
#     4   9  20  39  60  84 116 153 191 237 296 352
#     4  11  24  39  58  86 118 155 198 242 288 350
#     4   9  17  34  59  83 111 153 194 231 289 353
#     4   9  19  35  57  83 115 155 196 239 293 351
#     4  11  22  39  62  86 114 152 193 238 296 355
#
# _framework density 21.373937000000002
#
# number of rings (size 3 to 8) (size 9 to 14) (size 15 to 20)
#    0.000    2.250    1.250    2.250    1.750    3.500 
#    0.000    3.125    0.000    0.000    0.000    0.000 
#    0.000    0.000    0.000    0.000    0.000    0.000 
#
# Total GULP energy -178514.029226 kJ/mol
# GULP energy per Si atom -5578.563413 kJ/mol
# Density = 2.132529 g / cm^3
# Si number density = 21.373937 Si / 1000 Ang^3
#
#
#
# Elastic Constant Matrix: (Units=GPa)
#
#
# Indices 1 2 3 4 5 6 
#
# 1 29.6287 -2.1901 3.7918 0.0000 0.0000 0.0000
# 2 -2.1901 98.0086 62.9466 0.0000 0.0000 0.0000
# 3 3.7918 62.9466 106.6948 0.0000 0.0000 0.0000
# 4 0.0000 0.0000 0.0000 24.6512 0.0000 0.0000
# 5 0.0000 0.0000 0.0000 0.0000 50.1941 0.0000
# 6 0.0000 0.0000 0.0000 0.0000 0.0000 17.6341
#
#
#
# Elastic Compliance Matrix: (Units=1/GPa)
#
#
# Indices 1 2 3 4 5 6 
#
# 1 0.034279 0.002493 -0.002689 0.000000 0.000000 0.000000
# 2 0.002493 0.016609 -0.009888 0.000000 0.000000 0.000000
# 3 -0.002689 -0.009888 0.015301 0.000000 0.000000 0.000000
# 4 0.000000 0.000000 0.000000 0.040566 0.000000 0.000000
# 5 0.000000 0.000000 0.000000 0.000000 0.019923 0.000000
# 6 0.000000 0.000000 0.000000 0.000000 0.000000 0.056708
#
#
# Mechanical properties :
#
#
# Convention : Reuss Voigt Hill
#
# Bulk Modulus (GPa) = 21.72823 40.38097 31.05460
# Shear Modulus (GPa) = 22.84199 29.81480 26.32839
#
# Velocity S-wave (km/s) = 3.27262 3.73891 3.51351
# Velocity P-wave (km/s) = 4.94650 6.12967 5.56959
#
# Compressibility (1/GPa) = 0.04602307
#
# Stress axis : x y z
#
# Youngs Moduli (GPa) = 29.17196 60.20756 65.35344
#
# Poissons Ratio (x) = -0.15010 0.17574
# Poissons Ratio (y) = -0.07273 0.64618
# Poissons Ratio (z) = 0.07845 0.59530
#
# Static dielectric constant tensor:
#      x y z
#    x 1.781150 0.000000 0.000000 
#    y 0.000000 1.771940 0.000000 
#    z 0.000000 0.000000 1.797490 
# 
# From -- ./inp_files/3654.got.cif
#   From: 2010.05.17/outbox.cif.g08.bks.cpg/sg31_2_cif.got.tgz:3654.got - 2010.06.03 17:08:30.
