data_PCOD9342197
_publ_section_title
;
Structure prediction by ZEFSAII (Michael W. Deem and Ramdas Pophale) SiO2 
 PCOD9342197
Probable space group: P N C 2
;
_chemical_formula_sum "Si O2"
_cell_formula_units_Z 32
_cell_length_a 10.636976
_cell_length_b 11.244527
_cell_length_c 12.876981
_cell_angle_alpha 90.000000
_cell_angle_beta 90.000000
_cell_angle_gamma 90.000000
_cell_volume 1540.186902
_symmetry_space_group_name_H-M "P N C 2"
_symmetry_group_IT_number 30
_symmetry_cell_setting 'orthorhombic'
loop_
_space_group_symop_operation_xyz
x,y,z
-x,-y,z
-x,1/2+y,1/2+z
x,1/2-y,1/2+z
loop_
_atom_site_type_symbol
_atom_site_label
_atom_site_fract_x
_atom_site_fract_y
_atom_site_fract_z
Si Si1 0.355830 0.964394 0.476260
Si Si2 0.896922 0.910259 0.921565
Si Si3 0.804656 0.238707 0.588736
Si Si4 0.356165 0.807155 0.266456
Si Si5 0.711723 0.119077 0.919165
Si Si6 0.954198 0.628972 0.184856
Si Si7 0.244567 0.289999 0.034181
Si Si8 0.510896 0.860741 0.087115
O O1 0.285790 0.874853 0.558296
O O2 0.357210 0.896745 0.364005
O O3 0.500000 0.000000 0.504380
O O4 0.283428 0.090091 0.473697
O O5 0.947911 0.876579 0.808326
O O6 0.768405 0.988688 0.911003
O O7 0.859862 0.790946 0.979536
O O8 0.000000 0.000000 0.970264
O O9 0.739779 0.328859 0.671259
O O10 0.816521 0.302943 0.478406
O O11 0.935323 0.209288 0.640642
O O12 0.317665 0.678937 0.310394
O O13 0.481880 0.801849 0.199030
O O14 0.589331 0.143544 0.991384
O O15 0.819768 0.665461 0.140121
O O16 0.000000 0.500000 0.147035
O O17 0.363851 0.204193 0.049987
O O18 0.500000 0.000000 0.112557
#
# Coordination Sequence:
#
# PCOD9342197 Si02
#       8
#     4   4   4   4   4   4   4   4
#     4  11  23  42  69 103 140 179 230 286 355 412
#     4  11  24  43  69  96 135 184 234 281 343 414
#     4  10  21  42  66  96 134 182 224 284 342 409
#     4  10  21  38  70  93 132 178 227 276 348 411
#     4  10  21  41  65  94 131 176 227 279 340 414
#     4  11  23  42  65  96 136 175 232 284 336 410
#     4  12  25  44  69 102 138 183 229 294 344 412
#     4  11  23  42  63  95 138 177 221 287 348 405
#
# _framework density 20.776699000000001
#
# number of rings (size 3 to 8) (size 9 to 14) (size 15 to 20)
#    0.000    1.250    2.500    4.875    0.000    4.000 
#    0.000    0.625    0.000    0.000    0.000    0.000 
#    0.000    0.000    0.000    0.000    0.000    0.000 
#
# Total GULP energy -178308.177248 kJ/mol
# GULP energy per Si atom -5572.130539 kJ/mol
# Density = 2.072941 g / cm^3
# Si number density = 20.776699 Si / 1000 Ang^3
#
#
#
# Elastic Constant Matrix: (Units=GPa)
#
#
# Indices 1 2 3 4 5 6 
#
# 1 89.0095 26.4301 25.4403 0.0000 0.0000 0.0000
# 2 26.4301 87.4824 20.1585 0.0000 0.0000 0.0000
# 3 25.4403 20.1585 81.0240 0.0000 0.0000 0.0000
# 4 0.0000 0.0000 0.0000 18.8819 0.0000 0.0000
# 5 0.0000 0.0000 0.0000 0.0000 26.5022 0.0000
# 6 0.0000 0.0000 0.0000 0.0000 0.0000 32.0306
#
#
#
# Elastic Compliance Matrix: (Units=1/GPa)
#
#
# Indices 1 2 3 4 5 6 
#
# 1 0.013137 -0.003202 -0.003328 0.000000 0.000000 0.000000
# 2 -0.003202 0.012907 -0.002206 0.000000 0.000000 0.000000
# 3 -0.003328 -0.002206 0.013936 0.000000 0.000000 0.000000
# 4 0.000000 0.000000 0.000000 0.052961 0.000000 0.000000
# 5 0.000000 0.000000 0.000000 0.000000 0.037733 0.000000
# 6 0.000000 0.000000 0.000000 0.000000 0.000000 0.031220
#
#
# Mechanical properties :
#
#
# Convention : Reuss Voigt Hill
#
# Bulk Modulus (GPa) = 44.42974 44.61929 44.52451
# Shear Modulus (GPa) = 26.75702 27.84874 27.30288
#
# Velocity S-wave (km/s) = 3.59254 3.66510 3.62900
# Velocity P-wave (km/s) = 6.21605 6.27956 6.24788
#
# Compressibility (1/GPa) = 0.02250745
#
# Stress axis : x y z
#
# Youngs Moduli (GPa) = 76.12234 77.48026 71.75782
#
# Poissons Ratio (x) = 0.24809 0.23882
# Poissons Ratio (y) = 0.24374 0.15828
# Poissons Ratio (z) = 0.25334 0.17090
#
# Static dielectric constant tensor:
#      x y z
#    x 1.861580 0.000000 0.000000 
#    y 0.000000 1.891610 0.000000 
#    z 0.000000 0.000000 1.725430 
# 
# From -- ./inp_files/4137.got.cif
#   From: 2010.05.17/outbox.cif.g08.bks.cpg/sg30_3_cif.got.tgz:4137.got - 2010.06.03 17:03:02.
