data_PCOD9342746
_publ_section_title
;
Structure prediction by ZEFSAII (Michael W. Deem and Ramdas Pophale) SiO2 
 PCOD9342746
Probable space group: P M N 21
;
_chemical_formula_sum "Si O2"
_cell_formula_units_Z 32
_cell_length_a 7.629101
_cell_length_b 11.108730
_cell_length_c 14.445379
_cell_angle_alpha 90.000000
_cell_angle_beta 90.000000
_cell_angle_gamma 90.000000
_cell_volume 1224.240427
_symmetry_space_group_name_H-M "P M N 21"
_symmetry_group_IT_number 31
_symmetry_cell_setting 'orthorhombic'
loop_
_space_group_symop_operation_xyz
x,y,z
1/2-x,-y,1/2+z
-x,y,z
1/2+x,-y,1/2+z
loop_
_atom_site_type_symbol
_atom_site_label
_atom_site_fract_x
_atom_site_fract_y
_atom_site_fract_z
Si Si1 0.212034 0.071355 0.368130
Si Si2 0.285020 0.459284 0.210530
Si Si3 0.796867 0.286938 0.944553
Si Si4 0.710139 0.452258 0.422977
Si Si5 0.207670 0.798644 0.697652
Si Si6 0.707610 0.689353 0.096446
Si Si7 0.206485 0.831537 0.264884
Si Si8 0.799738 0.955016 0.545094
O O1 0.274099 0.956835 0.306906
O O2 0.278550 0.048877 0.471913
O O3 0.000000 0.071038 0.372383
O O4 0.267979 0.182925 0.306651
O O5 0.500000 0.461394 0.209516
O O6 0.226992 0.452699 0.317352
O O7 0.226402 0.331637 0.168337
O O8 0.221128 0.574435 0.154432
O O9 0.788909 0.268759 0.832708
O O10 0.000000 0.276902 0.971795
O O11 0.725485 0.419967 0.965322
O O12 0.698689 0.172583 0.988135
O O13 0.500000 0.461123 0.419032
O O14 0.751570 0.341066 0.490167
O O15 0.287463 0.908881 0.639285
O O16 0.000000 0.801359 0.680030
O O17 0.500000 0.689986 0.102574
O O18 0.764114 0.804200 0.157026
O O19 0.000000 0.828402 0.280957
O O20 0.000000 0.994585 0.562825
#
# Coordination Sequence:
#
# PCOD9342746 Si02
#       8
#     4   4   4   4   4   4   4   4
#     4   9  20  38  57  79 112 145 179 235 292 335
#     4   9  19  37  57  80 116 151 181 229 285 334
#     4  10  18  31  55  83 112 146 187 232 271 328
#     4  10  20  35  52  78 118 154 181 223 285 340
#     4  10  20  37  61  83 108 150 195 233 278 340
#     4  11  21  36  58  85 113 147 192 234 276 340
#     4  10  20  36  57  79 109 146 183 231 290 335
#     4   9  19  36  57  83 112 145 188 239 291 334
#
# _framework density 26.138656000000001
#
# number of rings (size 3 to 8) (size 9 to 14) (size 15 to 20)
#    0.000    2.250    1.250    2.625    0.000    5.000 
#    2.250    1.875    0.000    0.000    0.000    0.000 
#    0.000    0.000    0.000    0.000    0.000    0.000 
#
# Total GULP energy -178926.507215 kJ/mol
# GULP energy per Si atom -5591.453350 kJ/mol
# Density = 2.607916 g / cm^3
# Si number density = 26.138656 Si / 1000 Ang^3
#
#
#
# Elastic Constant Matrix: (Units=GPa)
#
#
# Indices 1 2 3 4 5 6 
#
# 1 73.4914 -4.4989 -5.1153 0.0000 0.0000 0.0000
# 2 -4.4989 72.4406 12.7316 0.0000 0.0000 0.0000
# 3 -5.1153 12.7316 142.1797 0.0000 0.0000 0.0000
# 4 0.0000 0.0000 0.0000 49.1551 0.0000 0.0000
# 5 0.0000 0.0000 0.0000 0.0000 22.3863 0.0000
# 6 0.0000 0.0000 0.0000 0.0000 0.0000 -3.5574
#
#
#
# Elastic Compliance Matrix: (Units=1/GPa)
#
#
# Indices 1 2 3 4 5 6 
#
# 1 0.013684 0.000776 0.000423 0.000000 0.000000 0.000000
# 2 0.000776 0.014069 -0.001232 0.000000 0.000000 0.000000
# 3 0.000423 -0.001232 0.007159 0.000000 0.000000 0.000000
# 4 0.000000 0.000000 0.000000 0.020344 0.000000 0.000000
# 5 0.000000 0.000000 0.000000 0.000000 0.044670 0.000000
# 6 0.000000 0.000000 0.000000 0.000000 0.000000 -0.281101
#
#
# Mechanical properties :
#
#
# Convention : Reuss Voigt Hill
#
# Bulk Modulus (GPa) = 28.69866 32.70517 30.70191
# Shear Modulus (GPa) = -29.49967 32.59640 1.54836
#
# Velocity S-wave (km/s) = -3.36309 3.53520 0.77049
# Velocity P-wave (km/s) = 2.01921 5.40397 3.54441
#
# Compressibility (1/GPa) = 0.03484483
#
# Stress axis : x y z
#
# Youngs Moduli (GPa) = 73.07837 71.07776 139.68662
#
# Poissons Ratio (x) = -0.05512 -0.05907
# Poissons Ratio (y) = -0.05667 0.17208
# Poissons Ratio (z) = -0.03090 0.08756
#
# Static dielectric constant tensor:
#      x y z
#    x 2.067220 0.000000 0.000000 
#    y 0.000000 2.092110 0.000000 
#    z 0.000000 0.000000 2.128550 
# 
# From -- ./inp_files/5084.got.cif
#   From: 2010.05.17/outbox.cif.g08.bks.cpg/sg31_3_cif.got.tgz:5084.got - 2010.06.03 17:08:30.
