data_PCOD9342502
_publ_section_title
;
Structure prediction by ZEFSAII (Michael W. Deem and Ramdas Pophale) SiO2 
 PCOD9342502
Probable space group: P N C 2
;
_chemical_formula_sum "Si O2"
_cell_formula_units_Z 18
_cell_length_a 9.409460
_cell_length_b 5.019315
_cell_length_c 16.500558
_cell_angle_alpha 90.000000
_cell_angle_beta 90.000000
_cell_angle_gamma 90.000000
_cell_volume 779.305575
_symmetry_space_group_name_H-M "P N C 2"
_symmetry_group_IT_number 30
_symmetry_cell_setting 'orthorhombic'
loop_
_space_group_symop_operation_xyz
x,y,z
-x,-y,z
-x,1/2+y,1/2+z
x,1/2-y,1/2+z
loop_
_atom_site_type_symbol
_atom_site_label
_atom_site_fract_x
_atom_site_fract_y
_atom_site_fract_z
Si Si1 0.000000 0.000000 0.151461
Si Si2 0.138813 0.111350 0.785338
Si Si3 0.284199 0.078170 0.070281
Si Si4 0.349644 0.901836 0.671196
Si Si5 0.602625 0.740265 0.394539
O O1 0.934526 0.783268 0.213722
O O2 0.870511 0.047676 0.089288
O O3 0.259629 0.268346 0.835729
O O4 0.232466 0.880642 0.741524
O O5 0.000000 0.000000 0.832243
O O6 0.296167 0.362317 0.113402
O O7 0.373989 0.856860 0.117779
O O8 0.331427 0.136531 0.979501
O O9 0.500000 0.000000 0.703280
O O10 0.500000 0.500000 0.369275
O O11 0.500000 0.000000 0.401209
#
# Coordination Sequence:
#
# PCOD9342502 Si02
#       5
#     2   4   4   4   4
#     4  10  24  44  72 106 138 192 246 314 366 444
#     4  11  25  45  70 105 149 192 252 305 388 446
#     4  11  23  43  70 101 143 181 250 292 378 432
#     4  11  22  41  71 100 136 187 241 305 352 441
#     4  12  28  47  72 109 152 199 247 310 385 462
#
# _framework density 23.097487999999998
#
# number of rings (size 3 to 8) (size 9 to 14) (size 15 to 20)
#    0.000    0.889    2.222    4.667    4.667    3.556 
#    0.000    0.000    0.000    0.000    0.000    0.000 
#    0.000    0.000    0.000    0.000    0.000    0.000 
#
# Total GULP energy -100404.627415 kJ/mol
# GULP energy per Si atom -5578.034856 kJ/mol
# Density = 2.304492 g / cm^3
# Si number density = 23.097488 Si / 1000 Ang^3
#
#
#
# Elastic Constant Matrix: (Units=GPa)
#
#
# Indices 1 2 3 4 5 6 
#
# 1 221.5177 56.0229 82.2630 0.0000 0.0000 0.0000
# 2 56.0229 131.5644 43.0531 0.0000 0.0000 0.0000
# 3 82.2630 43.0531 122.5779 0.0000 0.0000 0.0000
# 4 0.0000 0.0000 0.0000 12.3036 0.0000 0.0000
# 5 0.0000 0.0000 0.0000 0.0000 42.6159 0.0000
# 6 0.0000 0.0000 0.0000 0.0000 0.0000 38.3285
#
#
#
# Elastic Compliance Matrix: (Units=1/GPa)
#
#
# Indices 1 2 3 4 5 6 
#
# 1 0.006250 -0.001456 -0.003683 0.000000 0.000000 0.000000
# 2 -0.001456 0.008927 -0.002158 0.000000 0.000000 0.000000
# 3 -0.003683 -0.002158 0.011388 0.000000 0.000000 0.000000
# 4 0.000000 0.000000 0.000000 0.081277 0.000000 0.000000
# 5 0.000000 0.000000 0.000000 0.000000 0.023465 0.000000
# 6 0.000000 0.000000 0.000000 0.000000 0.000000 0.026090
#
#
# Mechanical properties :
#
#
# Convention : Reuss Voigt Hill
#
# Bulk Modulus (GPa) = 83.54083 93.14868 88.34475
# Shear Modulus (GPa) = 28.41173 38.27098 33.34136
#
# Velocity S-wave (km/s) = 3.51105 4.07496 3.80347
# Velocity P-wave (km/s) = 7.25837 7.90926 7.59080
#
# Compressibility (1/GPa) = 0.01197020
#
# Stress axis : x y z
#
# Youngs Moduli (GPa) = 159.98955 112.01721 87.81220
#
# Poissons Ratio (x) = 0.16313 0.32343
# Poissons Ratio (y) = 0.23299 0.18952
# Poissons Ratio (z) = 0.58928 0.24176
#
# Static dielectric constant tensor:
#      x y z
#    x 2.021520 0.000000 0.000000 
#    y 0.000000 1.879110 0.000000 
#    z 0.000000 0.000000 1.930780 
# 
# From -- ./inp_files/6140.got.cif
#   From: 2010.05.17/outbox.cif.g08.bks.cpg/sg30_4_cif.got.tgz:6140.got - 2010.06.03 17:03:02.
