data_PCOD9342929
_publ_section_title
;
Structure prediction by ZEFSAII (Michael W. Deem and Ramdas Pophale) SiO2 
 PCOD9342929
Probable space group: P M N 21
;
_chemical_formula_sum "Si O2"
_cell_formula_units_Z 32
_cell_length_a 7.617868
_cell_length_b 11.712888
_cell_length_c 16.524360
_cell_angle_alpha 90.000000
_cell_angle_beta 90.000000
_cell_angle_gamma 90.000000
_cell_volume 1474.422948
_symmetry_space_group_name_H-M "P M N 21"
_symmetry_group_IT_number 31
_symmetry_cell_setting 'orthorhombic'
loop_
_space_group_symop_operation_xyz
x,y,z
1/2-x,-y,1/2+z
-x,y,z
1/2+x,-y,1/2+z
loop_
_atom_site_type_symbol
_atom_site_label
_atom_site_fract_x
_atom_site_fract_y
_atom_site_fract_z
Si Si1 0.199825 0.772632 0.910730
Si Si2 0.204098 0.555215 0.270473
Si Si3 0.287173 0.814772 0.232526
Si Si4 0.298670 0.042918 0.296213
Si Si5 0.791500 0.147053 0.127860
Si Si6 0.790445 0.080732 0.559232
Si Si7 0.293612 0.473957 0.446836
Si Si8 0.784979 0.410104 0.113697
O O1 0.289208 0.856617 0.846768
O O2 0.197590 0.847629 0.990695
O O3 0.283895 0.651428 0.930349
O O4 0.000000 0.748365 0.881189
O O5 0.222792 0.687979 0.247859
O O6 0.280580 0.537189 0.360419
O O7 0.273659 0.478147 0.195026
O O8 0.000000 0.525326 0.277839
O O9 0.500000 0.813047 0.236240
O O10 0.224250 0.915070 0.293101
O O11 0.237749 0.861096 0.144066
O O12 0.500000 0.031589 0.325519
O O13 0.300140 0.090969 0.205388
O O14 0.733092 0.276863 0.115037
O O15 0.000000 0.148946 0.142838
O O16 0.756253 0.053311 0.058685
O O17 0.000000 0.091850 0.550712
O O18 0.500000 0.458131 0.464565
O O19 0.224415 0.533769 0.528579
O O20 0.000000 0.412724 0.114269
#
# Coordination Sequence:
#
# PCOD9342929 Si02
#       8
#     4   4   4   4   4   4   4   4
#     4  10  20  35  57  81 106 142 184 223 270 331
#     4  11  22  37  58  84 113 144 185 234 276 321
#     4   9  19  36  54  74 105 143 178 216 271 330
#     4   9  19  35  54  79 109 138 174 225 278 326
#     4  10  19  34  56  78 103 140 183 220 267 330
#     4  10  21  36  55  80 110 140 175 227 279 322
#     4  10  21  38  58  81 111 148 189 227 272 335
#     4   9  20  37  56  79 111 149 182 222 275 327
#
# _framework density 21.703408
#
# number of rings (size 3 to 8) (size 9 to 14) (size 15 to 20)
#    0.000    2.250    0.000    3.375    0.000    5.500 
#    0.000    9.375    0.000    0.000    0.000    0.000 
#    0.000    0.000    0.000    0.000    0.000    0.000 
#
# Total GULP energy -178472.602810 kJ/mol
# GULP energy per Si atom -5577.268838 kJ/mol
# Density = 2.165401 g / cm^3
# Si number density = 21.703408 Si / 1000 Ang^3
#
#
#
# Elastic Constant Matrix: (Units=GPa)
#
#
# Indices 1 2 3 4 5 6 
#
# 1 49.3517 -9.4133 -11.1424 0.0000 0.0000 0.0000
# 2 -9.4133 158.3953 38.1963 0.0000 0.0000 0.0000
# 3 -11.1424 38.1963 72.2353 0.0000 0.0000 0.0000
# 4 0.0000 0.0000 0.0000 33.6061 0.0000 0.0000
# 5 0.0000 0.0000 0.0000 0.0000 91.4888 0.0000
# 6 0.0000 0.0000 0.0000 0.0000 0.0000 13.3235
#
#
#
# Elastic Compliance Matrix: (Units=1/GPa)
#
#
# Indices 1 2 3 4 5 6 
#
# 1 0.021033 0.000536 0.002961 0.000000 0.000000 0.000000
# 2 0.000536 0.007250 -0.003751 0.000000 0.000000 0.000000
# 3 0.002961 -0.003751 0.016284 0.000000 0.000000 0.000000
# 4 0.000000 0.000000 0.000000 0.029757 0.000000 0.000000
# 5 0.000000 0.000000 0.000000 0.000000 0.010930 0.000000
# 6 0.000000 0.000000 0.000000 0.000000 0.000000 0.075055
#
#
# Mechanical properties :
#
#
# Convention : Reuss Voigt Hill
#
# Bulk Modulus (GPa) = 22.69669 35.02927 28.86298
# Shear Modulus (GPa) = 28.48954 45.17312 36.83133
#
# Velocity S-wave (km/s) = 3.62702 4.56717 4.12397
# Velocity P-wave (km/s) = 5.29346 6.63227 6.00032
#
# Compressibility (1/GPa) = 0.04405929
#
# Stress axis : x y z
#
# Youngs Moduli (GPa) = 47.54327 137.93773 61.41108
#
# Poissons Ratio (x) = -0.07393 -0.18184
# Poissons Ratio (y) = -0.02548 0.23034
# Poissons Ratio (z) = -0.14078 0.51737
#
# Static dielectric constant tensor:
#      x y z
#    x 1.763670 0.000000 0.000000 
#    y 0.000000 1.792280 0.000000 
#    z 0.000000 0.000000 1.808970 
# 
# From -- ./inp_files/4918.got.cif
#   From: 2010.05.17/outbox.cif.g08.bks.cpg/sg31_3_cif.got.tgz:4918.got - 2010.06.03 17:08:30.
