data_PCOD9342745
_publ_section_title
;
Structure prediction by ZEFSAII (Michael W. Deem and Ramdas Pophale) SiO2 
 PCOD9342745
Probable space group: P M N 21
;
_chemical_formula_sum "Si O2"
_cell_formula_units_Z 32
_cell_length_a 7.579677
_cell_length_b 11.102438
_cell_length_c 14.475210
_cell_angle_alpha 90.000000
_cell_angle_beta 90.000000
_cell_angle_gamma 90.000000
_cell_volume 1218.130812
_symmetry_space_group_name_H-M "P M N 21"
_symmetry_group_IT_number 31
_symmetry_cell_setting 'orthorhombic'
loop_
_space_group_symop_operation_xyz
x,y,z
1/2-x,-y,1/2+z
-x,y,z
1/2+x,-y,1/2+z
loop_
_atom_site_type_symbol
_atom_site_label
_atom_site_fract_x
_atom_site_fract_y
_atom_site_fract_z
Si Si1 0.204173 0.944787 0.695450
Si Si2 0.205472 0.540100 0.855233
Si Si3 0.204664 0.436837 0.566668
Si Si4 0.283651 0.692687 0.245614
Si Si5 0.298040 0.919737 0.026476
Si Si6 0.707623 0.203732 0.351781
Si Si7 0.211678 0.153405 0.910232
Si Si8 0.210207 0.297701 0.088855
O O1 0.284399 0.039565 0.623575
O O2 0.283474 0.907512 0.793391
O O3 0.209178 0.814461 0.644218
O O4 0.000000 0.982359 0.707978
O O5 0.209856 0.545046 0.966598
O O6 0.000000 0.541123 0.828750
O O7 0.277863 0.422121 0.806491
O O8 0.287114 0.667896 0.826036
O O9 0.271638 0.338532 0.640991
O O10 0.219051 0.570314 0.611953
O O11 0.000000 0.410600 0.549292
O O12 0.500000 0.696129 0.244357
O O13 0.230922 0.807939 0.307483
O O14 0.500000 0.886485 0.043054
O O15 0.291451 0.040251 0.963477
O O16 0.220006 0.819503 0.960439
O O17 0.500000 0.205937 0.330330
O O18 0.000000 0.131284 0.907918
O O19 0.241918 0.264744 0.980826
O O20 0.000000 0.295824 0.102630
#
# Coordination Sequence:
#
# PCOD9342745 Si02
#       8
#     4   4   4   4   4   4   4   4
#     4   9  19  37  60  85 109 145 193 237 281 331
#     4  10  20  38  59  81 112 149 190 233 275 331
#     4  11  21  33  53  82 115 151 186 225 278 338
#     4   9  18  35  57  80 109 149 188 221 269 339
#     4  10  21  37  58  85 115 139 179 245 290 320
#     4  10  21  39  62  82 111 157 195 224 276 353
#     4   9  17  34  58  77 101 142 188 223 267 334
#     4  10  18  31  55  82 110 144 183 232 276 324
#
# _framework density 26.269759000000001
#
# number of rings (size 3 to 8) (size 9 to 14) (size 15 to 20)
#    0.000    2.250    1.250    1.875    0.000    4.000 
#    2.250    3.750    0.000    0.000    0.000    0.000 
#    0.000    0.000    0.000    0.000    0.000    0.000 
#
# Total GULP energy -178899.056939 kJ/mol
# GULP energy per Si atom -5590.595529 kJ/mol
# Density = 2.620997 g / cm^3
# Si number density = 26.269759 Si / 1000 Ang^3
#
#
#
# Elastic Constant Matrix: (Units=GPa)
#
#
# Indices 1 2 3 4 5 6 
#
# 1 63.0499 -3.3975 1.7987 0.0000 0.0000 0.0000
# 2 -3.3975 90.5937 20.5157 0.0000 0.0000 0.0000
# 3 1.7987 20.5157 145.3188 0.0000 0.0000 0.0000
# 4 0.0000 0.0000 0.0000 55.4276 0.0000 0.0000
# 5 0.0000 0.0000 0.0000 0.0000 23.4536 0.0000
# 6 0.0000 0.0000 0.0000 0.0000 0.0000 13.2630
#
#
#
# Elastic Compliance Matrix: (Units=1/GPa)
#
#
# Indices 1 2 3 4 5 6 
#
# 1 0.015904 0.000662 -0.000290 0.000000 0.000000 0.000000
# 2 0.000662 0.011430 -0.001622 0.000000 0.000000 0.000000
# 3 -0.000290 -0.001622 0.007114 0.000000 0.000000 0.000000
# 4 0.000000 0.000000 0.000000 0.018042 0.000000 0.000000
# 5 0.000000 0.000000 0.000000 0.000000 0.042637 0.000000
# 6 0.000000 0.000000 0.000000 0.000000 0.000000 0.075398
#
#
# Mechanical properties :
#
#
# Convention : Reuss Voigt Hill
#
# Bulk Modulus (GPa) = 31.30014 37.42180 34.36097
# Shear Modulus (GPa) = 27.22201 37.09856 32.16029
#
# Velocity S-wave (km/s) = 3.22257 3.76202 3.50270
# Velocity P-wave (km/s) = 5.07813 5.75730 5.42835
#
# Compressibility (1/GPa) = 0.03194874
#
# Stress axis : x y z
#
# Youngs Moduli (GPa) = 62.87560 87.48584 140.56808
#
# Poissons Ratio (x) = -0.05793 0.04081
# Poissons Ratio (y) = -0.04164 0.22799
# Poissons Ratio (z) = 0.01826 0.14189
#
# Static dielectric constant tensor:
#      x y z
#    x 1.972960 0.000000 0.000000 
#    y 0.000000 2.097130 0.000000 
#    z 0.000000 0.000000 2.118330 
# 
# From -- ./inp_files/4913.got.cif
#   From: 2010.05.17/outbox.cif.g08.bks.cpg/sg31_3_cif.got.tgz:4913.got - 2010.06.03 17:08:30.
