data_PCOD9342312
_publ_section_title
;
Structure prediction by ZEFSAII (Michael W. Deem and Ramdas Pophale) SiO2 
 PCOD9342312
Probable space group: P N C 2
;
_chemical_formula_sum "Si O2"
_cell_formula_units_Z 30
_cell_length_a 8.173706
_cell_length_b 10.762524
_cell_length_c 15.177015
_cell_angle_alpha 90.000000
_cell_angle_beta 90.000000
_cell_angle_gamma 90.000000
_cell_volume 1335.117563
_symmetry_space_group_name_H-M "P N C 2"
_symmetry_group_IT_number 30
_symmetry_cell_setting 'orthorhombic'
loop_
_space_group_symop_operation_xyz
x,y,z
-x,-y,z
-x,1/2+y,1/2+z
x,1/2-y,1/2+z
loop_
_atom_site_type_symbol
_atom_site_label
_atom_site_fract_x
_atom_site_fract_y
_atom_site_fract_z
Si Si1 0.000000 0.000000 0.380491
Si Si2 0.054433 0.300303 0.164928
Si Si3 0.404135 0.868085 0.811952
Si Si4 0.745042 0.549484 0.031942
Si Si5 0.550276 0.700092 0.488882
Si Si6 0.878174 0.886622 0.023785
Si Si7 0.037553 0.719906 0.348952
Si Si8 0.671531 0.202556 0.621290
O O1 0.153732 0.022027 0.444389
O O2 0.956222 0.130459 0.333652
O O3 0.133609 0.410961 0.110331
O O4 0.130821 0.179292 0.118830
O O5 0.076578 0.323172 0.268175
O O6 0.862362 0.283564 0.143954
O O7 0.209330 0.854059 0.836445
O O8 0.419988 0.812677 0.713963
O O9 0.500000 0.000000 0.811182
O O10 0.487055 0.792274 0.890276
O O11 0.639803 0.671381 0.013436
O O12 0.661354 0.425082 0.065964
O O13 0.690498 0.595334 0.495102
O O14 0.404204 0.691817 0.559349
O O15 0.000000 0.000000 0.029760
O O16 0.961163 0.803365 0.945402
#
# Coordination Sequence:
#
# PCOD9342312 Si02
#       8
#     2   4   4   4   4   4   4   4
#     4  12  20  42  66  94 128 170 216 276 336 392
#     4  10  22  40  63  93 127 168 220 271 335 403
#     4  11  24  42  64  95 134 178 220 279 338 415
#     4  11  20  40  67  92 126 171 220 279 324 403
#     4  11  23  37  61  95 127 166 212 277 333 394
#     4  11  23  42  62  93 127 173 221 275 328 400
#     4  11  24  40  65  95 129 174 222 278 340 405
#     4  11  22  41  66  96 132 170 222 274 342 404
#
# _framework density 22.469932
#
# number of rings (size 3 to 8) (size 9 to 14) (size 15 to 20)
#    0.000    1.067    4.000    3.600    0.933    5.333 
#    0.000    0.000    0.000    4.800    0.000    0.000 
#    0.000    0.000    0.000    0.000    0.000    0.000 
#
# Total GULP energy -167543.442535 kJ/mol
# GULP energy per Si atom -5584.781418 kJ/mol
# Density = 2.241879 g / cm^3
# Si number density = 22.469932 Si / 1000 Ang^3
#
#
#
# Elastic Constant Matrix: (Units=GPa)
#
#
# Indices 1 2 3 4 5 6 
#
# 1 73.6188 16.4655 32.0849 0.0000 0.0000 0.0000
# 2 16.4655 58.2515 27.8346 0.0000 0.0000 0.0000
# 3 32.0849 27.8346 91.0271 0.0000 0.0000 0.0000
# 4 0.0000 0.0000 0.0000 126.5364 0.0000 0.0000
# 5 0.0000 0.0000 0.0000 0.0000 47.5795 0.0000
# 6 0.0000 0.0000 0.0000 0.0000 0.0000 34.8553
#
#
#
# Elastic Compliance Matrix: (Units=1/GPa)
#
#
# Indices 1 2 3 4 5 6 
#
# 1 0.016281 -0.002178 -0.005073 0.000000 0.000000 0.000000
# 2 -0.002178 0.020396 -0.005469 0.000000 0.000000 0.000000
# 3 -0.005073 -0.005469 0.014446 0.000000 0.000000 0.000000
# 4 0.000000 0.000000 0.000000 0.007903 0.000000 0.000000
# 5 0.000000 0.000000 0.000000 0.000000 0.021017 0.000000
# 6 0.000000 0.000000 0.000000 0.000000 0.000000 0.028690
#
#
# Mechanical properties :
#
#
# Convention : Reuss Voigt Hill
#
# Bulk Modulus (GPa) = 38.93537 41.74080 40.33809
# Shear Modulus (GPa) = 35.02997 51.56174 43.29585
#
# Velocity S-wave (km/s) = 3.95266 4.79550 4.39434
# Velocity P-wave (km/s) = 6.18035 7.01990 6.61346
#
# Compressibility (1/GPa) = 0.02568359
#
# Stress axis : x y z
#
# Youngs Moduli (GPa) = 61.41941 49.02947 69.22289
#
# Poissons Ratio (x) = 0.10680 0.35115
# Poissons Ratio (y) = 0.13379 0.37858
# Poissons Ratio (z) = 0.31157 0.26814
#
# Static dielectric constant tensor:
#      x y z
#    x 1.892360 0.000000 0.000000 
#    y 0.000000 1.833600 0.000000 
#    z 0.000000 0.000000 1.799440 
# 
# From -- ./inp_files/5194.got.cif
#   From: 2010.05.17/outbox.cif.g08.bks.cpg/sg30_3_cif.got.tgz:5194.got - 2010.06.03 17:03:02.
