data_PCOD9342291
_publ_section_title
;
Structure prediction by ZEFSAII (Michael W. Deem and Ramdas Pophale) SiO2 
 PCOD9342291
Probable space group: P N C 2
;
_chemical_formula_sum "Si O2"
_cell_formula_units_Z 24
_cell_length_a 12.281698
_cell_length_b 10.097959
_cell_length_c 9.021337
_cell_angle_alpha 90.000000
_cell_angle_beta 90.000000
_cell_angle_gamma 90.000000
_cell_volume 1118.826962
_symmetry_space_group_name_H-M "P N C 2"
_symmetry_group_IT_number 30
_symmetry_cell_setting 'orthorhombic'
loop_
_space_group_symop_operation_xyz
x,y,z
-x,-y,z
-x,1/2+y,1/2+z
x,1/2-y,1/2+z
loop_
_atom_site_type_symbol
_atom_site_label
_atom_site_fract_x
_atom_site_fract_y
_atom_site_fract_z
Si Si1 0.188793 0.069158 0.596530
Si Si2 0.892759 0.164945 0.787195
Si Si3 0.399601 0.902171 0.515912
Si Si4 0.873861 0.760300 0.850377
Si Si5 0.121860 0.997463 0.077727
Si Si6 0.686485 0.340799 0.703071
O O1 0.202637 0.186643 0.717991
O O2 0.148523 0.126830 0.439926
O O3 0.113079 0.960543 0.677882
O O4 0.297312 0.989024 0.566816
O O5 0.787243 0.251598 0.760256
O O6 0.007492 0.236868 0.775338
O O7 0.887588 0.118901 0.956462
O O8 0.381350 0.756377 0.592143
O O9 0.389496 0.879521 0.339875
O O10 0.500000 0.000000 0.551698
O O11 0.869650 0.871850 0.977508
O O12 0.240118 0.966419 0.148916
O O13 0.000000 0.000000 0.151173
#
# Coordination Sequence:
#
# PCOD9342291 Si02
#       6
#     4   4   4   4   4   4
#     4  10  23  40  63  97 133 177 222 281 329 405
#     4   9  20  38  62  94 140 173 217 262 332 414
#     4  11  27  48  70  96 127 177 238 293 342 394
#     4  10  22  37  64  96 145 175 213 268 332 420
#     4   9  19  36  59  97 134 178 213 254 333 418
#     4  11  22  43  71  96 133 175 224 283 342 399
#
# _framework density 21.451039000000002
#
# number of rings (size 3 to 8) (size 9 to 14) (size 15 to 20)
#    0.000    2.000    1.667    1.500    7.000    2.667 
#    0.000    0.833    0.000    0.000    0.000    0.000 
#    0.000    0.000    0.000    0.000    0.000    0.000 
#
# Total GULP energy -133738.061357 kJ/mol
# GULP energy per Si atom -5572.419223 kJ/mol
# Density = 2.140222 g / cm^3
# Si number density = 21.451039 Si / 1000 Ang^3
#
#
#
# Elastic Constant Matrix: (Units=GPa)
#
#
# Indices 1 2 3 4 5 6 
#
# 1 80.9182 28.2602 30.6568 0.0000 0.0000 0.0000
# 2 28.2602 64.7064 44.5932 0.0000 0.0000 0.0000
# 3 30.6568 44.5932 87.3706 0.0000 0.0000 0.0000
# 4 0.0000 0.0000 0.0000 51.5579 0.0000 0.0000
# 5 0.0000 0.0000 0.0000 0.0000 12.2853 0.0000
# 6 0.0000 0.0000 0.0000 0.0000 0.0000 15.9430
#
#
#
# Elastic Compliance Matrix: (Units=1/GPa)
#
#
# Indices 1 2 3 4 5 6 
#
# 1 0.015067 -0.004531 -0.002974 0.000000 0.000000 0.000000
# 2 -0.004531 0.025202 -0.011273 0.000000 0.000000 0.000000
# 3 -0.002974 -0.011273 0.018243 0.000000 0.000000 0.000000
# 4 0.000000 0.000000 0.000000 0.019396 0.000000 0.000000
# 5 0.000000 0.000000 0.000000 0.000000 0.081398 0.000000
# 6 0.000000 0.000000 0.000000 0.000000 0.000000 0.062723
#
#
# Mechanical properties :
#
#
# Convention : Reuss Voigt Hill
#
# Bulk Modulus (GPa) = 47.71959 48.89062 48.30510
# Shear Modulus (GPa) = 18.75668 24.58959 21.67313
#
# Velocity S-wave (km/s) = 2.96022 3.38940 3.18205
# Velocity P-wave (km/s) = 5.82907 6.17726 6.00569
#
# Compressibility (1/GPa) = 0.02095575
#
# Stress axis : x y z
#
# Youngs Moduli (GPa) = 66.36852 39.67893 54.81567
#
# Poissons Ratio (x) = 0.17977 0.16305
# Poissons Ratio (y) = 0.30070 0.61795
# Poissons Ratio (z) = 0.19741 0.44731
#
# Static dielectric constant tensor:
#      x y z
#    x 1.778760 0.000000 0.000000 
#    y 0.000000 1.855430 0.000000 
#    z 0.000000 0.000000 1.832190 
# 
# From -- ./inp_files/2359.got.cif
#   From: 2010.05.17/outbox.cif.g08.bks.cpg/sg30_2_cif.got.tgz:2359.got - 2010.06.03 17:03:02.
