data_PCOD9342123
_publ_section_title
;
Structure prediction by ZEFSAII (Michael W. Deem and Ramdas Pophale) SiO2 
 PCOD9342123
Probable space group: P N C 2
;
_chemical_formula_sum "Si O2"
_cell_formula_units_Z 18
_cell_length_a 9.339599
_cell_length_b 7.320351
_cell_length_c 10.975781
_cell_angle_alpha 90.000000
_cell_angle_beta 90.000000
_cell_angle_gamma 90.000000
_cell_volume 750.404739
_symmetry_space_group_name_H-M "P N C 2"
_symmetry_group_IT_number 30
_symmetry_cell_setting 'orthorhombic'
loop_
_space_group_symop_operation_xyz
x,y,z
-x,-y,z
-x,1/2+y,1/2+z
x,1/2-y,1/2+z
loop_
_atom_site_type_symbol
_atom_site_label
_atom_site_fract_x
_atom_site_fract_y
_atom_site_fract_z
Si Si1 0.732285 0.335110 0.791670
Si Si2 0.519358 0.716558 0.632038
Si Si3 0.500000 0.500000 0.931676
Si Si4 0.155642 0.330799 0.666480
Si Si5 0.997149 0.719777 0.917247
O O1 0.601882 0.226353 0.730079
O O2 0.645732 0.500300 0.856732
O O3 0.824997 0.450594 0.693522
O O4 0.837946 0.232744 0.883153
O O5 0.500000 0.500000 0.617444
O O6 0.484054 0.821624 0.510575
O O7 0.685465 0.753728 0.655732
O O8 0.084400 0.247781 0.788784
O O9 0.074635 0.299045 0.538477
O O10 0.000000 0.500000 0.935729
#
# Coordination Sequence:
#
# PCOD9342123 Si02
#       5
#     4   4   2   4   4
#     4  10  22  43  66 104 141 190 238 312 357 436
#     4  10  22  42  70  99 139 188 243 289 372 424
#     4  12  22  44  76  98 148 182 246 308 354 434
#     4  10  20  42  67  96 141 190 225 309 355 426
#     4  10  22  39  67  94 142 183 240 289 372 420
#
# _framework density 23.987054000000001
#
# number of rings (size 3 to 8) (size 9 to 14) (size 15 to 20)
#    0.000    1.778    3.333    2.667    3.111    0.000 
#    2.000    3.333    0.000    0.000    0.000    0.000 
#    0.000    0.000    0.000    0.000    0.000    0.000 
#
# Total GULP energy -100498.548247 kJ/mol
# GULP energy per Si atom -5583.252680 kJ/mol
# Density = 2.393246 g / cm^3
# Si number density = 23.987054 Si / 1000 Ang^3
#
#
#
# Elastic Constant Matrix: (Units=GPa)
#
#
# Indices 1 2 3 4 5 6 
#
# 1 198.3484 24.0553 114.1171 0.0000 0.0000 0.0000
# 2 24.0553 36.1258 33.9004 0.0000 0.0000 0.0000
# 3 114.1171 33.9004 197.5772 0.0000 0.0000 0.0000
# 4 0.0000 0.0000 0.0000 24.1962 0.0000 0.0000
# 5 0.0000 0.0000 0.0000 0.0000 61.9644 0.0000
# 6 0.0000 0.0000 0.0000 0.0000 0.0000 17.7351
#
#
#
# Elastic Compliance Matrix: (Units=1/GPa)
#
#
# Indices 1 2 3 4 5 6 
#
# 1 0.007589 -0.001120 -0.004191 0.000000 0.000000 0.000000
# 2 -0.001120 0.033159 -0.005042 0.000000 0.000000 0.000000
# 3 -0.004191 -0.005042 0.008347 0.000000 0.000000 0.000000
# 4 0.000000 0.000000 0.000000 0.041329 0.000000 0.000000
# 5 0.000000 0.000000 0.000000 0.000000 0.016138 0.000000
# 6 0.000000 0.000000 0.000000 0.000000 0.000000 0.056385
#
#
# Mechanical properties :
#
#
# Convention : Reuss Voigt Hill
#
# Bulk Modulus (GPa) = 35.22694 86.24412 60.73553
# Shear Modulus (GPa) = 25.89115 38.11106 32.00111
#
# Velocity S-wave (km/s) = 3.28896 3.99032 3.65649
# Velocity P-wave (km/s) = 5.39821 7.56721 6.57280
#
# Compressibility (1/GPa) = 0.02838736
#
# Stress axis : x y z
#
# Youngs Moduli (GPa) = 131.77567 30.15798 119.80337
#
# Poissons Ratio (x) = 0.03379 0.50208
# Poissons Ratio (y) = 0.14765 0.60408
# Poissons Ratio (z) = 0.55225 0.15206
#
# Static dielectric constant tensor:
#      x y z
#    x 1.983490 0.000000 0.000000 
#    y 0.000000 2.023120 0.000000 
#    z 0.000000 0.000000 1.958190 
# 
# From -- ./inp_files/3485.got.cif
#   From: 2010.05.17/outbox.cif.g08.bks.cpg/sg30_2_cif.got.tgz:3485.got - 2010.06.03 17:03:02.
