data_PCOD9342625
_publ_section_title
;
Structure prediction by ZEFSAII (Michael W. Deem and Ramdas Pophale) SiO2 
 PCOD9342625
Probable space group: P N C 2
;
_chemical_formula_sum "Si O2"
_cell_formula_units_Z 16
_cell_length_a 5.194908
_cell_length_b 5.360143
_cell_length_c 23.023162
_cell_angle_alpha 90.000000
_cell_angle_beta 90.000000
_cell_angle_gamma 90.000000
_cell_volume 641.090301
_symmetry_space_group_name_H-M "P N C 2"
_symmetry_group_IT_number 30
_symmetry_cell_setting 'orthorhombic'
loop_
_space_group_symop_operation_xyz
x,y,z
-x,-y,z
-x,1/2+y,1/2+z
x,1/2-y,1/2+z
loop_
_atom_site_type_symbol
_atom_site_label
_atom_site_fract_x
_atom_site_fract_y
_atom_site_fract_z
Si Si1 0.500000 0.500000 0.045861
Si Si2 0.000000 0.500000 0.235289
Si Si3 0.333133 0.256010 0.824925
Si Si4 0.740490 0.335326 0.644706
Si Si5 0.243675 0.168698 0.955167
O O1 0.355764 0.699218 0.086437
O O2 0.293329 0.372811 0.003817
O O3 0.117730 0.290529 0.276954
O O4 0.202768 0.627083 0.192629
O O5 0.500000 0.500000 0.813591
O O6 0.220831 0.276409 0.890067
O O7 0.500000 0.000000 0.823589
O O8 0.500000 0.500000 0.664205
O O9 0.000000 0.500000 0.636735
O O10 0.500000 0.000000 0.955329
O O11 0.000000 0.000000 0.967813
#
# Coordination Sequence:
#
# PCOD9342625 Si02
#       5
#     2   2   4   4   4
#     4  12  28  54  86 120 170 228 292 358 444 518
#     4  12  30  50  86 120 174 226 292 360 444 520
#     4  11  27  51  84 127 171 226 286 358 440 527
#     4  12  31  53  82 123 171 227 296 363 434 518
#     4  11  26  51  82 122 168 219 281 356 433 526
#
# _framework density 24.957481999999999
#
# number of rings (size 3 to 8) (size 9 to 14) (size 15 to 20)
#    0.000    0.500    2.500    2.250    8.750   11.000 
#    0.000    0.000    0.000    0.000    0.000    0.000 
#    0.000    0.000    0.000    0.000    0.000    0.000 
#
# Total GULP energy -89932.143541 kJ/mol
# GULP energy per Si atom -5620.758971 kJ/mol
# Density = 2.490068 g / cm^3
# Si number density = 24.957482 Si / 1000 Ang^3
#
#
#
# Elastic Constant Matrix: (Units=GPa)
#
#
# Indices 1 2 3 4 5 6 
#
# 1 174.7245 81.5293 64.8059 0.0000 0.0000 0.0000
# 2 81.5293 151.4753 70.8427 0.0000 0.0000 0.0000
# 3 64.8059 70.8427 194.8830 0.0000 0.0000 0.0000
# 4 0.0000 0.0000 0.0000 198.5271 0.0000 0.0000
# 5 0.0000 0.0000 0.0000 0.0000 -73.9573 0.0000
# 6 0.0000 0.0000 0.0000 0.0000 0.0000 73.9832
#
#
#
# Elastic Compliance Matrix: (Units=1/GPa)
#
#
# Indices 1 2 3 4 5 6 
#
# 1 0.007909 -0.003647 -0.001304 0.000000 0.000000 0.000000
# 2 -0.003647 0.009636 -0.002290 0.000000 0.000000 0.000000
# 3 -0.001304 -0.002290 0.006397 0.000000 0.000000 0.000000
# 4 0.000000 0.000000 0.000000 0.005037 0.000000 0.000000
# 5 0.000000 0.000000 0.000000 0.000000 -0.013521 0.000000
# 6 0.000000 0.000000 0.000000 0.000000 0.000000 0.013517
#
#
# Mechanical properties :
#
#
# Convention : Reuss Voigt Hill
#
# Bulk Modulus (GPa) = 105.71209 106.15984 105.93597
# Shear Modulus (GPa) = 107.27483 59.97092 83.62288
#
# Velocity S-wave (km/s) = 6.56326 4.90728 5.79473
# Velocity P-wave (km/s) = 9.99420 8.64507 9.34401
#
# Compressibility (1/GPa) = 0.00945966
#
# Stress axis : x y z
#
# Youngs Moduli (GPa) = 126.44315 103.78260 156.31240
#
# Poissons Ratio (x) = 0.37847 0.20388
# Poissons Ratio (y) = 0.46111 0.35795
# Poissons Ratio (z) = 0.16492 0.23766
#
# Static dielectric constant tensor:
#      x y z
#    x 1.924380 0.000000 0.000000 
#    y 0.000000 1.681230 0.000000 
#    z 0.000000 0.000000 1.935450 
# 
# From -- ./inp_files/7119.got.cif
#   From: 2010.05.17/outbox.cif.g08.bks.cpg/sg30_4_cif.got.tgz:7119.got - 2010.06.03 17:03:02.
