data_PCOD9342185
_publ_section_title
;
Structure prediction by ZEFSAII (Michael W. Deem and Ramdas Pophale) SiO2 
 PCOD9342185
Probable space group: P N C 2
;
_chemical_formula_sum "Si O2"
_cell_formula_units_Z 20
_cell_length_a 4.810524
_cell_length_b 21.258118
_cell_length_c 8.903068
_cell_angle_alpha 90.000000
_cell_angle_beta 90.000000
_cell_angle_gamma 90.000000
_cell_volume 910.451655
_symmetry_space_group_name_H-M "P N C 2"
_symmetry_group_IT_number 30
_symmetry_cell_setting 'orthorhombic'
loop_
_space_group_symop_operation_xyz
x,y,z
-x,-y,z
-x,1/2+y,1/2+z
x,1/2-y,1/2+z
loop_
_atom_site_type_symbol
_atom_site_label
_atom_site_fract_x
_atom_site_fract_y
_atom_site_fract_z
Si Si1 0.301281 0.816332 0.066020
Si Si2 0.500000 0.500000 0.346519
Si Si3 0.295246 0.099329 0.417583
Si Si4 0.000000 0.500000 0.135440
Si Si5 0.795281 0.599328 0.564365
Si Si6 0.198727 0.683670 0.915896
O O1 0.613661 0.838174 0.040774
O O2 0.249960 0.806883 0.240954
O O3 0.105328 0.876786 0.029460
O O4 0.250026 0.750002 0.990950
O O5 0.749998 0.473250 0.240978
O O6 0.667896 0.547800 0.454161
O O7 0.167887 0.047801 0.527795
O O8 0.249960 0.080810 0.240975
O O9 0.605304 0.123217 0.452447
O O10 0.113638 0.161827 0.441190
#
# Coordination Sequence:
#
# PCOD9342185 Si02
#       6
#     4   2   4   2   4   4
#     4  10  21  38  62  91 121 160 209 258 312 374
#     4  12  26  42  64  98 130 164 216 276 324 368
#     4  10  23  42  63  88 124 171 211 250 315 391
#     4  12  26  42  64  98 130 164 216 276 324 368
#     4  10  23  42  63  88 124 171 211 250 315 391
#     4  10  21  38  62  91 121 160 209 258 312 374
#
# _framework density 21.967116000000001
#
# number of rings (size 3 to 8) (size 9 to 14) (size 15 to 20)
#    0.000    1.600    0.000    3.600    0.000   11.200 
#    0.000    0.000    0.000    0.000    0.000    0.000 
#    0.000    0.000    0.000    0.000    0.000    0.000 
#
# Total GULP energy -111669.907519 kJ/mol
# GULP energy per Si atom -5583.495376 kJ/mol
# Density = 2.191712 g / cm^3
# Si number density = 21.967116 Si / 1000 Ang^3
#
#
#
# Elastic Constant Matrix: (Units=GPa)
#
#
# Indices 1 2 3 4 5 6 
#
# 1 80.3439 -5.8979 31.4825 0.0000 0.0000 0.0000
# 2 -5.8979 77.4586 74.8781 0.0000 0.0000 0.0000
# 3 31.4825 74.8781 103.6880 0.0000 0.0000 0.0000
# 4 0.0000 0.0000 0.0000 -11.2447 0.0000 0.0000
# 5 0.0000 0.0000 0.0000 0.0000 34.1538 0.0000
# 6 0.0000 0.0000 0.0000 0.0000 0.0000 -0.6532
#
#
#
# Elastic Compliance Matrix: (Units=1/GPa)
#
#
# Indices 1 2 3 4 5 6 
#
# 1 0.027990 0.034270 -0.033247 0.000000 0.000000 0.000000
# 2 0.034270 0.084721 -0.071587 0.000000 0.000000 0.000000
# 3 -0.033247 -0.071587 0.071435 0.000000 0.000000 0.000000
# 4 0.000000 0.000000 0.000000 -0.088931 0.000000 0.000000
# 5 0.000000 0.000000 0.000000 0.000000 0.029279 0.000000
# 6 0.000000 0.000000 0.000000 0.000000 0.000000 -1.530967
#
#
# Mechanical properties :
#
#
# Convention : Reuss Voigt Hill
#
# Bulk Modulus (GPa) = 23.24502 51.37956 37.31229
# Shear Modulus (GPa) = -3.99678 15.18638 5.59480
#
# Velocity S-wave (km/s) = -1.35033 2.63216 1.59763
# Velocity P-wave (km/s) = 2.85894 5.71644 4.51947
#
# Compressibility (1/GPa) = 0.04301996
#
# Stress axis : x y z
#
# Youngs Moduli (GPa) = 35.72735 11.80341 13.99873
#
# Poissons Ratio (x) = -0.40451 0.46541
# Poissons Ratio (y) = -1.22438 1.00212
# Poissons Ratio (z) = 1.18781 0.84497
#
# Static dielectric constant tensor:
#      x y z
#    x 1.898710 0.000000 0.000000 
#    y 0.000000 1.808060 0.000000 
#    z 0.000000 0.000000 1.825340 
# 
# From -- ./inp_files/1359.got.cif
#   From: 2010.05.17/outbox.cif.g08.bks.cpg/sg30_1_cif.got.tgz:1359.got - 2010.06.03 17:03:02.
