data_PCOD9342048
_publ_section_title
;
Structure prediction by ZEFSAII (Michael W. Deem and Ramdas Pophale) SiO2 
 PCOD9342048
Probable space group: P N C 2
;
_chemical_formula_sum "Si O2"
_cell_formula_units_Z 32
_cell_length_a 8.202816
_cell_length_b 30.156383
_cell_length_c 5.466647
_cell_angle_alpha 90.000000
_cell_angle_beta 90.000000
_cell_angle_gamma 90.000000
_cell_volume 1352.269495
_symmetry_space_group_name_H-M "P N C 2"
_symmetry_group_IT_number 30
_symmetry_cell_setting 'orthorhombic'
loop_
_space_group_symop_operation_xyz
x,y,z
-x,-y,z
-x,1/2+y,1/2+z
x,1/2-y,1/2+z
loop_
_atom_site_type_symbol
_atom_site_label
_atom_site_fract_x
_atom_site_fract_y
_atom_site_fract_z
Si Si1 0.005454 0.192986 0.225180
Si Si2 0.838982 0.528563 0.456117
Si Si3 0.813453 0.139883 0.588406
Si Si4 0.345253 0.470137 0.934129
Si Si5 0.864509 0.624478 0.363542
Si Si6 0.732838 0.236221 0.715697
Si Si7 0.665292 0.778610 0.431764
Si Si8 0.449081 0.124977 0.527270
O O1 0.871285 0.158218 0.325771
O O2 0.897913 0.235931 0.174488
O O3 0.145008 0.204355 0.419909
O O4 0.100535 0.169412 0.008154
O O5 0.734215 0.511498 0.685466
O O6 0.872127 0.579993 0.521921
O O7 0.000000 0.500000 0.442860
O O8 0.760431 0.528917 0.184293
O O9 0.773696 0.185012 0.737741
O O10 0.639081 0.116478 0.590520
O O11 0.977997 0.118118 0.687848
O O12 0.500000 0.500000 0.990328
O O13 0.395333 0.418945 0.884094
O O14 0.685846 0.627120 0.243402
O O15 0.646698 0.245805 0.456896
O O16 0.650499 0.753055 0.692117
O O17 0.568108 0.825858 0.411501
#
# Coordination Sequence:
#
# PCOD9342048 Si02
#       8
#     4   4   4   4   4   4   4   4
#     4  11  22  42  69  99 140 196 250 302 375 433
#     4  11  26  47  82 116 147 195 249 306 384 476
#     4  11  24  43  68 100 139 197 239 306 365 440
#     4  11  26  52  78 112 158 196 245 325 386 457
#     4  11  24  48  72 105 154 188 250 315 376 448
#     4  10  20  37  62  92 132 180 245 295 353 422
#     4  12  25  43  71 103 147 201 248 314 384 443
#     4  11  27  48  72 111 148 198 260 307 382 460
#
# _framework density 23.663921999999999
#
# number of rings (size 3 to 8) (size 9 to 14) (size 15 to 20)
#    0.000    1.000    2.500    3.750    3.500    4.000 
#    9.000    0.000    0.000    0.000    0.000    0.000 
#    0.000    0.000    0.000    0.000    0.000    0.000 
#
# Total GULP energy -178786.370553 kJ/mol
# GULP energy per Si atom -5587.074080 kJ/mol
# Density = 2.361006 g / cm^3
# Si number density = 23.663922 Si / 1000 Ang^3
#
#
#
# Elastic Constant Matrix: (Units=GPa)
#
#
# Indices 1 2 3 4 5 6 
#
# 1 119.7735 16.7224 34.5094 0.0000 0.0000 0.0000
# 2 16.7224 73.6886 17.2994 0.0000 0.0000 0.0000
# 3 34.5094 17.2994 96.4737 0.0000 0.0000 0.0000
# 4 0.0000 0.0000 0.0000 9.2127 0.0000 0.0000
# 5 0.0000 0.0000 0.0000 0.0000 35.7135 0.0000
# 6 0.0000 0.0000 0.0000 0.0000 0.0000 37.2935
#
#
#
# Elastic Compliance Matrix: (Units=1/GPa)
#
#
# Indices 1 2 3 4 5 6 
#
# 1 0.009447 -0.001410 -0.003126 0.000000 0.000000 0.000000
# 2 -0.001410 0.014377 -0.002074 0.000000 0.000000 0.000000
# 3 -0.003126 -0.002074 0.011856 0.000000 0.000000 0.000000
# 4 0.000000 0.000000 0.000000 0.108546 0.000000 0.000000
# 5 0.000000 0.000000 0.000000 0.000000 0.028001 0.000000
# 6 0.000000 0.000000 0.000000 0.000000 0.000000 0.026814
#
#
# Mechanical properties :
#
#
# Convention : Reuss Voigt Hill
#
# Bulk Modulus (GPa) = 44.52390 47.44425 45.98407
# Shear Modulus (GPa) = 22.75343 31.20425 26.97884
#
# Velocity S-wave (km/s) = 3.10421 3.63525 3.38018
# Velocity P-wave (km/s) = 5.63064 6.14107 5.89139
#
# Compressibility (1/GPa) = 0.02245985
#
# Stress axis : x y z
#
# Youngs Moduli (GPa) = 105.85704 69.55357 84.34753
#
# Poissons Ratio (x) = 0.09806 0.26370
# Poissons Ratio (y) = 0.14924 0.17492
# Poissons Ratio (z) = 0.33095 0.14424
#
# Static dielectric constant tensor:
#      x y z
#    x 1.927340 0.000000 0.000000 
#    y 0.000000 1.874590 0.000000 
#    z 0.000000 0.000000 2.009630 
# 
# From -- ./inp_files/591.got.cif
#   From: 2010.05.17/outbox.cif.g08.bks.cpg/sg30_1_cif.got.tgz:591.got - 2010.06.03 17:03:02.
