data_PCOD9342100
_publ_section_title
;
Structure prediction by ZEFSAII (Michael W. Deem and Ramdas Pophale) SiO2 
 PCOD9342100
Probable space group: P N C 2
;
_chemical_formula_sum "Si O2"
_cell_formula_units_Z 30
_cell_length_a 5.985930
_cell_length_b 20.394706
_cell_length_c 11.412502
_cell_angle_alpha 90.000000
_cell_angle_beta 90.000000
_cell_angle_gamma 90.000000
_cell_volume 1393.252881
_symmetry_space_group_name_H-M "P N C 2"
_symmetry_group_IT_number 30
_symmetry_cell_setting 'orthorhombic'
loop_
_space_group_symop_operation_xyz
x,y,z
-x,-y,z
-x,1/2+y,1/2+z
x,1/2-y,1/2+z
loop_
_atom_site_type_symbol
_atom_site_label
_atom_site_fract_x
_atom_site_fract_y
_atom_site_fract_z
Si Si1 0.452787 0.774060 0.521350
Si Si2 0.868564 0.064551 0.720125
Si Si3 0.462926 0.578556 0.417364
Si Si4 0.778853 0.619287 0.038923
Si Si5 0.500000 0.000000 0.555031
Si Si6 0.197820 0.843724 0.101096
Si Si7 0.825148 0.682105 0.406727
Si Si8 0.936585 0.307473 0.844882
O O1 0.586087 0.831910 0.583143
O O2 0.313249 0.727912 0.606482
O O3 0.629944 0.726533 0.460851
O O4 0.289136 0.799432 0.420036
O O5 0.738775 0.096324 0.828049
O O6 0.672020 0.039429 0.635902
O O7 0.041265 0.104464 0.639866
O O8 0.000000 0.000000 0.762647
O O9 0.500000 0.500000 0.416938
O O10 0.373849 0.605522 0.543146
O O11 0.687230 0.616293 0.374507
O O12 0.656502 0.553444 0.994343
O O13 0.897353 0.654833 0.931704
O O14 0.105978 0.851357 0.231067
O O15 0.994394 0.836737 0.010565
O O16 0.958397 0.734188 0.324070
#
# Coordination Sequence:
#
# PCOD9342100 Si02
#       8
#     4   4   4   4   2   4   4   4
#     4   9  20  43  62  96 127 170 215 276 336 401
#     4  10  22  40  63  97 130 173 220 280 333 402
#     4  11  24  43  67  97 139 180 229 283 351 420
#     4  10  21  39  67  92 131 169 219 277 342 404
#     4  10  20  40  60  94 130 166 216 272 336 402
#     4  10  23  44  68  97 135 175 229 275 341 422
#     4   9  22  43  63  97 129 171 220 283 332 407
#     4  10  21  45  67  95 132 176 223 282 341 416
#
# _framework density 21.532343999999998
#
# number of rings (size 3 to 8) (size 9 to 14) (size 15 to 20)
#    0.000    2.133    0.667    0.800    1.867    4.267 
#   40.800    0.000   27.867    0.000    0.000    0.000 
#    0.000    0.000    0.000    0.000    0.000    0.000 
#
# Total GULP energy -167467.136342 kJ/mol
# GULP energy per Si atom -5582.237878 kJ/mol
# Density = 2.148334 g / cm^3
# Si number density = 21.532344 Si / 1000 Ang^3
#
#
#
# Elastic Constant Matrix: (Units=GPa)
#
#
# Indices 1 2 3 4 5 6 
#
# 1 121.9242 59.6066 32.2209 0.0000 0.0000 0.0000
# 2 59.6066 124.6101 46.3084 0.0000 0.0000 0.0000
# 3 32.2209 46.3084 62.8373 0.0000 0.0000 0.0000
# 4 0.0000 0.0000 0.0000 27.2497 0.0000 0.0000
# 5 0.0000 0.0000 0.0000 0.0000 11.3133 0.0000
# 6 0.0000 0.0000 0.0000 0.0000 0.0000 54.6059
#
#
#
# Elastic Compliance Matrix: (Units=1/GPa)
#
#
# Indices 1 2 3 4 5 6 
#
# 1 0.010966 -0.004346 -0.002420 0.000000 0.000000 0.000000
# 2 -0.004346 0.012774 -0.007186 0.000000 0.000000 0.000000
# 3 -0.002420 -0.007186 0.022450 0.000000 0.000000 0.000000
# 4 0.000000 0.000000 0.000000 0.036698 0.000000 0.000000
# 5 0.000000 0.000000 0.000000 0.000000 0.088391 0.000000
# 6 0.000000 0.000000 0.000000 0.000000 0.000000 0.018313
#
#
# Mechanical properties :
#
#
# Convention : Reuss Voigt Hill
#
# Bulk Modulus (GPa) = 54.68287 65.07150 59.87718
# Shear Modulus (GPa) = 22.36209 30.04950 26.20580
#
# Velocity S-wave (km/s) = 3.22613 3.73976 3.49240
# Velocity P-wave (km/s) = 6.27121 6.99526 6.64311
#
# Compressibility (1/GPa) = 0.01828726
#
# Stress axis : x y z
#
# Youngs Moduli (GPa) = 91.18953 78.28167 44.54244
#
# Poissons Ratio (x) = 0.34023 0.10780
# Poissons Ratio (y) = 0.39633 0.32006
# Poissons Ratio (z) = 0.22069 0.56250
#
# Static dielectric constant tensor:
#      x y z
#    x 1.806740 0.000000 0.000000 
#    y 0.000000 1.850260 0.000000 
#    z 0.000000 0.000000 1.744010 
# 
# From -- ./inp_files/3257.got.cif
#   From: 2010.05.17/outbox.cif.g08.bks.cpg/sg30_2_cif.got.tgz:3257.got - 2010.06.03 17:03:02.
