data_PCOD9342295
_publ_section_title
;
Structure prediction by ZEFSAII (Michael W. Deem and Ramdas Pophale) SiO2 
 PCOD9342295
Probable space group: P N C 2
;
_chemical_formula_sum "Si O2"
_cell_formula_units_Z 30
_cell_length_a 11.511344
_cell_length_b 15.493596
_cell_length_c 8.709126
_cell_angle_alpha 90.000000
_cell_angle_beta 90.000000
_cell_angle_gamma 90.000000
_cell_volume 1553.291028
_symmetry_space_group_name_H-M "P N C 2"
_symmetry_group_IT_number 30
_symmetry_cell_setting 'orthorhombic'
loop_
_space_group_symop_operation_xyz
x,y,z
-x,-y,z
-x,1/2+y,1/2+z
x,1/2-y,1/2+z
loop_
_atom_site_type_symbol
_atom_site_label
_atom_site_fract_x
_atom_site_fract_y
_atom_site_fract_z
Si Si1 0.095400 0.647080 0.214250
Si Si2 0.297525 0.245660 0.898927
Si Si3 0.000000 0.500000 0.020822
Si Si4 0.076348 0.660883 0.581052
Si Si5 0.217010 0.538122 0.795609
Si Si6 0.666413 0.064027 0.597146
Si Si7 0.410496 0.370012 0.138983
Si Si8 0.181709 0.136923 0.165252
O O1 0.083780 0.653649 0.397446
O O2 0.082061 0.740039 0.135155
O O3 0.221984 0.607256 0.175836
O O4 0.002930 0.582933 0.132807
O O5 0.370544 0.188491 0.780788
O O6 0.199442 0.297834 0.806228
O O7 0.374519 0.315684 0.988841
O O8 0.237369 0.183346 0.020215
O O9 0.888939 0.489392 0.910364
O O10 0.173726 0.608854 0.675193
O O11 0.953156 0.621570 0.633488
O O12 0.246347 0.451467 0.704800
O O13 0.314483 0.569826 0.913219
O O14 0.546748 0.109462 0.642091
O O15 0.654809 0.962432 0.636785
#
# Coordination Sequence:
#
# PCOD9342295 Si02
#       8
#     4   4   2   4   4   4   4   4
#     4  11  26  40  64  93 129 174 208 258 322 388
#     4  10  23  38  69  93 125 162 219 261 320 370
#     4  10  22  38  60  90 126 168 206 254 310 384
#     4  12  25  41  61  97 133 169 214 254 320 392
#     4  11  22  40  64  90 131 170 208 262 318 385
#     4  10  23  43  68  87 132 165 215 264 331 376
#     4  10  22  44  65  94 121 166 215 273 318 372
#     4  11  22  38  63  96 130 168 206 265 309 389
#
# _framework density 19.313829999999999
#
# number of rings (size 3 to 8) (size 9 to 14) (size 15 to 20)
#    0.000    1.333    2.667    2.400    5.600    4.267 
#    0.000    1.333    0.000    0.000    0.000    0.000 
#    0.000    0.000    0.000    0.000    0.000    0.000 
#
# Total GULP energy -167663.913846 kJ/mol
# GULP energy per Si atom -5588.797128 kJ/mol
# Density = 1.926987 g / cm^3
# Si number density = 19.313830 Si / 1000 Ang^3
#
#
#
# Elastic Constant Matrix: (Units=GPa)
#
#
# Indices 1 2 3 4 5 6 
#
# 1 21.3590 -10.4004 -2.6992 0.0000 0.0000 0.0000
# 2 -10.4004 86.0322 48.7997 0.0000 0.0000 0.0000
# 3 -2.6992 48.7997 117.0118 0.0000 0.0000 0.0000
# 4 0.0000 0.0000 0.0000 30.7182 0.0000 0.0000
# 5 0.0000 0.0000 0.0000 0.0000 10.2281 0.0000
# 6 0.0000 0.0000 0.0000 0.0000 0.0000 29.4640
#
#
#
# Elastic Compliance Matrix: (Units=1/GPa)
#
#
# Indices 1 2 3 4 5 6 
#
# 1 0.050032 0.007065 -0.001792 0.000000 0.000000 0.000000
# 2 0.007065 0.016223 -0.006603 0.000000 0.000000 0.000000
# 3 -0.001792 -0.006603 0.011258 0.000000 0.000000 0.000000
# 4 0.000000 0.000000 0.000000 0.032554 0.000000 0.000000
# 5 0.000000 0.000000 0.000000 0.000000 0.097770 0.000000
# 6 0.000000 0.000000 0.000000 0.000000 0.000000 0.033940
#
#
# Mechanical properties :
#
#
# Convention : Reuss Voigt Hill
#
# Bulk Modulus (GPa) = 13.35940 32.86704 23.11322
# Shear Modulus (GPa) = 18.56051 26.66224 22.61137
#
# Velocity S-wave (km/s) = 3.10336 3.71950 3.42531
# Velocity P-wave (km/s) = 4.44670 5.95824 5.25708
#
# Compressibility (1/GPa) = 0.07485368
#
# Stress axis : x y z
#
# Youngs Moduli (GPa) = 19.98703 61.64120 88.82183
#
# Poissons Ratio (x) = -0.43550 0.15920
# Poissons Ratio (y) = -0.14121 0.58647
# Poissons Ratio (z) = 0.03582 0.40700
#
# Static dielectric constant tensor:
#      x y z
#    x 1.661500 0.000000 0.000000 
#    y 0.000000 1.669730 0.000000 
#    z 0.000000 0.000000 1.667680 
# 
# From -- ./inp_files/2450.got.cif
#   From: 2010.05.17/outbox.cif.g08.bks.cpg/sg30_2_cif.got.tgz:2450.got - 2010.06.03 17:03:02.
