data_PCOD9342329
_publ_section_title
;
Structure prediction by ZEFSAII (Michael W. Deem and Ramdas Pophale) SiO2 
 PCOD9342329
Probable space group: P N C 2
;
_chemical_formula_sum "Si O2"
_cell_formula_units_Z 24
_cell_length_a 8.872854
_cell_length_b 12.101690
_cell_length_c 8.706975
_cell_angle_alpha 90.000000
_cell_angle_beta 90.000000
_cell_angle_gamma 90.000000
_cell_volume 934.924749
_symmetry_space_group_name_H-M "P N C 2"
_symmetry_group_IT_number 30
_symmetry_cell_setting 'orthorhombic'
loop_
_space_group_symop_operation_xyz
x,y,z
-x,-y,z
-x,1/2+y,1/2+z
x,1/2-y,1/2+z
loop_
_atom_site_type_symbol
_atom_site_label
_atom_site_fract_x
_atom_site_fract_y
_atom_site_fract_z
Si Si1 0.556526 0.773421 0.740740
Si Si2 0.083408 0.789443 0.929955
Si Si3 0.154253 0.532015 0.680052
Si Si4 0.755166 0.828995 0.977408
Si Si5 0.239121 0.880623 0.629092
Si Si6 0.647950 0.946337 0.434604
O O1 0.671398 0.745958 0.603545
O O2 0.395785 0.815260 0.679355
O O3 0.585513 0.664671 0.848740
O O4 0.631168 0.862693 0.853011
O O5 0.137046 0.854938 0.778921
O O6 0.124896 0.859104 0.083478
O O7 0.173517 0.679976 0.976185
O O8 0.904238 0.767222 0.915183
O O9 0.179083 0.437570 0.553289
O O10 0.294951 0.516532 0.788559
O O11 0.000000 0.500000 0.765405
O O12 0.242779 0.009666 0.573340
O O13 0.500000 0.000000 0.501999
#
# Coordination Sequence:
#
# PCOD9342329 Si02
#       6
#     4   4   4   4   4   4
#     4  11  23  42  65  95 133 173 221 276 338 408
#     4  11  22  41  64  93 127 169 222 276 333 400
#     4   9  21  41  64  90 127 171 219 274 336 396
#     4  10  22  41  64  90 128 175 217 272 337 399
#     4  12  25  41  66  96 130 172 222 279 339 404
#     4  11  23  40  63  92 127 170 219 273 337 403
#
# _framework density 25.670515000000002
#
# number of rings (size 3 to 8) (size 9 to 14) (size 15 to 20)
#    0.000    1.333    0.000    6.000    0.000    6.667 
#    0.000    5.833    0.000    0.000    0.000    0.000 
#    0.000    0.000    0.000    0.000    0.000    0.000 
#
# Total GULP energy -133691.238303 kJ/mol
# GULP energy per Si atom -5570.468263 kJ/mol
# Density = 2.561209 g / cm^3
# Si number density = 25.670515 Si / 1000 Ang^3
#
#
#
# Elastic Constant Matrix: (Units=GPa)
#
#
# Indices 1 2 3 4 5 6 
#
# 1 103.6901 2.0171 10.7349 0.0000 0.0000 0.0000
# 2 2.0171 52.6728 17.2119 0.0000 0.0000 0.0000
# 3 10.7349 17.2119 72.0935 0.0000 0.0000 0.0000
# 4 0.0000 0.0000 0.0000 50.2222 0.0000 0.0000
# 5 0.0000 0.0000 0.0000 0.0000 40.8572 0.0000
# 6 0.0000 0.0000 0.0000 0.0000 0.0000 13.4813
#
#
#
# Elastic Compliance Matrix: (Units=1/GPa)
#
#
# Indices 1 2 3 4 5 6 
#
# 1 0.009796 0.000110 -0.001485 0.000000 0.000000 0.000000
# 2 0.000110 0.020593 -0.004933 0.000000 0.000000 0.000000
# 3 -0.001485 -0.004933 0.015270 0.000000 0.000000 0.000000
# 4 0.000000 0.000000 0.000000 0.019912 0.000000 0.000000
# 5 0.000000 0.000000 0.000000 0.000000 0.024475 0.000000
# 6 0.000000 0.000000 0.000000 0.000000 0.000000 0.074177
#
#
# Mechanical properties :
#
#
# Convention : Reuss Voigt Hill
#
# Bulk Modulus (GPa) = 30.26366 32.04273 31.15319
# Shear Modulus (GPa) = 26.61675 34.14497 30.38086
#
# Velocity S-wave (km/s) = 3.22353 3.65104 3.44392
# Velocity P-wave (km/s) = 5.06653 5.50299 5.28926
#
# Compressibility (1/GPa) = 0.03304293
#
# Stress axis : x y z
#
# Youngs Moduli (GPa) = 102.08554 48.56066 65.48937
#
# Poissons Ratio (x) = -0.00535 0.09724
# Poissons Ratio (y) = -0.01124 0.32305
# Poissons Ratio (z) = 0.15159 0.23954
#
# Static dielectric constant tensor:
#      x y z
#    x 0.725750 0.000000 0.000000 
#    y 0.000000 2.300190 0.000000 
#    z 0.000000 0.000000 2.025580 
# 
# From -- ./inp_files/1834.got.cif
#   From: 2010.05.17/outbox.cif.g08.bks.cpg/sg30_1_cif.got.tgz:1834.got - 2010.06.03 17:03:02.
