data_PCOD9342985
_publ_section_title
;
Structure prediction by ZEFSAII (Michael W. Deem and Ramdas Pophale) SiO2 
 PCOD9342985
Probable space group: P M N 21
;
_chemical_formula_sum "Si O2"
_cell_formula_units_Z 32
_cell_length_a 8.344044
_cell_length_b 19.643613
_cell_length_c 10.434600
_cell_angle_alpha 90.000000
_cell_angle_beta 90.000000
_cell_angle_gamma 90.000000
_cell_volume 1710.305769
_symmetry_space_group_name_H-M "P M N 21"
_symmetry_group_IT_number 31
_symmetry_cell_setting 'orthorhombic'
loop_
_space_group_symop_operation_xyz
x,y,z
1/2-x,-y,1/2+z
-x,y,z
1/2+x,-y,1/2+z
loop_
_atom_site_type_symbol
_atom_site_label
_atom_site_fract_x
_atom_site_fract_y
_atom_site_fract_z
Si Si1 0.189823 0.847620 0.953350
Si Si2 0.191542 0.704318 0.539830
Si Si3 0.305002 0.290929 0.333803
Si Si4 0.806901 0.157321 0.942864
Si Si5 0.306303 0.444821 0.336787
Si Si6 0.690028 0.919966 0.701096
Si Si7 0.810215 0.072207 0.696034
Si Si8 0.308330 0.553258 0.547080
O O1 0.248033 0.770856 0.923238
O O2 0.219983 0.889997 0.823796
O O3 0.000000 0.846259 0.980756
O O4 0.278011 0.883892 0.069678
O O5 0.245240 0.721050 0.686125
O O6 0.246422 0.765537 0.450000
O O7 0.257807 0.629717 0.509125
O O8 0.000000 0.700412 0.540358
O O9 0.500000 0.289654 0.334939
O O10 0.253648 0.367404 0.368350
O O11 0.755548 0.118418 0.072159
O O12 0.000000 0.158561 0.941501
O O13 0.753488 0.115203 0.819086
O O14 0.500000 0.445028 0.337987
O O15 0.249341 0.498904 0.442008
O O16 0.254364 0.459953 0.191050
O O17 0.500000 0.908346 0.717352
O O18 0.723140 0.999928 0.687965
O O19 0.000000 0.059245 0.709861
O O20 0.500000 0.549803 0.551055
#
# Coordination Sequence:
#
# PCOD9342985 Si02
#       8
#     4   4   4   4   4   4   4   4
#     4  11  21  37  59  84 115 150 190 234 285 339
#     4  10  19  35  60  85 111 148 193 234 279 339
#     4   8  16  33  57  81 107 144 187 231 271 325
#     4  10  22  39  58  82 115 148 188 237 285 333
#     4   9  19  37  58  83 116 151 190 231 276 332
#     4  11  22  38  62  87 110 146 192 235 286 348
#     4  11  24  40  56  82 119 153 188 237 288 339
#     4  10  20  35  58  86 119 152 186 233 282 329
#
# _framework density 18.710104999999999
#
# number of rings (size 3 to 8) (size 9 to 14) (size 15 to 20)
#    0.000    2.000    1.250    3.375    0.000    3.500 
#    2.250    0.625    0.000    0.000    0.000    0.000 
#    0.000    0.000    0.000    0.000    0.000    0.000 
#
# Total GULP energy -178673.341229 kJ/mol
# GULP energy per Si atom -5583.541913 kJ/mol
# Density = 1.866752 g / cm^3
# Si number density = 18.710105 Si / 1000 Ang^3
#
#
#
# Elastic Constant Matrix: (Units=GPa)
#
#
# Indices 1 2 3 4 5 6 
#
# 1 16.3813 0.6458 0.3255 0.0000 0.0000 0.0000
# 2 0.6458 139.5497 61.5045 0.0000 0.0000 0.0000
# 3 0.3255 61.5045 90.2744 0.0000 0.0000 0.0000
# 4 0.0000 0.0000 0.0000 30.7415 0.0000 0.0000
# 5 0.0000 0.0000 0.0000 0.0000 17.4271 0.0000
# 6 0.0000 0.0000 0.0000 0.0000 0.0000 23.9965
#
#
#
# Elastic Compliance Matrix: (Units=1/GPa)
#
#
# Indices 1 2 3 4 5 6 
#
# 1 0.061056 -0.000265 -0.000039 0.000000 0.000000 0.000000
# 2 -0.000265 0.010242 -0.006977 0.000000 0.000000 0.000000
# 3 -0.000039 -0.006977 0.015831 0.000000 0.000000 0.000000
# 4 0.000000 0.000000 0.000000 0.032529 0.000000 0.000000
# 5 0.000000 0.000000 0.000000 0.000000 0.057382 0.000000
# 6 0.000000 0.000000 0.000000 0.000000 0.000000 0.041673
#
#
# Mechanical properties :
#
#
# Convention : Reuss Voigt Hill
#
# Bulk Modulus (GPa) = 13.78055 41.23965 27.51010
# Shear Modulus (GPa) = 19.42008 26.68167 23.05087
#
# Velocity S-wave (km/s) = 3.22521 3.78041 3.51380
# Velocity P-wave (km/s) = 4.60984 6.41441 5.58548
#
# Compressibility (1/GPa) = 0.07256603
#
# Stress axis : x y z
#
# Youngs Moduli (GPa) = 16.37833 97.63527 63.16704
#
# Poissons Ratio (x) = 0.02589 0.00249
# Poissons Ratio (y) = 0.00434 0.44072
# Poissons Ratio (z) = 0.00065 0.68121
#
# Static dielectric constant tensor:
#      x y z
#    x 1.645690 0.000000 0.000000 
#    y 0.000000 1.642780 0.000000 
#    z 0.000000 0.000000 1.624000 
# 
# From -- ./inp_files/3776.got.cif
#   From: 2010.05.17/outbox.cif.g08.bks.cpg/sg31_2_cif.got.tgz:3776.got - 2010.06.03 17:08:30.
