data_PCOD9342156
_publ_section_title
;
Structure prediction by ZEFSAII (Michael W. Deem and Ramdas Pophale) SiO2 
 PCOD9342156
Probable space group: P N C 2
;
_chemical_formula_sum "Si O2"
_cell_formula_units_Z 32
_cell_length_a 9.891388
_cell_length_b 28.272563
_cell_length_c 5.223157
_cell_angle_alpha 90.000000
_cell_angle_beta 90.000000
_cell_angle_gamma 90.000000
_cell_volume 1460.681398
_symmetry_space_group_name_H-M "P N C 2"
_symmetry_group_IT_number 30
_symmetry_cell_setting 'orthorhombic'
loop_
_space_group_symop_operation_xyz
x,y,z
-x,-y,z
-x,1/2+y,1/2+z
x,1/2-y,1/2+z
loop_
_atom_site_type_symbol
_atom_site_label
_atom_site_fract_x
_atom_site_fract_y
_atom_site_fract_z
Si Si1 0.590666 0.602686 0.073260
Si Si2 0.663839 0.276134 0.610265
Si Si3 0.109077 0.818800 0.366114
Si Si4 0.076779 0.598563 0.480886
Si Si5 0.093694 0.464068 0.787991
Si Si6 0.314261 0.858749 0.762312
Si Si7 0.128977 0.136772 0.580729
Si Si8 0.383059 0.460830 0.577923
O O1 0.445221 0.624901 0.118153
O O2 0.710987 0.641016 0.102534
O O3 0.620256 0.564082 0.299127
O O4 0.587991 0.578335 0.795858
O O5 0.612833 0.256551 0.879260
O O6 0.826761 0.219353 0.173703
O O7 0.636689 0.329028 0.509715
O O8 0.213469 0.824280 0.602867
O O9 0.953265 0.820279 0.449498
O O10 0.117969 0.869378 0.222227
O O11 0.214813 0.597590 0.322717
O O12 0.010289 0.550598 0.564833
O O13 0.957842 0.627098 0.335643
O O14 0.236529 0.479972 0.671429
O O15 0.000000 0.500000 0.947735
O O16 0.117640 0.414082 0.932701
O O17 0.500000 0.500000 0.580182
#
# Coordination Sequence:
#
# PCOD9342156 Si02
#       8
#     4   4   4   4   4   4   4   4
#     4  11  24  41  63  84 122 165 208 254 310 365
#     4  11  21  37  62  96 131 157 192 252 309 366
#     4   9  19  36  60  93 116 152 198 246 297 356
#     4   9  18  35  56  84 113 145 207 250 294 360
#     4  10  21  35  55  80 115 157 203 258 319 351
#     4  10  22  36  64  93 119 160 209 245 305 363
#     4   9  19  39  56  84 117 155 205 254 297 372
#     4  11  25  41  56  86 122 162 207 260 321 366
#
# _framework density 21.907581
#
# number of rings (size 3 to 8) (size 9 to 14) (size 15 to 20)
#    0.000    2.000    2.500    0.375    5.250    2.500 
#    0.000    0.000    0.000    1.500    0.000    0.000 
#    0.000    0.000    0.000    0.000    0.000    0.000 
#
# Total GULP energy -178191.775639 kJ/mol
# GULP energy per Si atom -5568.492989 kJ/mol
# Density = 2.185772 g / cm^3
# Si number density = 21.907581 Si / 1000 Ang^3
#
#
#
# Elastic Constant Matrix: (Units=GPa)
#
#
# Indices 1 2 3 4 5 6 
#
# 1 125.0496 15.3156 0.5546 0.0000 0.0000 0.0000
# 2 15.3156 25.4097 1.6561 0.0000 0.0000 0.0000
# 3 0.5546 1.6561 75.1552 0.0000 0.0000 0.0000
# 4 0.0000 0.0000 0.0000 22.2914 0.0000 0.0000
# 5 0.0000 0.0000 0.0000 0.0000 19.3192 0.0000
# 6 0.0000 0.0000 0.0000 0.0000 0.0000 12.3418
#
#
#
# Elastic Compliance Matrix: (Units=1/GPa)
#
#
# Indices 1 2 3 4 5 6 
#
# 1 0.008634 -0.005208 0.000051 0.000000 0.000000 0.000000
# 2 -0.005208 0.042553 -0.000899 0.000000 0.000000 0.000000
# 3 0.000051 -0.000899 0.013325 0.000000 0.000000 0.000000
# 4 0.000000 0.000000 0.000000 0.044860 0.000000 0.000000
# 5 0.000000 0.000000 0.000000 0.000000 0.051762 0.000000
# 6 0.000000 0.000000 0.000000 0.000000 0.000000 0.081026
#
#
# Mechanical properties :
#
#
# Convention : Reuss Voigt Hill
#
# Bulk Modulus (GPa) = 19.08379 28.96300 24.02340
# Shear Modulus (GPa) = 18.40003 24.66303 21.53153
#
# Velocity S-wave (km/s) = 2.90124 3.35890 3.13842
# Velocity P-wave (km/s) = 4.46686 5.31904 4.91147
#
# Compressibility (1/GPa) = 0.05240048
#
# Stress axis : x y z
#
# Youngs Moduli (GPa) = 115.81559 23.50032 75.04554
#
# Poissons Ratio (x) = 0.12238 -0.00383
# Poissons Ratio (y) = 0.60313 0.06748
# Poissons Ratio (z) = -0.00591 0.02113
#
# Static dielectric constant tensor:
#      x y z
#    x 1.829490 0.000000 0.000000 
#    y 0.000000 1.925270 0.000000 
#    z 0.000000 0.000000 1.916020 
# 
# From -- ./inp_files/594.got.cif
#   From: 2010.05.17/outbox.cif.g08.bks.cpg/sg30_1_cif.got.tgz:594.got - 2010.06.03 17:03:02.
