data_PCOD9342655
_publ_section_title
;
Structure prediction by ZEFSAII (Michael W. Deem and Ramdas Pophale) SiO2 
 PCOD9342655
Probable space group: P N C 2
;
_chemical_formula_sum "Si O2"
_cell_formula_units_Z 14
_cell_length_a 8.810581
_cell_length_b 4.739878
_cell_length_c 12.996959
_cell_angle_alpha 90.000000
_cell_angle_beta 90.000000
_cell_angle_gamma 90.000000
_cell_volume 542.767032
_symmetry_space_group_name_H-M "P N C 2"
_symmetry_group_IT_number 30
_symmetry_cell_setting 'orthorhombic'
loop_
_space_group_symop_operation_xyz
x,y,z
-x,-y,z
-x,1/2+y,1/2+z
x,1/2-y,1/2+z
loop_
_atom_site_type_symbol
_atom_site_label
_atom_site_fract_x
_atom_site_fract_y
_atom_site_fract_z
Si Si1 0.278573 0.159296 0.269850
Si Si2 0.000000 0.000000 0.028790
Si Si3 0.701764 0.117133 0.912085
Si Si4 0.500000 0.000000 0.088182
Si Si5 0.000000 0.500000 0.178364
O O1 0.367736 0.362952 0.345990
O O2 0.374905 0.124464 0.165847
O O3 0.126685 0.331323 0.241389
O O4 0.257689 0.870542 0.333854
O O5 0.053389 0.744246 0.101236
O O6 0.147317 0.033853 0.958705
O O7 0.596911 0.194409 0.009566
#
# Coordination Sequence:
#
# PCOD9342655 Si02
#       5
#     4   2   4   2   2
#     4  12  28  50  84 122 165 222 284 348 427 508
#     4  12  25  50  81 114 162 214 285 348 425 492
#     4  12  28  50  81 121 165 219 282 351 424 509
#     4  12  28  54  82 120 182 218 282 348 442 522
#     4  12  25  50  81 118 160 224 277 354 419 506
#
# _framework density 25.793758
#
# number of rings (size 3 to 8) (size 9 to 14) (size 15 to 20)
#    0.000    0.000    2.857    6.000    0.000    4.571 
#    0.000    0.000    0.000    0.000    0.000    0.000 
#    0.000    0.000    0.000    0.000    0.000    0.000 
#
# Total GULP energy -78320.453062 kJ/mol
# GULP energy per Si atom -5594.318076 kJ/mol
# Density = 2.573505 g / cm^3
# Si number density = 25.793758 Si / 1000 Ang^3
#
#
#
# Elastic Constant Matrix: (Units=GPa)
#
#
# Indices 1 2 3 4 5 6 
#
# 1 128.0202 20.7372 74.9296 0.0000 0.0000 0.0000
# 2 20.7372 129.1215 62.4275 0.0000 0.0000 0.0000
# 3 74.9296 62.4275 211.8172 0.0000 0.0000 0.0000
# 4 0.0000 0.0000 0.0000 72.4021 0.0000 0.0000
# 5 0.0000 0.0000 0.0000 0.0000 36.5682 0.0000
# 6 0.0000 0.0000 0.0000 0.0000 0.0000 37.4934
#
#
#
# Elastic Compliance Matrix: (Units=1/GPa)
#
#
# Indices 1 2 3 4 5 6 
#
# 1 0.009852 0.000120 -0.003521 0.000000 0.000000 0.000000
# 2 0.000120 0.009033 -0.002705 0.000000 0.000000 0.000000
# 3 -0.003521 -0.002705 0.006764 0.000000 0.000000 0.000000
# 4 0.000000 0.000000 0.000000 0.013812 0.000000 0.000000
# 5 0.000000 0.000000 0.000000 0.000000 0.027346 0.000000
# 6 0.000000 0.000000 0.000000 0.000000 0.000000 0.026671
#
#
# Mechanical properties :
#
#
# Convention : Reuss Voigt Hill
#
# Bulk Modulus (GPa) = 74.41457 87.23862 80.82659
# Shear Modulus (GPa) = 45.38502 50.01705 47.70104
#
# Velocity S-wave (km/s) = 4.19923 4.40832 4.30504
# Velocity P-wave (km/s) = 7.24043 7.73344 7.49099
#
# Compressibility (1/GPa) = 0.01343823
#
# Stress axis : x y z
#
# Youngs Moduli (GPa) = 101.49768 110.70482 147.85114
#
# Poissons Ratio (x) = -0.01326 0.52052
# Poissons Ratio (y) = -0.01216 0.39988
# Poissons Ratio (z) = 0.35733 0.29941
#
# Static dielectric constant tensor:
#      x y z
#    x 2.162250 0.000000 0.000000 
#    y 0.000000 1.936330 0.000000 
#    z 0.000000 0.000000 2.057040 
# 
# From -- ./inp_files/4859.got.cif
#   From: 2010.05.17/outbox.cif.g08.bks.cpg/sg30_3_cif.got.tgz:4859.got - 2010.06.03 17:03:02.
