data_PCOD9342165
_publ_section_title
;
Structure prediction by ZEFSAII (Michael W. Deem and Ramdas Pophale) SiO2 
 PCOD9342165
Probable space group: P N C 2
;
_chemical_formula_sum "Si O2"
_cell_formula_units_Z 30
_cell_length_a 21.870062
_cell_length_b 5.187540
_cell_length_c 12.678220
_cell_angle_alpha 90.000000
_cell_angle_beta 90.000000
_cell_angle_gamma 90.000000
_cell_volume 1438.367151
_symmetry_space_group_name_H-M "P N C 2"
_symmetry_group_IT_number 30
_symmetry_cell_setting 'orthorhombic'
loop_
_space_group_symop_operation_xyz
x,y,z
-x,-y,z
-x,1/2+y,1/2+z
x,1/2-y,1/2+z
loop_
_atom_site_type_symbol
_atom_site_label
_atom_site_fract_x
_atom_site_fract_y
_atom_site_fract_z
Si Si1 0.225115 0.053256 0.396160
Si Si2 0.173488 0.553099 0.488180
Si Si3 0.068580 0.560328 0.309781
Si Si4 0.500000 0.500000 0.275743
Si Si5 0.120693 0.062112 0.217324
Si Si6 0.345755 0.920318 0.267599
Si Si7 0.436163 0.415078 0.929734
Si Si8 0.380258 0.446783 0.149365
O O1 0.220578 0.330791 0.451349
O O2 0.175503 0.056676 0.302097
O O3 0.204856 0.830754 0.477037
O O4 0.288081 0.978609 0.341091
O O5 0.116369 0.549136 0.406579
O O6 0.148062 0.493879 0.603259
O O7 0.089064 0.338906 0.227945
O O8 0.000000 0.500000 0.345222
O O9 0.075198 0.836179 0.254218
O O10 0.537452 0.690036 0.354257
O O11 0.444740 0.557325 0.194084
O O12 0.336525 0.677635 0.189952
O O13 0.402443 0.889952 0.349810
O O14 0.360775 0.179294 0.202858
O O15 0.500000 0.500000 0.979059
O O16 0.389743 0.382361 0.026345
#
# Coordination Sequence:
#
# PCOD9342165 Si02
#       8
#     4   4   4   2   4   4   4   4
#     4  10  22  40  61  85 121 154 205 252 296 349
#     4  10  21  39  63  85 117 165 201 241 298 351
#     4  10  21  36  56  89 124 155 199 248 292 351
#     4  10  22  40  58  82 116 148 188 234 288 370
#     4  10  21  38  60  86 119 164 201 246 300 349
#     4  11  25  41  59  93 119 151 199 255 294 359
#     4  11  23  39  63  84 119 155 193 240 306 368
#     4  11  24  38  62  85 115 152 192 235 306 358
#
# _framework density 20.856983
#
# number of rings (size 3 to 8) (size 9 to 14) (size 15 to 20)
#    0.000    1.600    2.000    2.000    1.867    3.200 
#    0.000    0.000    0.000    0.000    0.000    0.000 
#    0.000    0.000    0.000    0.000    0.000    0.000 
#
# Total GULP energy -167274.504038 kJ/mol
# GULP energy per Si atom -5575.816801 kJ/mol
# Density = 2.080951 g / cm^3
# Si number density = 20.856983 Si / 1000 Ang^3
#
#
#
# Elastic Constant Matrix: (Units=GPa)
#
#
# Indices 1 2 3 4 5 6 
#
# 1 39.3265 -2.8991 -16.7661 0.0000 0.0000 0.0000
# 2 -2.8991 30.5877 18.2823 0.0000 0.0000 0.0000
# 3 -16.7661 18.2823 62.2490 0.0000 0.0000 0.0000
# 4 0.0000 0.0000 0.0000 14.0079 0.0000 0.0000
# 5 0.0000 0.0000 0.0000 0.0000 13.8698 0.0000
# 6 0.0000 0.0000 0.0000 0.0000 0.0000 15.3220
#
#
#
# Elastic Compliance Matrix: (Units=1/GPa)
#
#
# Indices 1 2 3 4 5 6 
#
# 1 0.028862 -0.002318 0.008454 0.000000 0.000000 0.000000
# 2 -0.002318 0.039840 -0.012325 0.000000 0.000000 0.000000
# 3 0.008454 -0.012325 0.021961 0.000000 0.000000 0.000000
# 4 0.000000 0.000000 0.000000 0.071388 0.000000 0.000000
# 5 0.000000 0.000000 0.000000 0.000000 0.072099 0.000000
# 6 0.000000 0.000000 0.000000 0.000000 0.000000 0.065266
#
#
# Mechanical properties :
#
#
# Convention : Reuss Voigt Hill
#
# Bulk Modulus (GPa) = 12.77366 14.37748 13.57557
# Shear Modulus (GPa) = 14.79781 17.54302 16.17042
#
# Velocity S-wave (km/s) = 2.66651 2.90334 2.78744
# Velocity P-wave (km/s) = 3.95197 4.25999 4.10887
#
# Compressibility (1/GPa) = 0.07828608
#
# Stress axis : x y z
#
# Youngs Moduli (GPa) = 34.64816 25.10045 45.53447
#
# Poissons Ratio (x) = 0.05817 -0.38496
# Poissons Ratio (y) = 0.08030 0.56121
# Poissons Ratio (z) = -0.29292 0.30936
#
# Static dielectric constant tensor:
#      x y z
#    x 1.768000 0.000000 0.000000 
#    y 0.000000 1.772080 0.000000 
#    z 0.000000 0.000000 1.727820 
# 
# From -- ./inp_files/4487.got.cif
#   From: 2010.05.17/outbox.cif.g08.bks.cpg/sg30_3_cif.got.tgz:4487.got - 2010.06.03 17:03:02.
