data_PCOD9342268
_publ_section_title
;
Structure prediction by ZEFSAII (Michael W. Deem and Ramdas Pophale) SiO2 
 PCOD9342268
Probable space group: P N C 2
;
_chemical_formula_sum "Si O2"
_cell_formula_units_Z 26
_cell_length_a 12.714581
_cell_length_b 16.992666
_cell_length_c 5.066868
_cell_angle_alpha 90.000000
_cell_angle_beta 90.000000
_cell_angle_gamma 90.000000
_cell_volume 1094.720282
_symmetry_space_group_name_H-M "P N C 2"
_symmetry_group_IT_number 30
_symmetry_cell_setting 'orthorhombic'
loop_
_space_group_symop_operation_xyz
x,y,z
-x,-y,z
-x,1/2+y,1/2+z
x,1/2-y,1/2+z
loop_
_atom_site_type_symbol
_atom_site_label
_atom_site_fract_x
_atom_site_fract_y
_atom_site_fract_z
Si Si1 0.000000 0.500000 0.145491
Si Si2 0.798687 0.489165 0.378825
Si Si3 0.723188 0.932139 0.374591
Si Si4 0.892313 0.371342 0.771826
Si Si5 0.541649 0.693303 0.908857
Si Si6 0.885442 0.701847 0.727042
Si Si7 0.314224 0.701487 0.016212
O O1 0.090659 0.464000 0.331117
O O2 0.058270 0.560668 0.955368
O O3 0.721739 0.522462 0.599512
O O4 0.845698 0.409038 0.503255
O O5 0.740430 0.504383 0.104656
O O6 0.626128 0.875400 0.427908
O O7 0.823794 0.874440 0.332144
O O8 0.794885 0.335479 0.928987
O O9 0.989245 0.312921 0.727195
O O10 0.554459 0.741355 0.637556
O O11 0.423180 0.659812 0.938372
O O12 0.856010 0.729462 0.434297
O O13 0.318894 0.778505 0.825073
#
# Coordination Sequence:
#
# PCOD9342268 Si02
#       7
#     2   4   4   4   4   4   4
#     4  12  24  44  64  90 130 190 214 268 326 398
#     4  12  25  41  65  93 127 183 217 266 323 395
#     4  12  23  42  65  96 132 168 221 271 329 398
#     4  12  25  44  66  92 137 173 223 270 326 400
#     4  10  21  43  71  97 130 171 213 272 341 398
#     4  12  25  37  60  96 130 164 212 272 331 385
#     4  10  24  44  71 100 129 173 220 271 335 396
#
# _framework density 23.750357999999999
#
# number of rings (size 3 to 8) (size 9 to 14) (size 15 to 20)
#    0.000    0.615    3.077    5.077    4.308    0.000 
#    0.000    0.769    3.385    0.000    0.000    0.000 
#    0.000    0.000    0.000    0.000    0.000    0.000 
#
# Total GULP energy -145439.538568 kJ/mol
# GULP energy per Si atom -5593.828406 kJ/mol
# Density = 2.369630 g / cm^3
# Si number density = 23.750358 Si / 1000 Ang^3
#
#
#
# Elastic Constant Matrix: (Units=GPa)
#
#
# Indices 1 2 3 4 5 6 
#
# 1 113.7129 6.9970 1.3900 0.0000 0.0000 0.0000
# 2 6.9970 9.3005 17.9912 0.0000 0.0000 0.0000
# 3 1.3900 17.9912 118.3367 0.0000 0.0000 0.0000
# 4 0.0000 0.0000 0.0000 31.4579 0.0000 0.0000
# 5 0.0000 0.0000 0.0000 0.0000 24.5110 0.0000
# 6 0.0000 0.0000 0.0000 0.0000 0.0000 35.4424
#
#
#
# Elastic Compliance Matrix: (Units=1/GPa)
#
#
# Indices 1 2 3 4 5 6 
#
# 1 0.009374 -0.009688 0.001363 0.000000 0.000000 0.000000
# 2 -0.009688 0.162331 -0.024566 0.000000 0.000000 0.000000
# 3 0.001363 -0.024566 0.012169 0.000000 0.000000 0.000000
# 4 0.000000 0.000000 0.000000 0.031788 0.000000 0.000000
# 5 0.000000 0.000000 0.000000 0.000000 0.040798 0.000000
# 6 0.000000 0.000000 0.000000 0.000000 0.000000 0.028215
#
#
# Mechanical properties :
#
#
# Convention : Reuss Voigt Hill
#
# Bulk Modulus (GPa) = 8.46805 32.67851 20.57328
# Shear Modulus (GPa) = 12.82636 32.61373 22.72005
#
# Velocity S-wave (km/s) = 2.32642 3.70968 3.09628
# Velocity P-wave (km/s) = 3.28473 5.66904 4.63290
#
# Compressibility (1/GPa) = 0.11809097
#
# Stress axis : x y z
#
# Youngs Moduli (GPa) = 106.68300 6.16025 82.17386
#
# Poissons Ratio (x) = 0.05968 -0.11199
# Poissons Ratio (y) = 1.03358 2.01869
# Poissons Ratio (z) = -0.14539 0.15133
#
# Static dielectric constant tensor:
#      x y z
#    x 1.902380 0.000000 0.000000 
#    y 0.000000 1.923230 0.000000 
#    z 0.000000 0.000000 1.911330 
# 
# From -- ./inp_files/704.got.cif
#   From: 2010.05.17/outbox.cif.g08.bks.cpg/sg30_1_cif.got.tgz:704.got - 2010.06.03 17:03:02.
