data_PCOD9342014
_publ_section_title
;
Structure prediction by ZEFSAII (Michael W. Deem and Ramdas Pophale) SiO2 
 PCOD9342014
Probable space group: P N C 2
;
_chemical_formula_sum "Si O2"
_cell_formula_units_Z 24
_cell_length_a 7.330865
_cell_length_b 10.050365
_cell_length_c 15.713539
_cell_angle_alpha 90.000000
_cell_angle_beta 90.000000
_cell_angle_gamma 90.000000
_cell_volume 1157.740068
_symmetry_space_group_name_H-M "P N C 2"
_symmetry_group_IT_number 30
_symmetry_cell_setting 'orthorhombic'
loop_
_space_group_symop_operation_xyz
x,y,z
-x,-y,z
-x,1/2+y,1/2+z
x,1/2-y,1/2+z
loop_
_atom_site_type_symbol
_atom_site_label
_atom_site_fract_x
_atom_site_fract_y
_atom_site_fract_z
Si Si1 0.230954 0.246146 0.002890
Si Si2 0.648813 0.179140 0.005196
Si Si3 0.938916 0.141567 0.142883
Si Si4 0.816981 0.081220 0.693434
Si Si5 0.299725 0.961802 0.507787
Si Si6 0.215973 0.027622 0.871146
O O1 0.189546 0.402869 0.995070
O O2 0.094349 0.186391 0.073906
O O3 0.442095 0.218037 0.029018
O O4 0.227559 0.173642 0.911485
O O5 0.758680 0.122820 0.085366
O O6 0.746340 0.315923 0.973315
O O7 0.674290 0.070957 0.932494
O O8 0.885387 0.265842 0.203128
O O9 0.000000 0.000000 0.180711
O O10 0.731926 0.010703 0.775414
O O11 0.697166 0.067665 0.609140
O O12 0.000000 0.000000 0.673931
O O13 0.500000 0.000000 0.475360
O O14 0.000000 0.000000 0.876550
#
# Coordination Sequence:
#
# PCOD9342014 Si02
#       6
#     4   4   4   4   4   4
#     4  11  19  35  59  86 110 152 189 246 286 330
#     4  10  20  34  57  87 113 145 198 238 285 345
#     4  11  20  36  58  86 113 147 197 239 283 346
#     4  10  21  36  57  80 121 154 187 237 294 350
#     4   9  20  35  56  84 110 147 198 234 283 345
#     4  11  21  36  54  86 116 151 197 233 292 348
#
# _framework density 20.730042000000001
#
# number of rings (size 3 to 8) (size 9 to 14) (size 15 to 20)
#    0.000    1.667    5.000    0.500    0.000    1.333 
#    0.000    3.333    0.000    0.000    0.000    0.000 
#    0.000    0.000    0.000    0.000    0.000    0.000 
#
# Total GULP energy -133726.781878 kJ/mol
# GULP energy per Si atom -5571.949245 kJ/mol
# Density = 2.068286 g / cm^3
# Si number density = 20.730042 Si / 1000 Ang^3
#
#
#
# Elastic Constant Matrix: (Units=GPa)
#
#
# Indices 1 2 3 4 5 6 
#
# 1 71.3888 -8.1697 -2.5449 0.0000 0.0000 0.0000
# 2 -8.1697 157.0220 30.4781 0.0000 0.0000 0.0000
# 3 -2.5449 30.4781 57.9140 0.0000 0.0000 0.0000
# 4 0.0000 0.0000 0.0000 22.0372 0.0000 0.0000
# 5 0.0000 0.0000 0.0000 0.0000 9.2461 0.0000
# 6 0.0000 0.0000 0.0000 0.0000 0.0000 29.4957
#
#
#
# Elastic Compliance Matrix: (Units=1/GPa)
#
#
# Indices 1 2 3 4 5 6 
#
# 1 0.014095 0.000683 0.000260 0.000000 0.000000 0.000000
# 2 0.000683 0.007126 -0.003720 0.000000 0.000000 0.000000
# 3 0.000260 -0.003720 0.019236 0.000000 0.000000 0.000000
# 4 0.000000 0.000000 0.000000 0.045378 0.000000 0.000000
# 5 0.000000 0.000000 0.000000 0.000000 0.108154 0.000000
# 6 0.000000 0.000000 0.000000 0.000000 0.000000 0.033903
#
#
# Mechanical properties :
#
#
# Convention : Reuss Voigt Hill
#
# Bulk Modulus (GPa) = 28.65091 36.20576 32.42834
# Shear Modulus (GPa) = 20.40137 29.92655 25.16396
#
# Velocity S-wave (km/s) = 3.14051 3.80364 3.48787
# Velocity P-wave (km/s) = 5.19629 6.06576 5.64778
#
# Compressibility (1/GPa) = 0.03490291
#
# Stress axis : x y z
#
# Youngs Moduli (GPa) = 70.94607 140.32792 51.98524
#
# Poissons Ratio (x) = -0.09583 -0.01352
# Poissons Ratio (y) = -0.04845 0.19340
# Poissons Ratio (z) = -0.01845 0.52205
#
# Static dielectric constant tensor:
#      x y z
#    x 1.809490 0.000000 0.000000 
#    y 0.000000 1.827970 0.000000 
#    z 0.000000 0.000000 1.749140 
# 
# From -- ./inp_files/6314.got.cif
#   From: 2010.05.17/outbox.cif.g08.bks.cpg/sg30_4_cif.got.tgz:6314.got - 2010.06.03 17:03:02.
