data_PCOD9342228
_publ_section_title
;
Structure prediction by ZEFSAII (Michael W. Deem and Ramdas Pophale) SiO2 
 PCOD9342228
Probable space group: P N C 2
;
_chemical_formula_sum "Si O2"
_cell_formula_units_Z 26
_cell_length_a 8.845276
_cell_length_b 14.598770
_cell_length_c 9.912765
_cell_angle_alpha 90.000000
_cell_angle_beta 90.000000
_cell_angle_gamma 90.000000
_cell_volume 1280.036830
_symmetry_space_group_name_H-M "P N C 2"
_symmetry_group_IT_number 30
_symmetry_cell_setting 'orthorhombic'
loop_
_space_group_symop_operation_xyz
x,y,z
-x,-y,z
-x,1/2+y,1/2+z
x,1/2-y,1/2+z
loop_
_atom_site_type_symbol
_atom_site_label
_atom_site_fract_x
_atom_site_fract_y
_atom_site_fract_z
Si Si1 0.500000 0.000000 0.147630
Si Si2 0.500000 0.500000 0.184064
Si Si3 0.000000 0.000000 0.798815
Si Si4 0.010811 0.185625 0.629644
Si Si5 0.285156 0.570000 0.415715
Si Si6 0.635683 0.817136 0.576407
Si Si7 0.503260 0.819239 0.290652
Si Si8 0.829261 0.226327 0.364210
O O1 0.559432 0.917227 0.238104
O O2 0.376660 0.955566 0.048339
O O3 0.389531 0.554924 0.284509
O O4 0.408443 0.423798 0.100584
O O5 0.005110 0.911174 0.705380
O O6 0.146420 0.998566 0.892739
O O7 0.922168 0.184484 0.488214
O O8 0.933527 0.257741 0.732619
O O9 0.188528 0.201160 0.605727
O O10 0.225290 0.673160 0.414326
O O11 0.591851 0.791395 0.424916
O O12 0.535428 0.755644 0.676534
O O13 0.325376 0.825096 0.326031
#
# Coordination Sequence:
#
# PCOD9342228 Si02
#       8
#     2   2   2   4   4   4   4   4
#     4  11  25  42  64  96 134 170 228 286 332 400
#     4  11  21  40  70  96 130 172 230 276 330 402
#     4  10  22  38  66  96 128 178 216 272 338 416
#     4  11  24  41  65  95 135 169 228 272 346 398
#     4  10  21  40  67  95 130 176 219 274 341 407
#     4  12  25  43  68 102 133 178 225 287 336 408
#     4  12  26  42  68  96 134 177 230 280 345 401
#     4  11  23  43  66  97 130 182 219 282 337 421
#
# _framework density 20.311914999999999
#
# number of rings (size 3 to 8) (size 9 to 14) (size 15 to 20)
#    0.000    0.923    3.077    4.154    4.308    3.692 
#    0.000    1.538    0.000    0.923    0.000    0.000 
#    0.000    0.000    0.000    0.000    0.000    0.000 
#
# Total GULP energy -145415.271300 kJ/mol
# GULP energy per Si atom -5592.895050 kJ/mol
# Density = 2.026568 g / cm^3
# Si number density = 20.311915 Si / 1000 Ang^3
#
#
#
# Elastic Constant Matrix: (Units=GPa)
#
#
# Indices 1 2 3 4 5 6 
#
# 1 93.7648 -16.3162 13.9574 0.0000 0.0000 0.0000
# 2 -16.3162 50.8490 1.5160 0.0000 0.0000 0.0000
# 3 13.9574 1.5160 102.6697 0.0000 0.0000 0.0000
# 4 0.0000 0.0000 0.0000 22.5813 0.0000 0.0000
# 5 0.0000 0.0000 0.0000 0.0000 24.9187 0.0000
# 6 0.0000 0.0000 0.0000 0.0000 0.0000 28.9228
#
#
#
# Elastic Compliance Matrix: (Units=1/GPa)
#
#
# Indices 1 2 3 4 5 6 
#
# 1 0.011561 0.003758 -0.001627 0.000000 0.000000 0.000000
# 2 0.003758 0.020896 -0.000819 0.000000 0.000000 0.000000
# 3 -0.001627 -0.000819 0.009973 0.000000 0.000000 0.000000
# 4 0.000000 0.000000 0.000000 0.044284 0.000000 0.000000
# 5 0.000000 0.000000 0.000000 0.000000 0.040131 0.000000
# 6 0.000000 0.000000 0.000000 0.000000 0.000000 0.034575
#
#
# Mechanical properties :
#
#
# Convention : Reuss Voigt Hill
#
# Bulk Modulus (GPa) = 22.19559 27.28867 24.74213
# Shear Modulus (GPa) = 28.76613 31.82630 30.29622
#
# Velocity S-wave (km/s) = 3.76735 3.96268 3.86625
# Velocity P-wave (km/s) = 5.46580 5.86524 5.66904
#
# Compressibility (1/GPa) = 0.04505400
#
# Stress axis : x y z
#
# Youngs Moduli (GPa) = 86.49642 47.85506 100.26794
#
# Poissons Ratio (x) = -0.17985 0.16315
# Poissons Ratio (y) = -0.32507 0.08217
# Poissons Ratio (z) = 0.14075 0.03922
#
# Static dielectric constant tensor:
#      x y z
#    x 1.733840 0.000000 0.000000 
#    y 0.000000 1.720940 0.000000 
#    z 0.000000 0.000000 1.695230 
# 
# From -- ./inp_files/1977.got.cif
#   From: 2010.05.17/outbox.cif.g08.bks.cpg/sg30_1_cif.got.tgz:1977.got - 2010.06.03 17:03:02.
