data_PCOD9342584
_publ_section_title
;
Structure prediction by ZEFSAII (Michael W. Deem and Ramdas Pophale) SiO2 
 PCOD9342584
Probable space group: P N C 2
;
_chemical_formula_sum "Si O2"
_cell_formula_units_Z 24
_cell_length_a 13.594349
_cell_length_b 5.088474
_cell_length_c 14.502321
_cell_angle_alpha 90.000000
_cell_angle_beta 90.000000
_cell_angle_gamma 90.000000
_cell_volume 1003.190680
_symmetry_space_group_name_H-M "P N C 2"
_symmetry_group_IT_number 30
_symmetry_cell_setting 'orthorhombic'
loop_
_space_group_symop_operation_xyz
x,y,z
-x,-y,z
-x,1/2+y,1/2+z
x,1/2-y,1/2+z
loop_
_atom_site_type_symbol
_atom_site_label
_atom_site_fract_x
_atom_site_fract_y
_atom_site_fract_z
Si Si1 0.752406 0.221015 0.098610
Si Si2 0.808832 0.393579 0.400416
Si Si3 0.692741 0.587072 0.864404
Si Si4 0.584672 0.834799 0.022158
Si Si5 0.595555 0.896793 0.702220
Si Si6 0.064543 0.758002 0.732512
O O1 0.679386 0.431330 0.148609
O O2 0.839008 0.187249 0.172579
O O3 0.678361 0.996715 0.060615
O O4 0.813467 0.242201 0.001390
O O5 0.778455 0.700011 0.391351
O O6 0.899949 0.342644 0.334163
O O7 0.722072 0.215041 0.355933
O O8 0.649593 0.694675 0.769550
O O9 0.620269 0.616970 0.950971
O O10 0.539680 0.737583 0.116886
O O11 0.500000 0.000000 0.974490
O O12 0.500000 0.000000 0.756995
O O13 0.000000 0.500000 0.737567
O O14 0.000000 0.000000 0.693327
#
# Coordination Sequence:
#
# PCOD9342584 Si02
#       6
#     4   4   4   4   4   4
#     4  11  25  45  71 102 141 186 231 289 354 418
#     4  11  24  46  72  99 136 185 229 288 359 410
#     4  11  24  41  71  99 142 188 231 283 336 415
#     4  11  23  42  66 106 147 190 233 283 339 420
#     4  12  23  41  67 104 143 191 233 279 340 417
#     4  12  28  47  74 104 137 180 239 304 355 422
#
# _framework density 23.923669
#
# number of rings (size 3 to 8) (size 9 to 14) (size 15 to 20)
#    0.000    0.667    5.000    2.500    2.333    1.333 
#    0.000    2.500    0.000    0.000    0.000    0.000 
#    0.000    0.000    0.000    0.000    0.000    0.000 
#
# Total GULP energy -133876.634287 kJ/mol
# GULP energy per Si atom -5578.193095 kJ/mol
# Density = 2.386922 g / cm^3
# Si number density = 23.923669 Si / 1000 Ang^3
#
#
#
# Elastic Constant Matrix: (Units=GPa)
#
#
# Indices 1 2 3 4 5 6 
#
# 1 105.2907 12.7844 13.2309 0.0000 0.0000 0.0000
# 2 12.7844 60.8436 -16.0200 0.0000 0.0000 0.0000
# 3 13.2309 -16.0200 128.1287 0.0000 0.0000 0.0000
# 4 0.0000 0.0000 0.0000 17.1160 0.0000 0.0000
# 5 0.0000 0.0000 0.0000 0.0000 -2.4700 0.0000
# 6 0.0000 0.0000 0.0000 0.0000 0.0000 41.0881
#
#
#
# Elastic Compliance Matrix: (Units=1/GPa)
#
#
# Indices 1 2 3 4 5 6 
#
# 1 0.009962 -0.002445 -0.001334 0.000000 0.000000 0.000000
# 2 -0.002445 0.017595 0.002452 0.000000 0.000000 0.000000
# 3 -0.001334 0.002452 0.008249 0.000000 0.000000 0.000000
# 4 0.000000 0.000000 0.000000 0.058425 0.000000 0.000000
# 5 0.000000 0.000000 0.000000 0.000000 -0.404860 0.000000
# 6 0.000000 0.000000 0.000000 0.000000 0.000000 0.024338
#
#
# Mechanical properties :
#
#
# Convention : Reuss Voigt Hill
#
# Bulk Modulus (GPa) = 30.16328 34.91706 32.54017
# Shear Modulus (GPa) = -18.34274 30.09799 5.87762
#
# Velocity S-wave (km/s) = -2.77197 3.55080 1.56913
# Velocity P-wave (km/s) = 1.54609 5.60694 4.11267
#
# Compressibility (1/GPa) = 0.03315289
#
# Stress axis : x y z
#
# Youngs Moduli (GPa) = 100.38139 56.83454 121.22593
#
# Poissons Ratio (x) = 0.13893 0.16176
# Poissons Ratio (y) = 0.24539 -0.29729
# Poissons Ratio (z) = 0.13394 -0.13938
#
# Static dielectric constant tensor:
#      x y z
#    x 1.959110 0.000000 0.000000 
#    y 0.000000 2.029200 0.000000 
#    z 0.000000 0.000000 1.952580 
# 
# From -- ./inp_files/5588.got.cif
#   From: 2010.05.17/outbox.cif.g08.bks.cpg/sg30_3_cif.got.tgz:5588.got - 2010.06.03 17:03:02.
