data_PCOD9342962
_publ_section_title
;
Structure prediction by ZEFSAII (Michael W. Deem and Ramdas Pophale) SiO2 
 PCOD9342962
Probable space group: P M N 21
;
_chemical_formula_sum "Si O2"
_cell_formula_units_Z 28
_cell_length_a 10.414305
_cell_length_b 11.250173
_cell_length_c 13.128788
_cell_angle_alpha 90.000000
_cell_angle_beta 90.000000
_cell_angle_gamma 90.000000
_cell_volume 1538.204682
_symmetry_space_group_name_H-M "P M N 21"
_symmetry_group_IT_number 31
_symmetry_cell_setting 'orthorhombic'
loop_
_space_group_symop_operation_xyz
x,y,z
1/2-x,-y,1/2+z
-x,y,z
1/2+x,-y,1/2+z
loop_
_atom_site_type_symbol
_atom_site_label
_atom_site_fract_x
_atom_site_fract_y
_atom_site_fract_z
Si Si1 0.146540 0.802551 0.340670
Si Si2 0.248897 0.932321 0.142040
Si Si3 0.851501 0.317415 0.313498
Si Si4 0.139969 0.872692 0.773016
Si Si5 0.850613 0.572980 0.210270
Si Si6 0.641607 0.939806 0.454355
Si Si7 0.849163 0.315110 0.555698
O O1 0.172082 0.880515 0.238766
O O2 0.167164 0.668454 0.301545
O O3 0.248091 0.847747 0.423177
O O4 0.000000 0.817358 0.374820
O O5 0.347491 0.028567 0.185685
O O6 0.316360 0.820914 0.087137
O O7 0.160604 0.003161 0.064054
O O8 0.754198 0.220554 0.270204
O O9 0.835040 0.441887 0.255424
O O10 0.828330 0.331323 0.434909
O O11 0.000000 0.279116 0.301751
O O12 0.000000 0.814575 0.770187
O O13 0.150943 0.949717 0.876217
O O14 0.748508 0.605803 0.122819
O O15 0.000000 0.587569 0.175472
O O16 0.500000 0.886238 0.442258
O O17 0.000000 0.338929 0.577572
#
# Coordination Sequence:
#
# PCOD9342962 Si02
#       7
#     4   4   4   4   4   4   4
#     4   9  19  34  55  79 106 145 187 228 279 334
#     4  10  19  35  56  83 112 148 183 230 281 341
#     4  10  21  39  60  83 114 151 191 232 280 337
#     4  10  21  35  54  85 116 143 182 233 279 328
#     4   9  20  39  59  80 111 149 189 234 280 333
#     4  10  20  34  54  81 114 145 181 227 277 334
#     4  10  20  36  62  87 109 147 193 234 280 337
#
# _framework density 18.203036999999998
#
# number of rings (size 3 to 8) (size 9 to 14) (size 15 to 20)
#    0.000    2.286    1.429    0.857    0.000    9.143 
#    2.571    0.000    0.000    0.000    0.000    0.000 
#    0.000    0.000    0.000    0.000    0.000    0.000 
#
# Total GULP energy -156170.342349 kJ/mol
# GULP energy per Si atom -5577.512227 kJ/mol
# Density = 1.816161 g / cm^3
# Si number density = 18.203037 Si / 1000 Ang^3
#
#
#
# Elastic Constant Matrix: (Units=GPa)
#
#
# Indices 1 2 3 4 5 6 
#
# 1 119.6694 56.0255 25.1040 0.0000 0.0000 0.0000
# 2 56.0255 62.6581 20.5527 0.0000 0.0000 0.0000
# 3 25.1040 20.5527 45.8665 0.0000 0.0000 0.0000
# 4 0.0000 0.0000 0.0000 15.3423 0.0000 0.0000
# 5 0.0000 0.0000 0.0000 0.0000 18.5006 0.0000
# 6 0.0000 0.0000 0.0000 0.0000 0.0000 18.3627
#
#
#
# Elastic Compliance Matrix: (Units=1/GPa)
#
#
# Indices 1 2 3 4 5 6 
#
# 1 0.014616 -0.012245 -0.002513 0.000000 0.000000 0.000000
# 2 -0.012245 0.028968 -0.006278 0.000000 0.000000 0.000000
# 3 -0.002513 -0.006278 0.025991 0.000000 0.000000 0.000000
# 4 0.000000 0.000000 0.000000 0.065179 0.000000 0.000000
# 5 0.000000 0.000000 0.000000 0.000000 0.054052 0.000000
# 6 0.000000 0.000000 0.000000 0.000000 0.000000 0.054458
#
#
# Mechanical properties :
#
#
# Convention : Reuss Voigt Hill
#
# Bulk Modulus (GPa) = 36.36013 47.95093 42.15553
# Shear Modulus (GPa) = 16.97769 18.87525 17.92647
#
# Velocity S-wave (km/s) = 3.05730 3.22363 3.14157
# Velocity P-wave (km/s) = 5.69920 6.34470 6.03059
#
# Compressibility (1/GPa) = 0.02750265
#
# Stress axis : x y z
#
# Youngs Moduli (GPa) = 68.41783 34.52138 38.47452
#
# Poissons Ratio (x) = 0.42270 0.09669
# Poissons Ratio (y) = 0.83775 0.24156
# Poissons Ratio (z) = 0.17193 0.21674
#
# Static dielectric constant tensor:
#      x y z
#    x 1.632870 0.000000 0.000000 
#    y 0.000000 1.602400 0.000000 
#    z 0.000000 0.000000 1.630290 
# 
# From -- ./inp_files/4025.got.cif
#   From: 2010.05.17/outbox.cif.g08.bks.cpg/sg31_3_cif.got.tgz:4025.got - 2010.06.03 17:08:30.
