data_PCOD9342882
_publ_section_title
;
Structure prediction by ZEFSAII (Michael W. Deem and Ramdas Pophale) SiO2 
 PCOD9342882
Probable space group: P M N 21
;
_chemical_formula_sum "Si O2"
_cell_formula_units_Z 24
_cell_length_a 7.831971
_cell_length_b 27.505410
_cell_length_c 5.256465
_cell_angle_alpha 90.000000
_cell_angle_beta 90.000000
_cell_angle_gamma 90.000000
_cell_volume 1132.355961
_symmetry_space_group_name_H-M "P M N 21"
_symmetry_group_IT_number 31
_symmetry_cell_setting 'orthorhombic'
loop_
_space_group_symop_operation_xyz
x,y,z
1/2-x,-y,1/2+z
-x,y,z
1/2+x,-y,1/2+z
loop_
_atom_site_type_symbol
_atom_site_label
_atom_site_fract_x
_atom_site_fract_y
_atom_site_fract_z
Si Si1 0.199364 0.528237 0.543200
Si Si2 0.705829 0.135789 0.129210
Si Si3 0.806224 0.026310 0.996101
Si Si4 0.708722 0.302857 0.569808
Si Si5 0.209204 0.808513 0.128237
Si Si6 0.208954 0.639126 0.571827
O O1 0.283316 0.499225 0.311241
O O2 0.266316 0.583250 0.570303
O O3 0.000000 0.531560 0.475722
O O4 0.500000 0.137984 0.133487
O O5 0.754262 0.080465 0.075745
O O6 0.766137 0.156885 0.398128
O O7 0.765149 0.169751 0.897372
O O8 0.000000 0.026398 0.907425
O O9 0.792884 0.993727 0.250564
O O10 0.500000 0.302249 0.566601
O O11 0.763848 0.246900 0.583893
O O12 0.765592 0.330979 0.318195
O O13 0.761117 0.332746 0.818106
O O14 0.000000 0.808423 0.129451
O O15 0.000000 0.638509 0.577972
#
# Coordination Sequence:
#
# PCOD9342882 Si02
#       6
#     4   4   4   4   4   4
#     4  11  22  37  56  82 113 150 191 238 290 343
#     4  10  19  33  52  79 112 144 178 223 274 331
#     4  12  25  42  63  88 117 154 195 238 285 336
#     4   9  15  26  44  72 106 138 172 222 279 327
#     4   9  17  28  48  77 109 140 175 221 276 327
#     4   9  17  28  46  72 105 138 177 228 280 326
#
# _framework density 21.194751
#
# number of rings (size 3 to 8) (size 9 to 14) (size 15 to 20)
#    0.000    2.000    0.000    5.000    0.000    8.000 
#    0.000    0.000    0.000    0.000    0.000   23.333 
#    0.000    0.000    0.000    0.000    0.000    0.000 
#
# Total GULP energy -134154.338307 kJ/mol
# GULP energy per Si atom -5589.764096 kJ/mol
# Density = 2.114651 g / cm^3
# Si number density = 21.194751 Si / 1000 Ang^3
#
#
#
# Elastic Constant Matrix: (Units=GPa)
#
#
# Indices 1 2 3 4 5 6 
#
# 1 28.2292 -11.0141 -10.0147 0.0000 0.0000 0.0000
# 2 -11.0141 123.7940 32.6074 0.0000 0.0000 0.0000
# 3 -10.0147 32.6074 117.8773 0.0000 0.0000 0.0000
# 4 0.0000 0.0000 0.0000 25.3058 0.0000 0.0000
# 5 0.0000 0.0000 0.0000 0.0000 10.8758 0.0000
# 6 0.0000 0.0000 0.0000 0.0000 0.0000 -111.5390
#
#
#
# Elastic Compliance Matrix: (Units=1/GPa)
#
#
# Indices 1 2 3 4 5 6 
#
# 1 0.037333 0.002681 0.002430 0.000000 0.000000 0.000000
# 2 0.002681 0.008905 -0.002236 0.000000 0.000000 0.000000
# 3 0.002430 -0.002236 0.009308 0.000000 0.000000 0.000000
# 4 0.000000 0.000000 0.000000 0.039517 0.000000 0.000000
# 5 0.000000 0.000000 0.000000 0.000000 0.091947 0.000000
# 6 0.000000 0.000000 0.000000 0.000000 0.000000 -0.008965
#
#
# Mechanical properties :
#
#
# Convention : Reuss Voigt Hill
#
# Bulk Modulus (GPa) = 16.31378 32.56197 24.43788
# Shear Modulus (GPa) = 25.94368 2.15000 14.04684
#
# Velocity S-wave (km/s) = 3.50245 1.00827 2.57719
# Velocity P-wave (km/s) = 4.90612 4.09293 4.51786
#
# Compressibility (1/GPa) = 0.06129788
#
# Stress axis : x y z
#
# Youngs Moduli (GPa) = 26.78626 112.29180 107.43142
#
# Poissons Ratio (x) = -0.30111 -0.26106
# Poissons Ratio (y) = -0.07183 0.24017
# Poissons Ratio (z) = -0.06509 0.25104
#
# Static dielectric constant tensor:
#      x y z
#    x 1.789660 0.000000 0.000000 
#    y 0.000000 1.755340 0.000000 
#    z 0.000000 0.000000 1.713200 
# 
# From -- ./inp_files/144.got.cif
#   From: 2010.05.17/outbox.cif.g08.bks.cpg/sg31_1_cif.got.tgz:144.got - 2010.06.03 17:08:30.
