data_PCOD9342416
_publ_section_title
;
Structure prediction by ZEFSAII (Michael W. Deem and Ramdas Pophale) SiO2 
 PCOD9342416
Probable space group: P N C 2
;
_chemical_formula_sum "Si O2"
_cell_formula_units_Z 32
_cell_length_a 5.128081
_cell_length_b 28.232283
_cell_length_c 9.319881
_cell_angle_alpha 90.000000
_cell_angle_beta 90.000000
_cell_angle_gamma 90.000000
_cell_volume 1349.308457
_symmetry_space_group_name_H-M "P N C 2"
_symmetry_group_IT_number 30
_symmetry_cell_setting 'orthorhombic'
loop_
_space_group_symop_operation_xyz
x,y,z
-x,-y,z
-x,1/2+y,1/2+z
x,1/2-y,1/2+z
loop_
_atom_site_type_symbol
_atom_site_label
_atom_site_fract_x
_atom_site_fract_y
_atom_site_fract_z
Si Si1 0.551393 0.819465 0.143240
Si Si2 0.772835 0.629524 0.901337
Si Si3 0.745694 0.533842 0.733760
Si Si4 0.038912 0.116042 0.707318
Si Si5 0.802927 0.772865 0.505643
Si Si6 0.532341 0.158987 0.837401
Si Si7 0.751652 0.966961 0.903237
Si Si8 0.838323 0.249390 0.750052
O O1 0.757802 0.846212 0.242981
O O2 0.654619 0.770512 0.076153
O O3 0.299080 0.800083 0.227020
O O4 0.473796 0.850623 0.006906
O O5 0.708117 0.576411 0.847637
O O6 0.920452 0.743189 0.854939
O O7 0.654741 0.677297 0.982329
O O8 0.500000 0.500000 0.746494
O O9 0.742843 0.552300 0.567744
O O10 0.000000 0.500000 0.755295
O O11 0.031651 0.117488 0.533953
O O12 0.243416 0.154399 0.772949
O O13 0.749101 0.125024 0.766158
O O14 0.180074 0.070428 0.778411
O O15 0.060819 0.774896 0.604692
O O16 0.640506 0.211851 0.816709
O O17 0.500000 0.000000 0.876999
O O18 0.000000 0.000000 0.905595
#
# Coordination Sequence:
#
# PCOD9342416 Si02
#       8
#     4   4   4   4   4   4   4   4
#     4  12  27  45  70 105 151 204 261 310 381 474
#     4  12  27  46  75 111 154 203 259 325 399 449
#     4  10  25  49  75 107 148 197 257 321 388 470
#     4  12  27  44  72 109 143 187 252 315 380 463
#     4  12  25  47  68 107 153 205 256 320 376 463
#     4  12  26  45  67  98 146 194 245 303 371 453
#     4  10  22  46  76 103 140 188 242 316 396 465
#     4  12  25  42  71  96 146 202 253 310 377 443
#
# _framework density 23.715852999999999
#
# number of rings (size 3 to 8) (size 9 to 14) (size 15 to 20)
#    0.000    0.500    3.750    3.750    1.750    6.000 
#    0.000    0.000    0.000    0.000    0.000    0.000 
#    0.000    0.000    0.000    0.000    0.000    0.000 
#
# Total GULP energy -178313.578279 kJ/mol
# GULP energy per Si atom -5572.299321 kJ/mol
# Density = 2.366188 g / cm^3
# Si number density = 23.715853 Si / 1000 Ang^3
#
#
#
# Elastic Constant Matrix: (Units=GPa)
#
#
# Indices 1 2 3 4 5 6 
#
# 1 105.0375 35.4531 15.7082 0.0000 0.0000 0.0000
# 2 35.4531 112.3623 47.5356 0.0000 0.0000 0.0000
# 3 15.7082 47.5356 129.3895 0.0000 0.0000 0.0000
# 4 0.0000 0.0000 0.0000 29.4265 0.0000 0.0000
# 5 0.0000 0.0000 0.0000 0.0000 22.2441 0.0000
# 6 0.0000 0.0000 0.0000 0.0000 0.0000 19.5796
#
#
#
# Elastic Compliance Matrix: (Units=1/GPa)
#
#
# Indices 1 2 3 4 5 6 
#
# 1 0.010656 -0.003333 -0.000069 0.000000 0.000000 0.000000
# 2 -0.003333 0.011580 -0.003850 0.000000 0.000000 0.000000
# 3 -0.000069 -0.003850 0.009151 0.000000 0.000000 0.000000
# 4 0.000000 0.000000 0.000000 0.033983 0.000000 0.000000
# 5 0.000000 0.000000 0.000000 0.000000 0.044956 0.000000
# 6 0.000000 0.000000 0.000000 0.000000 0.000000 0.051074
#
#
# Mechanical properties :
#
#
# Convention : Reuss Voigt Hill
#
# Bulk Modulus (GPa) = 59.22930 60.46480 59.84705
# Shear Modulus (GPa) = 27.54355 30.78952 29.16654
#
# Velocity S-wave (km/s) = 3.41163 3.60706 3.51070
# Velocity P-wave (km/s) = 6.36771 6.54971 6.45935
#
# Compressibility (1/GPa) = 0.01688353
#
# Stress axis : x y z
#
# Youngs Moduli (GPa) = 93.84662 86.35560 109.27387
#
# Poissons Ratio (x) = 0.28781 0.00756
# Poissons Ratio (y) = 0.31278 0.42067
# Poissons Ratio (z) = 0.00649 0.33244
#
# Static dielectric constant tensor:
#      x y z
#    x 2.202360 0.000000 0.000000 
#    y 0.000000 2.061280 0.000000 
#    z 0.000000 0.000000 1.983680 
# 
# From -- ./inp_files/3298.got.cif
#   From: 2010.05.17/outbox.cif.g08.bks.cpg/sg30_2_cif.got.tgz:3298.got - 2010.06.03 17:03:02.
