data_PCOD9342068
_publ_section_title
;
Structure prediction by ZEFSAII (Michael W. Deem and Ramdas Pophale) SiO2 
 PCOD9342068
Probable space group: P N C 2
;
_chemical_formula_sum "Si O2"
_cell_formula_units_Z 30
_cell_length_a 7.425512
_cell_length_b 12.292940
_cell_length_c 14.942346
_cell_angle_alpha 90.000000
_cell_angle_beta 90.000000
_cell_angle_gamma 90.000000
_cell_volume 1363.957866
_symmetry_space_group_name_H-M "P N C 2"
_symmetry_group_IT_number 30
_symmetry_cell_setting 'orthorhombic'
loop_
_space_group_symop_operation_xyz
x,y,z
-x,-y,z
-x,1/2+y,1/2+z
x,1/2-y,1/2+z
loop_
_atom_site_type_symbol
_atom_site_label
_atom_site_fract_x
_atom_site_fract_y
_atom_site_fract_z
Si Si1 0.544243 0.838957 0.657220
Si Si2 0.121682 0.290363 0.863093
Si Si3 0.000000 0.000000 0.022564
Si Si4 0.178744 0.829919 0.588939
Si Si5 0.853260 0.689205 0.652450
Si Si6 0.771376 0.179298 0.934913
Si Si7 0.312378 0.466043 0.984288
Si Si8 0.579883 0.615365 0.353483
O O1 0.328641 0.843086 0.665272
O O2 0.644733 0.723947 0.646437
O O3 0.608005 0.902319 0.569861
O O4 0.616790 0.893014 0.747723
O O5 0.117959 0.323363 0.758768
O O6 0.196163 0.388810 0.921929
O O7 0.249679 0.185513 0.885294
O O8 0.925848 0.251910 0.891309
O O9 0.092459 0.089325 0.088370
O O10 0.858247 0.062205 0.958460
O O11 0.263202 0.732147 0.531102
O O12 0.983825 0.789888 0.621072
O O13 0.196098 0.935516 0.526142
O O14 0.594053 0.187521 0.876212
O O15 0.500000 0.500000 0.935829
O O16 0.500000 0.500000 0.386671
#
# Coordination Sequence:
#
# PCOD9342068 Si02
#       8
#     4   4   2   4   4   4   4   4
#     4  10  21  38  59  87 119 153 200 255 308 370
#     4  11  24  41  62  93 128 161 210 272 320 380
#     4  10  22  42  60  88 126 166 210 256 318 388
#     4  10  21  38  61  86 116 160 205 249 309 380
#     4  10  23  41  62  87 124 164 207 262 320 380
#     4  11  23  38  61  88 120 161 206 254 311 379
#     4  10  20  38  63  90 122 160 208 261 320 384
#     4  11  22  38  61  88 121 161 205 258 315 374
#
# _framework density 21.994814999999999
#
# number of rings (size 3 to 8) (size 9 to 14) (size 15 to 20)
#    0.000    1.600    0.000    6.000    0.000    4.267 
#    0.000   10.000    0.000    0.000    0.000    0.000 
#    0.000    0.000    0.000    0.000    0.000    0.000 
#
# Total GULP energy -167406.582258 kJ/mol
# GULP energy per Si atom -5580.219409 kJ/mol
# Density = 2.194475 g / cm^3
# Si number density = 21.994815 Si / 1000 Ang^3
#
#
#
# Elastic Constant Matrix: (Units=GPa)
#
#
# Indices 1 2 3 4 5 6 
#
# 1 82.7017 -11.1477 2.3357 0.0000 0.0000 0.0000
# 2 -11.1477 32.1793 -10.5862 0.0000 0.0000 0.0000
# 3 2.3357 -10.5862 60.2880 0.0000 0.0000 0.0000
# 4 0.0000 0.0000 0.0000 14.1451 0.0000 0.0000
# 5 0.0000 0.0000 0.0000 0.0000 35.0568 0.0000
# 6 0.0000 0.0000 0.0000 0.0000 0.0000 29.4427
#
#
#
# Elastic Compliance Matrix: (Units=1/GPa)
#
#
# Indices 1 2 3 4 5 6 
#
# 1 0.012689 0.004494 0.000297 0.000000 0.000000 0.000000
# 2 0.004494 0.034572 0.005897 0.000000 0.000000 0.000000
# 3 0.000297 0.005897 0.017611 0.000000 0.000000 0.000000
# 4 0.000000 0.000000 0.000000 0.070696 0.000000 0.000000
# 5 0.000000 0.000000 0.000000 0.000000 0.028525 0.000000
# 6 0.000000 0.000000 0.000000 0.000000 0.000000 0.033964
#
#
# Mechanical properties :
#
#
# Convention : Reuss Voigt Hill
#
# Bulk Modulus (GPa) = 11.59451 15.15252 13.37352
# Shear Modulus (GPa) = 24.33904 28.70007 26.51955
#
# Velocity S-wave (km/s) = 3.33014 3.61620 3.47611
# Velocity P-wave (km/s) = 4.47988 4.93355 4.71218
#
# Compressibility (1/GPa) = 0.08624769
#
# Stress axis : x y z
#
# Youngs Moduli (GPa) = 78.80868 28.92477 56.78293
#
# Poissons Ratio (x) = -0.12998 -0.01689
# Poissons Ratio (y) = -0.35414 -0.33483
# Poissons Ratio (z) = -0.02344 -0.17056
#
# Static dielectric constant tensor:
#      x y z
#    x 1.865960 0.000000 0.000000 
#    y 0.000000 1.880790 0.000000 
#    z 0.000000 0.000000 1.812500 
# 
# From -- ./inp_files/5181.got.cif
#   From: 2010.05.17/outbox.cif.g08.bks.cpg/sg30_3_cif.got.tgz:5181.got - 2010.06.03 17:03:02.
