data_PCOD9342640
_publ_section_title
;
Structure prediction by ZEFSAII (Michael W. Deem and Ramdas Pophale) SiO2 
 PCOD9342640
Probable space group: P N C 2
;
_chemical_formula_sum "Si O2"
_cell_formula_units_Z 20
_cell_length_a 4.725786
_cell_length_b 13.086840
_cell_length_c 12.990465
_cell_angle_alpha 90.000000
_cell_angle_beta 90.000000
_cell_angle_gamma 90.000000
_cell_volume 803.403170
_symmetry_space_group_name_H-M "P N C 2"
_symmetry_group_IT_number 30
_symmetry_cell_setting 'orthorhombic'
loop_
_space_group_symop_operation_xyz
x,y,z
-x,-y,z
-x,1/2+y,1/2+z
x,1/2-y,1/2+z
loop_
_atom_site_type_symbol
_atom_site_label
_atom_site_fract_x
_atom_site_fract_y
_atom_site_fract_z
Si Si1 0.711023 0.714821 0.098070
Si Si2 0.000000 0.000000 0.797315
Si Si3 0.500000 0.000000 0.048438
Si Si4 0.221926 0.716011 0.737379
Si Si5 0.000000 0.000000 0.200343
Si Si6 0.500000 0.500000 0.150216
Si Si7 0.395188 0.168793 0.904793
O O1 0.628442 0.595704 0.090917
O O2 0.947102 0.732346 0.185194
O O3 0.753100 0.966776 0.122218
O O4 0.766885 0.757983 0.984913
O O5 0.164404 0.091561 0.855103
O O6 0.748831 0.041002 0.723922
O O7 0.877648 0.099031 0.259019
O O8 0.415562 0.909075 0.971990
O O9 0.441971 0.725470 0.643712
O O10 0.399959 0.766314 0.830571
#
# Coordination Sequence:
#
# PCOD9342640 Si02
#       7
#     4   2   2   4   2   2   4
#     4  12  28  50  77 117 167 213 277 349 429 498
#     4  12  27  48  85 124 148 212 299 348 413 504
#     4  12  25  44  79 116 156 208 289 342 415 494
#     4  12  27  49  79 122 164 218 276 353 422 507
#     4  12  23  52  75 122 166 216 265 348 421 516
#     4  12  27  52  79 112 162 218 269 352 423 518
#     4  12  28  50  86 123 167 217 288 359 424 511
#
# _framework density 24.894099000000001
#
# number of rings (size 3 to 8) (size 9 to 14) (size 15 to 20)
#    0.000    0.000    6.000    2.400    2.800    4.800 
#    0.000    6.000    0.000    0.000    0.000    0.000 
#    0.000    0.000    0.000    0.000    0.000    0.000 
#
# Total GULP energy -111910.086649 kJ/mol
# GULP energy per Si atom -5595.504332 kJ/mol
# Density = 2.483744 g / cm^3
# Si number density = 24.894099 Si / 1000 Ang^3
#
#
#
# Elastic Constant Matrix: (Units=GPa)
#
#
# Indices 1 2 3 4 5 6 
#
# 1 142.7576 61.1747 27.6201 0.0000 0.0000 0.0000
# 2 61.1747 223.7928 94.6966 0.0000 0.0000 0.0000
# 3 27.6201 94.6966 108.6688 0.0000 0.0000 0.0000
# 4 0.0000 0.0000 0.0000 30.6211 0.0000 0.0000
# 5 0.0000 0.0000 0.0000 0.0000 19.6596 0.0000
# 6 0.0000 0.0000 0.0000 0.0000 0.0000 54.6384
#
#
#
# Elastic Compliance Matrix: (Units=1/GPa)
#
#
# Indices 1 2 3 4 5 6 
#
# 1 0.007937 -0.002085 -0.000201 0.000000 0.000000 0.000000
# 2 -0.002085 0.007626 -0.006116 0.000000 0.000000 0.000000
# 3 -0.000201 -0.006116 0.014583 0.000000 0.000000 0.000000
# 4 0.000000 0.000000 0.000000 0.032657 0.000000 0.000000
# 5 0.000000 0.000000 0.000000 0.000000 0.050866 0.000000
# 6 0.000000 0.000000 0.000000 0.000000 0.000000 0.018302
#
#
# Mechanical properties :
#
#
# Convention : Reuss Voigt Hill
#
# Bulk Modulus (GPa) = 74.94218 93.57800 84.26009
# Shear Modulus (GPa) = 32.63260 40.43234 36.53247
#
# Velocity S-wave (km/s) = 3.62450 4.03448 3.83497
# Velocity P-wave (km/s) = 6.90549 7.70550 7.31644
#
# Compressibility (1/GPa) = 0.01334362
#
# Stress axis : x y z
#
# Youngs Moduli (GPa) = 125.99140 131.12853 68.57466
#
# Poissons Ratio (x) = 0.27336 0.01376
# Poissons Ratio (y) = 0.26266 0.41938
# Poissons Ratio (z) = 0.02528 0.80194
#
# Static dielectric constant tensor:
#      x y z
#    x 2.073060 0.000000 0.000000 
#    y 0.000000 2.139840 0.000000 
#    z 0.000000 0.000000 1.987790 
# 
# From -- ./inp_files/4610.got.cif
#   From: 2010.05.17/outbox.cif.g08.bks.cpg/sg30_3_cif.got.tgz:4610.got - 2010.06.03 17:03:02.
