data_PCOD9342809
_publ_section_title
;
Structure prediction by ZEFSAII (Michael W. Deem and Ramdas Pophale) SiO2 
 PCOD9342809
Probable space group: P M N 21
;
_chemical_formula_sum "Si O2"
_cell_formula_units_Z 32
_cell_length_a 7.458911
_cell_length_b 11.833824
_cell_length_c 16.571231
_cell_angle_alpha 90.000000
_cell_angle_beta 90.000000
_cell_angle_gamma 90.000000
_cell_volume 1462.700138
_symmetry_space_group_name_H-M "P M N 21"
_symmetry_group_IT_number 31
_symmetry_cell_setting 'orthorhombic'
loop_
_space_group_symop_operation_xyz
x,y,z
1/2-x,-y,1/2+z
-x,y,z
1/2+x,-y,1/2+z
loop_
_atom_site_type_symbol
_atom_site_label
_atom_site_fract_x
_atom_site_fract_y
_atom_site_fract_z
Si Si1 0.215028 0.021910 0.361070
Si Si2 0.719804 0.072623 0.036003
Si Si3 0.280195 0.560838 0.984518
Si Si4 0.219067 0.276781 0.341734
Si Si5 0.215587 0.339323 0.656485
Si Si6 0.700937 0.327505 0.023012
Si Si7 0.285739 0.914777 0.186329
Si Si8 0.710994 0.577889 0.692256
O O1 0.281906 0.149321 0.349623
O O2 0.000000 0.025038 0.367325
O O3 0.275800 0.975593 0.448329
O O4 0.253977 0.955889 0.277937
O O5 0.500000 0.071995 0.039375
O O6 0.780507 0.203622 0.036021
O O7 0.779329 0.999173 0.114350
O O8 0.500000 0.556210 0.985086
O O9 0.222804 0.617614 0.068584
O O10 0.216037 0.431590 0.973237
O O11 0.224333 0.644568 0.914823
O O12 0.275452 0.338272 0.260696
O O13 0.000000 0.274539 0.341862
O O14 0.282341 0.213916 0.675891
O O15 0.264049 0.445765 0.712745
O O16 0.000000 0.333617 0.654840
O O17 0.500000 0.307981 0.990611
O O18 0.693121 0.387034 0.110250
O O19 0.500000 0.910779 0.175714
O O20 0.500000 0.596234 0.678989
#
# Coordination Sequence:
#
# PCOD9342809 Si02
#       8
#     4   4   4   4   4   4   4   4
#     4  10  20  34  53  78 104 133 175 219 255 303
#     4   9  18  33  55  79 103 137 178 214 251 308
#     4   8  14  27  48  69  89 120 162 201 234 281
#     4   9  17  29  47  72  99 125 157 201 251 295
#     4   9  18  33  52  71  94 129 169 205 246 298
#     4   9  17  31  51  73  97 128 166 203 243 295
#     4  10  20  35  54  76 105 140 174 212 262 315
#     4  10  19  30  48  74 101 128 159 203 256 303
#
# _framework density 21.877348000000001
#
# number of rings (size 3 to 8) (size 9 to 14) (size 15 to 20)
#    0.000    2.750    0.000    2.625    0.000    4.500 
#    0.000    4.375    0.000   13.500    0.000    0.000 
#    0.000    0.000    0.000    0.000    0.000    0.000 
#
# Total GULP energy -178441.231547 kJ/mol
# GULP energy per Si atom -5576.288486 kJ/mol
# Density = 2.182755 g / cm^3
# Si number density = 21.877348 Si / 1000 Ang^3
#
#
#
# Elastic Constant Matrix: (Units=GPa)
#
#
# Indices 1 2 3 4 5 6 
#
# 1 69.2719 -0.1228 -4.8238 0.0000 0.0000 0.0000
# 2 -0.1228 184.0650 50.7514 0.0000 0.0000 0.0000
# 3 -4.8238 50.7514 82.5821 0.0000 0.0000 0.0000
# 4 0.0000 0.0000 0.0000 38.4324 0.0000 0.0000
# 5 0.0000 0.0000 0.0000 0.0000 14.9329 0.0000
# 6 0.0000 0.0000 0.0000 0.0000 0.0000 9.4561
#
#
#
# Elastic Compliance Matrix: (Units=1/GPa)
#
#
# Indices 1 2 3 4 5 6 
#
# 1 0.014506 -0.000270 0.001013 0.000000 0.000000 0.000000
# 2 -0.000270 0.006546 -0.004039 0.000000 0.000000 0.000000
# 3 0.001013 -0.004039 0.014650 0.000000 0.000000 0.000000
# 4 0.000000 0.000000 0.000000 0.026020 0.000000 0.000000
# 5 0.000000 0.000000 0.000000 0.000000 0.066966 0.000000
# 6 0.000000 0.000000 0.000000 0.000000 0.000000 0.105751
#
#
# Mechanical properties :
#
#
# Convention : Reuss Voigt Hill
#
# Bulk Modulus (GPa) = 34.35032 47.50317 40.92674
# Shear Modulus (GPa) = 19.94141 31.90525 25.92333
#
# Velocity S-wave (km/s) = 3.02240 3.82300 3.44603
# Velocity P-wave (km/s) = 5.28349 6.42244 5.88060
#
# Compressibility (1/GPa) = 0.02911181
#
# Stress axis : x y z
#
# Youngs Moduli (GPa) = 68.93729 152.75834 68.25741
#
# Poissons Ratio (x) = 0.04119 -0.06915
# Poissons Ratio (y) = 0.01859 0.27568
# Poissons Ratio (z) = -0.06984 0.61696
#
# Static dielectric constant tensor:
#      x y z
#    x 1.901760 0.000000 0.000000 
#    y 0.000000 1.804680 0.000000 
#    z 0.000000 0.000000 1.778500 
# 
# From -- ./inp_files/5905.got.cif
#   From: 2010.05.17/outbox.cif.g08.bks.cpg/sg31_3_cif.got.tgz:5905.got - 2010.06.03 17:08:30.
