data_PCOD9342049
_publ_section_title
;
Structure prediction by ZEFSAII (Michael W. Deem and Ramdas Pophale) SiO2 
 PCOD9342049
Probable space group: P N C 2
;
_chemical_formula_sum "Si O2"
_cell_formula_units_Z 20
_cell_length_a 10.826299
_cell_length_b 14.082303
_cell_length_c 5.407252
_cell_angle_alpha 90.000000
_cell_angle_beta 90.000000
_cell_angle_gamma 90.000000
_cell_volume 824.385438
_symmetry_space_group_name_H-M "P N C 2"
_symmetry_group_IT_number 30
_symmetry_cell_setting 'orthorhombic'
loop_
_space_group_symop_operation_xyz
x,y,z
-x,-y,z
-x,1/2+y,1/2+z
x,1/2-y,1/2+z
loop_
_atom_site_type_symbol
_atom_site_label
_atom_site_fract_x
_atom_site_fract_y
_atom_site_fract_z
Si Si1 0.249997 0.826740 0.414370
Si Si2 0.522488 0.793886 0.461439
Si Si3 0.500000 0.500000 0.193090
Si Si4 0.000000 0.500000 0.635662
Si Si5 0.249998 0.552767 0.414370
Si Si6 0.022491 0.206115 0.367305
O O1 0.376460 0.768587 0.438052
O O2 0.237430 0.891046 0.656835
O O3 0.123537 0.768584 0.390692
O O4 0.262563 0.891043 0.171901
O O5 0.576171 0.762721 0.197233
O O6 0.517142 0.905431 0.527126
O O7 0.379248 0.500795 0.366031
O O8 0.879248 0.499209 0.462719
O O9 0.017140 0.405431 0.801628
O O10 0.076176 0.237281 0.631508
#
# Coordination Sequence:
#
# PCOD9342049 Si02
#       6
#     4   4   2   2   4   4
#     4  10  20  37  62  95 122 156 210 269 312 357
#     4  11  22  37  62  92 124 163 206 255 311 367
#     4  10  24  44  62  94 128 164 208 260 308 370
#     4  10  24  44  62  94 128 164 208 260 308 370
#     4  10  22  39  66  89 126 168 204 253 314 365
#     4  11  22  37  62  92 124 163 206 255 311 367
#
# _framework density 24.260497000000001
#
# number of rings (size 3 to 8) (size 9 to 14) (size 15 to 20)
#    0.000    1.600    0.000    6.000    0.000   16.000 
#    0.000    2.000    0.000    0.000    0.000    0.000 
#    0.000    0.000    0.000    0.000    0.000    0.000 
#
# Total GULP energy -111739.026707 kJ/mol
# GULP energy per Si atom -5586.951335 kJ/mol
# Density = 2.420528 g / cm^3
# Si number density = 24.260497 Si / 1000 Ang^3
#
#
#
# Elastic Constant Matrix: (Units=GPa)
#
#
# Indices 1 2 3 4 5 6 
#
# 1 85.6763 3.5623 25.9175 0.0000 0.0000 0.0000
# 2 3.5623 93.2512 60.1768 0.0000 0.0000 0.0000
# 3 25.9175 60.1768 228.1302 0.0000 0.0000 0.0000
# 4 0.0000 0.0000 0.0000 57.1464 0.0000 0.0000
# 5 0.0000 0.0000 0.0000 0.0000 24.3147 0.0000
# 6 0.0000 0.0000 0.0000 0.0000 0.0000 30.6360
#
#
#
# Elastic Compliance Matrix: (Units=1/GPa)
#
#
# Indices 1 2 3 4 5 6 
#
# 1 0.012108 0.000512 -0.001511 0.000000 0.000000 0.000000
# 2 0.000512 0.012945 -0.003473 0.000000 0.000000 0.000000
# 3 -0.001511 -0.003473 0.005471 0.000000 0.000000 0.000000
# 4 0.000000 0.000000 0.000000 0.017499 0.000000 0.000000
# 5 0.000000 0.000000 0.000000 0.000000 0.041127 0.000000
# 6 0.000000 0.000000 0.000000 0.000000 0.000000 0.032641
#
#
# Mechanical properties :
#
#
# Convention : Reuss Voigt Hill
#
# Bulk Modulus (GPa) = 46.33607 65.15233 55.74420
# Shear Modulus (GPa) = 36.25077 43.57948 39.91513
#
# Velocity S-wave (km/s) = 3.86972 4.24289 4.06060
# Velocity P-wave (km/s) = 6.25357 7.13558 6.70909
#
# Compressibility (1/GPa) = 0.02158146
#
# Stress axis : x y z
#
# Youngs Moduli (GPa) = 82.59334 77.24804 182.77550
#
# Poissons Ratio (x) = -0.03958 0.27611
# Poissons Ratio (y) = -0.04232 0.63477
# Poissons Ratio (z) = 0.12477 0.26828
#
# Static dielectric constant tensor:
#      x y z
#    x 1.947530 0.000000 0.000000 
#    y 0.000000 1.974520 0.000000 
#    z 0.000000 0.000000 1.966040 
# 
# From -- ./inp_files/653.got.cif
#   From: 2010.05.17/outbox.cif.g08.bks.cpg/sg30_1_cif.got.tgz:653.got - 2010.06.03 17:03:02.
