data_PCOD9342352
_publ_section_title
;
Structure prediction by ZEFSAII (Michael W. Deem and Ramdas Pophale) SiO2 
 PCOD9342352
Probable space group: P N C 2
;
_chemical_formula_sum "Si O2"
_cell_formula_units_Z 20
_cell_length_a 9.838814
_cell_length_b 6.909156
_cell_length_c 14.540111
_cell_angle_alpha 90.000000
_cell_angle_beta 90.000000
_cell_angle_gamma 90.000000
_cell_volume 988.406223
_symmetry_space_group_name_H-M "P N C 2"
_symmetry_group_IT_number 30
_symmetry_cell_setting 'orthorhombic'
loop_
_space_group_symop_operation_xyz
x,y,z
-x,-y,z
-x,1/2+y,1/2+z
x,1/2-y,1/2+z
loop_
_atom_site_type_symbol
_atom_site_label
_atom_site_fract_x
_atom_site_fract_y
_atom_site_fract_z
Si Si1 0.664120 0.817599 0.981300
Si Si2 0.868438 0.367372 0.392603
Si Si3 0.851166 0.458936 0.041050
Si Si4 0.500000 0.000000 0.836926
Si Si5 0.500000 0.500000 0.645575
Si Si6 0.709388 0.296561 0.219041
O O1 0.755861 0.995521 0.942998
O O2 0.543469 0.821957 0.904173
O O3 0.762902 0.636073 0.999016
O O4 0.588348 0.865638 0.076725
O O5 0.886728 0.190485 0.461067
O O6 0.826202 0.275516 0.294886
O O7 0.000000 0.500000 0.381545
O O8 0.762851 0.358971 0.120298
O O9 0.000000 0.500000 0.083277
O O10 0.622432 0.036982 0.767928
O O11 0.392728 0.618713 0.705598
#
# Coordination Sequence:
#
# PCOD9342352 Si02
#       6
#     4   4   4   2   2   4
#     4  10  22  42  68  95 137 176 219 276 336 391
#     4  11  23  46  65  99 138 171 229 281 325 396
#     4  12  24  43  71  97 129 188 222 271 341 393
#     4   9  22  42  63 100 138 174 219 282 325 406
#     4  11  22  42  63 104 134 174 225 276 333 404
#     4  11  24  41  67 100 134 176 222 275 335 399
#
# _framework density 20.234594999999999
#
# number of rings (size 3 to 8) (size 9 to 14) (size 15 to 20)
#    0.000    1.200    4.000    1.800    2.800    0.000 
#    0.000    1.000    0.000    0.000    0.000    0.000 
#    0.000    0.000    0.000    0.000    0.000    0.000 
#
# Total GULP energy -111512.747953 kJ/mol
# GULP energy per Si atom -5575.637398 kJ/mol
# Density = 2.018854 g / cm^3
# Si number density = 20.234595 Si / 1000 Ang^3
#
#
#
# Elastic Constant Matrix: (Units=GPa)
#
#
# Indices 1 2 3 4 5 6 
#
# 1 103.6967 40.6290 33.7085 0.0000 0.0000 0.0000
# 2 40.6290 73.3415 35.9437 0.0000 0.0000 0.0000
# 3 33.7085 35.9437 101.5058 0.0000 0.0000 0.0000
# 4 0.0000 0.0000 0.0000 16.0472 0.0000 0.0000
# 5 0.0000 0.0000 0.0000 0.0000 25.9025 0.0000
# 6 0.0000 0.0000 0.0000 0.0000 0.0000 50.3989
#
#
#
# Elastic Compliance Matrix: (Units=1/GPa)
#
#
# Indices 1 2 3 4 5 6 
#
# 1 0.012671 -0.005998 -0.002084 0.000000 0.000000 0.000000
# 2 -0.005998 0.019337 -0.004856 0.000000 0.000000 0.000000
# 3 -0.002084 -0.004856 0.012263 0.000000 0.000000 0.000000
# 4 0.000000 0.000000 0.000000 0.062316 0.000000 0.000000
# 5 0.000000 0.000000 0.000000 0.000000 0.038606 0.000000
# 6 0.000000 0.000000 0.000000 0.000000 0.000000 0.019842
#
#
# Mechanical properties :
#
#
# Convention : Reuss Voigt Hill
#
# Bulk Modulus (GPa) = 54.35885 55.45628 54.90757
# Shear Modulus (GPa) = 25.37527 29.68727 27.53127
#
# Velocity S-wave (km/s) = 3.54510 3.83450 3.69264
# Velocity P-wave (km/s) = 6.60906 6.86081 6.73611
#
# Compressibility (1/GPa) = 0.01839627
#
# Stress axis : x y z
#
# Youngs Moduli (GPa) = 78.92050 51.71376 81.54571
#
# Poissons Ratio (x) = 0.31018 0.16993
# Poissons Ratio (y) = 0.47337 0.39595
# Poissons Ratio (z) = 0.16446 0.25110
#
# Static dielectric constant tensor:
#      x y z
#    x 1.791640 0.000000 0.000000 
#    y 0.000000 1.718340 0.000000 
#    z 0.000000 0.000000 1.705430 
# 
# From -- ./inp_files/5332.got.cif
#   From: 2010.05.17/outbox.cif.g08.bks.cpg/sg30_3_cif.got.tgz:5332.got - 2010.06.03 17:03:02.
