data_PCOD9342222
_publ_section_title
;
Structure prediction by ZEFSAII (Michael W. Deem and Ramdas Pophale) SiO2 
 PCOD9342222
Probable space group: P N C 2
;
_chemical_formula_sum "Si O2"
_cell_formula_units_Z 12
_cell_length_a 10.772021
_cell_length_b 7.863847
_cell_length_c 5.328217
_cell_angle_alpha 90.000000
_cell_angle_beta 90.000000
_cell_angle_gamma 90.000000
_cell_volume 451.350731
_symmetry_space_group_name_H-M "P N C 2"
_symmetry_group_IT_number 30
_symmetry_cell_setting 'orthorhombic'
loop_
_space_group_symop_operation_xyz
x,y,z
-x,-y,z
-x,1/2+y,1/2+z
x,1/2-y,1/2+z
loop_
_atom_site_type_symbol
_atom_site_label
_atom_site_fract_x
_atom_site_fract_y
_atom_site_fract_z
Si Si1 0.037355 0.804468 0.973720
Si Si2 0.389532 0.861644 0.670114
Si Si3 0.761032 0.832273 0.528677
O O1 0.103227 0.717875 0.739278
O O2 0.908336 0.699947 0.008421
O O3 0.000000 0.000000 0.940419
O O4 0.395451 0.731295 0.437667
O O5 0.500000 0.000000 0.649742
O O6 0.271536 0.984704 0.632856
O O7 0.712673 0.795319 0.247820
#
# Coordination Sequence:
#
# PCOD9342222 Si02
#       3
#     4   4   4
#     4  10  21  40  63  89 123 165 209 262 314 369
#     4  12  24  41  66  95 128 168 208 258 315 375
#     4  10  21  41  62  90 127 163 209 260 308 374
#
# _framework density 26.586863000000001
#
# number of rings (size 3 to 8) (size 9 to 14) (size 15 to 20)
#    0.000    1.333    0.000    6.000    0.000    0.000 
#    0.000   40.000    0.000    0.000    0.000    0.000 
#    0.000    0.000    0.000    0.000    0.000    0.000 
#
# Total GULP energy -67275.231334 kJ/mol
# GULP energy per Si atom -5606.269278 kJ/mol
# Density = 2.652635 g / cm^3
# Si number density = 26.586863 Si / 1000 Ang^3
#
#
#
# Elastic Constant Matrix: (Units=GPa)
#
#
# Indices 1 2 3 4 5 6 
#
# 1 59.3846 31.0794 -32.3823 0.0000 0.0000 0.0000
# 2 31.0794 144.5809 37.0850 0.0000 0.0000 0.0000
# 3 -32.3823 37.0850 212.5798 0.0000 0.0000 0.0000
# 4 0.0000 0.0000 0.0000 71.0469 0.0000 0.0000
# 5 0.0000 0.0000 0.0000 0.0000 15.3953 0.0000
# 6 0.0000 0.0000 0.0000 0.0000 0.0000 71.2661
#
#
#
# Elastic Compliance Matrix: (Units=1/GPa)
#
#
# Indices 1 2 3 4 5 6 
#
# 1 0.022379 -0.005951 0.004447 0.000000 0.000000 0.000000
# 2 -0.005951 0.008823 -0.002446 0.000000 0.000000 0.000000
# 3 0.004447 -0.002446 0.005808 0.000000 0.000000 0.000000
# 4 0.000000 0.000000 0.000000 0.014075 0.000000 0.000000
# 5 0.000000 0.000000 0.000000 0.000000 0.064955 0.000000
# 6 0.000000 0.000000 0.000000 0.000000 0.000000 0.014032
#
#
# Mechanical properties :
#
#
# Convention : Reuss Voigt Hill
#
# Bulk Modulus (GPa) = 34.35162 54.23441 44.29302
# Shear Modulus (GPa) = 33.85791 56.92587 45.39189
#
# Velocity S-wave (km/s) = 3.57246 4.63225 4.13644
# Velocity P-wave (km/s) = 5.47405 7.00383 6.28565
#
# Compressibility (1/GPa) = 0.02911071
#
# Stress axis : x y z
#
# Youngs Moduli (GPa) = 44.68447 113.33738 172.16918
#
# Poissons Ratio (x) = 0.67451 -0.76568
# Poissons Ratio (y) = 0.26593 0.42109
# Poissons Ratio (z) = -0.19872 0.27720
#
# Static dielectric constant tensor:
#      x y z
#    x 2.185290 0.000000 0.000000 
#    y 0.000000 1.993720 0.000000 
#    z 0.000000 0.000000 2.244500 
# 
# From -- ./inp_files/598.got.cif
#   From: 2010.05.17/outbox.cif.g08.bks.cpg/sg30_1_cif.got.tgz:598.got - 2010.06.03 17:03:02.
