data_PCOD9342101
_publ_section_title
;
Structure prediction by ZEFSAII (Michael W. Deem and Ramdas Pophale) SiO2 
 PCOD9342101
Probable space group: P N C 2
;
_chemical_formula_sum "Si O2"
_cell_formula_units_Z 20
_cell_length_a 12.604944
_cell_length_b 8.893321
_cell_length_c 8.092835
_cell_angle_alpha 90.000000
_cell_angle_beta 90.000000
_cell_angle_gamma 90.000000
_cell_volume 907.205292
_symmetry_space_group_name_H-M "P N C 2"
_symmetry_group_IT_number 30
_symmetry_cell_setting 'orthorhombic'
loop_
_space_group_symop_operation_xyz
x,y,z
-x,-y,z
-x,1/2+y,1/2+z
x,1/2-y,1/2+z
loop_
_atom_site_type_symbol
_atom_site_label
_atom_site_fract_x
_atom_site_fract_y
_atom_site_fract_z
Si Si1 0.175565 0.394721 0.334320
Si Si2 0.057044 0.142376 0.160177
Si Si3 0.134578 0.859940 0.574064
Si Si4 0.709615 0.342851 0.786913
Si Si5 0.380540 0.551317 0.460484
O O1 0.139858 0.230461 0.275123
O O2 0.119568 0.427451 0.507129
O O3 0.126037 0.500566 0.195154
O O4 0.297266 0.441022 0.366405
O O5 0.972504 0.260234 0.077833
O O6 0.000000 0.000000 0.245826
O O7 0.216347 0.750956 0.665311
O O8 0.202983 0.907475 0.414063
O O9 0.645204 0.445664 0.658097
O O10 0.638613 0.219076 0.884405
O O11 0.500000 0.500000 0.433130
#
# Coordination Sequence:
#
# PCOD9342101 Si02
#       5
#     4   4   4   4   4
#     4  11  26  41  62  95 130 178 230 263 325 413
#     4  12  23  38  61  95 137 171 209 272 334 401
#     4  10  20  40  64  90 125 172 217 259 321 402
#     4   9  19  38  67  92 122 169 224 277 331 394
#     4  10  22  43  66  94 130 172 229 293 341 386
#
# _framework density 22.045728
#
# number of rings (size 3 to 8) (size 9 to 14) (size 15 to 20)
#    0.000    1.600    0.000    6.600    0.000    6.400 
#    0.000    9.000    0.000    0.000    0.000    0.000 
#    0.000    0.000    0.000    0.000    0.000    0.000 
#
# Total GULP energy -111612.203691 kJ/mol
# GULP energy per Si atom -5580.610185 kJ/mol
# Density = 2.199555 g / cm^3
# Si number density = 22.045728 Si / 1000 Ang^3
#
#
#
# Elastic Constant Matrix: (Units=GPa)
#
#
# Indices 1 2 3 4 5 6 
#
# 1 174.2029 66.3787 42.2068 0.0000 0.0000 0.0000
# 2 66.3787 110.5274 37.8529 0.0000 0.0000 0.0000
# 3 42.2068 37.8529 85.5257 0.0000 0.0000 0.0000
# 4 0.0000 0.0000 0.0000 42.0394 0.0000 0.0000
# 5 0.0000 0.0000 0.0000 0.0000 32.1447 0.0000
# 6 0.0000 0.0000 0.0000 0.0000 0.0000 33.6398
#
#
#
# Elastic Compliance Matrix: (Units=1/GPa)
#
#
# Indices 1 2 3 4 5 6 
#
# 1 0.007745 -0.003940 -0.002079 0.000000 0.000000 0.000000
# 2 -0.003940 0.012668 -0.003662 0.000000 0.000000 0.000000
# 3 -0.002079 -0.003662 0.014339 0.000000 0.000000 0.000000
# 4 0.000000 0.000000 0.000000 0.023787 0.000000 0.000000
# 5 0.000000 0.000000 0.000000 0.000000 0.031109 0.000000
# 6 0.000000 0.000000 0.000000 0.000000 0.000000 0.029727
#
#
# Mechanical properties :
#
#
# Convention : Reuss Voigt Hill
#
# Bulk Modulus (GPa) = 64.97389 73.68143 69.32766
# Shear Modulus (GPa) = 34.75430 36.48595 35.62012
#
# Velocity S-wave (km/s) = 3.97478 4.07260 4.02399
# Velocity P-wave (km/s) = 7.11347 7.45717 7.28735
#
# Compressibility (1/GPa) = 0.01539080
#
# Stress axis : x y z
#
# Youngs Moduli (GPa) = 129.11208 78.94016 69.73916
#
# Poissons Ratio (x) = 0.31099 0.14496
# Poissons Ratio (y) = 0.50865 0.25542
# Poissons Ratio (z) = 0.26837 0.28912
#
# Static dielectric constant tensor:
#      x y z
#    x 1.806370 0.000000 0.000000 
#    y 0.000000 1.975050 0.000000 
#    z 0.000000 0.000000 1.881440 
# 
# From -- ./inp_files/2266.got.cif
#   From: 2010.05.17/outbox.cif.g08.bks.cpg/sg30_2_cif.got.tgz:2266.got - 2010.06.03 17:03:02.
