data_PCOD9342955
_publ_section_title
;
Structure prediction by ZEFSAII (Michael W. Deem and Ramdas Pophale) SiO2 
 PCOD9342955
Probable space group: P M N 21
;
_chemical_formula_sum "Si O2"
_cell_formula_units_Z 28
_cell_length_a 21.335132
_cell_length_b 12.738597
_cell_length_c 5.315245
_cell_angle_alpha 90.000000
_cell_angle_beta 90.000000
_cell_angle_gamma 90.000000
_cell_volume 1444.575418
_symmetry_space_group_name_H-M "P M N 21"
_symmetry_group_IT_number 31
_symmetry_cell_setting 'orthorhombic'
loop_
_space_group_symop_operation_xyz
x,y,z
1/2-x,-y,1/2+z
-x,y,z
1/2+x,-y,1/2+z
loop_
_atom_site_type_symbol
_atom_site_label
_atom_site_fract_x
_atom_site_fract_y
_atom_site_fract_z
Si Si1 0.789770 0.989467 0.511520
Si Si2 0.071774 0.558648 0.267968
Si Si3 0.850859 0.598465 0.762965
Si Si4 0.189335 0.369556 0.714513
Si Si5 0.930443 0.330875 0.073402
Si Si6 0.274876 0.233379 0.023271
Si Si7 0.154781 0.193746 0.324034
O O1 0.812616 0.871094 0.450980
O O2 0.736640 0.008129 0.296192
O O3 0.837419 0.086626 0.477458
O O4 0.100214 0.596129 0.530900
O O5 0.070842 0.431347 0.258470
O O6 0.000000 0.593829 0.236019
O O7 0.113852 0.590339 0.028324
O O8 0.807932 0.495343 0.709662
O O9 0.810722 0.703559 0.737859
O O10 0.175821 0.298522 0.472901
O O11 0.126697 0.350176 0.882474
O O12 0.253346 0.320888 0.824650
O O13 0.912505 0.223739 0.214873
O O14 0.000000 0.328406 0.959068
O O15 0.207316 0.188345 0.107482
#
# Coordination Sequence:
#
# PCOD9342955 Si02
#       7
#     4   4   4   4   4   4   4
#     4  10  20  36  56  79 108 147 185 222 268 332
#     4  10  21  38  56  80 110 147 192 234 275 336
#     4  11  23  34  57  83 114 149 184 227 290 338
#     4  10  20  33  51  81 114 148 178 232 281 336
#     4   9  19  34  53  80 110 143 187 234 285 332
#     4  10  23  34  54  83 119 149 185 225 284 345
#     4  10  19  35  54  80 111 145 185 232 277 329
#
# _framework density 19.382859
#
# number of rings (size 3 to 8) (size 9 to 14) (size 15 to 20)
#    0.000    2.000    2.857    0.429    4.000    1.143 
#    0.000    0.000    0.000    1.714    0.000    0.000 
#    0.000    0.000    0.000    0.000    0.000    0.000 
#
# Total GULP energy -155958.469600 kJ/mol
# GULP energy per Si atom -5569.945343 kJ/mol
# Density = 1.933874 g / cm^3
# Si number density = 19.382859 Si / 1000 Ang^3
#
#
#
# Elastic Constant Matrix: (Units=GPa)
#
#
# Indices 1 2 3 4 5 6 
#
# 1 56.6605 21.6841 11.7487 0.0000 0.0000 0.0000
# 2 21.6841 84.3601 -9.8933 0.0000 0.0000 0.0000
# 3 11.7487 -9.8933 52.0555 0.0000 0.0000 0.0000
# 4 0.0000 0.0000 0.0000 27.7071 0.0000 0.0000
# 5 0.0000 0.0000 0.0000 0.0000 21.2969 0.0000
# 6 0.0000 0.0000 0.0000 0.0000 0.0000 16.0655
#
#
#
# Elastic Compliance Matrix: (Units=1/GPa)
#
#
# Indices 1 2 3 4 5 6 
#
# 1 0.021243 -0.006160 -0.005965 0.000000 0.000000 0.000000
# 2 -0.006160 0.013910 0.004034 0.000000 0.000000 0.000000
# 3 -0.005965 0.004034 0.021323 0.000000 0.000000 0.000000
# 4 0.000000 0.000000 0.000000 0.036092 0.000000 0.000000
# 5 0.000000 0.000000 0.000000 0.000000 0.046955 0.000000
# 6 0.000000 0.000000 0.000000 0.000000 0.000000 0.062245
#
#
# Mechanical properties :
#
#
# Convention : Reuss Voigt Hill
#
# Bulk Modulus (GPa) = 24.81728 26.68389 25.75058
# Shear Modulus (GPa) = 21.60917 24.31634 22.96275
#
# Velocity S-wave (km/s) = 3.34257 3.54577 3.44567
# Velocity P-wave (km/s) = 5.26579 5.52811 5.39854
#
# Compressibility (1/GPa) = 0.04029451
#
# Stress axis : x y z
#
# Youngs Moduli (GPa) = 47.07356 71.88863 46.89715
#
# Poissons Ratio (x) = 0.44283 0.27975
# Poissons Ratio (y) = 0.28997 -0.18918
# Poissons Ratio (z) = 0.28080 -0.29000
#
# Static dielectric constant tensor:
#      x y z
#    x 1.686970 0.000000 0.000000 
#    y 0.000000 1.749240 0.000000 
#    z 0.000000 0.000000 1.765460 
# 
# From -- ./inp_files/964.got.cif
#   From: 2010.05.17/outbox.cif.g08.bks.cpg/sg31_1_cif.got.tgz:964.got - 2010.06.03 17:08:30.
