data_PCOD9342159
_publ_section_title
;
Structure prediction by ZEFSAII (Michael W. Deem and Ramdas Pophale) SiO2 
 PCOD9342159
Probable space group: P N C 2
;
_chemical_formula_sum "Si O2"
_cell_formula_units_Z 20
_cell_length_a 25.496325
_cell_length_b 8.138151
_cell_length_c 5.155130
_cell_angle_alpha 90.000000
_cell_angle_beta 90.000000
_cell_angle_gamma 90.000000
_cell_volume 1069.653094
_symmetry_space_group_name_H-M "P N C 2"
_symmetry_group_IT_number 30
_symmetry_cell_setting 'orthorhombic'
loop_
_space_group_symop_operation_xyz
x,y,z
-x,-y,z
-x,1/2+y,1/2+z
x,1/2-y,1/2+z
loop_
_atom_site_type_symbol
_atom_site_label
_atom_site_fract_x
_atom_site_fract_y
_atom_site_fract_z
Si Si1 0.256772 0.644924 0.214670
Si Si2 0.133437 0.638106 0.251100
Si Si3 0.953553 0.866382 0.720547
Si Si4 0.337125 0.140349 0.848996
Si Si5 0.456975 0.138957 0.843528
O O1 0.265785 0.789397 0.424672
O O2 0.195428 0.598927 0.241529
O O3 0.294944 0.497719 0.287145
O O4 0.121812 0.737893 0.514100
O O5 0.099296 0.474567 0.229873
O O6 0.956685 0.755984 0.463753
O O7 0.000000 0.000000 0.727394
O O8 0.331071 0.216347 0.134628
O O9 0.396961 0.076284 0.823438
O O10 0.463221 0.223605 0.122482
O O11 0.500000 0.000000 0.806478
#
# Coordination Sequence:
#
# PCOD9342159 Si02
#       5
#     4   4   4   4   4
#     4  10  21  36  57  82 109 143 181 220 267 318
#     4  10  21  39  58  81 113 144 179 225 268 315
#     4  12  24  39  60  85 112 146 184 223 270 321
#     4  10  21  36  54  78 110 141 176 222 270 318
#     4  10  21  36  54  78 106 140 178 222 270 318
#
# _framework density 18.697649999999999
#
# number of rings (size 3 to 8) (size 9 to 14) (size 15 to 20)
#    0.000    1.600    0.000    4.800    0.000    3.200 
#    0.000    0.000    0.000    0.000    0.000    0.000 
#    0.000    0.000    0.000    0.000    0.000    0.000 
#
# Total GULP energy -111778.602383 kJ/mol
# GULP energy per Si atom -5588.930119 kJ/mol
# Density = 1.865509 g / cm^3
# Si number density = 18.697650 Si / 1000 Ang^3
#
#
#
# Elastic Constant Matrix: (Units=GPa)
#
#
# Indices 1 2 3 4 5 6 
#
# 1 68.5270 53.1568 -3.9288 0.0000 0.0000 0.0000
# 2 53.1568 67.3707 -10.4778 0.0000 0.0000 0.0000
# 3 -3.9288 -10.4778 57.8237 0.0000 0.0000 0.0000
# 4 0.0000 0.0000 0.0000 24.7104 0.0000 0.0000
# 5 0.0000 0.0000 0.0000 0.0000 15.5446 0.0000
# 6 0.0000 0.0000 0.0000 0.0000 0.0000 53.0031
#
#
#
# Elastic Compliance Matrix: (Units=1/GPa)
#
#
# Indices 1 2 3 4 5 6 
#
# 1 0.038095 -0.030515 -0.002941 0.000000 0.000000 0.000000
# 2 -0.030515 0.039717 0.005124 0.000000 0.000000 0.000000
# 3 -0.002941 0.005124 0.018023 0.000000 0.000000 0.000000
# 4 0.000000 0.000000 0.000000 0.040469 0.000000 0.000000
# 5 0.000000 0.000000 0.000000 0.000000 0.064331 0.000000
# 6 0.000000 0.000000 0.000000 0.000000 0.000000 0.018867
#
#
# Mechanical properties :
#
#
# Convention : Reuss Voigt Hill
#
# Bulk Modulus (GPa) = 25.53020 30.13573 27.83297
# Shear Modulus (GPa) = 17.28773 28.98303 23.13538
#
# Velocity S-wave (km/s) = 3.04401 3.94139 3.52140
# Velocity P-wave (km/s) = 5.10280 6.07166 5.60819
#
# Compressibility (1/GPa) = 0.03916929
#
# Stress axis : x y z
#
# Youngs Moduli (GPa) = 26.25028 25.17812 55.48614
#
# Poissons Ratio (x) = 0.76831 0.16319
# Poissons Ratio (y) = 0.80103 -0.28428
# Poissons Ratio (z) = 0.07720 -0.12900
#
# Static dielectric constant tensor:
#      x y z
#    x 1.642390 0.000000 0.000000 
#    y 0.000000 1.592820 0.000000 
#    z 0.000000 0.000000 1.634940 
# 
# From -- ./inp_files/1065.got.cif
#   From: 2010.05.17/outbox.cif.g08.bks.cpg/sg30_1_cif.got.tgz:1065.got - 2010.06.03 17:03:02.
