data_PCOD9342065
_publ_section_title
;
Structure prediction by ZEFSAII (Michael W. Deem and Ramdas Pophale) SiO2 
 PCOD9342065
Probable space group: P N C 2
;
_chemical_formula_sum "Si O2"
_cell_formula_units_Z 26
_cell_length_a 7.618420
_cell_length_b 16.997780
_cell_length_c 9.232353
_cell_angle_alpha 90.000000
_cell_angle_beta 90.000000
_cell_angle_gamma 90.000000
_cell_volume 1195.554881
_symmetry_space_group_name_H-M "P N C 2"
_symmetry_group_IT_number 30
_symmetry_cell_setting 'orthorhombic'
loop_
_space_group_symop_operation_xyz
x,y,z
-x,-y,z
-x,1/2+y,1/2+z
x,1/2-y,1/2+z
loop_
_atom_site_type_symbol
_atom_site_label
_atom_site_fract_x
_atom_site_fract_y
_atom_site_fract_z
Si Si1 0.700732 0.600020 0.136300
Si Si2 0.500000 0.500000 0.899373
Si Si3 0.685272 0.603323 0.446202
Si Si4 0.094720 0.625175 0.800622
Si Si5 0.453591 0.851242 0.221532
Si Si6 0.000000 0.000000 0.543878
Si Si7 0.000000 0.500000 0.558451
Si Si8 0.762852 0.777173 0.410564
O O1 0.601929 0.591739 0.287141
O O2 0.884301 0.555026 0.146146
O O3 0.614524 0.552704 0.004816
O O4 0.727366 0.686527 0.070685
O O5 0.582219 0.436483 0.793614
O O6 0.542471 0.626157 0.568648
O O7 0.791093 0.684756 0.422659
O O8 0.821610 0.533378 0.483024
O O9 0.257901 0.680505 0.750886
O O10 0.051861 0.572143 0.662053
O O11 0.928368 0.678536 0.842801
O O12 0.098468 0.562483 0.936814
O O13 0.593696 0.801346 0.313894
#
# Coordination Sequence:
#
# PCOD9342065 Si02
#       8
#     4   2   4   4   4   2   2   4
#     4  10  21  36  64  92 131 175 217 290 354 403
#     4  10  20  38  62  94 124 170 230 278 330 426
#     4  12  24  41  65 101 144 177 226 305 361 417
#     4  10  20  41  72  96 124 185 238 278 340 440
#     4  11  21  41  70  94 133 181 233 279 352 429
#     4   9  17  38  62  96 124 170 240 278 338 416
#     4  11  23  40  68 104 136 178 236 296 362 408
#     4  10  23  44  66  93 136 187 230 281 359 436
#
# _framework density 21.747225
#
# number of rings (size 3 to 8) (size 9 to 14) (size 15 to 20)
#    0.000    1.538    3.077    2.308    0.000    1.846 
#    2.769    0.000    3.385    0.000    0.000    0.000 
#    0.000    0.000    0.000    0.000    0.000    0.000 
#
# Total GULP energy -144840.965362 kJ/mol
# GULP energy per Si atom -5570.806360 kJ/mol
# Density = 2.169773 g / cm^3
# Si number density = 21.747225 Si / 1000 Ang^3
#
#
#
# Elastic Constant Matrix: (Units=GPa)
#
#
# Indices 1 2 3 4 5 6 
#
# 1 98.2221 7.8664 36.9370 0.0000 0.0000 0.0000
# 2 7.8664 79.4928 5.8530 0.0000 0.0000 0.0000
# 3 36.9370 5.8530 118.6664 0.0000 0.0000 0.0000
# 4 0.0000 0.0000 0.0000 10.6042 0.0000 0.0000
# 5 0.0000 0.0000 0.0000 0.0000 17.2120 0.0000
# 6 0.0000 0.0000 0.0000 0.0000 0.0000 14.6890
#
#
#
# Elastic Compliance Matrix: (Units=1/GPa)
#
#
# Indices 1 2 3 4 5 6 
#
# 1 0.011592 -0.000885 -0.003565 0.000000 0.000000 0.000000
# 2 -0.000885 0.012693 -0.000351 0.000000 0.000000 0.000000
# 3 -0.003565 -0.000351 0.009554 0.000000 0.000000 0.000000
# 4 0.000000 0.000000 0.000000 0.094303 0.000000 0.000000
# 5 0.000000 0.000000 0.000000 0.000000 0.058099 0.000000
# 6 0.000000 0.000000 0.000000 0.000000 0.000000 0.068078
#
#
# Mechanical properties :
#
#
# Convention : Reuss Voigt Hill
#
# Bulk Modulus (GPa) = 41.25547 44.18823 42.72185
# Shear Modulus (GPa) = 18.38242 24.88270 21.63256
#
# Velocity S-wave (km/s) = 2.91052 3.38624 3.15735
# Velocity P-wave (km/s) = 5.50513 5.97093 5.74275
#
# Compressibility (1/GPa) = 0.02423921
#
# Stress axis : x y z
#
# Youngs Moduli (GPa) = 86.26352 78.78286 104.66981
#
# Poissons Ratio (x) = 0.06970 0.37312
# Poissons Ratio (y) = 0.07632 0.03671
# Poissons Ratio (z) = 0.30750 0.02763
#
# Static dielectric constant tensor:
#      x y z
#    x 2.110130 0.000000 0.000000 
#    y 0.000000 1.829250 0.000000 
#    z 0.000000 0.000000 1.831870 
# 
# From -- ./inp_files/1974.got.cif
#   From: 2010.05.17/outbox.cif.g08.bks.cpg/sg30_1_cif.got.tgz:1974.got - 2010.06.03 17:03:02.
