data_PCOD9342672
_publ_section_title
;
Structure prediction by ZEFSAII (Michael W. Deem and Ramdas Pophale) SiO2 
 PCOD9342672
Probable space group: P N C 2
;
_chemical_formula_sum "Si O2"
_cell_formula_units_Z 16
_cell_length_a 9.000000
_cell_length_b 9.000000
_cell_length_c 9.000000
_cell_angle_alpha 90.000000
_cell_angle_beta 90.000000
_cell_angle_gamma 90.000000
_cell_volume 729.000000
_symmetry_space_group_name_H-M "P N C 2"
_symmetry_group_IT_number 30
_symmetry_cell_setting 'orthorhombic'
loop_
_space_group_symop_operation_xyz
x,y,z
-x,-y,z
-x,1/2+y,1/2+z
x,1/2-y,1/2+z
loop_
_atom_site_type_symbol
_atom_site_label
_atom_site_fract_x
_atom_site_fract_y
_atom_site_fract_z
Si Si1 0.280771 0.778687 0.310280
Si Si2 0.327667 0.454821 0.008372
Si Si3 0.172709 0.951336 0.013205
Si Si4 0.633775 0.823756 0.829475
O O1 0.171994 0.648667 0.363133
O O2 0.452397 0.708813 0.313785
O O3 0.256864 0.896480 0.444630
O O4 0.239400 0.860782 0.155948
O O5 0.500000 0.500000 0.009859
O O6 0.306061 0.386277 0.172335
O O7 0.303199 0.334368 0.879646
O O8 0.299945 0.072302 0.962606
O O9 0.000000 0.000000 0.042002
#
# Coordination Sequence:
#
# PCOD9342672 Si02
#       4
#     4   4   4   4
#     4  11  24  45  69 100 142 188 240 297 362 437
#     4  10  21  37  66  99 130 172 233 299 353 414
#     4  12  27  46  69 102 144 190 241 303 366 428
#     4  11  22  42  70 101 134 182 241 301 361 433
#
# _framework density 21.947873999999999
#
# number of rings (size 3 to 8) (size 9 to 14) (size 15 to 20)
#    0.000    1.000    0.000    8.250    0.000    8.000 
#    0.000    2.500    0.000    0.000    0.000    0.000 
#    0.000    0.000    0.000    0.000    0.000    0.000 
#
# Total GULP energy -89150.780473 kJ/mol
# GULP energy per Si atom -5571.923780 kJ/mol
# Density = 2.189792 g / cm^3
# Si number density = 21.947874 Si / 1000 Ang^3
#
#
#
# Elastic Constant Matrix: (Units=GPa)
#
#
# Indices 1 2 3 4 5 6 
#
# 1 103.2295 34.9105 31.6249 0.0000 0.0000 0.0000
# 2 34.9105 121.1653 58.1311 0.0000 0.0000 0.0000
# 3 31.6249 58.1311 137.8097 0.0000 0.0000 0.0000
# 4 0.0000 0.0000 0.0000 71.2089 0.0000 0.0000
# 5 0.0000 0.0000 0.0000 0.0000 27.9879 0.0000
# 6 0.0000 0.0000 0.0000 0.0000 0.0000 27.7354
#
#
#
# Elastic Compliance Matrix: (Units=1/GPa)
#
#
# Indices 1 2 3 4 5 6 
#
# 1 0.010970 -0.002448 -0.001485 0.000000 0.000000 0.000000
# 2 -0.002448 0.010894 -0.004033 0.000000 0.000000 0.000000
# 3 -0.001485 -0.004033 0.009298 0.000000 0.000000 0.000000
# 4 0.000000 0.000000 0.000000 0.014043 0.000000 0.000000
# 5 0.000000 0.000000 0.000000 0.000000 0.035730 0.000000
# 6 0.000000 0.000000 0.000000 0.000000 0.000000 0.036055
#
#
# Mechanical properties :
#
#
# Convention : Reuss Voigt Hill
#
# Bulk Modulus (GPa) = 65.66266 67.94862 66.80564
# Shear Modulus (GPa) = 36.23208 41.22230 38.72719
#
# Velocity S-wave (km/s) = 4.06744 4.33851 4.20516
# Velocity P-wave (km/s) = 7.21396 7.49154 7.35406
#
# Compressibility (1/GPa) = 0.01522936
#
# Stress axis : x y z
#
# Youngs Moduli (GPa) = 91.15776 91.79625 107.54508
#
# Poissons Ratio (x) = 0.22476 0.15966
# Poissons Ratio (y) = 0.22319 0.43376
# Poissons Ratio (z) = 0.13533 0.37024
#
# Static dielectric constant tensor:
#      x y z
#    x 1.772330 0.000000 0.000000 
#    y 0.000000 1.962350 0.000000 
#    z 0.000000 0.000000 1.813910 
# 
# From -- ./inp_files/1559.got.cif
#   From: 2010.05.17/outbox.ucp.g08.bks.cvg/sg30_1_cif.got.tgz:1559.got - 2010.06.11 10:34:04.
