data_PCOD9342871
_publ_section_title
;
Structure prediction by ZEFSAII (Michael W. Deem and Ramdas Pophale) SiO2 
 PCOD9342871
Probable space group: P M N 21
;
_chemical_formula_sum "Si O2"
_cell_formula_units_Z 32
_cell_length_a 8.998604
_cell_length_b 12.630328
_cell_length_c 14.595132
_cell_angle_alpha 90.000000
_cell_angle_beta 90.000000
_cell_angle_gamma 90.000000
_cell_volume 1658.814399
_symmetry_space_group_name_H-M "P M N 21"
_symmetry_group_IT_number 31
_symmetry_cell_setting 'orthorhombic'
loop_
_space_group_symop_operation_xyz
x,y,z
1/2-x,-y,1/2+z
-x,y,z
1/2+x,-y,1/2+z
loop_
_atom_site_type_symbol
_atom_site_label
_atom_site_fract_x
_atom_site_fract_y
_atom_site_fract_z
Si Si1 0.679750 0.414819 0.462050
Si Si2 0.825953 0.059230 0.501545
Si Si3 0.674729 0.849878 0.274786
Si Si4 0.819510 0.673635 0.763185
Si Si5 0.179662 0.912939 0.803377
Si Si6 0.171515 0.825137 0.465934
Si Si7 0.676002 0.394897 0.067182
Si Si8 0.824362 0.759937 0.109984
O O1 0.500000 0.417506 0.460222
O O2 0.728571 0.376582 0.360599
O O3 0.741915 0.525015 0.499413
O O4 0.727344 0.329571 0.539026
O O5 0.768385 0.080188 0.398720
O O6 0.725669 0.130252 0.565368
O O7 0.000000 0.086908 0.511118
O O8 0.809464 0.934661 0.520043
O O9 0.500000 0.839729 0.262449
O O10 0.721882 0.828534 0.378859
O O11 0.753750 0.765489 0.209775
O O12 0.712550 0.974306 0.255062
O O13 0.782026 0.799301 0.759222
O O14 0.768915 0.610596 0.672623
O O15 0.000000 0.669893 0.761837
O O16 0.000000 0.911886 0.820231
O O17 0.192412 0.723160 0.527723
O O18 0.000000 0.825612 0.432028
O O19 0.500000 0.420919 0.067706
O O20 0.000000 0.751887 0.117308
#
# Coordination Sequence:
#
# PCOD9342871 Si02
#       8
#     4   4   4   4   4   4   4   4
#     4  10  22  41  61  82 114 155 197 244 293 347
#     4  10  19  32  55  86 119 151 191 238 287 348
#     4  10  21  34  57  89 120 157 199 242 286 348
#     4   9  18  37  62  83 108 150 195 234 288 350
#     4   9  17  34  58  82 114 154 194 234 290 350
#     4   9  20  38  57  83 122 158 188 235 300 354
#     4  10  22  39  63  88 112 151 199 245 292 347
#     4  11  22  37  57  83 119 160 197 238 298 354
#
# _framework density 19.290887000000001
#
# number of rings (size 3 to 8) (size 9 to 14) (size 15 to 20)
#    0.000    2.250    1.250    1.125    1.750    3.500 
#    0.000    3.750    0.000    0.000    0.000    0.000 
#    0.000    0.000    0.000    0.000    0.000    0.000 
#
# Total GULP energy -178472.253486 kJ/mol
# GULP energy per Si atom -5577.257921 kJ/mol
# Density = 1.924698 g / cm^3
# Si number density = 19.290887 Si / 1000 Ang^3
#
#
#
# Elastic Constant Matrix: (Units=GPa)
#
#
# Indices 1 2 3 4 5 6 
#
# 1 4.4174 12.2542 1.4795 0.0000 0.0000 0.0000
# 2 12.2542 59.2688 14.8784 0.0000 0.0000 0.0000
# 3 1.4795 14.8784 37.3993 0.0000 0.0000 0.0000
# 4 0.0000 0.0000 0.0000 21.9305 0.0000 0.0000
# 5 0.0000 0.0000 0.0000 0.0000 12.6097 0.0000
# 6 0.0000 0.0000 0.0000 0.0000 0.0000 31.1806
#
#
#
# Elastic Compliance Matrix: (Units=1/GPa)
#
#
# Indices 1 2 3 4 5 6 
#
# 1 0.553076 -0.120937 0.026232 0.000000 0.000000 0.000000
# 2 -0.120937 0.045189 -0.013193 0.000000 0.000000 0.000000
# 3 0.026232 -0.013193 0.030949 0.000000 0.000000 0.000000
# 4 0.000000 0.000000 0.000000 0.045599 0.000000 0.000000
# 5 0.000000 0.000000 0.000000 0.000000 0.079304 0.000000
# 6 0.000000 0.000000 0.000000 0.000000 0.000000 0.032071
#
#
# Mechanical properties :
#
#
# Convention : Reuss Voigt Hill
#
# Bulk Modulus (GPa) = 2.41886 17.58997 10.00442
# Shear Modulus (GPa) = 4.38678 17.97572 11.18125
#
# Velocity S-wave (km/s) = 1.50962 3.05589 2.41013
# Velocity P-wave (km/s) = 2.07249 4.64644 3.59754
#
# Compressibility (1/GPa) = 0.41341773
#
# Stress axis : x y z
#
# Youngs Moduli (GPa) = 1.80807 22.12950 32.31104
#
# Poissons Ratio (x) = 2.67627 -0.84757
# Poissons Ratio (y) = 0.21866 0.42627
# Poissons Ratio (z) = -0.04743 0.29195
#
# Static dielectric constant tensor:
#      x y z
#    x 1.650190 0.000000 0.000000 
#    y 0.000000 1.676780 0.000000 
#    z 0.000000 0.000000 1.711230 
# 
# From -- ./inp_files/4983.got.cif
#   From: 2010.05.17/outbox.cif.g08.bks.cpg/sg31_3_cif.got.tgz:4983.got - 2010.06.03 17:08:30.
