data_PCOD9342889
_publ_section_title
;
Structure prediction by ZEFSAII (Michael W. Deem and Ramdas Pophale) SiO2 
 PCOD9342889
Probable space group: P M N 21
;
_chemical_formula_sum "Si O2"
_cell_formula_units_Z 24
_cell_length_a 9.093387
_cell_length_b 9.361430
_cell_length_c 16.666270
_cell_angle_alpha 90.000000
_cell_angle_beta 90.000000
_cell_angle_gamma 90.000000
_cell_volume 1418.751331
_symmetry_space_group_name_H-M "P M N 21"
_symmetry_group_IT_number 31
_symmetry_cell_setting 'orthorhombic'
loop_
_space_group_symop_operation_xyz
x,y,z
1/2-x,-y,1/2+z
-x,y,z
1/2+x,-y,1/2+z
loop_
_atom_site_type_symbol
_atom_site_label
_atom_site_fract_x
_atom_site_fract_y
_atom_site_fract_z
Si Si1 0.172571 0.353680 0.464240
Si Si2 0.675600 0.652482 0.488253
Si Si3 0.827126 0.803334 0.640268
Si Si4 0.828140 0.067726 0.538475
Si Si5 0.325798 0.834411 0.804480
Si Si6 0.326562 0.920052 0.391603
O O1 0.270035 0.492959 0.473147
O O2 0.196045 0.236975 0.535143
O O3 0.202215 0.267662 0.381466
O O4 0.000000 0.393642 0.464542
O O5 0.500000 0.659473 0.499207
O O6 0.754403 0.716066 0.567251
O O7 0.712135 0.756463 0.412718
O O8 0.750320 0.776723 0.724664
O O9 0.000000 0.771004 0.643858
O O10 0.811788 0.972021 0.617265
O O11 0.717866 0.999908 0.474115
O O12 0.000000 0.047291 0.511137
O O13 0.500000 0.843213 0.793609
O O14 0.261454 0.990864 0.825572
O O15 0.500000 0.931033 0.376028
#
# Coordination Sequence:
#
# PCOD9342889 Si02
#       6
#     4   4   4   4   4   4
#     4   9  18  33  52  73 100 134 167 202 248 300
#     4  10  20  33  51  76 104 133 168 207 246 297
#     4  10  19  33  54  76 100 131 167 208 255 301
#     4   8  16  31  50  72  96 125 162 202 243 291
#     4  10  20  34  52  75 102 130 166 211 254 297
#     4   9  17  30  49  72  96 125 162 200 240 290
#
# _framework density 16.916284000000001
#
# number of rings (size 3 to 8) (size 9 to 14) (size 15 to 20)
#    0.000    2.667    0.000    3.000    0.000    6.000 
#    0.000    1.667    0.000    2.000    0.000    0.000 
#    0.000    0.000    0.000    0.000    0.000    0.000 
#
# Total GULP energy -133643.173638 kJ/mol
# GULP energy per Si atom -5568.465568 kJ/mol
# Density = 1.687778 g / cm^3
# Si number density = 16.916284 Si / 1000 Ang^3
#
#
#
# Elastic Constant Matrix: (Units=GPa)
#
#
# Indices 1 2 3 4 5 6 
#
# 1 73.8456 54.0471 38.5264 0.0000 0.0000 0.0000
# 2 54.0471 103.7186 23.5970 0.0000 0.0000 0.0000
# 3 38.5264 23.5970 58.8480 0.0000 0.0000 0.0000
# 4 0.0000 0.0000 0.0000 12.3701 0.0000 0.0000
# 5 0.0000 0.0000 0.0000 0.0000 26.1537 0.0000
# 6 0.0000 0.0000 0.0000 0.0000 0.0000 25.4720
#
#
#
# Elastic Compliance Matrix: (Units=1/GPa)
#
#
# Indices 1 2 3 4 5 6 
#
# 1 0.030472 -0.012479 -0.014946 0.000000 0.000000 0.000000
# 2 -0.012479 0.015719 0.001866 0.000000 0.000000 0.000000
# 3 -0.014946 0.001866 0.026029 0.000000 0.000000 0.000000
# 4 0.000000 0.000000 0.000000 0.080840 0.000000 0.000000
# 5 0.000000 0.000000 0.000000 0.000000 0.038235 0.000000
# 6 0.000000 0.000000 0.000000 0.000000 0.000000 0.039259
#
#
# Mechanical properties :
#
#
# Convention : Reuss Voigt Hill
#
# Bulk Modulus (GPa) = 47.38292 52.08371 49.73332
# Shear Modulus (GPa) = 17.31863 20.81526 19.06695
#
# Velocity S-wave (km/s) = 3.20313 3.51163 3.36093
# Velocity P-wave (km/s) = 6.46151 6.87736 6.67268
#
# Compressibility (1/GPa) = 0.02110465
#
# Stress axis : x y z
#
# Youngs Moduli (GPa) = 32.81676 63.61571 38.41826
#
# Poissons Ratio (x) = 0.79383 0.57419
# Poissons Ratio (y) = 0.40951 -0.07170
# Poissons Ratio (z) = 0.49047 -0.11872
#
# Static dielectric constant tensor:
#      x y z
#    x 1.564620 0.000000 0.000000 
#    y 0.000000 1.588010 0.000000 
#    z 0.000000 0.000000 1.574410 
# 
# From -- ./inp_files/4739.got.cif
#   From: 2010.05.17/outbox.cif.g08.bks.cpg/sg31_3_cif.got.tgz:4739.got - 2010.06.03 17:08:30.
