data_PCOD9342736
_publ_section_title
;
Structure prediction by ZEFSAII (Michael W. Deem and Ramdas Pophale) SiO2 
 PCOD9342736
Probable space group: P M N 21
;
_chemical_formula_sum "Si O2"
_cell_formula_units_Z 24
_cell_length_a 8.690747
_cell_length_b 9.396099
_cell_length_c 16.633830
_cell_angle_alpha 90.000000
_cell_angle_beta 90.000000
_cell_angle_gamma 90.000000
_cell_volume 1358.303907
_symmetry_space_group_name_H-M "P M N 21"
_symmetry_group_IT_number 31
_symmetry_cell_setting 'orthorhombic'
loop_
_space_group_symop_operation_xyz
x,y,z
1/2-x,-y,1/2+z
-x,y,z
1/2+x,-y,1/2+z
loop_
_atom_site_type_symbol
_atom_site_label
_atom_site_fract_x
_atom_site_fract_y
_atom_site_fract_z
Si Si1 0.182094 0.585884 0.986810
Si Si2 0.316449 0.419334 0.834948
Si Si3 0.182478 0.318004 0.233747
Si Si4 0.681640 0.324170 0.065610
Si Si5 0.684224 0.845851 0.900368
Si Si6 0.183401 0.160823 0.912026
O O1 0.224718 0.498725 0.905910
O O2 0.252871 0.740262 0.969429
O O3 0.000000 0.594053 0.997962
O O4 0.257422 0.485923 0.054192
O O5 0.500000 0.427317 0.851442
O O6 0.288041 0.516574 0.757325
O O7 0.260286 0.258065 0.842198
O O8 0.274244 0.275711 0.154787
O O9 0.219075 0.226316 0.313513
O O10 0.000000 0.303144 0.218319
O O11 0.500000 0.320478 0.052400
O O12 0.761182 0.228483 0.996834
O O13 0.500000 0.855189 0.906906
O O14 0.759586 0.999815 0.906063
O O15 0.000000 0.170089 0.906805
#
# Coordination Sequence:
#
# PCOD9342736 Si02
#       6
#     4   4   4   4   4   4
#     4  10  18  31  52  76 102 132 171 212 252 303
#     4   9  17  32  53  75 101 134 171 209 253 305
#     4   9  19  35  55  78 104 135 173 219 267 312
#     4  11  21  34  54  78 106 139 177 219 262 309
#     4  10  20  36  56  78 107 140 175 214 262 318
#     4  11  21  34  54  79 108 140 177 217 260 313
#
# _framework density 17.669094000000001
#
# number of rings (size 3 to 8) (size 9 to 14) (size 15 to 20)
#    0.000    2.000    0.000    8.500    0.000    4.000 
#    0.000    1.667    0.000    6.000    0.000    0.000 
#    0.000    0.000    0.000    0.000    0.000    0.000 
#
# Total GULP energy -133833.215013 kJ/mol
# GULP energy per Si atom -5576.383959 kJ/mol
# Density = 1.762888 g / cm^3
# Si number density = 17.669094 Si / 1000 Ang^3
#
#
#
# Elastic Constant Matrix: (Units=GPa)
#
#
# Indices 1 2 3 4 5 6 
#
# 1 99.7752 35.4752 30.2162 0.0000 0.0000 0.0000
# 2 35.4752 120.1775 20.9758 0.0000 0.0000 0.0000
# 3 30.2162 20.9758 59.2029 0.0000 0.0000 0.0000
# 4 0.0000 0.0000 0.0000 14.5846 0.0000 0.0000
# 5 0.0000 0.0000 0.0000 0.0000 19.9957 0.0000
# 6 0.0000 0.0000 0.0000 0.0000 0.0000 32.1557
#
#
#
# Elastic Compliance Matrix: (Units=1/GPa)
#
#
# Indices 1 2 3 4 5 6 
#
# 1 0.012672 -0.002784 -0.005481 0.000000 0.000000 0.000000
# 2 -0.002784 0.009481 -0.001938 0.000000 0.000000 0.000000
# 3 -0.005481 -0.001938 0.020375 0.000000 0.000000 0.000000
# 4 0.000000 0.000000 0.000000 0.068565 0.000000 0.000000
# 5 0.000000 0.000000 0.000000 0.000000 0.050011 0.000000
# 6 0.000000 0.000000 0.000000 0.000000 0.000000 0.031099
#
#
# Mechanical properties :
#
#
# Convention : Reuss Voigt Hill
#
# Bulk Modulus (GPa) = 45.20479 50.27666 47.74072
# Shear Modulus (GPa) = 22.72882 26.17977 24.45430
#
# Velocity S-wave (km/s) = 3.59048 3.85342 3.72427
# Velocity P-wave (km/s) = 6.54434 6.95089 6.75067
#
# Compressibility (1/GPa) = 0.02212155
#
# Stress axis : x y z
#
# Youngs Moduli (GPa) = 78.91168 105.47239 49.07881
#
# Poissons Ratio (x) = 0.29364 0.26902
# Poissons Ratio (y) = 0.21969 0.09513
# Poissons Ratio (z) = 0.43254 0.20443
#
# Static dielectric constant tensor:
#      x y z
#    x 1.586240 0.000000 0.000000 
#    y 0.000000 1.625460 0.000000 
#    z 0.000000 0.000000 1.619840 
# 
# From -- ./inp_files/5698.got.cif
#   From: 2010.05.17/outbox.cif.g08.bks.cpg/sg31_3_cif.got.tgz:5698.got - 2010.06.03 17:08:30.
