data_PCOD9342605
_publ_section_title
;
Structure prediction by ZEFSAII (Michael W. Deem and Ramdas Pophale) SiO2 
 PCOD9342605
Probable space group: P N C 2
;
_chemical_formula_sum "Si O2"
_cell_formula_units_Z 22
_cell_length_a 13.928506
_cell_length_b 6.378392
_cell_length_c 10.235381
_cell_angle_alpha 90.000000
_cell_angle_beta 90.000000
_cell_angle_gamma 90.000000
_cell_volume 909.326307
_symmetry_space_group_name_H-M "P N C 2"
_symmetry_group_IT_number 30
_symmetry_cell_setting 'orthorhombic'
loop_
_space_group_symop_operation_xyz
x,y,z
-x,-y,z
-x,1/2+y,1/2+z
x,1/2-y,1/2+z
loop_
_atom_site_type_symbol
_atom_site_label
_atom_site_fract_x
_atom_site_fract_y
_atom_site_fract_z
Si Si1 0.408700 0.077180 0.793090
Si Si2 0.110745 0.484220 0.769973
Si Si3 0.219778 0.879079 0.676847
Si Si4 0.344546 0.940037 0.048500
Si Si5 0.500000 0.000000 0.266327
Si Si6 0.827744 0.748872 0.523790
O O1 0.439157 0.312841 0.831866
O O2 0.500000 0.000000 0.707606
O O3 0.304592 0.023919 0.736297
O O4 0.405727 0.930663 0.919524
O O5 0.169045 0.706433 0.769516
O O6 0.115808 0.414385 0.616880
O O7 0.000000 0.500000 0.807064
O O8 0.153670 0.313009 0.872975
O O9 0.271173 0.746904 0.563739
O O10 0.151364 0.037988 0.603148
O O11 0.414740 0.923144 0.170686
O O12 0.280372 0.151884 0.036677
#
# Coordination Sequence:
#
# PCOD9342605 Si02
#       6
#     4   4   4   4   2   4
#     4  12  24  41  67 102 145 195 248 311 369 463
#     4  11  28  49  78 115 149 202 260 324 406 477
#     4  11  24  45  74 108 146 200 251 318 392 460
#     4  11  24  42  67 103 143 194 250 306 380 447
#     4  12  24  42  62 100 144 190 250 298 376 444
#     4  11  25  49  75 107 152 195 252 326 386 473
#
# _framework density 24.193736999999999
#
# number of rings (size 3 to 8) (size 9 to 14) (size 15 to 20)
#    0.000    0.727    4.545    2.182    5.091    2.909 
#    1.636    0.000    0.000    0.000    0.000    0.000 
#    0.000    0.000    0.000    0.000    0.000    0.000 
#
# Total GULP energy -122497.944550 kJ/mol
# GULP energy per Si atom -5568.088389 kJ/mol
# Density = 2.413867 g / cm^3
# Si number density = 24.193737 Si / 1000 Ang^3
#
#
#
# Elastic Constant Matrix: (Units=GPa)
#
#
# Indices 1 2 3 4 5 6 
#
# 1 120.8798 50.4886 26.6687 0.0000 0.0000 0.0000
# 2 50.4886 103.6560 28.4706 0.0000 0.0000 0.0000
# 3 26.6687 28.4706 74.8369 0.0000 0.0000 0.0000
# 4 0.0000 0.0000 0.0000 34.2358 0.0000 0.0000
# 5 0.0000 0.0000 0.0000 0.0000 29.4139 0.0000
# 6 0.0000 0.0000 0.0000 0.0000 0.0000 27.7887
#
#
#
# Elastic Compliance Matrix: (Units=1/GPa)
#
#
# Indices 1 2 3 4 5 6 
#
# 1 0.010656 -0.004631 -0.002035 0.000000 0.000000 0.000000
# 2 -0.004631 0.012786 -0.003214 0.000000 0.000000 0.000000
# 3 -0.002035 -0.003214 0.015310 0.000000 0.000000 0.000000
# 4 0.000000 0.000000 0.000000 0.029209 0.000000 0.000000
# 5 0.000000 0.000000 0.000000 0.000000 0.033998 0.000000
# 6 0.000000 0.000000 0.000000 0.000000 0.000000 0.035986
#
#
# Mechanical properties :
#
#
# Convention : Reuss Voigt Hill
#
# Bulk Modulus (GPa) = 52.65593 56.73651 54.69622
# Shear Modulus (GPa) = 30.48103 31.20400 30.84252
#
# Velocity S-wave (km/s) = 3.55332 3.59521 3.57433
# Velocity P-wave (km/s) = 6.21661 6.38247 6.30009
#
# Compressibility (1/GPa) = 0.01899121
#
# Stress axis : x y z
#
# Youngs Moduli (GPa) = 93.84260 78.21165 65.31509
#
# Poissons Ratio (x) = 0.36222 0.13295
# Poissons Ratio (y) = 0.43461 0.20991
# Poissons Ratio (z) = 0.19101 0.25136
#
# Static dielectric constant tensor:
#      x y z
#    x 2.017080 0.000000 0.000000 
#    y 0.000000 1.979530 0.000000 
#    z 0.000000 0.000000 1.981870 
# 
# From -- ./inp_files/4287.got.cif
#   From: 2010.05.17/outbox.cif.g08.bks.cpg/sg30_3_cif.got.tgz:4287.got - 2010.06.03 17:03:02.
