data_PCOD9342872
_publ_section_title
;
Structure prediction by ZEFSAII (Michael W. Deem and Ramdas Pophale) SiO2 
 PCOD9342872
Probable space group: P M N 21
;
_chemical_formula_sum "Si O2"
_cell_formula_units_Z 32
_cell_length_a 9.315944
_cell_length_b 11.731019
_cell_length_c 16.369437
_cell_angle_alpha 90.000000
_cell_angle_beta 90.000000
_cell_angle_gamma 90.000000
_cell_volume 1788.942370
_symmetry_space_group_name_H-M "P M N 21"
_symmetry_group_IT_number 31
_symmetry_cell_setting 'orthorhombic'
loop_
_space_group_symop_operation_xyz
x,y,z
1/2-x,-y,1/2+z
-x,y,z
1/2+x,-y,1/2+z
loop_
_atom_site_type_symbol
_atom_site_label
_atom_site_fract_x
_atom_site_fract_y
_atom_site_fract_z
Si Si1 0.670553 0.726745 0.461370
Si Si2 0.160259 0.906331 0.365404
Si Si3 0.172450 0.420882 0.802140
Si Si4 0.328998 0.936002 0.087024
Si Si5 0.828118 0.686000 0.792158
Si Si6 0.832859 0.148363 0.403121
Si Si7 0.326645 0.201251 0.119220
Si Si8 0.337596 0.238978 0.701068
O O1 0.500000 0.723926 0.473656
O O2 0.722602 0.845555 0.421034
O O3 0.708638 0.632609 0.391743
O O4 0.753544 0.725112 0.547138
O O5 0.153209 0.836391 0.282907
O O6 0.000000 0.902002 0.405351
O O7 0.191421 0.037185 0.347125
O O8 0.211777 0.553071 0.794655
O O9 0.250607 0.349218 0.731374
O O10 0.000000 0.408677 0.793314
O O11 0.500000 0.927630 0.102863
O O12 0.245616 0.841129 0.138342
O O13 0.287262 0.067043 0.107504
O O14 0.303541 0.901817 0.992867
O O15 0.761885 0.750621 0.869346
O O16 0.784562 0.748484 0.707679
O O17 0.000000 0.692526 0.796423
O O18 0.000000 0.181149 0.399766
O O19 0.500000 0.208561 0.111951
O O20 0.500000 0.266164 0.674029
#
# Coordination Sequence:
#
# PCOD9342872 Si02
#       8
#     4   4   4   4   4   4   4   4
#     4  10  19  32  56  84 109 142 181 230 278 323
#     4   9  17  33  54  78 111 143 176 220 275 333
#     4   9  20  40  58  77 111 149 188 229 278 331
#     4  10  20  35  55  81 116 148 177 221 282 342
#     4  10  22  39  59  81 110 151 192 234 276 328
#     4  10  20  35  55  79 113 149 177 224 282 332
#     4  10  20  37  59  83 112 146 185 229 281 339
#     4  10  20  33  56  85 108 140 184 231 272 320
#
# _framework density 17.887664999999998
#
# number of rings (size 3 to 8) (size 9 to 14) (size 15 to 20)
#    0.000    2.250    1.250    1.500    0.000    3.500 
#    2.250    0.000    0.000    0.000    0.000    0.000 
#    0.000    0.000    0.000    0.000    0.000    0.000 
#
# Total GULP energy -178367.614271 kJ/mol
# GULP energy per Si atom -5573.987946 kJ/mol
# Density = 1.784695 g / cm^3
# Si number density = 17.887665 Si / 1000 Ang^3
#
#
#
# Elastic Constant Matrix: (Units=GPa)
#
#
# Indices 1 2 3 4 5 6 
#
# 1 37.0972 51.3991 35.5281 0.0000 0.0000 0.0000
# 2 51.3991 141.4903 54.9027 0.0000 0.0000 0.0000
# 3 35.5281 54.9027 67.3949 0.0000 0.0000 0.0000
# 4 0.0000 0.0000 0.0000 24.3912 0.0000 0.0000
# 5 0.0000 0.0000 0.0000 0.0000 32.1738 0.0000
# 6 0.0000 0.0000 0.0000 0.0000 0.0000 24.8511
#
#
#
# Elastic Compliance Matrix: (Units=1/GPa)
#
#
# Indices 1 2 3 4 5 6 
#
# 1 0.076008 -0.017639 -0.025699 0.000000 0.000000 0.000000
# 2 -0.017639 0.014428 -0.002455 0.000000 0.000000 0.000000
# 3 -0.025699 -0.002455 0.030385 0.000000 0.000000 0.000000
# 4 0.000000 0.000000 0.000000 0.040998 0.000000 0.000000
# 5 0.000000 0.000000 0.000000 0.000000 0.031081 0.000000
# 6 0.000000 0.000000 0.000000 0.000000 0.000000 0.040240
#
#
# Mechanical properties :
#
#
# Convention : Reuss Voigt Hill
#
# Bulk Modulus (GPa) = 34.20545 58.84914 46.52729
# Shear Modulus (GPa) = 14.94897 23.22674 19.08786
#
# Velocity S-wave (km/s) = 2.89401 3.60735 3.27019
# Velocity P-wave (km/s) = 5.50735 7.09375 6.35029
#
# Compressibility (1/GPa) = 0.02923511
#
# Stress axis : x y z
#
# Youngs Moduli (GPa) = 13.15652 69.30953 32.91082
#
# Poissons Ratio (x) = 1.22258 0.84577
# Poissons Ratio (y) = 0.23207 0.08079
# Poissons Ratio (z) = 0.33811 0.17014
#
# Static dielectric constant tensor:
#      x y z
#    x 1.625110 0.000000 0.000000 
#    y 0.000000 1.609760 0.000000 
#    z 0.000000 0.000000 1.638000 
# 
# From -- ./inp_files/4921.got.cif
#   From: 2010.05.17/outbox.cif.g08.bks.cpg/sg31_3_cif.got.tgz:4921.got - 2010.06.03 17:08:30.
