data_PCOD9342570
_publ_section_title
;
Structure prediction by ZEFSAII (Michael W. Deem and Ramdas Pophale) SiO2 
 PCOD9342570
Probable space group: P N C 2
;
_chemical_formula_sum "Si O2"
_cell_formula_units_Z 24
_cell_length_a 11.221163
_cell_length_b 11.343873
_cell_length_c 9.119805
_cell_angle_alpha 90.000000
_cell_angle_beta 90.000000
_cell_angle_gamma 90.000000
_cell_volume 1160.873184
_symmetry_space_group_name_H-M "P N C 2"
_symmetry_group_IT_number 30
_symmetry_cell_setting 'orthorhombic'
loop_
_space_group_symop_operation_xyz
x,y,z
-x,-y,z
-x,1/2+y,1/2+z
x,1/2-y,1/2+z
loop_
_atom_site_type_symbol
_atom_site_label
_atom_site_fract_x
_atom_site_fract_y
_atom_site_fract_z
Si Si1 0.696158 0.722508 0.053930
Si Si2 0.462939 0.877144 0.989156
Si Si3 0.160455 0.375075 0.777413
Si Si4 0.625582 0.485246 0.176256
Si Si5 0.241623 0.776658 0.533186
Si Si6 0.889035 0.348761 0.758709
O O1 0.576412 0.790155 0.000050
O O2 0.782732 0.814909 0.134001
O O3 0.671476 0.619372 0.174788
O O4 0.757621 0.659469 0.915362
O O5 0.353163 0.808679 0.058567
O O6 0.500000 0.000000 0.064550
O O7 0.412905 0.921171 0.828954
O O8 0.146263 0.514465 0.751518
O O9 0.024919 0.334771 0.808087
O O10 0.500000 0.500000 0.090488
O O11 0.720477 0.402344 0.097931
O O12 0.127881 0.718459 0.607571
O O13 0.207394 0.790484 0.365400
#
# Coordination Sequence:
#
# PCOD9342570 Si02
#       6
#     4   4   4   4   4   4
#     4  12  24  44  71  95 140 171 223 278 336 394
#     4  11  24  41  66 100 133 166 214 272 332 405
#     4  11  25  45  65  97 126 182 224 278 328 395
#     4  11  22  41  66 100 132 171 214 263 338 403
#     4  12  22  43  66  96 129 175 213 281 332 394
#     4  11  25  43  67  91 133 171 233 271 333 394
#
# _framework density 20.674092999999999
#
# number of rings (size 3 to 8) (size 9 to 14) (size 15 to 20)
#    0.000    0.667    5.000    4.000    0.000    0.000 
#    0.000    0.000    0.000    0.000    0.000    0.000 
#    0.000    0.000    0.000    0.000    0.000    0.000 
#
# Total GULP energy -133913.375221 kJ/mol
# GULP energy per Si atom -5579.723968 kJ/mol
# Density = 2.062704 g / cm^3
# Si number density = 20.674093 Si / 1000 Ang^3
#
#
#
# Elastic Constant Matrix: (Units=GPa)
#
#
# Indices 1 2 3 4 5 6 
#
# 1 84.9094 45.7143 1.2456 0.0000 0.0000 0.0000
# 2 45.7143 99.5671 21.8332 0.0000 0.0000 0.0000
# 3 1.2456 21.8332 54.7430 0.0000 0.0000 0.0000
# 4 0.0000 0.0000 0.0000 12.5199 0.0000 0.0000
# 5 0.0000 0.0000 0.0000 0.0000 22.9753 0.0000
# 6 0.0000 0.0000 0.0000 0.0000 0.0000 38.4721
#
#
#
# Elastic Compliance Matrix: (Units=1/GPa)
#
#
# Indices 1 2 3 4 5 6 
#
# 1 0.016031 -0.007978 0.002817 0.000000 0.000000 0.000000
# 2 -0.007978 0.014977 -0.005792 0.000000 0.000000 0.000000
# 3 0.002817 -0.005792 0.020513 0.000000 0.000000 0.000000
# 4 0.000000 0.000000 0.000000 0.079873 0.000000 0.000000
# 5 0.000000 0.000000 0.000000 0.000000 0.043525 0.000000
# 6 0.000000 0.000000 0.000000 0.000000 0.000000 0.025993
#
#
# Mechanical properties :
#
#
# Convention : Reuss Voigt Hill
#
# Bulk Modulus (GPa) = 33.76600 41.86729 37.81665
# Shear Modulus (GPa) = 21.48795 26.15523 23.82159
#
# Velocity S-wave (km/s) = 3.22742 3.56071 3.39815
# Velocity P-wave (km/s) = 5.50057 6.09918 5.80759
#
# Compressibility (1/GPa) = 0.02961559
#
# Stress axis : x y z
#
# Youngs Moduli (GPa) = 62.37781 66.77123 48.74975
#
# Poissons Ratio (x) = 0.53272 -0.13734
# Poissons Ratio (y) = 0.49767 0.28234
# Poissons Ratio (z) = -0.17573 0.38671
#
# Static dielectric constant tensor:
#      x y z
#    x 1.724760 0.000000 0.000000 
#    y 0.000000 1.756150 0.000000 
#    z 0.000000 0.000000 1.728500 
# 
# From -- ./inp_files/2338.got.cif
#   From: 2010.05.17/outbox.cif.g08.bks.cpg/sg30_2_cif.got.tgz:2338.got - 2010.06.03 17:03:02.
