data_PCOD9342624
_publ_section_title
;
Structure prediction by ZEFSAII (Michael W. Deem and Ramdas Pophale) SiO2 
 PCOD9342624
Probable space group: P N C 2
;
_chemical_formula_sum "Si O2"
_cell_formula_units_Z 20
_cell_length_a 5.076048
_cell_length_b 13.843528
_cell_length_c 11.014102
_cell_angle_alpha 90.000000
_cell_angle_beta 90.000000
_cell_angle_gamma 90.000000
_cell_volume 773.965492
_symmetry_space_group_name_H-M "P N C 2"
_symmetry_group_IT_number 30
_symmetry_cell_setting 'orthorhombic'
loop_
_space_group_symop_operation_xyz
x,y,z
-x,-y,z
-x,1/2+y,1/2+z
x,1/2-y,1/2+z
loop_
_atom_site_type_symbol
_atom_site_label
_atom_site_fract_x
_atom_site_fract_y
_atom_site_fract_z
Si Si1 0.000000 0.000000 0.768920
Si Si2 0.871698 0.708664 0.943117
Si Si3 0.500000 0.671409 0.571424
Si Si4 0.500000 0.000000 0.225769
Si Si5 0.000000 0.000000 0.373927
Si Si6 0.128302 0.708664 0.199730
Si Si7 0.500000 0.000000 0.917078
O O1 0.116832 0.906868 0.701301
O O2 0.746734 0.959846 0.842268
O O3 1.000000 0.750000 0.821424
O O4 0.883168 0.593132 0.941546
O O5 0.590599 0.756288 0.965910
O O6 0.409400 0.756288 0.176938
O O7 0.641492 0.587165 0.651779
O O8 1.000000 0.757159 0.571424
O O9 0.358508 0.587165 0.491068
O O10 0.746734 0.040155 0.300580
#
# Coordination Sequence:
#
# PCOD9342624 Si02
#       7
#     2   4   4   2   2   4   2
#     4  12  27  49  78 120 169 214 285 350 421 498
#     4  12  27  50  79 118 166 221 278 353 425 509
#     4  11  26  46  85 114 174 220 285 339 434 512
#     4  11  26  48  81 122 164 227 279 344 418 525
#     4  12  27  49  78 120 169 214 285 350 421 498
#     4  12  27  50  79 118 166 221 278 353 425 509
#     4  11  26  48  81 122 164 227 279 344 418 525
#
# _framework density 25.840947
#
# number of rings (size 3 to 8) (size 9 to 14) (size 15 to 20)
#    0.000    0.400    4.000    3.000    5.600    4.800 
#    0.000    0.000    0.000    0.000    0.000    0.000 
#    0.000    0.000    0.000    0.000    0.000    0.000 
#
# Total GULP energy -111400.378986 kJ/mol
# GULP energy per Si atom -5570.018949 kJ/mol
# Density = 2.578213 g / cm^3
# Si number density = 25.840947 Si / 1000 Ang^3
#
#
#
# Elastic Constant Matrix: (Units=GPa)
#
#
# Indices 1 2 3 4 5 6 
#
# 1 65.0493 33.0894 31.5056 0.0000 0.0000 0.0000
# 2 33.0894 248.7273 61.7639 0.0000 0.0000 0.0000
# 3 31.5056 61.7639 141.7534 0.0000 0.0000 0.0000
# 4 0.0000 0.0000 0.0000 -0.4951 0.0000 0.0000
# 5 0.0000 0.0000 0.0000 0.0000 34.7238 0.0000
# 6 0.0000 0.0000 0.0000 0.0000 0.0000 28.2693
#
#
#
# Elastic Compliance Matrix: (Units=1/GPa)
#
#
# Indices 1 2 3 4 5 6 
#
# 1 0.017744 -0.001549 -0.003269 0.000000 0.000000 0.000000
# 2 -0.001549 0.004643 -0.001679 0.000000 0.000000 0.000000
# 3 -0.003269 -0.001679 0.008513 0.000000 0.000000 0.000000
# 4 0.000000 0.000000 0.000000 -2.019863 0.000000 0.000000
# 5 0.000000 0.000000 0.000000 0.000000 0.028799 0.000000
# 6 0.000000 0.000000 0.000000 0.000000 0.000000 0.035374
#
#
# Mechanical properties :
#
#
# Convention : Reuss Voigt Hill
#
# Bulk Modulus (GPa) = 55.84504 78.69420 67.26962
# Shear Modulus (GPa) = -2.62353 34.44434 15.91041
#
# Velocity S-wave (km/s) = -1.00870 3.65490 2.48403
# Velocity P-wave (km/s) = 4.50570 6.95201 5.85798
#
# Compressibility (1/GPa) = 0.01790669
#
# Stress axis : x y z
#
# Youngs Moduli (GPa) = 56.35688 215.35763 117.47315
#
# Poissons Ratio (x) = 0.33356 0.38401
# Poissons Ratio (y) = 0.08729 0.19723
# Poissons Ratio (z) = 0.18422 0.36158
#
# Static dielectric constant tensor:
#      x y z
#    x 6.066220 0.000000 0.000000 
#    y 0.000000 1.942230 0.000000 
#    z 0.000000 0.000000 2.358880 
# 
# From -- ./inp_files/3122.got.cif
#   From: 2010.05.17/outbox.cif.g08.bks.cpg/sg30_2_cif.got.tgz:3122.got - 2010.06.03 17:03:02.
