data_PCOD9342126
_publ_section_title
;
Structure prediction by ZEFSAII (Michael W. Deem and Ramdas Pophale) SiO2 
 PCOD9342126
Probable space group: P N C 2
;
_chemical_formula_sum "Si O2"
_cell_formula_units_Z 32
_cell_length_a 15.274136
_cell_length_b 10.985171
_cell_length_c 8.354306
_cell_angle_alpha 90.000000
_cell_angle_beta 90.000000
_cell_angle_gamma 90.000000
_cell_volume 1401.760615
_symmetry_space_group_name_H-M "P N C 2"
_symmetry_group_IT_number 30
_symmetry_cell_setting 'orthorhombic'
loop_
_space_group_symop_operation_xyz
x,y,z
-x,-y,z
-x,1/2+y,1/2+z
x,1/2-y,1/2+z
loop_
_atom_site_type_symbol
_atom_site_label
_atom_site_fract_x
_atom_site_fract_y
_atom_site_fract_z
Si Si1 0.508437 0.368994 0.883250
Si Si2 0.748717 0.639504 0.690162
Si Si3 0.009767 0.635954 0.559942
Si Si4 0.750992 0.978870 0.842700
Si Si5 0.788721 0.295565 0.524478
Si Si6 0.706603 0.106203 0.344636
Si Si7 0.896535 0.820625 0.754675
Si Si8 0.598524 0.668034 0.197052
O O1 0.500000 0.500000 0.792861
O O2 0.611673 0.354339 0.904952
O O3 0.468423 0.250633 0.798293
O O4 0.453366 0.381765 0.045819
O O5 0.773830 0.581056 0.518408
O O6 0.712780 0.536648 0.808609
O O7 0.827213 0.709113 0.779659
O O8 0.673669 0.735762 0.648234
O O9 0.111529 0.667837 0.554145
O O10 0.000000 0.500000 0.636078
O O11 0.961618 0.752952 0.635056
O O12 0.960115 0.629611 0.391212
O O13 0.826626 0.928686 0.724944
O O14 0.655093 0.933669 0.790033
O O15 0.756937 0.120739 0.876135
O O16 0.775879 0.157522 0.470931
O O17 0.730006 0.334611 0.673815
#
# Coordination Sequence:
#
# PCOD9342126 Si02
#       8
#     4   4   4   4   4   4   4   4
#     4  12  25  44  68 105 136 174 236 285 340 420
#     4  10  20  42  70 100 132 183 226 279 354 406
#     4  12  23  44  68 103 142 183 239 288 347 409
#     4  10  21  42  71  99 135 182 229 277 353 411
#     4  11  24  45  67  98 142 190 225 286 356 418
#     4  11  24  45  68  98 142 184 224 291 355 412
#     4  11  22  41  71 100 136 181 233 290 333 423
#     4  11  23  41  69  99 135 173 224 288 336 415
#
# _framework density 22.828431999999999
#
# number of rings (size 3 to 8) (size 9 to 14) (size 15 to 20)
#    0.000    1.000    5.000    2.250    0.000    2.000 
#    2.250    1.250    0.000    0.000    0.000    0.000 
#    0.000    0.000    0.000    0.000    0.000    0.000 
#
# Total GULP energy -178700.840900 kJ/mol
# GULP energy per Si atom -5584.401278 kJ/mol
# Density = 2.277647 g / cm^3
# Si number density = 22.828432 Si / 1000 Ang^3
#
#
#
# Elastic Constant Matrix: (Units=GPa)
#
#
# Indices 1 2 3 4 5 6 
#
# 1 138.7974 48.3971 26.3502 0.0000 0.0000 0.0000
# 2 48.3971 78.7001 29.2100 0.0000 0.0000 0.0000
# 3 26.3502 29.2100 39.2630 0.0000 0.0000 0.0000
# 4 0.0000 0.0000 0.0000 25.1736 0.0000 0.0000
# 5 0.0000 0.0000 0.0000 0.0000 25.6509 0.0000
# 6 0.0000 0.0000 0.0000 0.0000 0.0000 22.1913
#
#
#
# Elastic Compliance Matrix: (Units=1/GPa)
#
#
# Indices 1 2 3 4 5 6 
#
# 1 0.009384 -0.004743 -0.002769 0.000000 0.000000 0.000000
# 2 -0.004743 0.019951 -0.011659 0.000000 0.000000 0.000000
# 3 -0.002769 -0.011659 0.036002 0.000000 0.000000 0.000000
# 4 0.000000 0.000000 0.000000 0.039724 0.000000 0.000000
# 5 0.000000 0.000000 0.000000 0.000000 0.038985 0.000000
# 6 0.000000 0.000000 0.000000 0.000000 0.000000 0.045063
#
#
# Mechanical properties :
#
#
# Convention : Reuss Voigt Hill
#
# Bulk Modulus (GPa) = 37.04609 51.63057 44.33833
# Shear Modulus (GPa) = 21.14612 24.79004 22.96808
#
# Velocity S-wave (km/s) = 3.04683 3.29892 3.17538
# Velocity P-wave (km/s) = 5.35171 6.09724 5.73660
#
# Compressibility (1/GPa) = 0.02699340
#
# Stress axis : x y z
#
# Youngs Moduli (GPa) = 106.56010 50.12365 27.77636
#
# Poissons Ratio (x) = 0.23774 0.07692
# Poissons Ratio (y) = 0.50543 0.32385
# Poissons Ratio (z) = 0.29511 0.58440
#
# Static dielectric constant tensor:
#      x y z
#    x 1.835620 0.000000 0.000000 
#    y 0.000000 1.896890 0.000000 
#    z 0.000000 0.000000 1.900410 
# 
# From -- ./inp_files/2685.got.cif
#   From: 2010.05.17/outbox.cif.g08.bks.cpg/sg30_2_cif.got.tgz:2685.got - 2010.06.03 17:03:02.
