data_PCOD9342113
_publ_section_title
;
Structure prediction by ZEFSAII (Michael W. Deem and Ramdas Pophale) SiO2 
 PCOD9342113
Probable space group: P N C 2
;
_chemical_formula_sum "Si O2"
_cell_formula_units_Z 22
_cell_length_a 6.131614
_cell_length_b 12.128423
_cell_length_c 14.578628
_cell_angle_alpha 90.000000
_cell_angle_beta 90.000000
_cell_angle_gamma 90.000000
_cell_volume 1084.166033
_symmetry_space_group_name_H-M "P N C 2"
_symmetry_group_IT_number 30
_symmetry_cell_setting 'orthorhombic'
loop_
_space_group_symop_operation_xyz
x,y,z
-x,-y,z
-x,1/2+y,1/2+z
x,1/2-y,1/2+z
loop_
_atom_site_type_symbol
_atom_site_label
_atom_site_fract_x
_atom_site_fract_y
_atom_site_fract_z
Si Si1 0.500000 0.000000 0.938820
Si Si2 0.572511 0.742265 0.498989
Si Si3 0.802035 0.066213 0.789189
Si Si4 0.658256 0.392751 0.847680
Si Si5 0.539250 0.769557 0.712447
Si Si6 0.932610 0.770926 0.354545
O O1 0.705092 0.991774 0.870086
O O2 0.503152 0.114906 0.991443
O O3 0.419243 0.818862 0.435148
O O4 0.581146 0.770472 0.605223
O O5 0.804504 0.759179 0.449414
O O6 0.600041 0.119739 0.734421
O O7 0.902859 0.171196 0.839720
O O8 0.000000 0.000000 0.741147
O O9 0.500000 0.500000 0.851334
O O10 0.603689 0.331892 0.751320
O O11 0.921708 0.381880 0.851096
O O12 0.756103 0.749276 0.773294
#
# Coordination Sequence:
#
# PCOD9342113 Si02
#       6
#     2   4   4   4   4   4
#     4  12  20  40  68  96 124 168 224 286 336 396
#     4  11  23  40  65  98 132 169 227 279 337 408
#     4  11  19  39  67  91 130 176 217 278 339 397
#     4  10  23  45  65  88 136 184 218 275 334 412
#     4  10  23  40  63 102 133 169 230 276 338 407
#     4  10  20  41  65  91 132 173 221 272 341 398
#
# _framework density 20.292096999999998
#
# number of rings (size 3 to 8) (size 9 to 14) (size 15 to 20)
#    0.000    1.455    7.273    0.000    1.273    5.818 
#    4.909    1.818    0.000    0.000    0.000    0.000 
#    0.000    0.000    0.000    0.000    0.000    0.000 
#
# Total GULP energy -122485.260566 kJ/mol
# GULP energy per Si atom -5567.511844 kJ/mol
# Density = 2.024591 g / cm^3
# Si number density = 20.292097 Si / 1000 Ang^3
#
#
#
# Elastic Constant Matrix: (Units=GPa)
#
#
# Indices 1 2 3 4 5 6 
#
# 1 118.8454 47.1251 54.4880 0.0000 0.0000 0.0000
# 2 47.1251 122.0972 37.9751 0.0000 0.0000 0.0000
# 3 54.4880 37.9751 159.2009 0.0000 0.0000 0.0000
# 4 0.0000 0.0000 0.0000 15.5354 0.0000 0.0000
# 5 0.0000 0.0000 0.0000 0.0000 4.9684 0.0000
# 6 0.0000 0.0000 0.0000 0.0000 0.0000 47.1532
#
#
#
# Elastic Compliance Matrix: (Units=1/GPa)
#
#
# Indices 1 2 3 4 5 6 
#
# 1 0.011124 -0.003359 -0.003006 0.000000 0.000000 0.000000
# 2 -0.003359 0.009861 -0.001203 0.000000 0.000000 0.000000
# 3 -0.003006 -0.001203 0.007597 0.000000 0.000000 0.000000
# 4 0.000000 0.000000 0.000000 0.064369 0.000000 0.000000
# 5 0.000000 0.000000 0.000000 0.000000 0.201271 0.000000
# 6 0.000000 0.000000 0.000000 0.000000 0.000000 0.021207
#
#
# Mechanical properties :
#
#
# Convention : Reuss Voigt Hill
#
# Bulk Modulus (GPa) = 74.36511 75.47999 74.92255
# Shear Modulus (GPa) = 14.92330 30.90176 22.91253
#
# Velocity S-wave (km/s) = 2.71481 3.90660 3.36391
# Velocity P-wave (km/s) = 6.82304 7.59119 7.21734
#
# Compressibility (1/GPa) = 0.01344717
#
# Stress axis : x y z
#
# Youngs Moduli (GPa) = 89.89276 101.41454 131.62810
#
# Poissons Ratio (x) = 0.34061 0.39571
# Poissons Ratio (y) = 0.30191 0.15829
# Poissons Ratio (z) = 0.27024 0.12196
#
# Static dielectric constant tensor:
#      x y z
#    x 1.843130 0.000000 0.000000 
#    y 0.000000 1.814570 0.000000 
#    z 0.000000 0.000000 1.652570 
# 
# From -- ./inp_files/4630.got.cif
#   From: 2010.05.17/outbox.cif.g08.bks.cpg/sg30_3_cif.got.tgz:4630.got - 2010.06.03 17:03:02.
