data_PCOD9342149
_publ_section_title
;
Structure prediction by ZEFSAII (Michael W. Deem and Ramdas Pophale) SiO2 
 PCOD9342149
Probable space group: P N C 2
;
_chemical_formula_sum "Si O2"
_cell_formula_units_Z 26
_cell_length_a 17.753209
_cell_length_b 5.517354
_cell_length_c 11.052035
_cell_angle_alpha 90.000000
_cell_angle_beta 90.000000
_cell_angle_gamma 90.000000
_cell_volume 1082.554992
_symmetry_space_group_name_H-M "P N C 2"
_symmetry_group_IT_number 30
_symmetry_cell_setting 'orthorhombic'
loop_
_space_group_symop_operation_xyz
x,y,z
-x,-y,z
-x,1/2+y,1/2+z
x,1/2-y,1/2+z
loop_
_atom_site_type_symbol
_atom_site_label
_atom_site_fract_x
_atom_site_fract_y
_atom_site_fract_z
Si Si1 0.500000 0.000000 0.125000
Si Si2 0.919393 0.883399 0.467371
Si Si3 0.263959 0.091538 0.831879
Si Si4 0.500000 0.000000 0.506432
Si Si5 0.428200 0.181909 0.816021
Si Si6 0.000000 0.500000 0.315742
Si Si7 0.794664 0.841991 0.099296
Si Si8 0.136732 0.782530 0.253139
O O1 0.563510 0.864925 0.203782
O O2 0.467080 0.750338 0.065440
O O3 0.864755 0.840847 0.579580
O O4 0.940659 0.630917 0.403267
O O5 0.876386 0.026635 0.361987
O O6 0.000000 0.000000 0.492346
O O7 0.352175 0.032029 0.821737
O O8 0.250967 0.279692 0.720776
O O9 0.203239 0.888532 0.799895
O O10 0.248473 0.164828 0.971533
O O11 0.436162 0.131826 0.427192
O O12 0.500000 0.000000 0.815563
O O13 0.052023 0.679925 0.240502
O O14 0.834335 0.095493 0.130270
#
# Coordination Sequence:
#
# PCOD9342149 Si02
#       8
#     2   4   4   2   4   2   4   4
#     4  11  24  49  82 124 160 209 274 353 422 503
#     4  10  23  48  75 108 150 211 265 328 397 487
#     4  12  30  51  80 112 163 215 266 336 412 495
#     4  11  24  49  86 120 162 205 280 349 424 497
#     4  11  27  51  80 122 160 217 284 343 417 513
#     4  10  20  48  72 106 146 204 266 324 398 482
#     4  12  26  52  71 117 158 207 265 325 409 482
#     4  11  24  48  75 111 157 204 264 332 405 490
#
# _framework density 24.017254999999999
#
# number of rings (size 3 to 8) (size 9 to 14) (size 15 to 20)
#    0.000    0.923    4.615    0.000    4.308    2.462 
#   20.769    0.000    0.000    0.000    0.000    0.000 
#    0.000    0.000    0.000    0.000    0.000    0.000 
#
# Total GULP energy -145090.115049 kJ/mol
# GULP energy per Si atom -5580.389040 kJ/mol
# Density = 2.396259 g / cm^3
# Si number density = 24.017255 Si / 1000 Ang^3
#
#
#
# Elastic Constant Matrix: (Units=GPa)
#
#
# Indices 1 2 3 4 5 6 
#
# 1 151.6842 36.1991 38.9186 0.0000 0.0000 0.0000
# 2 36.1991 110.8094 36.1431 0.0000 0.0000 0.0000
# 3 38.9186 36.1431 128.2018 0.0000 0.0000 0.0000
# 4 0.0000 0.0000 0.0000 44.9375 0.0000 0.0000
# 5 0.0000 0.0000 0.0000 0.0000 -21.8092 0.0000
# 6 0.0000 0.0000 0.0000 0.0000 0.0000 29.5669
#
#
#
# Elastic Compliance Matrix: (Units=1/GPa)
#
#
# Indices 1 2 3 4 5 6 
#
# 1 0.007488 -0.001877 -0.001744 0.000000 0.000000 0.000000
# 2 -0.001877 0.010409 -0.002365 0.000000 0.000000 0.000000
# 3 -0.001744 -0.002365 0.008996 0.000000 0.000000 0.000000
# 4 0.000000 0.000000 0.000000 0.022253 0.000000 0.000000
# 5 0.000000 0.000000 0.000000 0.000000 -0.045852 0.000000
# 6 0.000000 0.000000 0.000000 0.000000 0.000000 0.033822
#
#
# Mechanical properties :
#
#
# Convention : Reuss Voigt Hill
#
# Bulk Modulus (GPa) = 67.01704 68.13523 67.57614
# Shear Modulus (GPa) = 92.48700 29.16802 60.82751
#
# Velocity S-wave (km/s) = 6.21226 3.48869 5.03801
# Velocity P-wave (km/s) = 8.91182 6.68273 7.87653
#
# Compressibility (1/GPa) = 0.01492158
#
# Stress axis : x y z
#
# Youngs Moduli (GPa) = 133.54466 96.06986 111.15743
#
# Poissons Ratio (x) = 0.18036 0.19385
# Poissons Ratio (y) = 0.25072 0.26285
# Poissons Ratio (z) = 0.23289 0.22717
#
# Static dielectric constant tensor:
#      x y z
#    x 1.855640 0.000000 0.000000 
#    y 0.000000 2.025820 0.000000 
#    z 0.000000 0.000000 2.058860 
# 
# From -- ./inp_files/4437.got.cif
#   From: 2010.05.17/outbox.cif.g08.bks.cpg/sg30_3_cif.got.tgz:4437.got - 2010.06.03 17:03:02.
