data_PCOD9342789
_publ_section_title
;
Structure prediction by ZEFSAII (Michael W. Deem and Ramdas Pophale) SiO2 
 PCOD9342789
Probable space group: P M N 21
;
_chemical_formula_sum "Si O2"
_cell_formula_units_Z 24
_cell_length_a 13.574705
_cell_length_b 9.028067
_cell_length_c 7.791804
_cell_angle_alpha 90.000000
_cell_angle_beta 90.000000
_cell_angle_gamma 90.000000
_cell_volume 954.911653
_symmetry_space_group_name_H-M "P M N 21"
_symmetry_group_IT_number 31
_symmetry_cell_setting 'orthorhombic'
loop_
_space_group_symop_operation_xyz
x,y,z
1/2-x,-y,1/2+z
-x,y,z
1/2+x,-y,1/2+z
loop_
_atom_site_type_symbol
_atom_site_label
_atom_site_fract_x
_atom_site_fract_y
_atom_site_fract_z
Si Si1 0.117734 0.352416 0.226030
Si Si2 0.226951 0.499024 0.551915
Si Si3 0.390281 0.200163 0.053577
Si Si4 0.108301 0.268523 0.738657
Si Si5 0.891351 0.966894 0.921861
Si Si6 0.175576 0.090613 0.422073
O O1 0.177861 0.423914 0.386185
O O2 0.152881 0.181103 0.249157
O O3 0.000000 0.359730 0.238122
O O4 0.159098 0.452590 0.069910
O O5 0.173876 0.655491 0.573819
O O6 0.193188 0.386525 0.703212
O O7 0.500000 0.245970 0.005854
O O8 0.351822 0.081035 0.916327
O O9 0.393022 0.114291 0.235274
O O10 0.118761 0.142783 0.882957
O O11 0.109305 0.170030 0.564625
O O12 0.000000 0.338901 0.755379
O O13 0.000000 0.941375 0.001236
O O14 0.788118 0.904585 0.990679
#
# Coordination Sequence:
#
# PCOD9342789 Si02
#       6
#     4   4   4   4   4   4
#     4  11  24  44  65  95 135 177 219 269 339 399
#     4  11  22  40  66  96 130 170 217 275 321 394
#     4  10  19  34  60  89 113 158 215 259 311 381
#     4   9  19  36  57  81 117 159 202 253 321 380
#     4   9  18  33  54  83 115 151 202 255 309 378
#     4  10  18  35  60  82 120 163 207 265 317 380
#
# _framework density 25.133216999999998
#
# number of rings (size 3 to 8) (size 9 to 14) (size 15 to 20)
#    0.000    2.000    1.667    5.000    2.333    0.000 
#    0.000    6.667    0.000    0.000    0.000    0.000 
#    0.000    0.000    0.000    0.000    0.000    0.000 
#
# Total GULP energy -134081.353273 kJ/mol
# GULP energy per Si atom -5586.723053 kJ/mol
# Density = 2.507601 g / cm^3
# Si number density = 25.133217 Si / 1000 Ang^3
#
#
#
# Elastic Constant Matrix: (Units=GPa)
#
#
# Indices 1 2 3 4 5 6 
#
# 1 202.8012 31.5465 10.4391 0.0000 0.0000 0.0000
# 2 31.5465 115.9493 4.2899 0.0000 0.0000 0.0000
# 3 10.4391 4.2899 71.6262 0.0000 0.0000 0.0000
# 4 0.0000 0.0000 0.0000 13.6027 0.0000 0.0000
# 5 0.0000 0.0000 0.0000 0.0000 28.4415 0.0000
# 6 0.0000 0.0000 0.0000 0.0000 0.0000 32.5666
#
#
#
# Elastic Compliance Matrix: (Units=1/GPa)
#
#
# Indices 1 2 3 4 5 6 
#
# 1 0.005181 -0.001385 -0.000672 0.000000 0.000000 0.000000
# 2 -0.001385 0.009014 -0.000338 0.000000 0.000000 0.000000
# 3 -0.000672 -0.000338 0.014080 0.000000 0.000000 0.000000
# 4 0.000000 0.000000 0.000000 0.073515 0.000000 0.000000
# 5 0.000000 0.000000 0.000000 0.000000 0.035160 0.000000
# 6 0.000000 0.000000 0.000000 0.000000 0.000000 0.030706
#
#
# Mechanical properties :
#
#
# Convention : Reuss Voigt Hill
#
# Bulk Modulus (GPa) = 42.58146 53.65862 48.12004
# Shear Modulus (GPa) = 27.73571 37.86224 32.79898
#
# Velocity S-wave (km/s) = 3.32557 3.88553 3.61640
# Velocity P-wave (km/s) = 5.63249 6.44405 6.05189
#
# Compressibility (1/GPa) = 0.02348440
#
# Stress axis : x y z
#
# Youngs Moduli (GPa) = 193.01539 110.94209 71.02484
#
# Poissons Ratio (x) = 0.15362 0.04774
# Poissons Ratio (y) = 0.26727 0.02401
# Poissons Ratio (z) = 0.12974 0.03750
#
# Static dielectric constant tensor:
#      x y z
#    x 1.983950 0.000000 0.000000 
#    y 0.000000 1.962670 0.000000 
#    z 0.000000 0.000000 2.151180 
# 
# From -- ./inp_files/3918.got.cif
#   From: 2010.05.17/outbox.cif.g08.bks.cpg/sg31_2_cif.got.tgz:3918.got - 2010.06.03 17:08:30.
