data_PCOD9342842
_publ_section_title
;
Structure prediction by ZEFSAII (Michael W. Deem and Ramdas Pophale) SiO2 
 PCOD9342842
Probable space group: P M N 21
;
_chemical_formula_sum "Si O2"
_cell_formula_units_Z 32
_cell_length_a 7.530667
_cell_length_b 11.054731
_cell_length_c 14.523198
_cell_angle_alpha 90.000000
_cell_angle_beta 90.000000
_cell_angle_gamma 90.000000
_cell_volume 1209.048942
_symmetry_space_group_name_H-M "P M N 21"
_symmetry_group_IT_number 31
_symmetry_cell_setting 'orthorhombic'
loop_
_space_group_symop_operation_xyz
x,y,z
1/2-x,-y,1/2+z
-x,y,z
1/2+x,-y,1/2+z
loop_
_atom_site_type_symbol
_atom_site_label
_atom_site_fract_x
_atom_site_fract_y
_atom_site_fract_z
Si Si1 0.202791 0.086409 0.762920
Si Si2 0.206192 0.800870 0.084776
Si Si3 0.218300 0.543578 0.102091
Si Si4 0.711360 0.849860 0.649734
Si Si5 0.796374 0.956046 0.933604
Si Si6 0.287863 0.690431 0.489725
Si Si7 0.788861 0.287823 0.330751
Si Si8 0.712837 0.448566 0.814138
O O1 0.205401 0.962140 0.703379
O O2 0.285155 0.049401 0.860784
O O3 0.000000 0.123616 0.776622
O O4 0.288796 0.180684 0.694065
O O5 0.281174 0.670876 0.059748
O O6 0.000000 0.801145 0.059331
O O7 0.285625 0.914656 0.030034
O O8 0.278691 0.428066 0.044925
O O9 0.275240 0.550729 0.208690
O O10 0.000000 0.542510 0.101468
O O11 0.500000 0.878302 0.645435
O O12 0.774791 0.806275 0.549179
O O13 0.731975 0.737789 0.721096
O O14 0.796962 0.825698 0.881754
O O15 0.000000 0.997902 0.946734
O O16 0.500000 0.694617 0.499991
O O17 0.254639 0.661689 0.382714
O O18 0.722309 0.421792 0.353994
O O19 0.000000 0.279695 0.348660
O O20 0.500000 0.455900 0.810286
#
# Coordination Sequence:
#
# PCOD9342842 Si02
#       8
#     4   4   4   4   4   4   4   4
#     4  10  21  37  56  80 110 137 172 231 284 315
#     4  10  20  37  59  79 105 147 189 219 260 327
#     4   9  18  35  57  79 109 147 183 218 262 323
#     4   9  17  33  56  77 101 137 181 219 259 319
#     4   9  19  35  56  82 106 136 180 230 275 313
#     4  10  19  34  56  81 108 144 184 217 260 324
#     4   9  16  29  52  78 105 139 177 219 261 313
#     4  10  19  32  50  78 114 145 174 217 271 318
#
# _framework density 26.467082000000001
#
# number of rings (size 3 to 8) (size 9 to 14) (size 15 to 20)
#    0.000    2.500    1.250    1.125    0.000    3.000 
#    2.250    1.875    0.000    0.000    0.000    0.000 
#    0.000    0.000    0.000    0.000    0.000    0.000 
#
# Total GULP energy -178873.586716 kJ/mol
# GULP energy per Si atom -5589.799585 kJ/mol
# Density = 2.640684 g / cm^3
# Si number density = 26.467082 Si / 1000 Ang^3
#
#
#
# Elastic Constant Matrix: (Units=GPa)
#
#
# Indices 1 2 3 4 5 6 
#
# 1 72.2814 -3.4707 1.3276 0.0000 0.0000 0.0000
# 2 -3.4707 91.1451 14.1600 0.0000 0.0000 0.0000
# 3 1.3276 14.1600 148.1387 0.0000 0.0000 0.0000
# 4 0.0000 0.0000 0.0000 52.3977 0.0000 0.0000
# 5 0.0000 0.0000 0.0000 0.0000 18.9998 0.0000
# 6 0.0000 0.0000 0.0000 0.0000 0.0000 13.0191
#
#
#
# Elastic Compliance Matrix: (Units=1/GPa)
#
#
# Indices 1 2 3 4 5 6 
#
# 1 0.013865 0.000556 -0.000177 0.000000 0.000000 0.000000
# 2 0.000556 0.011159 -0.001072 0.000000 0.000000 0.000000
# 3 -0.000177 -0.001072 0.006854 0.000000 0.000000 0.000000
# 4 0.000000 0.000000 0.000000 0.019085 0.000000 0.000000
# 5 0.000000 0.000000 0.000000 0.000000 0.052632 0.000000
# 6 0.000000 0.000000 0.000000 0.000000 0.000000 0.076811
#
#
# Mechanical properties :
#
#
# Convention : Reuss Voigt Hill
#
# Bulk Modulus (GPa) = 32.79616 37.28880 35.04248
# Shear Modulus (GPa) = 26.04755 36.85319 31.45037
#
# Velocity S-wave (km/s) = 3.14052 3.73556 3.45089
# Velocity P-wave (km/s) = 5.05655 5.72059 5.39879
#
# Compressibility (1/GPa) = 0.03049138
#
# Stress axis : x y z
#
# Youngs Moduli (GPa) = 72.12533 89.61248 145.89058
#
# Poissons Ratio (x) = -0.04978 0.02587
# Poissons Ratio (y) = -0.04007 0.15634
# Poissons Ratio (z) = 0.01279 0.09603
#
# Static dielectric constant tensor:
#      x y z
#    x 1.959140 0.000000 0.000000 
#    y 0.000000 2.097540 0.000000 
#    z 0.000000 0.000000 2.143050 
# 
# From -- ./inp_files/5139.got.cif
#   From: 2010.05.17/outbox.cif.g08.bks.cpg/sg31_3_cif.got.tgz:5139.got - 2010.06.03 17:08:30.
