data_PCOD9342750
_publ_section_title
;
Structure prediction by ZEFSAII (Michael W. Deem and Ramdas Pophale) SiO2 
 PCOD9342750
Probable space group: P M N 21
;
_chemical_formula_sum "Si O2"
_cell_formula_units_Z 32
_cell_length_a 7.328567
_cell_length_b 18.690769
_cell_length_c 10.118947
_cell_angle_alpha 90.000000
_cell_angle_beta 90.000000
_cell_angle_gamma 90.000000
_cell_volume 1386.058479
_symmetry_space_group_name_H-M "P M N 21"
_symmetry_group_IT_number 31
_symmetry_cell_setting 'orthorhombic'
loop_
_space_group_symop_operation_xyz
x,y,z
1/2-x,-y,1/2+z
-x,y,z
1/2+x,-y,1/2+z
loop_
_atom_site_type_symbol
_atom_site_label
_atom_site_fract_x
_atom_site_fract_y
_atom_site_fract_z
Si Si1 0.222849 0.842063 0.475800
Si Si2 0.277440 0.317386 0.045237
Si Si3 0.220312 0.560154 0.034389
Si Si4 0.290424 0.121626 0.690809
Si Si5 0.721899 0.319119 0.335155
Si Si6 0.286450 0.429540 0.835228
Si Si7 0.779439 0.955243 0.690724
Si Si8 0.276892 0.159461 0.405277
O O1 0.275599 0.765532 0.533973
O O2 0.289431 0.850386 0.326922
O O3 0.279099 0.909580 0.563405
O O4 0.000000 0.843410 0.476737
O O5 0.500000 0.319755 0.043333
O O6 0.221002 0.346097 0.189640
O O7 0.211511 0.362944 0.920286
O O8 0.286275 0.556355 0.186807
O O9 0.000000 0.559477 0.037813
O O10 0.280328 0.631727 0.957001
O O11 0.272406 0.495679 0.936504
O O12 0.500000 0.146719 0.690325
O O13 0.211010 0.148442 0.553819
O O14 0.288769 0.035715 0.692614
O O15 0.500000 0.319906 0.335995
O O16 0.778039 0.236803 0.351763
O O17 0.500000 0.414129 0.814769
O O18 0.721103 0.907088 0.814879
O O19 0.000000 0.959199 0.690989
O O20 0.500000 0.158527 0.403399
#
# Coordination Sequence:
#
# PCOD9342750 Si02
#       8
#     4   4   4   4   4   4   4   4
#     4   9  17  29  47  72  98 126 164 209 252 293
#     4   9  16  29  50  75 101 130 169 215 255 294
#     4  10  21  35  55  83 111 140 174 213 259 311
#     4  10  20  30  46  72  99 124 158 210 259 294
#     4   9  16  29  50  75 101 130 169 215 255 294
#     4  10  21  35  55  83 111 140 174 213 259 311
#     4  10  18  32  50  68  93 130 168 200 245 306
#     4   9  17  29  47  72  98 126 164 209 252 293
#
# _framework density 23.087050000000001
#
# number of rings (size 3 to 8) (size 9 to 14) (size 15 to 20)
#    0.000    2.500    1.250    1.500    1.750    1.500 
#    0.000    0.000    0.000    3.000    0.000    0.000 
#    0.000    0.000    0.000    0.000    0.000    0.000 
#
# Total GULP energy -178794.233891 kJ/mol
# GULP energy per Si atom -5587.319809 kJ/mol
# Density = 2.303450 g / cm^3
# Si number density = 23.087050 Si / 1000 Ang^3
#
#
#
# Elastic Constant Matrix: (Units=GPa)
#
#
# Indices 1 2 3 4 5 6 
#
# 1 89.1192 -17.1851 -1.7554 0.0000 0.0000 0.0000
# 2 -17.1851 66.8591 36.4990 0.0000 0.0000 0.0000
# 3 -1.7554 36.4990 205.2388 0.0000 0.0000 0.0000
# 4 0.0000 0.0000 0.0000 43.9577 0.0000 0.0000
# 5 0.0000 0.0000 0.0000 0.0000 -8.9800 0.0000
# 6 0.0000 0.0000 0.0000 0.0000 0.0000 14.8656
#
#
#
# Elastic Compliance Matrix: (Units=1/GPa)
#
#
# Indices 1 2 3 4 5 6 
#
# 1 0.011850 0.003312 -0.000488 0.000000 0.000000 0.000000
# 2 0.003312 0.017491 -0.003082 0.000000 0.000000 0.000000
# 3 -0.000488 -0.003082 0.005416 0.000000 0.000000 0.000000
# 4 0.000000 0.000000 0.000000 0.022749 0.000000 0.000000
# 5 0.000000 0.000000 0.000000 0.000000 -0.111358 0.000000
# 6 0.000000 0.000000 0.000000 0.000000 0.000000 0.067269
#
#
# Mechanical properties :
#
#
# Convention : Reuss Voigt Hill
#
# Bulk Modulus (GPa) = 29.20426 44.03711 36.62069
# Shear Modulus (GPa) = 197.26474 32.87925 115.07200
#
# Velocity S-wave (km/s) = 9.25361 3.77788 7.06759
# Velocity P-wave (km/s) = 11.26275 6.17621 9.08282
#
# Compressibility (1/GPa) = 0.03424157
#
# Stress axis : x y z
#
# Youngs Moduli (GPa) = 84.38819 57.17314 184.62712
#
# Poissons Ratio (x) = -0.18936 0.09003
# Poissons Ratio (y) = -0.27950 0.56905
# Poissons Ratio (z) = 0.04115 0.17622
#
# Static dielectric constant tensor:
#      x y z
#    x 1.911850 0.000000 0.000000 
#    y 0.000000 1.795700 0.000000 
#    z 0.000000 0.000000 1.864750 
# 
# From -- ./inp_files/2274.got.cif
#   From: 2010.05.17/outbox.cif.g08.bks.cpg/sg31_2_cif.got.tgz:2274.got - 2010.06.03 17:08:30.
