data_PCOD9342886
_publ_section_title
;
Structure prediction by ZEFSAII (Michael W. Deem and Ramdas Pophale) SiO2 
 PCOD9342886
Probable space group: P M N 21
;
_chemical_formula_sum "Si O2"
_cell_formula_units_Z 32
_cell_length_a 7.373045
_cell_length_b 10.885611
_cell_length_c 14.566942
_cell_angle_alpha 90.000000
_cell_angle_beta 90.000000
_cell_angle_gamma 90.000000
_cell_volume 1169.144218
_symmetry_space_group_name_H-M "P M N 21"
_symmetry_group_IT_number 31
_symmetry_cell_setting 'orthorhombic'
loop_
_space_group_symop_operation_xyz
x,y,z
1/2-x,-y,1/2+z
-x,y,z
1/2+x,-y,1/2+z
loop_
_atom_site_type_symbol
_atom_site_label
_atom_site_fract_x
_atom_site_fract_y
_atom_site_fract_z
Si Si1 0.779230 0.972358 0.107160
Si Si2 0.218285 0.554064 0.270571
Si Si3 0.790678 0.930779 0.900542
Si Si4 0.716936 0.576149 0.942000
Si Si5 0.282769 0.197760 0.884912
Si Si6 0.714524 0.293344 0.613524
Si Si7 0.721382 0.341348 0.058740
Si Si8 0.209976 0.791380 0.729973
O O1 0.722173 0.839314 0.146200
O O2 0.000000 0.978845 0.107891
O O3 0.713821 0.087307 0.165127
O O4 0.714630 0.961037 0.001349
O O5 0.285238 0.447330 0.338995
O O6 0.257263 0.681372 0.325449
O O7 0.291281 0.591171 0.170663
O O8 0.000000 0.539096 0.265544
O O9 0.708336 0.834626 0.827312
O O10 0.000000 0.895425 0.914054
O O11 0.788807 0.066407 0.854762
O O12 0.500000 0.567492 0.938120
O O13 0.759535 0.692053 0.004659
O O14 0.783256 0.463049 0.005758
O O15 0.500000 0.187655 0.883625
O O16 0.223999 0.232644 0.988605
O O17 0.500000 0.294269 0.629096
O O18 0.500000 0.342700 0.060838
O O19 0.787392 0.313194 0.161720
O O20 0.000000 0.762442 0.745644
#
# Coordination Sequence:
#
# PCOD9342886 Si02
#       8
#     4   4   4   4   4   4   4   4
#     4  10  21  36  52  76 110 142 169 208 259 309
#     4   8  16  32  55  77  99 133 175 214 255 301
#     4  10  20  31  46  75 111 137 160 204 263 305
#     4   9  18  35  56  77  99 129 173 221 258 296
#     4   9  15  29  54  75  94 130 176 209 239 297
#     4  10  20  36  54  75 106 141 172 208 260 313
#     4   8  15  30  52  74  95 125 167 211 250 293
#     4  10  19  33  53  77 104 137 172 207 252 310
#
# _framework density 27.370446999999999
#
# number of rings (size 3 to 8) (size 9 to 14) (size 15 to 20)
#    0.000    2.750    1.250    2.250    0.000    2.000 
#    2.250    4.375    0.000    0.000    0.000    0.000 
#    0.000    0.000    0.000    0.000    0.000    0.000 
#
# Total GULP energy -178918.701973 kJ/mol
# GULP energy per Si atom -5591.209437 kJ/mol
# Density = 2.730815 g / cm^3
# Si number density = 27.370447 Si / 1000 Ang^3
#
#
#
# Elastic Constant Matrix: (Units=GPa)
#
#
# Indices 1 2 3 4 5 6 
#
# 1 107.1617 8.7147 7.4817 0.0000 0.0000 0.0000
# 2 8.7147 97.8132 23.9076 0.0000 0.0000 0.0000
# 3 7.4817 23.9076 160.8335 0.0000 0.0000 0.0000
# 4 0.0000 0.0000 0.0000 59.2464 0.0000 0.0000
# 5 0.0000 0.0000 0.0000 0.0000 9.9026 0.0000
# 6 0.0000 0.0000 0.0000 0.0000 0.0000 18.7197
#
#
#
# Elastic Compliance Matrix: (Units=1/GPa)
#
#
# Indices 1 2 3 4 5 6 
#
# 1 0.009416 -0.000759 -0.000325 0.000000 0.000000 0.000000
# 2 -0.000759 0.010670 -0.001551 0.000000 0.000000 0.000000
# 3 -0.000325 -0.001551 0.006463 0.000000 0.000000 0.000000
# 4 0.000000 0.000000 0.000000 0.016879 0.000000 0.000000
# 5 0.000000 0.000000 0.000000 0.000000 0.100983 0.000000
# 6 0.000000 0.000000 0.000000 0.000000 0.000000 0.053420
#
#
# Mechanical properties :
#
#
# Convention : Reuss Voigt Hill
#
# Bulk Modulus (GPa) = 46.99488 49.55739 48.27613
# Shear Modulus (GPa) = 23.78743 39.28736 31.53739
#
# Velocity S-wave (km/s) = 2.95123 3.79277 3.39815
# Velocity P-wave (km/s) = 5.36845 6.10947 5.75091
#
# Compressibility (1/GPa) = 0.02127891
#
# Stress axis : x y z
#
# Youngs Moduli (GPa) = 106.20051 93.71822 154.72076
#
# Poissons Ratio (x) = 0.07118 0.05030
# Poissons Ratio (y) = 0.08066 0.23994
# Poissons Ratio (z) = 0.03453 0.14534
#
# Static dielectric constant tensor:
#      x y z
#    x 2.016060 0.000000 0.000000 
#    y 0.000000 2.160860 0.000000 
#    z 0.000000 0.000000 2.194920 
# 
# From -- ./inp_files/5060.got.cif
#   From: 2010.05.17/outbox.cif.g08.bks.cpg/sg31_3_cif.got.tgz:5060.got - 2010.06.03 17:08:30.
