data_PCOD9342934
_publ_section_title
;
Structure prediction by ZEFSAII (Michael W. Deem and Ramdas Pophale) SiO2 
 PCOD9342934
Probable space group: P M N 21
;
_chemical_formula_sum "Si O2"
_cell_formula_units_Z 24
_cell_length_a 8.025952
_cell_length_b 5.055486
_cell_length_c 26.144152
_cell_angle_alpha 90.000000
_cell_angle_beta 90.000000
_cell_angle_gamma 90.000000
_cell_volume 1060.801267
_symmetry_space_group_name_H-M "P M N 21"
_symmetry_group_IT_number 31
_symmetry_cell_setting 'orthorhombic'
loop_
_space_group_symop_operation_xyz
x,y,z
1/2-x,-y,1/2+z
-x,y,z
1/2+x,-y,1/2+z
loop_
_atom_site_type_symbol
_atom_site_label
_atom_site_fract_x
_atom_site_fract_y
_atom_site_fract_z
Si Si1 0.299586 0.161027 0.677720
Si Si2 0.309094 0.111122 0.345831
Si Si3 0.193246 0.619934 0.402968
Si Si4 0.701779 0.661236 0.737044
Si Si5 0.200245 0.374421 0.567399
Si Si6 0.703768 0.125848 0.008691
O O1 0.500000 0.158672 0.678853
O O2 0.241159 0.370887 0.720489
O O3 0.248672 0.266371 0.622557
O O4 0.243098 0.869343 0.693437
O O5 0.500000 0.027679 0.346578
O O6 0.280025 0.351489 0.385392
O O7 0.263307 0.232517 0.291038
O O8 0.205407 0.851003 0.360588
O O9 0.259675 0.756243 0.454651
O O10 0.000000 0.549201 0.411334
O O11 0.500000 0.658566 0.739038
O O12 0.256854 0.667368 0.552584
O O13 0.000000 0.379113 0.565410
O O14 0.259442 0.165344 0.524550
O O15 0.500000 0.118383 0.006658
#
# Coordination Sequence:
#
# PCOD9342934 Si02
#       6
#     4   4   4   4   4   4
#     4  10  21  36  55  81 111 145 190 237 281 341
#     4  12  25  40  60  92 126 151 192 255 310 348
#     4  11  22  41  66  87 116 163 208 239 286 359
#     4  10  21  38  58  79 109 153 198 233 279 353
#     4  10  19  34  56  82 111 143 184 235 289 338
#     4   9  19  35  57  83 109 145 194 237 273 337
#
# _framework density 22.624409
#
# number of rings (size 3 to 8) (size 9 to 14) (size 15 to 20)
#    0.000    1.667    0.000    5.000    0.000    5.333 
#    0.000    5.000    0.000    0.000    0.000    0.000 
#    0.000    0.000    0.000    0.000    0.000    0.000 
#
# Total GULP energy -134236.186989 kJ/mol
# GULP energy per Si atom -5593.174458 kJ/mol
# Density = 2.257291 g / cm^3
# Si number density = 22.624409 Si / 1000 Ang^3
#
#
#
# Elastic Constant Matrix: (Units=GPa)
#
#
# Indices 1 2 3 4 5 6 
#
# 1 20.5805 0.4214 -6.5362 0.0000 0.0000 0.0000
# 2 0.4214 70.0511 -24.6714 0.0000 0.0000 0.0000
# 3 -6.5362 -24.6714 53.1262 0.0000 0.0000 0.0000
# 4 0.0000 0.0000 0.0000 38.8684 0.0000 0.0000
# 5 0.0000 0.0000 0.0000 0.0000 27.5525 0.0000
# 6 0.0000 0.0000 0.0000 0.0000 0.0000 14.9298
#
#
#
# Elastic Compliance Matrix: (Units=1/GPa)
#
#
# Indices 1 2 3 4 5 6 
#
# 1 0.050865 0.002269 0.007312 0.000000 0.000000 0.000000
# 2 0.002269 0.017168 0.008252 0.000000 0.000000 0.000000
# 3 0.007312 0.008252 0.023555 0.000000 0.000000 0.000000
# 4 0.000000 0.000000 0.000000 0.025728 0.000000 0.000000
# 5 0.000000 0.000000 0.000000 0.000000 0.036294 0.000000
# 6 0.000000 0.000000 0.000000 0.000000 0.000000 0.066980
#
#
# Mechanical properties :
#
#
# Convention : Reuss Voigt Hill
#
# Bulk Modulus (GPa) = 7.85832 9.13171 8.49502
# Shear Modulus (GPa) = 21.99325 27.90642 24.94984
#
# Velocity S-wave (km/s) = 3.12124 3.51588 3.32442
# Velocity P-wave (km/s) = 4.05838 4.53066 4.30101
#
# Compressibility (1/GPa) = 0.12725364
#
# Stress axis : x y z
#
# Youngs Moduli (GPa) = 19.65974 58.24839 42.45425
#
# Poissons Ratio (x) = -0.13218 -0.31042
# Poissons Ratio (y) = -0.04461 -0.35032
# Poissons Ratio (z) = -0.14375 -0.48065
#
# Static dielectric constant tensor:
#      x y z
#    x 1.804250 0.000000 0.000000 
#    y 0.000000 1.813510 0.000000 
#    z 0.000000 0.000000 1.837260 
# 
# From -- ./inp_files/6414.got.cif
#   From: 2010.05.17/outbox.cif.g08.bks.cpg/sg31_4_cif.got.tgz:6414.got - 2010.06.03 17:08:30.
