data_PCOD9342592
_publ_section_title
;
Structure prediction by ZEFSAII (Michael W. Deem and Ramdas Pophale) SiO2 
 PCOD9342592
Probable space group: P N C 2
;
_chemical_formula_sum "Si O2"
_cell_formula_units_Z 20
_cell_length_a 5.013424
_cell_length_b 5.778191
_cell_length_c 28.934309
_cell_angle_alpha 90.000000
_cell_angle_beta 90.000000
_cell_angle_gamma 90.000000
_cell_volume 838.184151
_symmetry_space_group_name_H-M "P N C 2"
_symmetry_group_IT_number 30
_symmetry_cell_setting 'orthorhombic'
loop_
_space_group_symop_operation_xyz
x,y,z
-x,-y,z
-x,1/2+y,1/2+z
x,1/2-y,1/2+z
loop_
_atom_site_type_symbol
_atom_site_label
_atom_site_fract_x
_atom_site_fract_y
_atom_site_fract_z
Si Si1 0.146022 0.249094 0.255780
Si Si2 0.239092 0.345488 0.957917
Si Si3 0.500000 0.000000 0.029216
Si Si4 0.353977 0.249094 0.860262
Si Si5 0.000000 0.000000 0.086826
Si Si6 0.739092 0.654512 0.158126
O O1 0.249998 0.249999 0.308021
O O2 0.331447 0.255513 0.209842
O O3 0.000000 0.500000 0.254591
O O4 0.000000 0.000000 0.250660
O O5 0.500000 0.500000 0.952465
O O6 0.168556 0.255512 0.906201
O O7 0.000000 0.500000 0.975504
O O8 0.329919 0.161144 0.995132
O O9 0.250000 0.890496 0.058021
O O10 0.500000 0.500000 0.861451
O O11 0.500000 0.000000 0.865381
O O12 0.170080 0.161145 0.120911
O O13 0.500000 0.500000 0.140538
O O14 0.000000 0.500000 0.163578
#
# Coordination Sequence:
#
# PCOD9342592 Si02
#       6
#     4   4   2   4   2   4
#     4  11  23  43  70 114 158 207 261 317 393 478
#     4  11  25  47  73 109 153 199 256 329 395 476
#     4  12  26  48  76 110 146 202 266 334 408 482
#     4  11  23  43  70 114 158 207 261 317 393 478
#     4  12  26  48  76 110 146 202 266 334 408 482
#     4  11  25  47  73 109 153 199 256 329 395 476
#
# _framework density 23.861107000000001
#
# number of rings (size 3 to 8) (size 9 to 14) (size 15 to 20)
#    0.000    0.800    2.000    4.800    0.000    6.400 
#    3.600    0.000    0.000    0.000    0.000    0.000 
#    0.000    0.000    0.000    0.000    0.000    0.000 
#
# Total GULP energy -111503.154081 kJ/mol
# GULP energy per Si atom -5575.157704 kJ/mol
# Density = 2.380680 g / cm^3
# Si number density = 23.861107 Si / 1000 Ang^3
#
#
#
# Elastic Constant Matrix: (Units=GPa)
#
#
# Indices 1 2 3 4 5 6 
#
# 1 125.2955 57.3825 54.5188 0.0000 0.0000 0.0000
# 2 57.3825 164.0046 57.3052 0.0000 0.0000 0.0000
# 3 54.5188 57.3052 166.4901 0.0000 0.0000 0.0000
# 4 0.0000 0.0000 0.0000 39.1950 0.0000 0.0000
# 5 0.0000 0.0000 0.0000 0.0000 -27.5306 0.0000
# 6 0.0000 0.0000 0.0000 0.0000 0.0000 63.9463
#
#
#
# Elastic Compliance Matrix: (Units=1/GPa)
#
#
# Indices 1 2 3 4 5 6 
#
# 1 0.010298 -0.002756 -0.002423 0.000000 0.000000 0.000000
# 2 -0.002756 0.007669 -0.001737 0.000000 0.000000 0.000000
# 3 -0.002423 -0.001737 0.007398 0.000000 0.000000 0.000000
# 4 0.000000 0.000000 0.000000 0.025513 0.000000 0.000000
# 5 0.000000 0.000000 0.000000 0.000000 -0.036323 0.000000
# 6 0.000000 0.000000 0.000000 0.000000 0.000000 0.015638
#
#
# Mechanical properties :
#
#
# Convention : Reuss Voigt Hill
#
# Bulk Modulus (GPa) = 86.72261 88.24482 87.48371
# Shear Modulus (GPa) = 104.44964 34.22770 69.33867
#
# Velocity S-wave (km/s) = 6.62337 3.79153 5.39651
# Velocity P-wave (km/s) = 9.74247 7.49871 8.69328
#
# Compressibility (1/GPa) = 0.01153102
#
# Stress axis : x y z
#
# Youngs Moduli (GPa) = 97.10663 130.40048 135.17532
#
# Poissons Ratio (x) = 0.35942 0.32759
# Poissons Ratio (y) = 0.26765 0.23479
# Poissons Ratio (z) = 0.23533 0.22650
#
# Static dielectric constant tensor:
#      x y z
#    x 1.912610 0.000000 0.000000 
#    y 0.000000 1.961190 0.000000 
#    z 0.000000 0.000000 2.039820 
# 
# From -- ./inp_files/7471.got.cif
#   From: 2010.05.17/outbox.cif.g08.bks.cpg/sg30_4_cif.got.tgz:7471.got - 2010.06.03 17:03:02.
