data_PCOD9342319
_publ_section_title
;
Structure prediction by ZEFSAII (Michael W. Deem and Ramdas Pophale) SiO2 
 PCOD9342319
Probable space group: P N C 2
;
_chemical_formula_sum "Si O2"
_cell_formula_units_Z 26
_cell_length_a 14.648931
_cell_length_b 16.583277
_cell_length_c 5.185961
_cell_angle_alpha 90.000000
_cell_angle_beta 90.000000
_cell_angle_gamma 90.000000
_cell_volume 1259.811403
_symmetry_space_group_name_H-M "P N C 2"
_symmetry_group_IT_number 30
_symmetry_cell_setting 'orthorhombic'
loop_
_space_group_symop_operation_xyz
x,y,z
-x,-y,z
-x,1/2+y,1/2+z
x,1/2-y,1/2+z
loop_
_atom_site_type_symbol
_atom_site_label
_atom_site_fract_x
_atom_site_fract_y
_atom_site_fract_z
Si Si1 0.525723 0.301829 0.718470
Si Si2 0.357452 0.092377 0.215630
Si Si3 0.368899 0.929384 0.479196
Si Si4 0.813603 0.804469 0.276071
Si Si5 0.021525 0.697625 0.782562
Si Si6 0.500000 0.500000 0.356022
Si Si7 0.794202 0.191636 0.476086
O O1 0.547152 0.254936 0.459612
O O2 0.421387 0.329804 0.758214
O O3 0.585740 0.382512 0.739042
O O4 0.256378 0.126584 0.190148
O O5 0.351041 0.023201 0.430988
O O6 0.417190 0.044719 0.002655
O O7 0.450814 0.932038 0.683004
O O8 0.279264 0.877830 0.526763
O O9 0.800071 0.764927 0.558462
O O10 0.918677 0.834258 0.292121
O O11 0.028855 0.726539 0.485045
O O12 0.107946 0.650320 0.899608
O O13 0.784554 0.250611 0.723764
#
# Coordination Sequence:
#
# PCOD9342319 Si02
#       7
#     4   4   4   4   4   2   4
#     4  12  24  40  61  85 116 158 216 266 302 366
#     4  12  25  41  60  89 126 175 208 265 327 383
#     4  12  25  41  60  89 126 175 208 265 327 383
#     4  10  22  40  66  97 122 161 212 264 318 384
#     4   8  16  36  63  92 125 152 196 262 322 372
#     4  12  24  44  60  80 142 178 226 250 338 380
#     4  10  22  40  66  97 122 161 212 264 318 384
#
# _framework density 20.638007999999999
#
# number of rings (size 3 to 8) (size 9 to 14) (size 15 to 20)
#    0.000    1.231    3.077    2.769    4.308    0.000 
#    0.000    0.769    0.000    0.000    0.000    0.000 
#    0.000    0.000    0.000    0.000    0.000    0.000 
#
# Total GULP energy -144771.748954 kJ/mol
# GULP energy per Si atom -5568.144191 kJ/mol
# Density = 2.059104 g / cm^3
# Si number density = 20.638008 Si / 1000 Ang^3
#
#
#
# Elastic Constant Matrix: (Units=GPa)
#
#
# Indices 1 2 3 4 5 6 
#
# 1 142.2114 42.9753 16.6099 0.0000 0.0000 0.0000
# 2 42.9753 52.6535 34.8529 0.0000 0.0000 0.0000
# 3 16.6099 34.8529 107.9488 0.0000 0.0000 0.0000
# 4 0.0000 0.0000 0.0000 16.2407 0.0000 0.0000
# 5 0.0000 0.0000 0.0000 0.0000 17.8365 0.0000
# 6 0.0000 0.0000 0.0000 0.0000 0.0000 25.9420
#
#
#
# Elastic Compliance Matrix: (Units=1/GPa)
#
#
# Indices 1 2 3 4 5 6 
#
# 1 0.009480 -0.008613 0.001322 0.000000 0.000000 0.000000
# 2 -0.008613 0.031979 -0.009000 0.000000 0.000000 0.000000
# 3 0.001322 -0.009000 0.011966 0.000000 0.000000 0.000000
# 4 0.000000 0.000000 0.000000 0.061574 0.000000 0.000000
# 5 0.000000 0.000000 0.000000 0.000000 0.056065 0.000000
# 6 0.000000 0.000000 0.000000 0.000000 0.000000 0.038548
#
#
# Mechanical properties :
#
#
# Convention : Reuss Voigt Hill
#
# Bulk Modulus (GPa) = 47.97480 54.63223 51.30352
# Shear Modulus (GPa) = 20.06911 25.89556 22.98234
#
# Velocity S-wave (km/s) = 3.12177 3.54609 3.34067
# Velocity P-wave (km/s) = 6.02414 6.57993 6.30816
#
# Compressibility (1/GPa) = 0.02084428
#
# Stress axis : x y z
#
# Youngs Moduli (GPa) = 105.48472 31.27079 83.57089
#
# Poissons Ratio (x) = 0.26932 -0.11048
# Poissons Ratio (y) = 0.90850 0.75211
# Poissons Ratio (z) = -0.13945 0.28142
#
# Static dielectric constant tensor:
#      x y z
#    x 1.859270 0.000000 0.000000 
#    y 0.000000 1.751070 0.000000 
#    z 0.000000 0.000000 1.808800 
# 
# From -- ./inp_files/919.got.cif
#   From: 2010.05.17/outbox.cif.g08.bks.cpg/sg30_1_cif.got.tgz:919.got - 2010.06.03 17:03:02.
