data_PCOD9342336
_publ_section_title
;
Structure prediction by ZEFSAII (Michael W. Deem and Ramdas Pophale) SiO2 
 PCOD9342336
Probable space group: P N C 2
;
_chemical_formula_sum "Si O2"
_cell_formula_units_Z 24
_cell_length_a 6.919823
_cell_length_b 7.137712
_cell_length_c 17.230867
_cell_angle_alpha 90.000000
_cell_angle_beta 90.000000
_cell_angle_gamma 90.000000
_cell_volume 851.061877
_symmetry_space_group_name_H-M "P N C 2"
_symmetry_group_IT_number 30
_symmetry_cell_setting 'orthorhombic'
loop_
_space_group_symop_operation_xyz
x,y,z
-x,-y,z
-x,1/2+y,1/2+z
x,1/2-y,1/2+z
loop_
_atom_site_type_symbol
_atom_site_label
_atom_site_fract_x
_atom_site_fract_y
_atom_site_fract_z
Si Si1 0.333792 0.799654 0.296120
Si Si2 0.768510 0.007726 0.560307
Si Si3 0.220592 0.341909 0.849588
Si Si4 0.201770 0.425763 0.224109
Si Si5 0.342168 0.154232 0.980063
Si Si6 0.782568 0.076717 0.125227
O O1 0.546933 0.811539 0.332586
O O2 0.284391 0.584217 0.280529
O O3 0.315078 0.887195 0.208991
O O4 0.200233 0.932894 0.350552
O O5 0.695351 0.915243 0.642318
O O6 0.751045 0.228805 0.577570
O O7 0.651666 0.880068 0.498354
O O8 0.000000 0.000000 0.538998
O O9 0.145339 0.259271 0.769111
O O10 0.177063 0.186417 0.914798
O O11 0.000000 0.500000 0.193875
O O12 0.500000 0.000000 0.951576
O O13 0.293403 0.071621 0.063417
O O14 0.000000 0.000000 0.137213
#
# Coordination Sequence:
#
# PCOD9342336 Si02
#       6
#     4   4   4   4   4   4
#     4  10  24  43  73  98 137 194 241 306 363 457
#     4  10  22  44  70 101 145 188 246 308 378 457
#     4  11  25  45  68 100 150 187 243 297 378 450
#     4  10  22  41  69 103 137 180 242 303 360 438
#     4  12  27  44  70 107 152 197 245 316 385 460
#     4  11  24  44  76 108 144 192 254 316 384 466
#
# _framework density 28.200066
#
# number of rings (size 3 to 8) (size 9 to 14) (size 15 to 20)
#    0.000    1.333    1.667    2.500    9.333    5.333 
#    3.000    0.000    0.000    0.000    0.000    0.000 
#    0.000    0.000    0.000    0.000    0.000    0.000 
#
# Total GULP energy -133757.784107 kJ/mol
# GULP energy per Si atom -5573.241004 kJ/mol
# Density = 2.813588 g / cm^3
# Si number density = 28.200066 Si / 1000 Ang^3
#
#
#
# Elastic Constant Matrix: (Units=GPa)
#
#
# Indices 1 2 3 4 5 6 
#
# 1 71.4955 19.8691 11.8410 0.0000 0.0000 0.0000
# 2 19.8691 208.5090 59.8476 0.0000 0.0000 0.0000
# 3 11.8410 59.8476 73.0297 0.0000 0.0000 0.0000
# 4 0.0000 0.0000 0.0000 67.1956 0.0000 0.0000
# 5 0.0000 0.0000 0.0000 0.0000 18.6845 0.0000
# 6 0.0000 0.0000 0.0000 0.0000 0.0000 43.8449
#
#
#
# Elastic Compliance Matrix: (Units=1/GPa)
#
#
# Indices 1 2 3 4 5 6 
#
# 1 0.014508 -0.000925 -0.001594 0.000000 0.000000 0.000000
# 2 -0.000925 0.006330 -0.005037 0.000000 0.000000 0.000000
# 3 -0.001594 -0.005037 0.018080 0.000000 0.000000 0.000000
# 4 0.000000 0.000000 0.000000 0.014882 0.000000 0.000000
# 5 0.000000 0.000000 0.000000 0.000000 0.053520 0.000000
# 6 0.000000 0.000000 0.000000 0.000000 0.000000 0.022808
#
#
# Mechanical properties :
#
#
# Convention : Reuss Voigt Hill
#
# Bulk Modulus (GPa) = 42.00920 59.57217 50.79069
# Shear Modulus (GPa) = 32.64224 43.37676 38.00950
#
# Velocity S-wave (km/s) = 3.40593 3.92622 3.67529
# Velocity P-wave (km/s) = 5.51329 6.45943 6.00502
#
# Compressibility (1/GPa) = 0.02380431
#
# Stress axis : x y z
#
# Youngs Moduli (GPa) = 68.92757 157.97879 55.31057
#
# Poissons Ratio (x) = 0.14611 0.08819
# Poissons Ratio (y) = 0.06375 0.27862
# Poissons Ratio (z) = 0.10990 0.79581
#
# Static dielectric constant tensor:
#      x y z
#    x 2.443590 0.000000 0.000000 
#    y 0.000000 2.287610 0.000000 
#    z 0.000000 0.000000 2.167020 
# 
# From -- ./inp_files/6311.got.cif
#   From: 2010.05.17/outbox.cif.g08.bks.cpg/sg30_4_cif.got.tgz:6311.got - 2010.06.03 17:03:02.
