data_PCOD9342804
_publ_section_title
;
Structure prediction by ZEFSAII (Michael W. Deem and Ramdas Pophale) SiO2 
 PCOD9342804
Probable space group: P M N 21
;
_chemical_formula_sum "Si O2"
_cell_formula_units_Z 32
_cell_length_a 7.437537
_cell_length_b 7.871892
_cell_length_c 19.373695
_cell_angle_alpha 90.000000
_cell_angle_beta 90.000000
_cell_angle_gamma 90.000000
_cell_volume 1134.281176
_symmetry_space_group_name_H-M "P M N 21"
_symmetry_group_IT_number 31
_symmetry_cell_setting 'orthorhombic'
loop_
_space_group_symop_operation_xyz
x,y,z
1/2-x,-y,1/2+z
-x,y,z
1/2+x,-y,1/2+z
loop_
_atom_site_type_symbol
_atom_site_label
_atom_site_fract_x
_atom_site_fract_y
_atom_site_fract_z
Si Si1 0.285209 0.478352 0.972370
Si Si2 0.789642 0.761105 0.631342
Si Si3 0.780574 0.902852 0.218827
Si Si4 0.712313 0.413676 0.262254
Si Si5 0.292773 0.259135 0.851959
Si Si6 0.717343 0.806486 0.887529
Si Si7 0.286879 0.303200 0.593376
Si Si8 0.790246 0.967813 0.505418
O O1 0.500000 0.474120 0.964319
O O2 0.218537 0.320605 0.926146
O O3 0.215704 0.644637 0.932074
O O4 0.254967 0.523130 0.052586
O O5 0.784258 0.933377 0.677932
O O6 0.710655 0.828916 0.558493
O O7 0.000000 0.720311 0.621030
O O8 0.711011 0.626296 0.686193
O O9 0.713284 0.870659 0.296193
O O10 0.726182 0.742224 0.170452
O O11 0.000000 0.911424 0.221184
O O12 0.500000 0.445321 0.256975
O O13 0.795859 0.566160 0.306315
O O14 0.736090 0.245955 0.310197
O O15 0.500000 0.207445 0.861574
O O16 0.500000 0.810219 0.891016
O O17 0.779213 0.972353 0.930203
O O18 0.500000 0.287366 0.592794
O O19 0.213726 0.146352 0.547584
O O20 0.000000 0.921266 0.499118
#
# Coordination Sequence:
#
# PCOD9342804 Si02
#       8
#     4   4   4   4   4   4   4   4
#     4   8  14  25  41  60  83 112 143 175 213 254
#     4   9  18  31  46  66  92 118 144 179 221 262
#     4   9  18  31  47  67  89 115 148 183 218 258
#     4  10  19  29  44  68  94 117 143 179 222 263
#     4   9  18  32  47  64  89 119 150 182 214 255
#     4   8  14  25  42  62  83 112 147 180 215 254
#     4   9  15  23  39  64  88 107 135 179 222 255
#     4   8  14  26  42  59  82 112 144 177 213 253
#
# _framework density 28.211701999999999
#
# number of rings (size 3 to 8) (size 9 to 14) (size 15 to 20)
#    0.000    3.250    0.000    2.250    0.000    6.500 
#    0.000    0.000    0.000    1.500    0.000    8.750 
#    0.000    0.000    0.000    0.000    0.000    0.000 
#
# Total GULP energy -178948.205854 kJ/mol
# GULP energy per Si atom -5592.131433 kJ/mol
# Density = 2.814749 g / cm^3
# Si number density = 28.211702 Si / 1000 Ang^3
#
#
#
# Elastic Constant Matrix: (Units=GPa)
#
#
# Indices 1 2 3 4 5 6 
#
# 1 116.1509 -1.8976 9.4620 0.0000 0.0000 0.0000
# 2 -1.8976 122.9961 15.5681 0.0000 0.0000 0.0000
# 3 9.4620 15.5681 246.2441 0.0000 0.0000 0.0000
# 4 0.0000 0.0000 0.0000 62.7295 0.0000 0.0000
# 5 0.0000 0.0000 0.0000 0.0000 19.8419 0.0000
# 6 0.0000 0.0000 0.0000 0.0000 0.0000 0.8190
#
#
#
# Elastic Compliance Matrix: (Units=1/GPa)
#
#
# Indices 1 2 3 4 5 6 
#
# 1 0.008640 0.000177 -0.000343 0.000000 0.000000 0.000000
# 2 0.000177 0.008200 -0.000525 0.000000 0.000000 0.000000
# 3 -0.000343 -0.000525 0.004107 0.000000 0.000000 0.000000
# 4 0.000000 0.000000 0.000000 0.015941 0.000000 0.000000
# 5 0.000000 0.000000 0.000000 0.000000 0.050398 0.000000
# 6 0.000000 0.000000 0.000000 0.000000 0.000000 1.221058
#
#
# Mechanical properties :
#
#
# Convention : Reuss Voigt Hill
#
# Bulk Modulus (GPa) = 51.11424 59.07292 55.09358
# Shear Modulus (GPa) = 3.79867 47.49531 25.64699
#
# Velocity S-wave (km/s) = 1.16164 4.10754 3.01838
# Velocity P-wave (km/s) = 4.46729 6.59397 5.63192
#
# Compressibility (1/GPa) = 0.01956402
#
# Stress axis : x y z
#
# Youngs Moduli (GPa) = 115.73631 121.95809 243.46293
#
# Poissons Ratio (x) = -0.02156 0.08355
# Poissons Ratio (y) = -0.02046 0.12786
# Poissons Ratio (z) = 0.03972 0.06405
#
# Static dielectric constant tensor:
#      x y z
#    x 2.028410 0.000000 0.000000 
#    y 0.000000 2.289190 0.000000 
#    z 0.000000 0.000000 2.238630 
# 
# From -- ./inp_files/6269.got.cif
#   From: 2010.05.17/outbox.cif.g08.bks.cpg/sg31_4_cif.got.tgz:6269.got - 2010.06.03 17:08:30.
