data_PCOD9342482
_publ_section_title
;
Structure prediction by ZEFSAII (Michael W. Deem and Ramdas Pophale) SiO2 
 PCOD9342482
Probable space group: P N C 2
;
_chemical_formula_sum "Si O2"
_cell_formula_units_Z 32
_cell_length_a 11.280686
_cell_length_b 14.675072
_cell_length_c 9.480128
_cell_angle_alpha 90.000000
_cell_angle_beta 90.000000
_cell_angle_gamma 90.000000
_cell_volume 1569.386645
_symmetry_space_group_name_H-M "P N C 2"
_symmetry_group_IT_number 30
_symmetry_cell_setting 'orthorhombic'
loop_
_space_group_symop_operation_xyz
x,y,z
-x,-y,z
-x,1/2+y,1/2+z
x,1/2-y,1/2+z
loop_
_atom_site_type_symbol
_atom_site_label
_atom_site_fract_x
_atom_site_fract_y
_atom_site_fract_z
Si Si1 0.639820 0.260228 0.530260
Si Si2 0.034188 0.105781 0.264721
Si Si3 0.756218 0.846432 0.477680
Si Si4 0.224135 0.132853 0.029163
Si Si5 0.768259 0.144473 0.289907
Si Si6 0.443313 0.631507 0.267086
Si Si7 0.702209 0.543301 0.250656
Si Si8 0.630242 0.540971 0.766128
O O1 0.717997 0.198027 0.425144
O O2 0.714931 0.318730 0.642510
O O3 0.570081 0.322248 0.419355
O O4 0.560847 0.199835 0.635078
O O5 0.127511 0.136950 0.382788
O O6 0.103226 0.122258 0.118152
O O7 0.908874 0.154961 0.280508
O O8 0.000000 0.000000 0.277403
O O9 0.749433 0.739770 0.511144
O O10 0.758642 0.911983 0.612562
O O11 0.645636 0.881494 0.384065
O O12 0.327039 0.085811 0.121647
O O13 0.223005 0.078209 0.883329
O O14 0.721674 0.040647 0.301715
O O15 0.570374 0.584878 0.263627
O O16 0.330361 0.563569 0.247675
O O17 0.500000 0.500000 0.760845
#
# Coordination Sequence:
#
# PCOD9342482 Si02
#       8
#     4   4   4   4   4   4   4   4
#     4  10  24  42  66  98 130 172 220 280 346 396
#     4  11  24  48  70  93 131 185 233 275 337 415
#     4  11  25  44  68 103 136 181 232 287 344 412
#     4  11  25  44  68 103 136 181 232 287 344 412
#     4  11  23  44  69 100 131 179 230 281 342 410
#     4  10  24  40  65  94 136 169 212 274 336 414
#     4  11  24  41  63  98 133 171 219 275 335 400
#     4  11  25  44  74  97 139 189 232 275 358 435
#
# _framework density 20.390132999999999
#
# number of rings (size 3 to 8) (size 9 to 14) (size 15 to 20)
#    0.000    1.250    2.500    3.000   10.500    2.000 
#    0.000    0.625    0.000    0.000    0.000    0.000 
#    0.000    0.000    0.000    0.000    0.000    0.000 
#
# Total GULP energy -178889.186545 kJ/mol
# GULP energy per Si atom -5590.287080 kJ/mol
# Density = 2.034372 g / cm^3
# Si number density = 20.390133 Si / 1000 Ang^3
#
#
#
# Elastic Constant Matrix: (Units=GPa)
#
#
# Indices 1 2 3 4 5 6 
#
# 1 51.5354 8.6890 -1.3180 0.0000 0.0000 0.0000
# 2 8.6890 48.3285 -21.7370 0.0000 0.0000 0.0000
# 3 -1.3180 -21.7370 80.5975 0.0000 0.0000 0.0000
# 4 0.0000 0.0000 0.0000 39.8113 0.0000 0.0000
# 5 0.0000 0.0000 0.0000 0.0000 18.3736 0.0000
# 6 0.0000 0.0000 0.0000 0.0000 0.0000 20.0047
#
#
#
# Elastic Compliance Matrix: (Units=1/GPa)
#
#
# Indices 1 2 3 4 5 6 
#
# 1 0.020049 -0.003934 -0.000733 0.000000 0.000000 0.000000
# 2 -0.003934 0.024320 0.006495 0.000000 0.000000 0.000000
# 3 -0.000733 0.006495 0.014147 0.000000 0.000000 0.000000
# 4 0.000000 0.000000 0.000000 0.025119 0.000000 0.000000
# 5 0.000000 0.000000 0.000000 0.000000 0.054426 0.000000
# 6 0.000000 0.000000 0.000000 0.000000 0.000000 0.049988
#
#
# Mechanical properties :
#
#
# Convention : Reuss Voigt Hill
#
# Bulk Modulus (GPa) = 16.08480 16.85880 16.47180
# Shear Modulus (GPa) = 24.37622 28.62639 26.50131
#
# Velocity S-wave (km/s) = 3.46134 3.75098 3.60906
# Velocity P-wave (km/s) = 4.88673 5.20056 5.04608
#
# Compressibility (1/GPa) = 0.06217051
#
# Stress axis : x y z
#
# Youngs Moduli (GPa) = 49.87848 41.11791 70.68640
#
# Poissons Ratio (x) = 0.16177 0.05183
# Poissons Ratio (y) = 0.19624 -0.45910
# Poissons Ratio (z) = 0.03657 -0.26705
#
# Static dielectric constant tensor:
#      x y z
#    x 1.710840 0.000000 0.000000 
#    y 0.000000 1.815920 0.000000 
#    z 0.000000 0.000000 1.719080 
# 
# From -- ./inp_files/2486.got.cif
#   From: 2010.05.17/outbox.cif.g08.bks.cpg/sg30_2_cif.got.tgz:2486.got - 2010.06.03 17:03:02.
