data_PCOD9342254
_publ_section_title
;
Structure prediction by ZEFSAII (Michael W. Deem and Ramdas Pophale) SiO2 
 PCOD9342254
Probable space group: P N C 2
;
_chemical_formula_sum "Si O2"
_cell_formula_units_Z 22
_cell_length_a 15.340505
_cell_length_b 5.409633
_cell_length_c 10.349637
_cell_angle_alpha 90.000000
_cell_angle_beta 90.000000
_cell_angle_gamma 90.000000
_cell_volume 858.880172
_symmetry_space_group_name_H-M "P N C 2"
_symmetry_group_IT_number 30
_symmetry_cell_setting 'orthorhombic'
loop_
_space_group_symop_operation_xyz
x,y,z
-x,-y,z
-x,1/2+y,1/2+z
x,1/2-y,1/2+z
loop_
_atom_site_type_symbol
_atom_site_label
_atom_site_fract_x
_atom_site_fract_y
_atom_site_fract_z
Si Si1 0.414823 0.114133 0.023520
Si Si2 0.056554 0.745372 0.602557
Si Si3 0.316930 0.774738 0.702816
Si Si4 0.894755 0.452199 0.856895
Si Si5 0.267229 0.455499 0.948171
Si Si6 0.500000 0.500000 0.223221
O O1 0.464666 0.277785 0.129621
O O2 0.500000 0.000000 0.950815
O O3 0.350362 0.933629 0.101016
O O4 0.352816 0.286991 0.937960
O O5 0.116201 0.678970 0.722228
O O6 0.114279 0.774323 0.477471
O O7 0.000000 0.500000 0.581741
O O8 0.000000 0.000000 0.625598
O O9 0.275898 0.659179 0.833448
O O10 0.270086 0.962579 0.600059
O O11 0.404808 0.892389 0.759497
O O12 0.825950 0.661214 0.900278
O O13 0.000000 0.500000 0.857247
#
# Coordination Sequence:
#
# PCOD9342254 Si02
#       6
#     4   4   4   4   4   2
#     4   9  20  43  63  99 132 180 223 286 356 428
#     4  10  21  42  69 101 141 192 249 302 368 439
#     4  10  22  43  66 101 134 181 228 295 352 432
#     4  10  22  43  66 103 138 191 241 297 365 434
#     4  11  23  44  68 101 144 180 242 297 361 433
#     4   8  18  42  66  90 130 174 226 272 348 422
#
# _framework density 25.614750000000001
#
# number of rings (size 3 to 8) (size 9 to 14) (size 15 to 20)
#    0.000    2.182    0.000    1.636    0.000    2.909 
#   65.455    0.000    0.000    0.000    0.000    0.000 
#    0.000    0.000    0.000    0.000    0.000    0.000 
#
# Total GULP energy -122490.835722 kJ/mol
# GULP energy per Si atom -5567.765260 kJ/mol
# Density = 2.555645 g / cm^3
# Si number density = 25.614750 Si / 1000 Ang^3
#
#
#
# Elastic Constant Matrix: (Units=GPa)
#
#
# Indices 1 2 3 4 5 6 
#
# 1 94.1065 -0.3165 16.1844 0.0000 0.0000 0.0000
# 2 -0.3165 40.8744 -24.1050 0.0000 0.0000 0.0000
# 3 16.1844 -24.1050 113.1491 0.0000 0.0000 0.0000
# 4 0.0000 0.0000 0.0000 41.3912 0.0000 0.0000
# 5 0.0000 0.0000 0.0000 0.0000 74.6696 0.0000
# 6 0.0000 0.0000 0.0000 0.0000 0.0000 26.0571
#
#
#
# Elastic Compliance Matrix: (Units=1/GPa)
#
#
# Indices 1 2 3 4 5 6 
#
# 1 0.010927 -0.000957 -0.001767 0.000000 0.000000 0.000000
# 2 -0.000957 0.028064 0.006116 0.000000 0.000000 0.000000
# 3 -0.001767 0.006116 0.010393 0.000000 0.000000 0.000000
# 4 0.000000 0.000000 0.000000 0.024160 0.000000 0.000000
# 5 0.000000 0.000000 0.000000 0.000000 0.013392 0.000000
# 6 0.000000 0.000000 0.000000 0.000000 0.000000 0.038377
#
#
# Mechanical properties :
#
#
# Convention : Reuss Voigt Hill
#
# Bulk Modulus (GPa) = 17.80385 25.73954 21.77169
# Shear Modulus (GPa) = 36.42886 45.51472 40.97179
#
# Velocity S-wave (km/s) = 3.77528 4.21990 4.00376
# Velocity P-wave (km/s) = 5.09601 5.81497 5.46732
#
# Compressibility (1/GPa) = 0.05616763
#
# Stress axis : x y z
#
# Youngs Moduli (GPa) = 91.51721 35.63233 96.21403
#
# Poissons Ratio (x) = 0.03411 0.17000
# Poissons Ratio (y) = 0.08762 -0.58842
# Poissons Ratio (z) = 0.16170 -0.21792
#
# Static dielectric constant tensor:
#      x y z
#    x 2.526120 0.000000 0.000000 
#    y 0.000000 2.070790 0.000000 
#    z 0.000000 0.000000 2.113050 
# 
# From -- ./inp_files/4280.got.cif
#   From: 2010.05.17/outbox.cif.g08.bks.cpg/sg30_3_cif.got.tgz:4280.got - 2010.06.03 17:03:02.
