data_PCOD9342733
_publ_section_title
;
Structure prediction by ZEFSAII (Michael W. Deem and Ramdas Pophale) SiO2 
 PCOD9342733
Probable space group: P M N 21
;
_chemical_formula_sum "Si O2"
_cell_formula_units_Z 32
_cell_length_a 7.561235
_cell_length_b 10.645228
_cell_length_c 19.963866
_cell_angle_alpha 90.000000
_cell_angle_beta 90.000000
_cell_angle_gamma 90.000000
_cell_volume 1606.912946
_symmetry_space_group_name_H-M "P M N 21"
_symmetry_group_IT_number 31
_symmetry_cell_setting 'orthorhombic'
loop_
_space_group_symop_operation_xyz
x,y,z
1/2-x,-y,1/2+z
-x,y,z
1/2+x,-y,1/2+z
loop_
_atom_site_type_symbol
_atom_site_label
_atom_site_fract_x
_atom_site_fract_y
_atom_site_fract_z
Si Si1 0.794939 0.967535 0.256980
Si Si2 0.782828 0.616316 0.472408
Si Si3 0.287675 0.888442 0.973495
Si Si4 0.209914 0.746761 0.760641
Si Si5 0.789866 0.005140 0.110032
Si Si6 0.216894 0.865279 0.393545
Si Si7 0.704352 0.290491 0.112399
Si Si8 0.713037 0.637721 0.900566
O O1 0.718464 0.961751 0.182290
O O2 0.720249 0.885926 0.317509
O O3 0.000000 0.930958 0.251098
O O4 0.787180 0.115283 0.276610
O O5 0.728465 0.737587 0.429332
O O6 0.720467 0.634587 0.549072
O O7 0.724830 0.489114 0.436194
O O8 0.000000 0.617030 0.474051
O O9 0.500000 0.887033 0.967384
O O10 0.243933 0.907861 0.051079
O O11 0.220639 0.761426 0.939534
O O12 0.224019 0.013015 0.935289
O O13 0.280085 0.702669 0.687825
O O14 0.242464 0.654694 0.822424
O O15 0.000000 0.765858 0.753495
O O16 0.000000 0.025681 0.116339
O O17 0.710798 0.142174 0.093845
O O18 0.000000 0.866638 0.393064
O O19 0.500000 0.329622 0.118056
O O20 0.500000 0.637138 0.904884
#
# Coordination Sequence:
#
# PCOD9342733 Si02
#       8
#     4   4   4   4   4   4   4   4
#     4   9  17  31  50  74 102 130 164 203 247 295
#     4   9  17  31  53  75  93 123 170 210 236 281
#     4  10  18  31  51  71  95 128 164 202 242 288
#     4  10  19  30  49  75 103 131 160 203 253 299
#     4  10  19  29  47  76 105 129 159 206 252 292
#     4   9  15  28  52  74  92 121 163 207 242 281
#     4   9  17  32  52  74  99 130 168 202 244 301
#     4  10  20  34  52  73  97 130 172 209 240 289
#
# _framework density 19.913958999999998
#
# number of rings (size 3 to 8) (size 9 to 14) (size 15 to 20)
#    0.000    2.500    2.500    0.750    0.000    1.500 
#    0.000    1.875    0.000    0.000    0.000    0.000 
#    0.000    0.000    0.000    0.000    0.000    0.000 
#
# Total GULP energy -178508.292829 kJ/mol
# GULP energy per Si atom -5578.384151 kJ/mol
# Density = 1.986863 g / cm^3
# Si number density = 19.913959 Si / 1000 Ang^3
#
#
#
# Elastic Constant Matrix: (Units=GPa)
#
#
# Indices 1 2 3 4 5 6 
#
# 1 48.4988 1.3125 -3.4150 0.0000 0.0000 0.0000
# 2 1.3125 116.5945 84.9083 0.0000 0.0000 0.0000
# 3 -3.4150 84.9083 171.8165 0.0000 0.0000 0.0000
# 4 0.0000 0.0000 0.0000 32.5120 0.0000 0.0000
# 5 0.0000 0.0000 0.0000 0.0000 12.8280 0.0000
# 6 0.0000 0.0000 0.0000 0.0000 0.0000 8.3677
#
#
#
# Elastic Compliance Matrix: (Units=1/GPa)
#
#
# Indices 1 2 3 4 5 6 
#
# 1 0.020700 -0.000832 0.000823 0.000000 0.000000 0.000000
# 2 -0.000832 0.013432 -0.006654 0.000000 0.000000 0.000000
# 3 0.000823 -0.006654 0.009125 0.000000 0.000000 0.000000
# 4 0.000000 0.000000 0.000000 0.030758 0.000000 0.000000
# 5 0.000000 0.000000 0.000000 0.000000 0.077954 0.000000
# 6 0.000000 0.000000 0.000000 0.000000 0.000000 0.119506
#
#
# Mechanical properties :
#
#
# Convention : Reuss Voigt Hill
#
# Bulk Modulus (GPa) = 33.41256 55.83569 44.62412
# Shear Modulus (GPa) = 16.96186 27.68183 22.32184
#
# Velocity S-wave (km/s) = 2.92165 3.73241 3.35164
# Velocity P-wave (km/s) = 5.31002 6.83183 6.11842
#
# Compressibility (1/GPa) = 0.02992886
#
# Stress axis : x y z
#
# Youngs Moduli (GPa) = 48.31034 74.44866 109.58924
#
# Poissons Ratio (x) = 0.06195 -0.09015
# Poissons Ratio (y) = 0.04020 0.72925
# Poissons Ratio (z) = -0.03974 0.49541
#
# Static dielectric constant tensor:
#      x y z
#    x 1.753910 0.000000 0.000000 
#    y 0.000000 1.655490 0.000000 
#    z 0.000000 0.000000 1.737750 
# 
# From -- ./inp_files/5841.got.cif
#   From: 2010.05.17/outbox.cif.g08.bks.cpg/sg31_3_cif.got.tgz:5841.got - 2010.06.03 17:08:30.
