data_PCOD9342543
_publ_section_title
;
Structure prediction by ZEFSAII (Michael W. Deem and Ramdas Pophale) SiO2 
 PCOD9342543
Probable space group: P N C 2
;
_chemical_formula_sum "Si O2"
_cell_formula_units_Z 8
_cell_length_a 5.002125
_cell_length_b 5.499357
_cell_length_c 12.555463
_cell_angle_alpha 90.000000
_cell_angle_beta 90.000000
_cell_angle_gamma 90.000000
_cell_volume 345.381592
_symmetry_space_group_name_H-M "P N C 2"
_symmetry_group_IT_number 30
_symmetry_cell_setting 'orthorhombic'
loop_
_space_group_symop_operation_xyz
x,y,z
-x,-y,z
-x,1/2+y,1/2+z
x,1/2-y,1/2+z
loop_
_atom_site_type_symbol
_atom_site_label
_atom_site_fract_x
_atom_site_fract_y
_atom_site_fract_z
Si Si1 0.500000 0.500000 0.800900
Si Si2 0.357165 0.258668 0.591822
Si Si3 0.000000 0.000000 0.447991
O O1 0.366819 0.308233 0.718436
O O2 0.250370 0.573919 0.873992
O O3 0.500000 0.500000 0.547695
O O4 0.500000 0.000000 0.577513
O O5 0.085617 0.215726 0.528101
#
# Coordination Sequence:
#
# PCOD9342543 Si02
#       3
#     2   4   2
#     4  10  28  46  82 116 154 212 260 322 402 466
#     4  10  26  51  73 115 162 199 268 328 377 486
#     4  12  24  52  82 114 158 216 252 330 406 458
#
# _framework density 23.162786000000001
#
# number of rings (size 3 to 8) (size 9 to 14) (size 15 to 20)
#    1.500    0.000    2.500    0.000    7.000    4.000 
#    9.000    0.000    0.000    0.000    0.000    0.000 
#    0.000    0.000    0.000    0.000    0.000    0.000 
#
# Total GULP energy -44551.423479 kJ/mol
# GULP energy per Si atom -5568.927935 kJ/mol
# Density = 2.311007 g / cm^3
# Si number density = 23.162786 Si / 1000 Ang^3
#
#
#
# Elastic Constant Matrix: (Units=GPa)
#
#
# Indices 1 2 3 4 5 6 
#
# 1 169.3549 61.9912 101.4704 0.0000 0.0000 0.0000
# 2 61.9912 153.5542 55.7313 0.0000 0.0000 0.0000
# 3 101.4704 55.7313 189.8553 0.0000 0.0000 0.0000
# 4 0.0000 0.0000 0.0000 514.3569 0.0000 0.0000
# 5 0.0000 0.0000 0.0000 0.0000-2060.7537 0.0000
# 6 0.0000 0.0000 0.0000 0.0000 0.0000 45.9240
#
#
#
# Elastic Compliance Matrix: (Units=1/GPa)
#
#
# Indices 1 2 3 4 5 6 
#
# 1 0.009297 -0.002182 -0.004328 0.000000 0.000000 0.000000
# 2 -0.002182 0.007801 -0.001124 0.000000 0.000000 0.000000
# 3 -0.004328 -0.001124 0.007910 0.000000 0.000000 0.000000
# 4 0.000000 0.000000 0.000000 0.001944 0.000000 0.000000
# 5 0.000000 0.000000 0.000000 0.000000 -0.000485 0.000000
# 6 0.000000 0.000000 0.000000 0.000000 0.000000 0.021775
#
#
# Mechanical properties :
#
#
# Convention : Reuss Voigt Hill
#
# Bulk Modulus (GPa) = 102.66963 105.68336 104.17650
# Shear Modulus (GPa) = 74.89808 -280.52312 -102.81252
#
# Velocity S-wave (km/s) = 5.69260 -11.01691 -6.66958
# Velocity P-wave (km/s) = 9.36104 10.77517 3.77328
#
# Compressibility (1/GPa) = 0.00973998
#
# Stress axis : x y z
#
# Youngs Moduli (GPa) = 107.56304 128.18536 126.41800
#
# Poissons Ratio (x) = 0.27974 0.54716
# Poissons Ratio (y) = 0.23474 0.14205
# Poissons Ratio (z) = 0.46555 0.14403
#
# Static dielectric constant tensor:
#      x y z
#    x 5.389590 0.000000 0.000000 
#    y 0.000000 1.804290 0.000000 
#    z 0.000000 0.000000 1.920460 
# 
# From -- ./inp_files/2849.got.cif
#   From: 2010.05.17/outbox.cif.g08.bks.cpg/sg30_2_cif.got.tgz:2849.got - 2010.06.03 17:03:02.
