data_PCOD9342594
_publ_section_title
;
Structure prediction by ZEFSAII (Michael W. Deem and Ramdas Pophale) SiO2 
 PCOD9342594
Probable space group: P N C 2
;
_chemical_formula_sum "Si O2"
_cell_formula_units_Z 20
_cell_length_a 5.558585
_cell_length_b 10.611006
_cell_length_c 14.053980
_cell_angle_alpha 90.000000
_cell_angle_beta 90.000000
_cell_angle_gamma 90.000000
_cell_volume 828.934361
_symmetry_space_group_name_H-M "P N C 2"
_symmetry_group_IT_number 30
_symmetry_cell_setting 'orthorhombic'
loop_
_space_group_symop_operation_xyz
x,y,z
-x,-y,z
-x,1/2+y,1/2+z
x,1/2-y,1/2+z
loop_
_atom_site_type_symbol
_atom_site_label
_atom_site_fract_x
_atom_site_fract_y
_atom_site_fract_z
Si Si1 0.631423 0.865679 0.540280
Si Si2 0.984487 0.631278 0.865257
Si Si3 0.387241 0.268760 0.245947
Si Si4 0.500000 0.000000 0.156302
Si Si5 0.332583 0.811540 0.922991
Si Si6 0.000000 0.500000 0.532753
O O1 0.843156 0.879212 0.464191
O O2 0.678454 0.842818 0.651000
O O3 0.506863 0.732490 0.507532
O O4 0.500000 0.000000 0.535216
O O5 0.855128 0.731303 0.800016
O O6 0.000000 0.500000 0.813128
O O7 0.244351 0.673912 0.893389
O O8 0.505553 0.132586 0.215536
O O9 0.537137 0.348971 0.324921
O O10 0.755080 0.985693 0.096652
O O11 0.108278 0.891672 0.961972
#
# Coordination Sequence:
#
# PCOD9342594 Si02
#       6
#     4   4   4   2   4   2
#     4  11  23  46  69 102 147 194 249 315 385 462
#     4  11  23  43  72 102 145 196 255 314 383 464
#     4  11  26  42  72 109 145 195 262 314 384 462
#     4  12  26  48  76 110 150 204 262 316 382 472
#     4  11  25  46  70 104 150 196 248 313 389 456
#     4  12  28  48  78 106 160 204 252 320 398 458
#
# _framework density 24.127361000000001
#
# number of rings (size 3 to 8) (size 9 to 14) (size 15 to 20)
#    0.000    0.800    4.000    2.400    9.800    3.200 
#    0.000    0.000    0.000    0.000    0.000    0.000 
#    0.000    0.000    0.000    0.000    0.000    0.000 
#
# Total GULP energy -111452.540319 kJ/mol
# GULP energy per Si atom -5572.627016 kJ/mol
# Density = 2.407245 g / cm^3
# Si number density = 24.127361 Si / 1000 Ang^3
#
#
#
# Elastic Constant Matrix: (Units=GPa)
#
#
# Indices 1 2 3 4 5 6 
#
# 1 76.0412 21.9535 48.9029 0.0000 0.0000 0.0000
# 2 21.9535 87.1219 35.4763 0.0000 0.0000 0.0000
# 3 48.9029 35.4763 185.4970 0.0000 0.0000 0.0000
# 4 0.0000 0.0000 0.0000 3.0457 0.0000 0.0000
# 5 0.0000 0.0000 0.0000 0.0000 7.9532 0.0000
# 6 0.0000 0.0000 0.0000 0.0000 0.0000 42.4004
#
#
#
# Elastic Compliance Matrix: (Units=1/GPa)
#
#
# Indices 1 2 3 4 5 6 
#
# 1 0.016347 -0.002564 -0.003819 0.000000 0.000000 0.000000
# 2 -0.002564 0.012850 -0.001782 0.000000 0.000000 0.000000
# 3 -0.003819 -0.001782 0.006739 0.000000 0.000000 0.000000
# 4 0.000000 0.000000 0.000000 0.328329 0.000000 0.000000
# 5 0.000000 0.000000 0.000000 0.000000 0.125736 0.000000
# 6 0.000000 0.000000 0.000000 0.000000 0.000000 0.023585
#
#
# Mechanical properties :
#
#
# Convention : Reuss Voigt Hill
#
# Bulk Modulus (GPa) = 51.00545 62.36948 56.68747
# Shear Modulus (GPa) = 9.32054 26.83503 18.07778
#
# Velocity S-wave (km/s) = 1.96760 3.33862 2.74024
# Velocity P-wave (km/s) = 5.13302 6.38499 5.79293
#
# Compressibility (1/GPa) = 0.01960575
#
# Stress axis : x y z
#
# Youngs Moduli (GPa) = 61.17238 77.82264 148.40041
#
# Poissons Ratio (x) = 0.19954 0.56678
# Poissons Ratio (y) = 0.15685 0.26438
# Poissons Ratio (z) = 0.23363 0.13864
#
# Static dielectric constant tensor:
#      x y z
#    x 1.938510 0.000000 0.000000 
#    y 0.000000 1.987330 0.000000 
#    z 0.000000 0.000000 2.005360 
# 
# From -- ./inp_files/4595.got.cif
#   From: 2010.05.17/outbox.cif.g08.bks.cpg/sg30_3_cif.got.tgz:4595.got - 2010.06.03 17:03:02.
