data_PCOD9342345
_publ_section_title
;
Structure prediction by ZEFSAII (Michael W. Deem and Ramdas Pophale) SiO2 
 PCOD9342345
Probable space group: P N C 2
;
_chemical_formula_sum "Si O2"
_cell_formula_units_Z 16
_cell_length_a 6.592399
_cell_length_b 18.880630
_cell_length_c 5.266216
_cell_angle_alpha 90.000000
_cell_angle_beta 90.000000
_cell_angle_gamma 90.000000
_cell_volume 655.478777
_symmetry_space_group_name_H-M "P N C 2"
_symmetry_group_IT_number 30
_symmetry_cell_setting 'orthorhombic'
loop_
_space_group_symop_operation_xyz
x,y,z
-x,-y,z
-x,1/2+y,1/2+z
x,1/2-y,1/2+z
loop_
_atom_site_type_symbol
_atom_site_label
_atom_site_fract_x
_atom_site_fract_y
_atom_site_fract_z
Si Si1 0.234749 0.577668 0.794600
Si Si2 0.289450 0.418198 0.911443
Si Si3 0.736241 0.732839 0.767244
Si Si4 0.997385 0.369728 0.292844
O O1 0.212040 0.492462 0.808453
O O2 0.473773 0.586970 0.848917
O O3 0.141501 0.605664 0.528956
O O4 0.132036 0.613289 0.040217
O O5 0.208929 0.410213 0.203483
O O6 0.613888 0.755023 0.523291
O O7 0.792314 0.651240 0.765711
O O8 0.924034 0.787859 0.798806
#
# Coordination Sequence:
#
# PCOD9342345 Si02
#       4
#     4   4   4   4
#     4  11  26  45  76 108 141 192 248 301 377 444
#     4  10  25  47  72 107 148 188 244 314 367 437
#     4  10  22  42  65  94 140 185 227 291 360 423
#     4  11  24  45  69 104 146 189 240 301 368 448
#
# _framework density 24.409638999999999
#
# number of rings (size 3 to 8) (size 9 to 14) (size 15 to 20)
#    0.000    1.500    0.000    3.750    0.000   20.000 
#    0.000   30.000    0.000    0.000    0.000    0.000 
#    0.000    0.000    0.000    0.000    0.000    0.000 
#
# Total GULP energy -89200.851489 kJ/mol
# GULP energy per Si atom -5575.053218 kJ/mol
# Density = 2.435408 g / cm^3
# Si number density = 24.409639 Si / 1000 Ang^3
#
#
#
# Elastic Constant Matrix: (Units=GPa)
#
#
# Indices 1 2 3 4 5 6 
#
# 1 140.0894 75.2069 82.2229 0.0000 0.0000 0.0000
# 2 75.2069 179.4201 42.6062 0.0000 0.0000 0.0000
# 3 82.2229 42.6062 195.9472 0.0000 0.0000 0.0000
# 4 0.0000 0.0000 0.0000 36.9166 0.0000 0.0000
# 5 0.0000 0.0000 0.0000 0.0000 31.1168 0.0000
# 6 0.0000 0.0000 0.0000 0.0000 0.0000 15.3967
#
#
#
# Elastic Compliance Matrix: (Units=1/GPa)
#
#
# Indices 1 2 3 4 5 6 
#
# 1 0.011591 -0.003905 -0.004015 0.000000 0.000000 0.000000
# 2 -0.003905 0.007193 0.000075 0.000000 0.000000 0.000000
# 3 -0.004015 0.000075 0.006772 0.000000 0.000000 0.000000
# 4 0.000000 0.000000 0.000000 0.027088 0.000000 0.000000
# 5 0.000000 0.000000 0.000000 0.000000 0.032137 0.000000
# 6 0.000000 0.000000 0.000000 0.000000 0.000000 0.064949
#
#
# Mechanical properties :
#
#
# Convention : Reuss Voigt Hill
#
# Bulk Modulus (GPa) = 101.36592 101.72541 101.54567
# Shear Modulus (GPa) = 29.63688 37.71408 33.67548
#
# Velocity S-wave (km/s) = 3.48824 3.93497 3.71832
# Velocity P-wave (km/s) = 7.60532 7.90001 7.75406
#
# Compressibility (1/GPa) = 0.00986525
#
# Stress axis : x y z
#
# Youngs Moduli (GPa) = 86.27220 139.02939 147.67097
#
# Poissons Ratio (x) = 0.54295 0.59286
# Poissons Ratio (y) = 0.33692 -0.01104
# Poissons Ratio (z) = 0.34636 -0.01039
#
# Static dielectric constant tensor:
#      x y z
#    x 2.036720 0.000000 0.000000 
#    y 0.000000 1.985460 0.000000 
#    z 0.000000 0.000000 2.140790 
# 
# From -- ./inp_files/114.got.cif
#   From: 2010.05.17/outbox.cif.g08.bks.cpg/sg30_1_cif.got.tgz:114.got - 2010.06.03 17:03:02.
