data_PCOD9342139
_publ_section_title
;
Structure prediction by ZEFSAII (Michael W. Deem and Ramdas Pophale) SiO2 
 PCOD9342139
Probable space group: P N C 2
;
_chemical_formula_sum "Si O2"
_cell_formula_units_Z 24
_cell_length_a 17.783696
_cell_length_b 4.970480
_cell_length_c 11.315513
_cell_angle_alpha 90.000000
_cell_angle_beta 90.000000
_cell_angle_gamma 90.000000
_cell_volume 1000.217858
_symmetry_space_group_name_H-M "P N C 2"
_symmetry_group_IT_number 30
_symmetry_cell_setting 'orthorhombic'
loop_
_space_group_symop_operation_xyz
x,y,z
-x,-y,z
-x,1/2+y,1/2+z
x,1/2-y,1/2+z
loop_
_atom_site_type_symbol
_atom_site_label
_atom_site_fract_x
_atom_site_fract_y
_atom_site_fract_z
Si Si1 0.726473 0.684270 0.009510
Si Si2 0.055573 0.249652 0.573241
Si Si3 0.774301 0.282551 0.392171
Si Si4 0.088685 0.433358 0.321355
Si Si5 0.588064 0.491640 0.129211
Si Si6 0.667589 0.537874 0.719498
O O1 0.744395 0.917279 0.915772
O O2 0.638442 0.596818 0.019441
O O3 0.713236 0.387755 0.820283
O O4 0.775716 0.412917 0.006013
O O5 0.099275 0.293266 0.449870
O O6 0.000000 0.500000 0.591424
O O7 0.100275 0.209886 0.695609
O O8 0.000000 0.000000 0.554685
O O9 0.854470 0.316487 0.330656
O O10 0.731328 0.658073 0.633111
O O11 0.000000 0.500000 0.320516
O O12 0.500000 0.500000 0.109216
O O13 0.612728 0.704248 0.231915
O O14 0.618082 0.195442 0.158575
#
# Coordination Sequence:
#
# PCOD9342139 Si02
#       6
#     4   4   4   4   4   4
#     4  10  23  43  67 104 140 185 245 289 382 449
#     4  10  22  45  73 104 148 192 254 325 393 463
#     4  12  24  44  73 102 146 194 247 316 381 466
#     4  10  25  48  75 109 152 199 267 323 394 458
#     4  10  20  43  73 100 149 195 240 305 374 452
#     4  10  22  42  69 101 147 190 245 295 384 448
#
# _framework density 23.994771
#
# number of rings (size 3 to 8) (size 9 to 14) (size 15 to 20)
#    1.000    0.667    1.667    2.000    0.000    6.667 
#   12.000    3.333    0.000    0.000    0.000    0.000 
#    0.000    0.000    0.000    0.000    0.000    0.000 
#
# Total GULP energy -133878.623811 kJ/mol
# GULP energy per Si atom -5578.275992 kJ/mol
# Density = 2.394016 g / cm^3
# Si number density = 23.994771 Si / 1000 Ang^3
#
#
#
# Elastic Constant Matrix: (Units=GPa)
#
#
# Indices 1 2 3 4 5 6 
#
# 1 150.2445 47.5431 36.2275 0.0000 0.0000 0.0000
# 2 47.5431 151.1329 21.8199 0.0000 0.0000 0.0000
# 3 36.2275 21.8199 126.4152 0.0000 0.0000 0.0000
# 4 0.0000 0.0000 0.0000 35.7776 0.0000 0.0000
# 5 0.0000 0.0000 0.0000 0.0000 9.2379 0.0000
# 6 0.0000 0.0000 0.0000 0.0000 0.0000 36.8366
#
#
#
# Elastic Compliance Matrix: (Units=1/GPa)
#
#
# Indices 1 2 3 4 5 6 
#
# 1 0.007795 -0.002184 -0.001857 0.000000 0.000000 0.000000
# 2 -0.002184 0.007398 -0.000651 0.000000 0.000000 0.000000
# 3 -0.001857 -0.000651 0.008555 0.000000 0.000000 0.000000
# 4 0.000000 0.000000 0.000000 0.027950 0.000000 0.000000
# 5 0.000000 0.000000 0.000000 0.000000 0.108250 0.000000
# 6 0.000000 0.000000 0.000000 0.000000 0.000000 0.027147
#
#
# Mechanical properties :
#
#
# Convention : Reuss Voigt Hill
#
# Bulk Modulus (GPa) = 69.61971 70.99707 70.30839
# Shear Modulus (GPa) = 24.84273 37.85055 31.34664
#
# Velocity S-wave (km/s) = 3.22116 3.97602 3.61833
# Velocity P-wave (km/s) = 6.55073 7.12258 6.84263
#
# Compressibility (1/GPa) = 0.01436375
#
# Stress axis : x y z
#
# Youngs Moduli (GPa) = 128.29367 135.17712 116.89182
#
# Poissons Ratio (x) = 0.29522 0.21704
# Poissons Ratio (y) = 0.28019 0.07610
# Poissons Ratio (z) = 0.23821 0.08800
#
# Static dielectric constant tensor:
#      x y z
#    x 1.918120 0.000000 0.000000 
#    y 0.000000 1.986790 0.000000 
#    z 0.000000 0.000000 2.187020 
# 
# From -- ./inp_files/4407.got.cif
#   From: 2010.05.17/outbox.cif.g08.bks.cpg/sg30_3_cif.got.tgz:4407.got - 2010.06.03 17:03:02.
