data_PCOD9342836
_publ_section_title
;
Structure prediction by ZEFSAII (Michael W. Deem and Ramdas Pophale) SiO2 
 PCOD9342836
Probable space group: P M N 21
;
_chemical_formula_sum "Si O2"
_cell_formula_units_Z 32
_cell_length_a 7.525498
_cell_length_b 15.079487
_cell_length_c 10.454407
_cell_angle_alpha 90.000000
_cell_angle_beta 90.000000
_cell_angle_gamma 90.000000
_cell_volume 1186.372894
_symmetry_space_group_name_H-M "P M N 21"
_symmetry_group_IT_number 31
_symmetry_cell_setting 'orthorhombic'
loop_
_space_group_symop_operation_xyz
x,y,z
1/2-x,-y,1/2+z
-x,y,z
1/2+x,-y,1/2+z
loop_
_atom_site_type_symbol
_atom_site_label
_atom_site_fract_x
_atom_site_fract_y
_atom_site_fract_z
Si Si1 0.210203 0.031119 0.669410
Si Si2 0.286792 0.430867 0.330837
Si Si3 0.784618 0.227452 0.728027
Si Si4 0.782109 0.240584 0.012021
Si Si5 0.202692 0.063614 0.419581
Si Si6 0.790358 0.226403 0.287836
Si Si7 0.713686 0.574828 0.170511
Si Si8 0.787341 0.440700 0.005447
O O1 0.253843 0.135905 0.658639
O O2 0.273883 0.999686 0.530261
O O3 0.000000 0.018469 0.697078
O O4 0.302339 0.986110 0.786658
O O5 0.500000 0.422759 0.328685
O O6 0.219616 0.330113 0.319804
O O7 0.239750 0.463505 0.169208
O O8 0.248078 0.544567 0.340022
O O9 0.716733 0.323723 0.680087
O O10 0.000000 0.236780 0.726778
O O11 0.728331 0.207606 0.873765
O O12 0.718637 0.203932 0.146980
O O13 0.714098 0.341919 0.013193
O O14 0.000000 0.240745 0.014504
O O15 0.288564 0.158537 0.389027
O O16 0.000000 0.079443 0.464034
O O17 0.000000 0.207156 0.284036
O O18 0.500000 0.578050 0.171264
O O19 0.745490 0.553206 0.000631
O O20 0.000000 0.433607 0.002317
#
# Coordination Sequence:
#
# PCOD9342836 Si02
#       8
#     4   4   4   4   4   4   4   4
#     4  10  23  43  68  94 122 158 200 253 314 372
#     4  10  20  33  50  78 116 154 191 237 286 337
#     4   9  18  34  58  84 111 149 200 242 288 356
#     4   9  16  30  53  81 110 149 197 240 284 342
#     4  10  24  44  65  96 126 152 202 259 308 375
#     4  10  21  36  59  85 113 151 197 248 295 351
#     4  10  19  32  52  78 109 148 193 241 280 326
#     4  10  19  32  49  74 113 155 196 238 281 339
#
# _framework density 26.972967000000001
#
# number of rings (size 3 to 8) (size 9 to 14) (size 15 to 20)
#    0.000    2.250    2.500    0.000    3.500    1.500 
#    0.000    0.625    0.000    1.500    0.000    0.000 
#    0.000    0.000    0.000    0.000    0.000    0.000 
#
# Total GULP energy -178331.000226 kJ/mol
# GULP energy per Si atom -5572.843757 kJ/mol
# Density = 2.691158 g / cm^3
# Si number density = 26.972967 Si / 1000 Ang^3
#
#
#
# Elastic Constant Matrix: (Units=GPa)
#
#
# Indices 1 2 3 4 5 6 
#
# 1 69.7486 0.5368 7.0305 0.0000 0.0000 0.0000
# 2 0.5368 81.2520 26.0603 0.0000 0.0000 0.0000
# 3 7.0305 26.0603 183.6343 0.0000 0.0000 0.0000
# 4 0.0000 0.0000 0.0000 49.7917 0.0000 0.0000
# 5 0.0000 0.0000 0.0000 0.0000 29.8696 0.0000
# 6 0.0000 0.0000 0.0000 0.0000 0.0000 10.5927
#
#
#
# Elastic Compliance Matrix: (Units=1/GPa)
#
#
# Indices 1 2 3 4 5 6 
#
# 1 0.014393 0.000086 -0.000563 0.000000 0.000000 0.000000
# 2 0.000086 0.012895 -0.001833 0.000000 0.000000 0.000000
# 3 -0.000563 -0.001833 0.005727 0.000000 0.000000 0.000000
# 4 0.000000 0.000000 0.000000 0.020084 0.000000 0.000000
# 5 0.000000 0.000000 0.000000 0.000000 0.033479 0.000000
# 6 0.000000 0.000000 0.000000 0.000000 0.000000 0.094404
#
#
# Mechanical properties :
#
#
# Convention : Reuss Voigt Hill
#
# Bulk Modulus (GPa) = 35.21910 44.65445 39.93677
# Shear Modulus (GPa) = 25.63199 38.11796 31.87498
#
# Velocity S-wave (km/s) = 3.08601 3.76332 3.44137
# Velocity P-wave (km/s) = 5.07775 5.95606 5.53435
#
# Compressibility (1/GPa) = 0.02839368
#
# Stress axis : x y z
#
# Youngs Moduli (GPa) = 69.47673 77.55062 174.60145
#
# Poissons Ratio (x) = -0.00663 0.09833
# Poissons Ratio (y) = -0.00594 0.32008
# Poissons Ratio (z) = 0.03913 0.14217
#
# Static dielectric constant tensor:
#      x y z
#    x 1.948680 0.000000 0.000000 
#    y 0.000000 2.055740 0.000000 
#    z 0.000000 0.000000 2.807820 
# 
# From -- ./inp_files/3692.got.cif
#   From: 2010.05.17/outbox.cif.g08.bks.cpg/sg31_2_cif.got.tgz:3692.got - 2010.06.03 17:08:30.
