data_PCOD9342831
_publ_section_title
;
Structure prediction by ZEFSAII (Michael W. Deem and Ramdas Pophale) SiO2 
 PCOD9342831
Probable space group: P M N 21
;
_chemical_formula_sum "Si O2"
_cell_formula_units_Z 32
_cell_length_a 7.622181
_cell_length_b 15.168443
_cell_length_c 12.792409
_cell_angle_alpha 90.000000
_cell_angle_beta 90.000000
_cell_angle_gamma 90.000000
_cell_volume 1479.015065
_symmetry_space_group_name_H-M "P M N 21"
_symmetry_group_IT_number 31
_symmetry_cell_setting 'orthorhombic'
loop_
_space_group_symop_operation_xyz
x,y,z
1/2-x,-y,1/2+z
-x,y,z
1/2+x,-y,1/2+z
loop_
_atom_site_type_symbol
_atom_site_label
_atom_site_fract_x
_atom_site_fract_y
_atom_site_fract_z
Si Si1 0.213630 0.657066 0.691050
Si Si2 0.211020 0.056330 0.112018
Si Si3 0.204518 0.728352 0.007328
Si Si4 0.709879 0.360763 0.956794
Si Si5 0.210800 0.832646 0.402234
Si Si6 0.215233 0.866456 0.169522
Si Si7 0.699394 0.833123 0.802825
Si Si8 0.209846 0.556287 0.891109
O O1 0.270841 0.634187 0.575979
O O2 0.296448 0.747713 0.728411
O O3 0.264851 0.584921 0.775600
O O4 0.000000 0.667692 0.693183
O O5 0.278540 0.094999 0.223431
O O6 0.000000 0.058779 0.121189
O O7 0.267953 0.954797 0.107933
O O8 0.251650 0.112423 0.007988
O O9 0.214721 0.796659 0.909110
O O10 0.279503 0.633772 0.968976
O O11 0.000000 0.712600 0.029850
O O12 0.278156 0.779700 0.107499
O O13 0.500000 0.352134 0.957601
O O14 0.776861 0.268377 0.910938
O O15 0.748035 0.455035 0.908100
O O16 0.271543 0.870392 0.290592
O O17 0.000000 0.830252 0.396255
O O18 0.000000 0.864406 0.168309
O O19 0.500000 0.858463 0.829932
O O20 0.000000 0.564555 0.895771
#
# Coordination Sequence:
#
# PCOD9342831 Si02
#       8
#     4   4   4   4   4   4   4   4
#     4   9  18  35  53  75 105 141 185 226 272 330
#     4  10  21  36  55  82 113 142 177 229 285 328
#     4   9  19  37  57  77 109 151 190 224 272 336
#     4  10  20  34  55  81 107 140 184 229 272 325
#     4  10  21  38  60  83 110 147 190 230 272 334
#     4   9  20  38  58  81 113 150 185 228 279 332
#     4  10  19  31  53  82 108 136 178 233 279 320
#     4   9  19  33  53  79 107 143 183 225 275 327
#
# _framework density 21.636019000000001
#
# number of rings (size 3 to 8) (size 9 to 14) (size 15 to 20)
#    0.000    2.500    1.250    1.125    1.750    4.500 
#    0.000    2.500    0.000    0.000    0.000    0.000 
#    0.000    0.000    0.000    0.000    0.000    0.000 
#
# Total GULP energy -178393.174287 kJ/mol
# GULP energy per Si atom -5574.786696 kJ/mol
# Density = 2.158677 g / cm^3
# Si number density = 21.636019 Si / 1000 Ang^3
#
#
#
# Elastic Constant Matrix: (Units=GPa)
#
#
# Indices 1 2 3 4 5 6 
#
# 1 36.7559 -0.7975 -2.0858 0.0000 0.0000 0.0000
# 2 -0.7975 131.5904 55.9630 0.0000 0.0000 0.0000
# 3 -2.0858 55.9630 70.0527 0.0000 0.0000 0.0000
# 4 0.0000 0.0000 0.0000 24.5258 0.0000 0.0000
# 5 0.0000 0.0000 0.0000 0.0000 12.5595 0.0000
# 6 0.0000 0.0000 0.0000 0.0000 0.0000 11.3111
#
#
#
# Elastic Compliance Matrix: (Units=1/GPa)
#
#
# Indices 1 2 3 4 5 6 
#
# 1 0.027259 -0.000273 0.001029 0.000000 0.000000 0.000000
# 2 -0.000273 0.011512 -0.009205 0.000000 0.000000 0.000000
# 3 0.001029 -0.009205 0.021659 0.000000 0.000000 0.000000
# 4 0.000000 0.000000 0.000000 0.040773 0.000000 0.000000
# 5 0.000000 0.000000 0.000000 0.000000 0.079621 0.000000
# 6 0.000000 0.000000 0.000000 0.000000 0.000000 0.088409
#
#
# Mechanical properties :
#
#
# Convention : Reuss Voigt Hill
#
# Bulk Modulus (GPa) = 22.97044 38.28426 30.62735
# Shear Modulus (GPa) = 16.63109 22.03390 19.33249
#
# Velocity S-wave (km/s) = 2.77551 3.19468 2.99244
# Velocity P-wave (km/s) = 4.57286 5.59831 5.11137
#
# Compressibility (1/GPa) = 0.04353421
#
# Stress axis : x y z
#
# Youngs Moduli (GPa) = 36.68514 86.86266 46.16968
#
# Poissons Ratio (x) = 0.02368 -0.04753
# Poissons Ratio (y) = 0.01000 0.42499
# Poissons Ratio (z) = -0.03776 0.79957
#
# Static dielectric constant tensor:
#      x y z
#    x 1.824790 0.000000 0.000000 
#    y 0.000000 1.807250 0.000000 
#    z 0.000000 0.000000 1.792100 
# 
# From -- ./inp_files/3709.got.cif
#   From: 2010.05.17/outbox.cif.g08.bks.cpg/sg31_2_cif.got.tgz:3709.got - 2010.06.03 17:08:30.
