data_PCOD9342382
_publ_section_title
;
Structure prediction by ZEFSAII (Michael W. Deem and Ramdas Pophale) SiO2 
 PCOD9342382
Probable space group: P N C 2
;
_chemical_formula_sum "Si O2"
_cell_formula_units_Z 22
_cell_length_a 12.262694
_cell_length_b 6.243545
_cell_length_c 14.055879
_cell_angle_alpha 90.000000
_cell_angle_beta 90.000000
_cell_angle_gamma 90.000000
_cell_volume 1076.155791
_symmetry_space_group_name_H-M "P N C 2"
_symmetry_group_IT_number 30
_symmetry_cell_setting 'orthorhombic'
loop_
_space_group_symop_operation_xyz
x,y,z
-x,-y,z
-x,1/2+y,1/2+z
x,1/2-y,1/2+z
loop_
_atom_site_type_symbol
_atom_site_label
_atom_site_fract_x
_atom_site_fract_y
_atom_site_fract_z
Si Si1 0.000000 0.000000 0.177341
Si Si2 0.381826 0.429577 0.901363
Si Si3 0.720337 0.333083 0.065737
Si Si4 0.239006 0.039067 0.913851
Si Si5 0.778679 0.187073 0.264016
Si Si6 0.089565 0.156665 0.527720
O O1 0.038452 0.192589 0.108219
O O2 0.894117 0.082377 0.234918
O O3 0.500000 0.500000 0.865729
O O4 0.349314 0.179834 0.904221
O O5 0.289804 0.536169 0.834559
O O6 0.369055 0.533402 0.006778
O O7 0.707480 0.236732 0.170010
O O8 0.819712 0.500861 0.071944
O O9 0.749068 0.134697 0.997435
O O10 0.207751 0.909993 0.820043
O O11 0.145800 0.199906 0.948099
O O12 0.000000 0.000000 0.484662
#
# Coordination Sequence:
#
# PCOD9342382 Si02
#       6
#     2   4   4   4   4   4
#     4  12  24  42  66 100 144 184 238 290 352 432
#     4  10  25  48  70 103 138 181 240 299 354 417
#     4  10  22  44  66  96 133 185 230 281 358 412
#     4  10  23  45  66  97 145 174 234 290 345 419
#     4  11  24  44  66 106 138 191 234 286 355 431
#     4  11  20  40  65  92 138 187 231 280 346 418
#
# _framework density 20.443138000000001
#
# number of rings (size 3 to 8) (size 9 to 14) (size 15 to 20)
#    0.000    1.455    3.636    0.000    2.545    2.909 
#   34.364    0.000    0.000    0.000    0.000    0.000 
#    0.000    0.000    0.000    0.000    0.000    0.000 
#
# Total GULP energy -122872.521262 kJ/mol
# GULP energy per Si atom -5585.114603 kJ/mol
# Density = 2.039661 g / cm^3
# Si number density = 20.443138 Si / 1000 Ang^3
#
#
#
# Elastic Constant Matrix: (Units=GPa)
#
#
# Indices 1 2 3 4 5 6 
#
# 1 112.2415 50.9498 27.2409 0.0000 0.0000 0.0000
# 2 50.9498 130.8457 42.1009 0.0000 0.0000 0.0000
# 3 27.2409 42.1009 112.9683 0.0000 0.0000 0.0000
# 4 0.0000 0.0000 0.0000 24.1026 0.0000 0.0000
# 5 0.0000 0.0000 0.0000 0.0000 21.5668 0.0000
# 6 0.0000 0.0000 0.0000 0.0000 0.0000 9.5183
#
#
#
# Elastic Compliance Matrix: (Units=1/GPa)
#
#
# Indices 1 2 3 4 5 6 
#
# 1 0.010963 -0.003884 -0.001196 0.000000 0.000000 0.000000
# 2 -0.003884 0.010060 -0.002813 0.000000 0.000000 0.000000
# 3 -0.001196 -0.002813 0.010189 0.000000 0.000000 0.000000
# 4 0.000000 0.000000 0.000000 0.041489 0.000000 0.000000
# 5 0.000000 0.000000 0.000000 0.000000 0.046368 0.000000
# 6 0.000000 0.000000 0.000000 0.000000 0.000000 0.105061
#
#
# Mechanical properties :
#
#
# Convention : Reuss Voigt Hill
#
# Bulk Modulus (GPa) = 64.82492 66.29320 65.55906
# Shear Modulus (GPa) = 20.40350 26.75512 23.57931
#
# Velocity S-wave (km/s) = 3.16264 3.62160 3.39987
# Velocity P-wave (km/s) = 6.71678 7.07011 6.89571
#
# Compressibility (1/GPa) = 0.01542617
#
# Stress axis : x y z
#
# Youngs Moduli (GPa) = 91.21876 99.40452 98.14850
#
# Poissons Ratio (x) = 0.38608 0.11739
# Poissons Ratio (y) = 0.35428 0.27605
# Poissons Ratio (z) = 0.10910 0.27958
#
# Static dielectric constant tensor:
#      x y z
#    x 1.738750 0.000000 0.000000 
#    y 0.000000 1.743540 0.000000 
#    z 0.000000 0.000000 1.718040 
# 
# From -- ./inp_files/5380.got.cif
#   From: 2010.05.17/outbox.cif.g08.bks.cpg/sg30_3_cif.got.tgz:5380.got - 2010.06.03 17:03:02.
