data_PCOD9342208
_publ_section_title
;
Structure prediction by ZEFSAII (Michael W. Deem and Ramdas Pophale) SiO2 
 PCOD9342208
Probable space group: P N C 2
;
_chemical_formula_sum "Si O2"
_cell_formula_units_Z 30
_cell_length_a 7.998587
_cell_length_b 12.745261
_cell_length_c 14.303489
_cell_angle_alpha 90.000000
_cell_angle_beta 90.000000
_cell_angle_gamma 90.000000
_cell_volume 1458.156012
_symmetry_space_group_name_H-M "P N C 2"
_symmetry_group_IT_number 30
_symmetry_cell_setting 'orthorhombic'
loop_
_space_group_symop_operation_xyz
x,y,z
-x,-y,z
-x,1/2+y,1/2+z
x,1/2-y,1/2+z
loop_
_atom_site_type_symbol
_atom_site_label
_atom_site_fract_x
_atom_site_fract_y
_atom_site_fract_z
Si Si1 0.055625 0.384756 0.770650
Si Si2 0.000000 0.500000 0.267644
Si Si3 0.424840 0.113747 0.354713
Si Si4 0.128179 0.306290 0.145468
Si Si5 0.049114 0.877392 0.467540
Si Si6 0.343355 0.922386 0.844009
Si Si7 0.513658 0.231430 0.695494
Si Si8 0.621062 0.260370 0.993374
O O1 0.235513 0.394156 0.821051
O O2 0.060429 0.302561 0.687592
O O3 0.000000 0.500000 0.740732
O O4 0.948330 0.344784 0.858621
O O5 0.040570 0.400963 0.201500
O O6 0.166142 0.521345 0.328433
O O7 0.512774 0.174603 0.269731
O O8 0.461162 0.184540 0.445059
O O9 0.500000 0.000000 0.370003
O O10 0.324684 0.306158 0.171459
O O11 0.078701 0.319484 0.037255
O O12 0.234321 0.848095 0.499709
O O13 0.000000 0.000000 0.470524
O O14 0.388962 0.861967 0.747355
O O15 0.332268 0.836825 0.926912
O O16 0.500000 0.000000 0.862847
O O17 0.587542 0.271286 0.598879
#
# Coordination Sequence:
#
# PCOD9342208 Si02
#       8
#     4   2   4   4   4   4   4   4
#     4  10  22  40  64  90 127 167 215 276 327 392
#     4  12  22  40  70 100 134 176 218 286 344 400
#     4  10  21  39  63  87 120 169 213 259 329 387
#     4  11  22  40  66  98 130 175 221 276 337 402
#     4  11  22  38  62  97 128 165 224 274 327 399
#     4  11  24  45  69  99 138 178 229 279 347 409
#     4  10  23  41  64  92 133 169 221 275 326 397
#     4  11  24  41  64  97 130 178 217 283 335 406
#
# _framework density 20.573929
#
# number of rings (size 3 to 8) (size 9 to 14) (size 15 to 20)
#    0.000    1.333    2.000    4.000    0.000    4.267 
#    2.400    1.333    1.467    0.000    1.733    0.000 
#    0.000    0.000    0.000    0.000    0.000    0.000 
#
# Total GULP energy -167635.449444 kJ/mol
# GULP energy per Si atom -5587.848315 kJ/mol
# Density = 2.052710 g / cm^3
# Si number density = 20.573929 Si / 1000 Ang^3
#
#
#
# Elastic Constant Matrix: (Units=GPa)
#
#
# Indices 1 2 3 4 5 6 
#
# 1 81.3833 32.3448 17.7528 0.0000 0.0000 0.0000
# 2 32.3448 83.1133 28.1402 0.0000 0.0000 0.0000
# 3 17.7528 28.1402 101.6777 0.0000 0.0000 0.0000
# 4 0.0000 0.0000 0.0000 9.9356 0.0000 0.0000
# 5 0.0000 0.0000 0.0000 0.0000 20.3390 0.0000
# 6 0.0000 0.0000 0.0000 0.0000 0.0000 20.5087
#
#
#
# Elastic Compliance Matrix: (Units=1/GPa)
#
#
# Indices 1 2 3 4 5 6 
#
# 1 0.014643 -0.005332 -0.001081 0.000000 0.000000 0.000000
# 2 -0.005332 0.015218 -0.003281 0.000000 0.000000 0.000000
# 3 -0.001081 -0.003281 0.010932 0.000000 0.000000 0.000000
# 4 0.000000 0.000000 0.000000 0.100648 0.000000 0.000000
# 5 0.000000 0.000000 0.000000 0.000000 0.049167 0.000000
# 6 0.000000 0.000000 0.000000 0.000000 0.000000 0.048760
#
#
# Mechanical properties :
#
#
# Convention : Reuss Voigt Hill
#
# Bulk Modulus (GPa) = 46.71962 46.96110 46.84036
# Shear Modulus (GPa) = 18.80485 22.68574 20.74530
#
# Velocity S-wave (km/s) = 3.02655 3.32421 3.17887
# Velocity P-wave (km/s) = 5.91361 6.13261 6.02411
#
# Compressibility (1/GPa) = 0.02140429
#
# Stress axis : x y z
#
# Youngs Moduli (GPa) = 68.29382 65.71286 91.47757
#
# Poissons Ratio (x) = 0.35041 0.09887
# Poissons Ratio (y) = 0.36417 0.30010
# Poissons Ratio (z) = 0.07381 0.21558
#
# Static dielectric constant tensor:
#      x y z
#    x 1.841550 0.000000 0.000000 
#    y 0.000000 1.705600 0.000000 
#    z 0.000000 0.000000 1.719150 
# 
# From -- ./inp_files/5196.got.cif
#   From: 2010.05.17/outbox.cif.g08.bks.cpg/sg30_3_cif.got.tgz:5196.got - 2010.06.03 17:03:02.
