data_PCOD9342038
_publ_section_title
;
Structure prediction by ZEFSAII (Michael W. Deem and Ramdas Pophale) SiO2 
 PCOD9342038
Probable space group: P N C 2
;
_chemical_formula_sum "Si O2"
_cell_formula_units_Z 20
_cell_length_a 8.816531
_cell_length_b 8.449872
_cell_length_c 13.496740
_cell_angle_alpha 90.000000
_cell_angle_beta 90.000000
_cell_angle_gamma 90.000000
_cell_volume 1005.487674
_symmetry_space_group_name_H-M "P N C 2"
_symmetry_group_IT_number 30
_symmetry_cell_setting 'orthorhombic'
loop_
_space_group_symop_operation_xyz
x,y,z
-x,-y,z
-x,1/2+y,1/2+z
x,1/2-y,1/2+z
loop_
_atom_site_type_symbol
_atom_site_label
_atom_site_fract_x
_atom_site_fract_y
_atom_site_fract_z
Si Si1 0.738666 0.179847 0.942950
Si Si2 0.181357 0.983580 0.350815
Si Si3 0.319582 0.522694 0.650921
Si Si4 0.500000 0.500000 0.308810
Si Si5 0.754771 0.779333 0.740998
Si Si6 0.000000 0.500000 0.322986
O O1 0.759176 0.368389 0.935232
O O2 0.598149 0.114841 0.878825
O O3 0.716262 0.118656 0.053527
O O4 0.885477 0.098897 0.892148
O O5 0.239721 0.903199 0.247903
O O6 0.249642 0.159302 0.336471
O O7 0.000000 0.000000 0.352707
O O8 0.500000 0.500000 0.665739
O O9 0.250152 0.344507 0.651077
O O10 0.387415 0.394184 0.244241
O O11 0.903910 0.881595 0.755078
#
# Coordination Sequence:
#
# PCOD9342038 Si02
#       6
#     4   4   4   2   4   2
#     4  11  20  36  66  90 128 170 215 256 329 375
#     4  10  21  40  66  93 128 172 211 265 318 385
#     4  10  21  38  63  95 127 167 215 265 322 378
#     4  10  20  36  64  90 124 176 202 266 318 388
#     4   9  21  38  67  91 129 169 215 254 327 378
#     4  10  20  38  64  90 124 176 208 264 322 384
#
# _framework density 19.890847000000001
#
# number of rings (size 3 to 8) (size 9 to 14) (size 15 to 20)
#    1.200    0.800    3.000    1.200    1.400    0.000 
#    0.000    0.000   28.600    0.000    0.000    0.000 
#    0.000    0.000    0.000    0.000    0.000    0.000 
#
# Total GULP energy -111465.944083 kJ/mol
# GULP energy per Si atom -5573.297204 kJ/mol
# Density = 1.984557 g / cm^3
# Si number density = 19.890847 Si / 1000 Ang^3
#
#
#
# Elastic Constant Matrix: (Units=GPa)
#
#
# Indices 1 2 3 4 5 6 
#
# 1 94.8702 33.8997 18.7553 0.0000 0.0000 0.0000
# 2 33.8997 112.8015 26.7262 0.0000 0.0000 0.0000
# 3 18.7553 26.7262 61.6214 0.0000 0.0000 0.0000
# 4 0.0000 0.0000 0.0000 16.4127 0.0000 0.0000
# 5 0.0000 0.0000 0.0000 0.0000 1.2590 0.0000
# 6 0.0000 0.0000 0.0000 0.0000 0.0000 27.2102
#
#
#
# Elastic Compliance Matrix: (Units=1/GPa)
#
#
# Indices 1 2 3 4 5 6 
#
# 1 0.012106 -0.003082 -0.002348 0.000000 0.000000 0.000000
# 2 -0.003082 0.010665 -0.003688 0.000000 0.000000 0.000000
# 3 -0.002348 -0.003688 0.018542 0.000000 0.000000 0.000000
# 4 0.000000 0.000000 0.000000 0.060928 0.000000 0.000000
# 5 0.000000 0.000000 0.000000 0.000000 0.794269 0.000000
# 6 0.000000 0.000000 0.000000 0.000000 0.000000 0.036751
#
#
# Mechanical properties :
#
#
# Convention : Reuss Voigt Hill
#
# Bulk Modulus (GPa) = 43.33061 47.56171 45.44616
# Shear Modulus (GPa) = 5.21273 21.63718 13.42496
#
# Velocity S-wave (km/s) = 1.62060 3.30175 2.60076
# Velocity P-wave (km/s) = 5.03322 6.20473 5.64942
#
# Compressibility (1/GPa) = 0.02307837
#
# Stress axis : x y z
#
# Youngs Moduli (GPa) = 82.60271 93.76450 53.93123
#
# Poissons Ratio (x) = 0.28897 0.12663
# Poissons Ratio (y) = 0.25457 0.19888
# Poissons Ratio (z) = 0.19395 0.34576
#
# Static dielectric constant tensor:
#      x y z
#    x 1.692400 0.000000 0.000000 
#    y 0.000000 1.728530 0.000000 
#    z 0.000000 0.000000 1.691590 
# 
# From -- ./inp_files/4911.got.cif
#   From: 2010.05.17/outbox.cif.g08.bks.cpg/sg30_3_cif.got.tgz:4911.got - 2010.06.03 17:03:02.
