data_PCOD9342173
_publ_section_title
;
Structure prediction by ZEFSAII (Michael W. Deem and Ramdas Pophale) SiO2 
 PCOD9342173
Probable space group: P N C 2
;
_chemical_formula_sum "Si O2"
_cell_formula_units_Z 30
_cell_length_a 11.879944
_cell_length_b 8.536680
_cell_length_c 14.512964
_cell_angle_alpha 90.000000
_cell_angle_beta 90.000000
_cell_angle_gamma 90.000000
_cell_volume 1471.836313
_symmetry_space_group_name_H-M "P N C 2"
_symmetry_group_IT_number 30
_symmetry_cell_setting 'orthorhombic'
loop_
_space_group_symop_operation_xyz
x,y,z
-x,-y,z
-x,1/2+y,1/2+z
x,1/2-y,1/2+z
loop_
_atom_site_type_symbol
_atom_site_label
_atom_site_fract_x
_atom_site_fract_y
_atom_site_fract_z
Si Si1 0.886014 0.555341 0.332150
Si Si2 0.500000 0.500000 0.264529
Si Si3 0.938456 0.856425 0.212266
Si Si4 0.337737 0.276241 0.371485
Si Si5 0.694530 0.547405 0.705877
Si Si6 0.540473 0.829640 0.044378
Si Si7 0.094650 0.878389 0.639514
Si Si8 0.337243 0.805120 0.638522
O O1 0.916012 0.718885 0.283449
O O2 0.766470 0.599098 0.376011
O O3 0.875967 0.436067 0.244914
O O4 0.000000 0.500000 0.384439
O O5 0.442643 0.363241 0.323235
O O6 0.601364 0.430342 0.203353
O O7 0.819268 0.906561 0.171660
O O8 0.028474 0.784905 0.141594
O O9 0.000000 0.000000 0.259894
O O10 0.313471 0.124561 0.307631
O O11 0.375911 0.244672 0.475029
O O12 0.603351 0.632263 0.640610
O O13 0.680432 0.360475 0.693625
O O14 0.428482 0.732448 0.061062
O O15 0.500000 0.000000 0.009292
O O16 0.218054 0.861738 0.598413
O O17 0.000000 0.000000 0.604417
#
# Coordination Sequence:
#
# PCOD9342173 Si02
#       8
#     4   2   4   4   4   4   4   4
#     4   8  17  30  53  86 114 147 200 246 291 358
#     4  12  22  34  62  82 112 166 202 238 306 366
#     4   9  15  28  53  86 113 149 192 236 300 357
#     4  11  20  38  62  85 118 163 200 253 305 365
#     4  10  21  37  60  88 127 156 199 253 306 363
#     4  10  22  37  58  87 124 156 207 253 295 368
#     4   9  17  30  54  89 119 149 207 244 293 366
#     4  11  21  37  58  88 123 161 201 255 305 362
#
# _framework density 20.382701999999998
#
# number of rings (size 3 to 8) (size 9 to 14) (size 15 to 20)
#    0.000    2.400    4.667    0.000    0.000    0.000 
#    0.000    2.000    0.000    0.000    0.000   33.600 
#    0.000    0.000    0.000    0.000    0.000    0.000 
#
# Total GULP energy -167030.545850 kJ/mol
# GULP energy per Si atom -5567.684862 kJ/mol
# Density = 2.033631 g / cm^3
# Si number density = 20.382702 Si / 1000 Ang^3
#
#
#
# Elastic Constant Matrix: (Units=GPa)
#
#
# Indices 1 2 3 4 5 6 
#
# 1 158.3053 14.2663 16.0811 0.0000 0.0000 0.0000
# 2 14.2663 37.4548 8.3461 0.0000 0.0000 0.0000
# 3 16.0811 8.3461 35.1577 0.0000 0.0000 0.0000
# 4 0.0000 0.0000 0.0000 2.9027 0.0000 0.0000
# 5 0.0000 0.0000 0.0000 0.0000 14.5776 0.0000
# 6 0.0000 0.0000 0.0000 0.0000 0.0000 34.1464
#
#
#
# Elastic Compliance Matrix: (Units=1/GPa)
#
#
# Indices 1 2 3 4 5 6 
#
# 1 0.006763 -0.001992 -0.002620 0.000000 0.000000 0.000000
# 2 -0.001992 0.028777 -0.005920 0.000000 0.000000 0.000000
# 3 -0.002620 -0.005920 0.031047 0.000000 0.000000 0.000000
# 4 0.000000 0.000000 0.000000 0.344512 0.000000 0.000000
# 5 0.000000 0.000000 0.000000 0.000000 0.068598 0.000000
# 6 0.000000 0.000000 0.000000 0.000000 0.000000 0.029286
#
#
# Mechanical properties :
#
#
# Convention : Reuss Voigt Hill
#
# Bulk Modulus (GPa) = 21.96760 34.25609 28.11185
# Shear Modulus (GPa) = 9.17058 23.14029 16.15544
#
# Velocity S-wave (km/s) = 2.12343 3.37306 2.81838
# Velocity P-wave (km/s) = 4.10036 5.65800 4.94095
#
# Compressibility (1/GPa) = 0.04552159
#
# Stress axis : x y z
#
# Youngs Moduli (GPa) = 147.87211 34.75021 32.20899
#
# Poissons Ratio (x) = 0.06922 0.08440
# Poissons Ratio (y) = 0.29455 0.19069
# Poissons Ratio (z) = 0.38747 0.20573
#
# Static dielectric constant tensor:
#      x y z
#    x 1.785670 0.000000 0.000000 
#    y 0.000000 1.766410 0.000000 
#    z 0.000000 0.000000 1.766210 
# 
# From -- ./inp_files/5482.got.cif
#   From: 2010.05.17/outbox.cif.g08.bks.cpg/sg30_3_cif.got.tgz:5482.got - 2010.06.03 17:03:02.
