data_PCOD9342455
_publ_section_title
;
Structure prediction by ZEFSAII (Michael W. Deem and Ramdas Pophale) SiO2 
 PCOD9342455
Probable space group: P N C 2
;
_chemical_formula_sum "Si O2"
_cell_formula_units_Z 24
_cell_length_a 7.513366
_cell_length_b 6.208529
_cell_length_c 23.693661
_cell_angle_alpha 90.000000
_cell_angle_beta 90.000000
_cell_angle_gamma 90.000000
_cell_volume 1105.237037
_symmetry_space_group_name_H-M "P N C 2"
_symmetry_group_IT_number 30
_symmetry_cell_setting 'orthorhombic'
loop_
_space_group_symop_operation_xyz
x,y,z
-x,-y,z
-x,1/2+y,1/2+z
x,1/2-y,1/2+z
loop_
_atom_site_type_symbol
_atom_site_label
_atom_site_fract_x
_atom_site_fract_y
_atom_site_fract_z
Si Si1 0.950723 0.752732 0.738980
Si Si2 0.500000 0.000000 0.287518
Si Si3 0.565224 0.769429 0.691353
Si Si4 0.500000 0.000000 0.899601
Si Si5 0.000000 0.500000 0.952796
Si Si6 0.500000 0.000000 0.087552
Si Si7 0.195636 0.230242 0.353109
Si Si8 0.359738 0.809459 0.496655
O O1 0.743706 0.763307 0.725579
O O2 0.958627 0.757170 0.806961
O O3 0.000000 0.500000 0.721329
O O4 0.000000 0.000000 0.718158
O O5 0.434080 0.825262 0.240109
O O6 0.664312 0.944823 0.328188
O O7 0.598858 0.647882 0.632987
O O8 0.500000 0.000000 0.675254
O O9 0.330316 0.071817 0.863221
O O10 0.566129 0.191457 0.940519
O O11 0.104381 0.335997 0.911471
O O12 0.158899 0.610003 0.987791
O O13 0.625158 0.139144 0.047409
O O14 0.500000 0.000000 0.508712
#
# Coordination Sequence:
#
# PCOD9342455 Si02
#       8
#     4   2   4   2   2   2   4   4
#     4  11  27  43  67 108 159 190 239 302 363 449
#     4   9  22  39  62 104 142 181 240 275 354 438
#     4  10  23  43  77  96 130 189 242 299 376 452
#     4  11  24  41  68  98 142 197 240 297 350 442
#     4  12  24  42  72 102 146 194 240 294 368 446
#     4  10  24  48  76  92 132 172 250 310 394 424
#     4  11  23  38  68 102 150 196 238 287 361 439
#     4  11  24  47  70 100 137 180 245 315 366 442
#
# _framework density 21.714797999999998
#
# number of rings (size 3 to 8) (size 9 to 14) (size 15 to 20)
#    0.000    1.333    2.500    1.500   14.000    0.000 
#    0.000    3.333    0.000    0.000    0.000    0.000 
#    0.000    0.000    0.000    0.000    0.000    0.000 
#
# Total GULP energy -133624.552298 kJ/mol
# GULP energy per Si atom -5567.689679 kJ/mol
# Density = 2.166537 g / cm^3
# Si number density = 21.714798 Si / 1000 Ang^3
#
#
#
# Elastic Constant Matrix: (Units=GPa)
#
#
# Indices 1 2 3 4 5 6 
#
# 1 84.1744 33.0844 20.4964 0.0000 0.0000 0.0000
# 2 33.0844 113.0288 24.5679 0.0000 0.0000 0.0000
# 3 20.4964 24.5679 85.5203 0.0000 0.0000 0.0000
# 4 0.0000 0.0000 0.0000 21.7862 0.0000 0.0000
# 5 0.0000 0.0000 0.0000 0.0000 5.3199 0.0000
# 6 0.0000 0.0000 0.0000 0.0000 0.0000 38.0671
#
#
#
# Elastic Compliance Matrix: (Units=1/GPa)
#
#
# Indices 1 2 3 4 5 6 
#
# 1 0.013835 -0.003551 -0.002296 0.000000 0.000000 0.000000
# 2 -0.003551 0.010348 -0.002122 0.000000 0.000000 0.000000
# 3 -0.002296 -0.002122 0.012853 0.000000 0.000000 0.000000
# 4 0.000000 0.000000 0.000000 0.045901 0.000000 0.000000
# 5 0.000000 0.000000 0.000000 0.000000 0.187973 0.000000
# 6 0.000000 0.000000 0.000000 0.000000 0.000000 0.026269
#
#
# Mechanical properties :
#
#
# Convention : Reuss Voigt Hill
#
# Bulk Modulus (GPa) = 47.39489 48.78010 48.08749
# Shear Modulus (GPa) = 15.61781 26.67295 21.14538
#
# Velocity S-wave (km/s) = 2.68474 3.50856 3.12393
# Velocity P-wave (km/s) = 5.61105 6.23907 5.93338
#
# Compressibility (1/GPa) = 0.02109932
#
# Stress axis : x y z
#
# Youngs Moduli (GPa) = 72.28250 96.63946 77.80375
#
# Poissons Ratio (x) = 0.34312 0.17862
# Poissons Ratio (y) = 0.25664 0.16508
# Poissons Ratio (z) = 0.16594 0.20504
#
# Static dielectric constant tensor:
#      x y z
#    x 1.744600 0.000000 0.000000 
#    y 0.000000 2.065480 0.000000 
#    z 0.000000 0.000000 1.775470 
# 
# From -- ./inp_files/7343.got.cif
#   From: 2010.05.17/outbox.cif.g08.bks.cpg/sg30_4_cif.got.tgz:7343.got - 2010.06.03 17:03:02.
