data_PCOD9342029
_publ_section_title
;
Structure prediction by ZEFSAII (Michael W. Deem and Ramdas Pophale) SiO2 
 PCOD9342029
Probable space group: P N C 2
;
_chemical_formula_sum "Si O2"
_cell_formula_units_Z 30
_cell_length_a 9.428770
_cell_length_b 25.534676
_cell_length_c 5.913518
_cell_angle_alpha 90.000000
_cell_angle_beta 90.000000
_cell_angle_gamma 90.000000
_cell_volume 1423.742065
_symmetry_space_group_name_H-M "P N C 2"
_symmetry_group_IT_number 30
_symmetry_cell_setting 'orthorhombic'
loop_
_space_group_symop_operation_xyz
x,y,z
-x,-y,z
-x,1/2+y,1/2+z
x,1/2-y,1/2+z
loop_
_atom_site_type_symbol
_atom_site_label
_atom_site_fract_x
_atom_site_fract_y
_atom_site_fract_z
Si Si1 0.640796 0.848644 0.534850
Si Si2 0.201852 0.256156 0.509079
Si Si3 0.000000 0.000000 0.729457
Si Si4 0.753266 0.028227 0.432048
Si Si5 0.624207 0.936700 0.158106
Si Si6 0.117651 0.594663 0.536983
Si Si7 0.596279 0.097219 0.801832
Si Si8 0.831335 0.631436 0.417938
O O1 0.674177 0.787589 0.494171
O O2 0.764329 0.920749 0.018925
O O3 0.509519 0.859147 0.703730
O O4 0.788519 0.867732 0.654727
O O5 0.129668 0.247928 0.757185
O O6 0.247501 0.316646 0.509042
O O7 0.865487 0.992177 0.565656
O O8 0.944782 0.047445 0.882845
O O9 0.653793 0.059822 0.603530
O O10 0.658489 0.990209 0.281755
O O11 0.841409 0.069329 0.277426
O O12 0.607662 0.888726 0.333546
O O13 0.497102 0.935111 0.980731
O O14 0.262536 0.615883 0.428972
O O15 0.990493 0.635651 0.509394
#
# Coordination Sequence:
#
# PCOD9342029 Si02
#       8
#     4   4   2   4   4   4   4   4
#     4  10  21  39  65  94 126 165 220 280 338 396
#     4  10  20  40  68 104 127 160 218 291 342 403
#     4  10  20  36  58  88 130 176 226 266 324 400
#     4  11  23  38  60  92 133 182 225 272 329 403
#     4  11  21  39  63  90 127 175 225 277 331 396
#     4  11  22  39  58  89 134 177 212 269 331 402
#     4  10  25  40  58  91 134 176 223 273 333 406
#     4  10  21  37  65  97 124 164 223 277 334 405
#
# _framework density 21.071234
#
# number of rings (size 3 to 8) (size 9 to 14) (size 15 to 20)
#    0.000    1.600    1.333    3.600    0.000    7.467 
#    0.000    0.000    0.000    9.600    0.000    0.000 
#    0.000    0.000    0.000    0.000    0.000    0.000 
#
# Total GULP energy -167263.135143 kJ/mol
# GULP energy per Si atom -5575.437838 kJ/mol
# Density = 2.102328 g / cm^3
# Si number density = 21.071234 Si / 1000 Ang^3
#
#
#
# Elastic Constant Matrix: (Units=GPa)
#
#
# Indices 1 2 3 4 5 6 
#
# 1 131.0132 31.2950 47.5825 0.0000 0.0000 0.0000
# 2 31.2950 75.4746 28.6272 0.0000 0.0000 0.0000
# 3 47.5825 28.6272 124.2409 0.0000 0.0000 0.0000
# 4 0.0000 0.0000 0.0000 27.9029 0.0000 0.0000
# 5 0.0000 0.0000 0.0000 0.0000 38.6247 0.0000
# 6 0.0000 0.0000 0.0000 0.0000 0.0000 14.5089
#
#
#
# Elastic Compliance Matrix: (Units=1/GPa)
#
#
# Indices 1 2 3 4 5 6 
#
# 1 0.009364 -0.002764 -0.002949 0.000000 0.000000 0.000000
# 2 -0.002764 0.015334 -0.002475 0.000000 0.000000 0.000000
# 3 -0.002949 -0.002475 0.009749 0.000000 0.000000 0.000000
# 4 0.000000 0.000000 0.000000 0.035839 0.000000 0.000000
# 5 0.000000 0.000000 0.000000 0.000000 0.025890 0.000000
# 6 0.000000 0.000000 0.000000 0.000000 0.000000 0.068923
#
#
# Mechanical properties :
#
#
# Convention : Reuss Voigt Hill
#
# Bulk Modulus (GPa) = 55.33818 60.63759 57.98788
# Shear Modulus (GPa) = 26.66675 31.08890 28.87782
#
# Velocity S-wave (km/s) = 3.56132 3.84529 3.70602
# Velocity P-wave (km/s) = 6.57496 6.96813 6.77440
#
# Compressibility (1/GPa) = 0.01807071
#
# Stress axis : x y z
#
# Youngs Moduli (GPa) = 106.78855 65.21359 102.57785
#
# Poissons Ratio (x) = 0.18026 0.30255
# Poissons Ratio (y) = 0.29518 0.25384
# Poissons Ratio (z) = 0.31497 0.16138
#
# Static dielectric constant tensor:
#      x y z
#    x 1.812130 0.000000 0.000000 
#    y 0.000000 1.764040 0.000000 
#    z 0.000000 0.000000 1.890480 
# 
# From -- ./inp_files/554.got.cif
#   From: 2010.05.17/outbox.cif.g08.bks.cpg/sg30_1_cif.got.tgz:554.got - 2010.06.03 17:03:02.
