data_PCOD9342518
_publ_section_title
;
Structure prediction by ZEFSAII (Michael W. Deem and Ramdas Pophale) SiO2 
 PCOD9342518
Probable space group: P N C 2
;
_chemical_formula_sum "Si O2"
_cell_formula_units_Z 28
_cell_length_a 5.033561
_cell_length_b 25.660894
_cell_length_c 9.197108
_cell_angle_alpha 90.000000
_cell_angle_beta 90.000000
_cell_angle_gamma 90.000000
_cell_volume 1187.950665
_symmetry_space_group_name_H-M "P N C 2"
_symmetry_group_IT_number 30
_symmetry_cell_setting 'orthorhombic'
loop_
_space_group_symop_operation_xyz
x,y,z
-x,-y,z
-x,1/2+y,1/2+z
x,1/2-y,1/2+z
loop_
_atom_site_type_symbol
_atom_site_label
_atom_site_fract_x
_atom_site_fract_y
_atom_site_fract_z
Si Si1 0.481372 0.438490 0.935360
Si Si2 0.114990 0.608233 0.410989
Si Si3 0.005566 0.791416 0.733172
Si Si4 0.838592 0.345308 0.946154
Si Si5 0.804228 0.873019 0.193736
Si Si6 0.502617 0.781477 0.253134
Si Si7 0.620459 0.941762 0.766919
O O1 0.500000 0.500000 0.921033
O O2 0.752578 0.405538 0.948077
O O3 0.336781 0.416621 0.792045
O O4 0.363483 0.427889 0.095933
O O5 0.063704 0.667477 0.360414
O O6 0.911729 0.569120 0.328862
O O7 0.411001 0.592705 0.360849
O O8 0.016104 0.674112 0.087978
O O9 0.734743 0.760928 0.760058
O O10 0.419152 0.689338 0.903967
O O11 0.243430 0.750807 0.711263
O O12 0.991777 0.394303 0.575567
O O13 0.028397 0.340391 0.809722
O O14 0.587125 0.829426 0.146542
O O15 0.500000 0.000000 0.776875
#
# Coordination Sequence:
#
# PCOD9342518 Si02
#       7
#     4   4   4   4   4   4   4
#     4  10  24  48  78 107 145 197 254 306 372 443
#     4  12  27  46  73 110 148 189 242 307 377 437
#     4  12  26  44  75 100 146 195 246 295 369 436
#     4  11  25  48  71 108 146 192 251 304 361 456
#     4  11  27  47  72 107 156 183 249 309 370 445
#     4  11  27  43  69 104 141 193 243 299 364 432
#     4  11  25  50  76 106 143 194 247 303 368 454
#
# _framework density 23.570003
#
# number of rings (size 3 to 8) (size 9 to 14) (size 15 to 20)
#    0.000    0.857    2.857    2.143   12.000    1.143 
#    2.571    0.000    0.000    0.000    0.000    0.000 
#    0.000    0.000    0.000    0.000    0.000    0.000 
#
# Total GULP energy -156567.656898 kJ/mol
# GULP energy per Si atom -5591.702032 kJ/mol
# Density = 2.351636 g / cm^3
# Si number density = 23.570003 Si / 1000 Ang^3
#
#
#
# Elastic Constant Matrix: (Units=GPa)
#
#
# Indices 1 2 3 4 5 6 
#
# 1 94.7960 31.5115 3.7418 0.0000 0.0000 0.0000
# 2 31.5115 119.9118 16.6020 0.0000 0.0000 0.0000
# 3 3.7418 16.6020 91.5856 0.0000 0.0000 0.0000
# 4 0.0000 0.0000 0.0000 20.5407 0.0000 0.0000
# 5 0.0000 0.0000 0.0000 0.0000 18.3802 0.0000
# 6 0.0000 0.0000 0.0000 0.0000 0.0000 11.3967
#
#
#
# Elastic Compliance Matrix: (Units=1/GPa)
#
#
# Indices 1 2 3 4 5 6 
#
# 1 0.011559 -0.003049 0.000080 0.000000 0.000000 0.000000
# 2 -0.003049 0.009358 -0.001572 0.000000 0.000000 0.000000
# 3 0.000080 -0.001572 0.011200 0.000000 0.000000 0.000000
# 4 0.000000 0.000000 0.000000 0.048684 0.000000 0.000000
# 5 0.000000 0.000000 0.000000 0.000000 0.054406 0.000000
# 6 0.000000 0.000000 0.000000 0.000000 0.000000 0.087745
#
#
# Mechanical properties :
#
#
# Convention : Reuss Voigt Hill
#
# Bulk Modulus (GPa) = 43.40753 45.55600 44.48176
# Shear Modulus (GPa) = 20.85831 27.02605 23.94218
#
# Velocity S-wave (km/s) = 2.97804 3.38986 3.19060
# Velocity P-wave (km/s) = 5.50285 5.88995 5.69969
#
# Compressibility (1/GPa) = 0.02303748
#
# Stress axis : x y z
#
# Youngs Moduli (GPa) = 86.51082 106.85734 89.28260
#
# Poissons Ratio (x) = 0.32578 -0.00718
# Poissons Ratio (y) = 0.26375 0.14034
# Poissons Ratio (z) = -0.00696 0.16796
#
# Static dielectric constant tensor:
#      x y z
#    x 3.109750 0.000000 0.000000 
#    y 0.000000 1.896250 0.000000 
#    z 0.000000 0.000000 1.909450 
# 
# From -- ./inp_files/4794.got.cif
#   From: 2010.05.17/outbox.cif.g08.bks.cpg/sg30_3_cif.got.tgz:4794.got - 2010.06.03 17:03:02.
