data_PCOD9342098
_publ_section_title
;
Structure prediction by ZEFSAII (Michael W. Deem and Ramdas Pophale) SiO2 
 PCOD9342098
Probable space group: P N C 2
;
_chemical_formula_sum "Si O2"
_cell_formula_units_Z 22
_cell_length_a 12.597650
_cell_length_b 5.261957
_cell_length_c 14.429136
_cell_angle_alpha 90.000000
_cell_angle_beta 90.000000
_cell_angle_gamma 90.000000
_cell_volume 956.482789
_symmetry_space_group_name_H-M "P N C 2"
_symmetry_group_IT_number 30
_symmetry_cell_setting 'orthorhombic'
loop_
_space_group_symop_operation_xyz
x,y,z
-x,-y,z
-x,1/2+y,1/2+z
x,1/2-y,1/2+z
loop_
_atom_site_type_symbol
_atom_site_label
_atom_site_fract_x
_atom_site_fract_y
_atom_site_fract_z
Si Si1 0.745907 0.594496 0.568170
Si Si2 0.000000 0.500000 0.822034
Si Si3 0.564490 0.244471 0.568645
Si Si4 0.866508 0.370636 0.415857
Si Si5 0.324839 0.015643 0.419666
Si Si6 0.212803 0.262844 0.763241
O O1 0.681801 0.341284 0.599880
O O2 0.851359 0.521627 0.511288
O O3 0.763007 0.770996 0.656264
O O4 0.678485 0.748395 0.490853
O O5 0.024174 0.741306 0.886735
O O6 0.106846 0.440652 0.765936
O O7 0.500000 0.500000 0.583274
O O8 0.587114 0.172767 0.460181
O O9 0.500000 0.000000 0.607539
O O10 0.786489 0.132671 0.430314
O O11 0.819057 0.527353 0.328634
O O12 0.314698 0.113285 0.315213
#
# Coordination Sequence:
#
# PCOD9342098 Si02
#       6
#     4   2   4   4   4   4
#     4  10  21  40  67  98 130 179 219 273 345 395
#     4  10  20  40  60  90 130 168 220 278 324 406
#     4  11  21  40  69  96 134 176 225 272 332 404
#     4   9  20  38  64  88 128 171 215 276 334 392
#     4   9  20  39  63  90 127 173 209 272 330 393
#     4  10  21  40  64  94 129 172 220 277 334 404
#
# _framework density 23.000934999999998
#
# number of rings (size 3 to 8) (size 9 to 14) (size 15 to 20)
#    0.000    2.182    1.818    0.545    0.000    5.818 
#    9.818    1.818    0.000    0.000    0.000    0.000 
#    0.000    0.000    0.000    0.000    0.000    0.000 
#
# Total GULP energy -122504.623073 kJ/mol
# GULP energy per Si atom -5568.391958 kJ/mol
# Density = 2.294858 g / cm^3
# Si number density = 23.000935 Si / 1000 Ang^3
#
#
#
# Elastic Constant Matrix: (Units=GPa)
#
#
# Indices 1 2 3 4 5 6 
#
# 1 45.3238 12.5615 9.5020 0.0000 0.0000 0.0000
# 2 12.5615 113.7154 26.8804 0.0000 0.0000 0.0000
# 3 9.5020 26.8804 117.6700 0.0000 0.0000 0.0000
# 4 0.0000 0.0000 0.0000 13.6993 0.0000 0.0000
# 5 0.0000 0.0000 0.0000 0.0000 11.1359 0.0000
# 6 0.0000 0.0000 0.0000 0.0000 0.0000 44.1723
#
#
#
# Elastic Compliance Matrix: (Units=1/GPa)
#
#
# Indices 1 2 3 4 5 6 
#
# 1 0.022961 -0.002218 -0.001347 0.000000 0.000000 0.000000
# 2 -0.002218 0.009510 -0.001993 0.000000 0.000000 0.000000
# 3 -0.001347 -0.001993 0.009063 0.000000 0.000000 0.000000
# 4 0.000000 0.000000 0.000000 0.072996 0.000000 0.000000
# 5 0.000000 0.000000 0.000000 0.000000 0.089800 0.000000
# 6 0.000000 0.000000 0.000000 0.000000 0.000000 0.022639
#
#
# Mechanical properties :
#
#
# Convention : Reuss Voigt Hill
#
# Bulk Modulus (GPa) = 32.87754 41.62188 37.24971
# Shear Modulus (GPa) = 20.14308 28.98585 24.56446
#
# Velocity S-wave (km/s) = 2.96252 3.55378 3.27154
# Velocity P-wave (km/s) = 5.10167 5.91390 5.52274
#
# Compressibility (1/GPa) = 0.03041590
#
# Stress axis : x y z
#
# Youngs Moduli (GPa) = 43.55286 105.15168 110.34459
#
# Poissons Ratio (x) = 0.23321 0.14869
# Poissons Ratio (y) = 0.09659 0.21996
# Poissons Ratio (z) = 0.05869 0.20961
#
# Static dielectric constant tensor:
#      x y z
#    x 2.019470 0.000000 0.000000 
#    y 0.000000 1.962640 0.000000 
#    z 0.000000 0.000000 1.824360 
# 
# From -- ./inp_files/4290.got.cif
#   From: 2010.05.17/outbox.cif.g08.bks.cpg/sg30_3_cif.got.tgz:4290.got - 2010.06.03 17:03:02.
