data_PCOD9342675
_publ_section_title
;
Structure prediction by ZEFSAII (Michael W. Deem and Ramdas Pophale) SiO2 
 PCOD9342675
Probable space group: P N C 2
;
_chemical_formula_sum "Si O2"
_cell_formula_units_Z 32
_cell_length_a 15.000000
_cell_length_b 12.000000
_cell_length_c 9.000000
_cell_angle_alpha 90.000000
_cell_angle_beta 90.000000
_cell_angle_gamma 90.000000
_cell_volume 1620.000000
_symmetry_space_group_name_H-M "P N C 2"
_symmetry_group_IT_number 30
_symmetry_cell_setting 'orthorhombic'
loop_
_space_group_symop_operation_xyz
x,y,z
-x,-y,z
-x,1/2+y,1/2+z
x,1/2-y,1/2+z
loop_
_atom_site_type_symbol
_atom_site_label
_atom_site_fract_x
_atom_site_fract_y
_atom_site_fract_z
Si Si1 0.766563 0.592273 0.413430
Si Si2 0.449014 0.122829 0.964735
Si Si3 0.213942 0.875860 0.712628
Si Si4 0.281757 0.831751 0.387898
Si Si5 0.142900 0.980600 0.204006
Si Si6 0.487301 0.635089 0.809466
Si Si7 0.039555 0.755347 0.105318
Si Si8 0.089843 0.283630 0.842813
O O1 0.658768 0.608822 0.436499
O O2 0.782537 0.500845 0.280465
O O3 0.809559 0.536694 0.561270
O O4 0.824187 0.707504 0.388141
O O5 0.475839 0.246029 0.888465
O O6 0.500000 0.000000 0.921798
O O7 0.474572 0.136099 0.140158
O O8 0.273958 0.856515 0.564277
O O9 0.248205 0.792354 0.842926
O O10 0.117226 0.829537 0.656992
O O11 0.381076 0.848756 0.326206
O O12 0.214759 0.914249 0.302231
O O13 0.108207 0.084956 0.306143
O O14 0.075561 0.882338 0.141220
O O15 0.500000 0.500000 0.859355
O O16 0.946704 0.734702 0.189303
O O17 0.001218 0.734662 0.940429
#
# Coordination Sequence:
#
# PCOD9342675 Si02
#       8
#     4   4   4   4   4   4   4   4
#     4  12  27  44  71 104 149 189 246 309 382 432
#     4  11  26  47  74 106 148 190 245 308 377 452
#     4  11  24  44  72 106 140 196 242 313 353 460
#     4  11  23  43  74 102 143 185 253 292 377 435
#     4  11  24  46  69  98 143 192 242 310 356 447
#     4  11  25  45  74 106 143 193 236 309 375 455
#     4  11  24  45  69  98 140 192 251 293 372 427
#     4  12  26  42  68  99 141 190 237 308 361 435
#
# _framework density 19.753086
#
# number of rings (size 3 to 8) (size 9 to 14) (size 15 to 20)
#    0.000    0.750    1.250    7.125    5.250    3.000 
#    0.000    0.000    0.000    0.000    0.000    0.000 
#    0.000    0.000    0.000    0.000    0.000    0.000 
#
# Total GULP energy -178345.397156 kJ/mol
# GULP energy per Si atom -5573.293661 kJ/mol
# Density = 1.970813 g / cm^3
# Si number density = 19.753086 Si / 1000 Ang^3
#
#
#
# Elastic Constant Matrix: (Units=GPa)
#
#
# Indices 1 2 3 4 5 6 
#
# 1 151.1690 68.4799 20.4602 0.0000 0.0000 0.0000
# 2 68.4799 159.4780 43.9065 0.0000 0.0000 0.0000
# 3 20.4602 43.9065 91.1632 0.0000 0.0000 0.0000
# 4 0.0000 0.0000 0.0000 47.5291 0.0000 0.0000
# 5 0.0000 0.0000 0.0000 0.0000 37.7356 0.0000
# 6 0.0000 0.0000 0.0000 0.0000 0.0000 41.1523
#
#
#
# Elastic Compliance Matrix: (Units=1/GPa)
#
#
# Indices 1 2 3 4 5 6 
#
# 1 0.008215 -0.003481 -0.000167 0.000000 0.000000 0.000000
# 2 -0.003481 0.008704 -0.003411 0.000000 0.000000 0.000000
# 3 -0.000167 -0.003411 0.012650 0.000000 0.000000 0.000000
# 4 0.000000 0.000000 0.000000 0.021040 0.000000 0.000000
# 5 0.000000 0.000000 0.000000 0.000000 0.026500 0.000000
# 6 0.000000 0.000000 0.000000 0.000000 0.000000 0.024300
#
#
# Mechanical properties :
#
#
# Convention : Reuss Voigt Hill
#
# Bulk Modulus (GPa) = 64.72404 74.16706 69.44555
# Shear Modulus (GPa) = 41.43274 43.21433 42.32353
#
# Velocity S-wave (km/s) = 4.58485 4.68239 4.63388
# Velocity P-wave (km/s) = 7.80163 8.17689 7.99147
#
# Compressibility (1/GPa) = 0.01545021
#
# Stress axis : x y z
#
# Youngs Moduli (GPa) = 121.73113 114.88325 79.05396
#
# Poissons Ratio (x) = 0.39997 0.01320
# Poissons Ratio (y) = 0.42381 0.26965
# Poissons Ratio (z) = 0.02032 0.39186
#
# Static dielectric constant tensor:
#      x y z
#    x 1.698240 0.000000 0.000000 
#    y 0.000000 1.730950 0.000000 
#    z 0.000000 0.000000 1.720960 
# 
# From -- ./inp_files/2707.got.cif
#   From: 2010.05.17/outbox.ucp.g08.bks.cvg/sg30_2_cif.got.tgz:2707.got - 2010.06.11 10:34:04.
