data_PCOD9342217
_publ_section_title
;
Structure prediction by ZEFSAII (Michael W. Deem and Ramdas Pophale) SiO2 
 PCOD9342217
Probable space group: P N C 2
;
_chemical_formula_sum "Si O2"
_cell_formula_units_Z 30
_cell_length_a 5.228472
_cell_length_b 16.923389
_cell_length_c 16.414746
_cell_angle_alpha 90.000000
_cell_angle_beta 90.000000
_cell_angle_gamma 90.000000
_cell_volume 1452.433612
_symmetry_space_group_name_H-M "P N C 2"
_symmetry_group_IT_number 30
_symmetry_cell_setting 'orthorhombic'
loop_
_space_group_symop_operation_xyz
x,y,z
-x,-y,z
-x,1/2+y,1/2+z
x,1/2-y,1/2+z
loop_
_atom_site_type_symbol
_atom_site_label
_atom_site_fract_x
_atom_site_fract_y
_atom_site_fract_z
Si Si1 0.557958 0.244150 0.939500
Si Si2 0.251003 0.528170 0.103511
Si Si3 0.620454 0.912274 0.019642
Si Si4 0.050531 0.247365 0.332900
Si Si5 0.696933 0.292115 0.111102
Si Si6 0.797257 0.799783 0.160283
Si Si7 0.146564 0.081031 0.852678
Si Si8 0.500000 0.000000 0.757734
O O1 0.286738 0.256555 0.895948
O O2 0.783304 0.265144 0.877689
O O3 0.563863 0.155570 0.979881
O O4 0.594686 0.296444 0.019075
O O5 0.500000 0.500000 0.055951
O O6 0.252121 0.617740 0.131847
O O7 0.281675 0.483584 0.190241
O O8 0.000000 0.500000 0.060150
O O9 0.723630 0.875739 0.104751
O O10 0.500000 0.000000 0.026874
O O11 0.839848 0.913569 0.950428
O O12 0.110104 0.194890 0.253819
O O13 0.040643 0.340892 0.311075
O O14 0.463792 0.252334 0.160339
O O15 0.961435 0.243841 0.117507
O O16 0.438747 0.070157 0.820302
O O17 0.000000 0.000000 0.834979
#
# Coordination Sequence:
#
# PCOD9342217 Si02
#       8
#     4   4   4   4   4   4   4   2
#     4  10  22  40  61  87 115 160 202 249 307 356
#     4  10  22  35  54  84 121 154 194 237 302 362
#     4  10  21  40  59  90 121 160 206 253 310 373
#     4  11  23  37  58  86 120 156 204 246 295 368
#     4  11  21  40  60  85 120 161 202 250 296 382
#     4  11  24  38  62  86 120 165 207 246 310 362
#     4  11  21  32  56  83 123 156 188 237 307 367
#     4  10  22  32  48  88 118 158 180 232 300 378
#
# _framework density 20.654987999999999
#
# number of rings (size 3 to 8) (size 9 to 14) (size 15 to 20)
#    0.400    1.067    0.667    6.000    5.600    1.067 
#    0.000    0.000    0.000    2.400    0.000    0.000 
#    0.000    0.000    0.000    0.000    0.000    0.000 
#
# Total GULP energy -167060.127428 kJ/mol
# GULP energy per Si atom -5568.670914 kJ/mol
# Density = 2.060798 g / cm^3
# Si number density = 20.654988 Si / 1000 Ang^3
#
#
#
# Elastic Constant Matrix: (Units=GPa)
#
#
# Indices 1 2 3 4 5 6 
#
# 1 113.8691 7.0860 2.8248 0.0000 0.0000 0.0000
# 2 7.0860 39.7704 13.3660 0.0000 0.0000 0.0000
# 3 2.8248 13.3660 81.4572 0.0000 0.0000 0.0000
# 4 0.0000 0.0000 0.0000 22.8834 0.0000 0.0000
# 5 0.0000 0.0000 0.0000 0.0000 15.5200 0.0000
# 6 0.0000 0.0000 0.0000 0.0000 0.0000 20.4954
#
#
#
# Elastic Compliance Matrix: (Units=1/GPa)
#
#
# Indices 1 2 3 4 5 6 
#
# 1 0.008881 -0.001565 -0.000051 0.000000 0.000000 0.000000
# 2 -0.001565 0.026888 -0.004358 0.000000 0.000000 0.000000
# 3 -0.000051 -0.004358 0.012993 0.000000 0.000000 0.000000
# 4 0.000000 0.000000 0.000000 0.043700 0.000000 0.000000
# 5 0.000000 0.000000 0.000000 0.000000 0.064433 0.000000
# 6 0.000000 0.000000 0.000000 0.000000 0.000000 0.048791
#
#
# Mechanical properties :
#
#
# Convention : Reuss Voigt Hill
#
# Bulk Modulus (GPa) = 27.16374 31.29448 29.22911
# Shear Modulus (GPa) = 21.74813 25.90108 23.82461
#
# Velocity S-wave (km/s) = 3.24840 3.54501 3.39994
# Velocity P-wave (km/s) = 5.22008 5.65155 5.44009
#
# Compressibility (1/GPa) = 0.03681379
#
# Stress axis : x y z
#
# Youngs Moduli (GPa) = 112.60396 37.19177 76.96344
#
# Poissons Ratio (x) = 0.05821 0.00394
# Poissons Ratio (y) = 0.17624 0.33538
# Poissons Ratio (z) = 0.00576 0.16207
#
# Static dielectric constant tensor:
#      x y z
#    x 2.146290 0.000000 0.000000 
#    y 0.000000 1.771640 0.000000 
#    z 0.000000 0.000000 1.754060 
# 
# From -- ./inp_files/4764.got.cif
#   From: 2010.05.17/outbox.cif.g08.bks.cpg/sg30_3_cif.got.tgz:4764.got - 2010.06.03 17:03:02.
