data_PCOD9342806
_publ_section_title
;
Structure prediction by ZEFSAII (Michael W. Deem and Ramdas Pophale) SiO2 
 PCOD9342806
Probable space group: P M N 21
;
_chemical_formula_sum "Si O2"
_cell_formula_units_Z 28
_cell_length_a 23.436395
_cell_length_b 5.448220
_cell_length_c 12.274101
_cell_angle_alpha 90.000000
_cell_angle_beta 90.000000
_cell_angle_gamma 90.000000
_cell_volume 1567.238666
_symmetry_space_group_name_H-M "P M N 21"
_symmetry_group_IT_number 31
_symmetry_cell_setting 'orthorhombic'
loop_
_space_group_symop_operation_xyz
x,y,z
1/2-x,-y,1/2+z
-x,y,z
1/2+x,-y,1/2+z
loop_
_atom_site_type_symbol
_atom_site_label
_atom_site_fract_x
_atom_site_fract_y
_atom_site_fract_z
Si Si1 0.285831 0.338649 0.750000
Si Si2 0.933769 0.069801 0.068258
Si Si3 0.749183 0.694493 0.005173
Si Si4 0.433504 0.429448 0.429635
Si Si5 0.330244 0.845290 0.719487
Si Si6 0.281509 0.187894 0.076656
Si Si7 0.177444 0.614853 0.799281
O O1 0.285637 0.324912 0.617369
O O2 0.321005 0.584345 0.777526
O O3 0.219313 0.381017 0.779093
O O4 0.310820 0.082065 0.787352
O O5 0.891291 0.103258 0.168672
O O6 0.000000 0.062320 0.101517
O O7 0.925944 0.315454 0.995330
O O8 0.922700 0.815430 0.002831
O O9 0.717816 0.429946 0.002091
O O10 0.708152 0.925750 0.023425
O O11 0.790390 0.735688 0.902775
O O12 0.500000 0.416887 0.395050
O O13 0.386751 0.432885 0.334422
O O14 0.283828 0.828740 0.621167
O O15 0.316855 0.235631 0.187146
#
# Coordination Sequence:
#
# PCOD9342806 Si02
#       7
#     4   4   4   4   4   4   4
#     4   9  19  28  43  68  87 118 164 189 227 293
#     4  10  19  30  46  68  94 129 163 187 228 292
#     4   9  17  29  43  63  90 118 149 187 233 277
#     4  10  20  30  44  68  94 128 167 188 223 294
#     4   9  15  29  41  59  92 113 145 197 220 260
#     4   9  19  28  42  68  87 117 164 186 224 295
#     4  10  19  32  50  66  99 133 150 200 251 269
#
# _framework density 17.865817
#
# number of rings (size 3 to 8) (size 9 to 14) (size 15 to 20)
#    0.000    2.857    0.000    4.286    0.000    9.143 
#    0.000    0.000    0.000    0.000    0.000    0.000 
#    0.000   37.714    0.000    0.286    0.000    3.143 
#
# Total GULP energy -155895.896785 kJ/mol
# GULP energy per Si atom -5567.710599 kJ/mol
# Density = 1.782515 g / cm^3
# Si number density = 17.865817 Si / 1000 Ang^3
#
#
#
# Elastic Constant Matrix: (Units=GPa)
#
#
# Indices 1 2 3 4 5 6 
#
# 1 90.3752 31.2985 18.9448 0.0000 0.0000 0.0000
# 2 31.2985 166.2849 15.9620 0.0000 0.0000 0.0000
# 3 18.9448 15.9620 30.4438 0.0000 0.0000 0.0000
# 4 0.0000 0.0000 0.0000 10.1085 0.0000 0.0000
# 5 0.0000 0.0000 0.0000 0.0000 28.9557 0.0000
# 6 0.0000 0.0000 0.0000 0.0000 0.0000 8.8169
#
#
#
# Elastic Compliance Matrix: (Units=1/GPa)
#
#
# Indices 1 2 3 4 5 6 
#
# 1 0.013211 -0.001787 -0.007284 0.000000 0.000000 0.000000
# 2 -0.001787 0.006574 -0.002335 0.000000 0.000000 0.000000
# 3 -0.007284 -0.002335 0.038604 0.000000 0.000000 0.000000
# 4 0.000000 0.000000 0.000000 0.098926 0.000000 0.000000
# 5 0.000000 0.000000 0.000000 0.000000 0.034536 0.000000
# 6 0.000000 0.000000 0.000000 0.000000 0.000000 0.113418
#
#
# Mechanical properties :
#
#
# Convention : Reuss Voigt Hill
#
# Bulk Modulus (GPa) = 28.10766 46.61271 37.36019
# Shear Modulus (GPa) = 14.70847 24.30281 19.50564
#
# Velocity S-wave (km/s) = 2.87239 3.69222 3.30780
# Velocity P-wave (km/s) = 5.17374 6.65761 5.96202
#
# Compressibility (1/GPa) = 0.03557749
#
# Stress axis : x y z
#
# Youngs Moduli (GPa) = 75.69540 152.10716 25.90400
#
# Poissons Ratio (x) = 0.27187 0.18868
# Poissons Ratio (y) = 0.13530 0.06048
# Poissons Ratio (z) = 0.55135 0.35512
#
# Static dielectric constant tensor:
#      x y z
#    x 1.583100 0.000000 0.000000 
#    y 0.000000 1.739760 0.000000 
#    z 0.000000 0.000000 1.670860 
# 
# From -- ./inp_files/4539.got.cif
#   From: 2010.05.17/outbox.cif.g08.bks.cpg/sg31_3_cif.got.tgz:4539.got - 2010.06.03 17:08:30.
