data_PCOD9342417
_publ_section_title
;
Structure prediction by ZEFSAII (Michael W. Deem and Ramdas Pophale) SiO2 
 PCOD9342417
Probable space group: P N C 2
;
_chemical_formula_sum "Si O2"
_cell_formula_units_Z 28
_cell_length_a 10.532641
_cell_length_b 21.237570
_cell_length_c 5.352429
_cell_angle_alpha 90.000000
_cell_angle_beta 90.000000
_cell_angle_gamma 90.000000
_cell_volume 1197.272535
_symmetry_space_group_name_H-M "P N C 2"
_symmetry_group_IT_number 30
_symmetry_cell_setting 'orthorhombic'
loop_
_space_group_symop_operation_xyz
x,y,z
-x,-y,z
-x,1/2+y,1/2+z
x,1/2-y,1/2+z
loop_
_atom_site_type_symbol
_atom_site_label
_atom_site_fract_x
_atom_site_fract_y
_atom_site_fract_z
Si Si1 0.211756 0.179976 0.839340
Si Si2 0.274983 0.614392 0.579679
Si Si3 0.123760 0.629595 0.093088
Si Si4 0.272657 0.484198 0.754553
Si Si5 0.500000 0.500000 0.121454
Si Si6 0.444249 0.115529 0.986110
Si Si7 0.114968 0.178554 0.347034
Si Si8 0.000000 0.500000 0.992799
O O1 0.358469 0.173653 0.904936
O O2 0.196973 0.147426 0.569531
O O3 0.169103 0.251637 0.806030
O O4 0.124880 0.152213 0.065208
O O5 0.197486 0.644087 0.348378
O O6 0.273776 0.538348 0.542238
O O7 0.420524 0.635394 0.590387
O O8 0.212725 0.622955 0.850429
O O9 0.049565 0.562833 0.129819
O O10 0.020224 0.678355 0.984572
O O11 0.372279 0.509705 0.960405
O O12 0.347797 0.423105 0.662245
O O13 0.126359 0.479318 0.838838
O O14 0.524047 0.563604 0.276058
#
# Coordination Sequence:
#
# PCOD9342417 Si02
#       8
#     4   4   4   4   2   4   4   2
#     4  10  24  39  75  92 129 169 242 284 345 411
#     4  11  23  40  60  95 134 180 217 264 341 433
#     4  11  24  39  64  89 138 170 220 283 346 408
#     4  11  23  40  58  93 145 185 223 275 335 423
#     4  12  22  40  62  94 154 188 224 276 356 424
#     4  12  23  38  67  98 135 193 225 280 343 423
#     4  10  22  47  63 101 124 173 222 307 347 388
#     4  10  24  36  58  96 126 176 230 268 336 414
#
# _framework density 23.386489999999998
#
# number of rings (size 3 to 8) (size 9 to 14) (size 15 to 20)
#    0.000    1.143    2.857    3.429    4.000    3.429 
#    0.000    0.000    0.000   20.571    0.000    0.000 
#    0.000    0.000    0.000    0.000    0.000    0.000 
#
# Total GULP energy -156220.810957 kJ/mol
# GULP energy per Si atom -5579.314677 kJ/mol
# Density = 2.333326 g / cm^3
# Si number density = 23.386490 Si / 1000 Ang^3
#
#
#
# Elastic Constant Matrix: (Units=GPa)
#
#
# Indices 1 2 3 4 5 6 
#
# 1 177.8633 26.9735 33.4533 0.0000 0.0000 0.0000
# 2 26.9735 50.1800 2.3031 0.0000 0.0000 0.0000
# 3 33.4533 2.3031 123.9746 0.0000 0.0000 0.0000
# 4 0.0000 0.0000 0.0000 19.8808 0.0000 0.0000
# 5 0.0000 0.0000 0.0000 0.0000 29.6403 0.0000
# 6 0.0000 0.0000 0.0000 0.0000 0.0000 38.9080
#
#
#
# Elastic Compliance Matrix: (Units=1/GPa)
#
#
# Indices 1 2 3 4 5 6 
#
# 1 0.006452 -0.003391 -0.001678 0.000000 0.000000 0.000000
# 2 -0.003391 0.021728 0.000511 0.000000 0.000000 0.000000
# 3 -0.001678 0.000511 0.008509 0.000000 0.000000 0.000000
# 4 0.000000 0.000000 0.000000 0.050300 0.000000 0.000000
# 5 0.000000 0.000000 0.000000 0.000000 0.033738 0.000000
# 6 0.000000 0.000000 0.000000 0.000000 0.000000 0.025702
#
#
# Mechanical properties :
#
#
# Convention : Reuss Voigt Hill
#
# Bulk Modulus (GPa) = 36.26652 53.05308 44.65980
# Shear Modulus (GPa) = 30.35169 36.97170 33.66170
#
# Velocity S-wave (km/s) = 3.60645 3.98037 3.79801
# Velocity P-wave (km/s) = 5.73438 6.62261 6.19444
#
# Compressibility (1/GPa) = 0.02757364
#
# Stress axis : x y z
#
# Youngs Moduli (GPa) = 154.98565 46.02420 117.51605
#
# Poissons Ratio (x) = 0.15608 0.19720
# Poissons Ratio (y) = 0.52560 -0.06010
# Poissons Ratio (z) = 0.26008 -0.02354
#
# Static dielectric constant tensor:
#      x y z
#    x 1.908370 0.000000 0.000000 
#    y 0.000000 2.000480 0.000000 
#    z 0.000000 0.000000 2.003270 
# 
# From -- ./inp_files/542.got.cif
#   From: 2010.05.17/outbox.cif.g08.bks.cpg/sg30_1_cif.got.tgz:542.got - 2010.06.03 17:03:02.
