data_PCOD9342083
_publ_section_title
;
Structure prediction by ZEFSAII (Michael W. Deem and Ramdas Pophale) SiO2 
 PCOD9342083
Probable space group: P N C 2
;
_chemical_formula_sum "Si O2"
_cell_formula_units_Z 30
_cell_length_a 8.916302
_cell_length_b 25.906664
_cell_length_c 7.889376
_cell_angle_alpha 90.000000
_cell_angle_beta 90.000000
_cell_angle_gamma 90.000000
_cell_volume 1822.379901
_symmetry_space_group_name_H-M "P N C 2"
_symmetry_group_IT_number 30
_symmetry_cell_setting 'orthorhombic'
loop_
_space_group_symop_operation_xyz
x,y,z
-x,-y,z
-x,1/2+y,1/2+z
x,1/2-y,1/2+z
loop_
_atom_site_type_symbol
_atom_site_label
_atom_site_fract_x
_atom_site_fract_y
_atom_site_fract_z
Si Si1 0.390619 0.400379 0.477050
Si Si2 0.825024 0.818109 0.089671
Si Si3 0.335618 0.774378 0.839130
Si Si4 0.174977 0.818109 0.166365
Si Si5 0.609381 0.400379 0.778986
Si Si6 0.500000 0.647452 0.128018
Si Si7 0.335617 0.274378 0.916906
Si Si8 0.500000 0.500000 0.628018
O O1 0.235141 0.371514 0.510794
O O2 0.500000 0.379639 0.628018
O O3 0.452439 0.384966 0.292973
O O4 0.400293 0.461497 0.513343
O O5 0.733629 0.804885 0.260369
O O6 0.000000 0.818838 0.128018
O O7 0.775074 0.771611 0.966821
O O8 0.224926 0.728389 0.789216
O O9 0.366138 0.814670 0.687762
O O10 0.500000 0.750000 0.878018
O O11 0.266372 0.804885 0.995668
O O12 0.235141 0.871514 0.245242
O O13 0.599707 0.461497 0.742694
O O14 0.547561 0.384966 0.963064
O O15 0.633862 0.685330 0.068275
#
# Coordination Sequence:
#
# PCOD9342083 Si02
#       8
#     4   4   4   4   4   4   4   2
#     4  10  20  39  58  85 108 148 200 245 292 341
#     4  12  22  34  53  86 127 155 188 242 298 345
#     4  12  19  34  55  83 118 163 198 224 270 349
#     4  12  22  34  53  86 127 155 188 242 298 345
#     4  10  20  39  58  85 108 148 200 245 292 341
#     4  12  20  32  66  82 114 148 204 242 266 336
#     4  12  19  34  55  83 118 163 198 224 270 349
#     4   8  20  40  66  80 110 138 214 258 284 346
#
# _framework density 16.461991000000001
#
# number of rings (size 3 to 8) (size 9 to 14) (size 15 to 20)
#    0.800    0.000    8.000    0.800    0.000    0.533 
#    0.000    0.667    0.000    0.000    0.000    3.733 
#    0.000    0.000    0.000    0.000    0.000    0.000 
#
# Total GULP energy -167161.608457 kJ/mol
# GULP energy per Si atom -5572.053615 kJ/mol
# Density = 1.642452 g / cm^3
# Si number density = 16.461991 Si / 1000 Ang^3
#
#
#
# Elastic Constant Matrix: (Units=GPa)
#
#
# Indices 1 2 3 4 5 6 
#
# 1 110.7434 50.1102 33.9863 0.0000 0.0000 0.0000
# 2 50.1102 133.0120 47.1200 0.0000 0.0000 0.0000
# 3 33.9863 47.1200 111.8375 0.0000 0.0000 0.0000
# 4 0.0000 0.0000 0.0000 29.7589 0.0000 0.0000
# 5 0.0000 0.0000 0.0000 0.0000 23.1944 0.0000
# 6 0.0000 0.0000 0.0000 0.0000 0.0000 14.5675
#
#
#
# Elastic Compliance Matrix: (Units=1/GPa)
#
#
# Indices 1 2 3 4 5 6 
#
# 1 0.011224 -0.003550 -0.001915 0.000000 0.000000 0.000000
# 2 -0.003550 0.009960 -0.003118 0.000000 0.000000 0.000000
# 3 -0.001915 -0.003118 0.010837 0.000000 0.000000 0.000000
# 4 0.000000 0.000000 0.000000 0.033603 0.000000 0.000000
# 5 0.000000 0.000000 0.000000 0.000000 0.043114 0.000000
# 6 0.000000 0.000000 0.000000 0.000000 0.000000 0.068646
#
#
# Mechanical properties :
#
#
# Convention : Reuss Voigt Hill
#
# Bulk Modulus (GPa) = 67.31504 68.66955 67.99230
# Shear Modulus (GPa) = 25.06252 28.46261 26.76257
#
# Velocity S-wave (km/s) = 3.90609 4.16262 4.03639
# Velocity P-wave (km/s) = 7.83092 8.05654 7.94453
#
# Compressibility (1/GPa) = 0.01485552
#
# Stress axis : x y z
#
# Youngs Moduli (GPa) = 89.09506 100.40222 92.27613
#
# Poissons Ratio (x) = 0.35643 0.17672
# Poissons Ratio (y) = 0.31629 0.28768
# Poissons Ratio (z) = 0.17063 0.31301
#
# Static dielectric constant tensor:
#      x y z
#    x 1.533250 0.000000 0.000000 
#    y 0.000000 1.573810 0.000000 
#    z 0.000000 0.000000 1.631090 
# 
# From -- ./inp_files/2170.got.cif
#   From: 2010.05.17/outbox.cif.g08.bks.cpg/sg30_2_cif.got.tgz:2170.got - 2010.06.03 17:03:02.
