data_PCOD9342322
_publ_section_title
;
Structure prediction by ZEFSAII (Michael W. Deem and Ramdas Pophale) SiO2 
 PCOD9342322
Probable space group: P N C 2
;
_chemical_formula_sum "Si O2"
_cell_formula_units_Z 18
_cell_length_a 8.611140
_cell_length_b 11.735458
_cell_length_c 9.159261
_cell_angle_alpha 90.000000
_cell_angle_beta 90.000000
_cell_angle_gamma 90.000000
_cell_volume 925.595274
_symmetry_space_group_name_H-M "P N C 2"
_symmetry_group_IT_number 30
_symmetry_cell_setting 'orthorhombic'
loop_
_space_group_symop_operation_xyz
x,y,z
-x,-y,z
-x,1/2+y,1/2+z
x,1/2-y,1/2+z
loop_
_atom_site_type_symbol
_atom_site_label
_atom_site_fract_x
_atom_site_fract_y
_atom_site_fract_z
Si Si1 0.556454 0.623500 0.311600
Si Si2 0.500000 0.500000 0.024496
Si Si3 0.908469 0.280381 0.613902
Si Si4 0.922524 0.879481 0.847111
Si Si5 0.308622 0.827299 0.368820
O O1 0.500000 0.500000 0.373480
O O2 0.547508 0.600518 0.136353
O O3 0.737132 0.632398 0.348828
O O4 0.441628 0.728010 0.351578
O O5 0.627043 0.447355 0.920633
O O6 0.808504 0.209214 0.497035
O O7 0.782764 0.339700 0.717781
O O8 0.009680 0.206584 0.726232
O O9 0.015418 0.354988 0.509561
O O10 0.000000 0.000000 0.805019
#
# Coordination Sequence:
#
# PCOD9342322 Si02
#       5
#     4   2   4   4   4
#     4  10  22  41  70  92 129 172 214 270 324 386
#     4  10  22  40  68  94 128 170 214 278 322 366
#     4  10  23  41  64  92 132 170 211 269 320 392
#     4  11  23  43  63  95 131 170 212 266 335 379
#     4  11  20  44  64  95 129 171 218 264 324 385
#
# _framework density 19.446943999999998
#
# number of rings (size 3 to 8) (size 9 to 14) (size 15 to 20)
#    0.667    0.889    2.222    4.000    3.111    0.000 
#   10.000    2.222    0.000    0.000    0.000    0.000 
#    0.000    0.000    0.000    0.000    0.000    0.000 
#
# Total GULP energy -100281.371552 kJ/mol
# GULP energy per Si atom -5571.187308 kJ/mol
# Density = 1.940268 g / cm^3
# Si number density = 19.446944 Si / 1000 Ang^3
#
#
#
# Elastic Constant Matrix: (Units=GPa)
#
#
# Indices 1 2 3 4 5 6 
#
# 1 132.1679 15.7432 36.8379 0.0000 0.0000 0.0000
# 2 15.7432 28.0446 7.6811 0.0000 0.0000 0.0000
# 3 36.8379 7.6811 104.8999 0.0000 0.0000 0.0000
# 4 0.0000 0.0000 0.0000 16.1394 0.0000 0.0000
# 5 0.0000 0.0000 0.0000 0.0000 -0.9478 0.0000
# 6 0.0000 0.0000 0.0000 0.0000 0.0000 23.4759
#
#
#
# Elastic Compliance Matrix: (Units=1/GPa)
#
#
# Indices 1 2 3 4 5 6 
#
# 1 0.008847 -0.004199 -0.002799 0.000000 0.000000 0.000000
# 2 -0.004199 0.038381 -0.001336 0.000000 0.000000 0.000000
# 3 -0.002799 -0.001336 0.010614 0.000000 0.000000 0.000000
# 4 0.000000 0.000000 0.000000 0.061960 0.000000 0.000000
# 5 0.000000 0.000000 0.000000 0.000000 -1.055030 0.000000
# 6 0.000000 0.000000 0.000000 0.000000 0.000000 0.042597
#
#
# Mechanical properties :
#
#
# Convention : Reuss Voigt Hill
#
# Bulk Modulus (GPa) = 24.28809 42.84852 33.56830
# Shear Modulus (GPa) = -5.79885 21.39017 7.79566
#
# Velocity S-wave (km/s) = -1.72869 3.32011 2.00434
# Velocity P-wave (km/s) = 2.92097 6.06456 4.75978
#
# Compressibility (1/GPa) = 0.04117245
#
# Stress axis : x y z
#
# Youngs Moduli (GPa) = 113.03859 26.05476 94.21805
#
# Poissons Ratio (x) = 0.10942 0.26373
# Poissons Ratio (y) = 0.47470 0.12584
# Poissons Ratio (z) = 0.31641 0.03480
#
# Static dielectric constant tensor:
#      x y z
#    x 1.746330 0.000000 0.000000 
#    y 0.000000 1.674870 0.000000 
#    z 0.000000 0.000000 1.660990 
# 
# From -- ./inp_files/1633.got.cif
#   From: 2010.05.17/outbox.cif.g08.bks.cpg/sg30_1_cif.got.tgz:1633.got - 2010.06.03 17:03:02.
