data_PCOD9342896
_publ_section_title
;
Structure prediction by ZEFSAII (Michael W. Deem and Ramdas Pophale) SiO2 
 PCOD9342896
Probable space group: P M N 21
;
_chemical_formula_sum "Si O2"
_cell_formula_units_Z 24
_cell_length_a 7.624680
_cell_length_b 9.797810
_cell_length_c 15.626431
_cell_angle_alpha 90.000000
_cell_angle_beta 90.000000
_cell_angle_gamma 90.000000
_cell_volume 1167.375121
_symmetry_space_group_name_H-M "P M N 21"
_symmetry_group_IT_number 31
_symmetry_cell_setting 'orthorhombic'
loop_
_space_group_symop_operation_xyz
x,y,z
1/2-x,-y,1/2+z
-x,y,z
1/2+x,-y,1/2+z
loop_
_atom_site_type_symbol
_atom_site_label
_atom_site_fract_x
_atom_site_fract_y
_atom_site_fract_z
Si Si1 0.203361 0.349570 0.493900
Si Si2 0.789201 0.147209 0.636649
Si Si3 0.709128 0.140519 0.833247
Si Si4 0.796062 0.826546 0.833754
Si Si5 0.714424 0.162134 0.140996
Si Si6 0.714934 0.343624 0.981075
O O1 0.281937 0.257563 0.569917
O O2 0.208907 0.261150 0.407656
O O3 0.277806 0.500542 0.480163
O O4 0.000000 0.371859 0.517537
O O5 0.750718 0.179022 0.735469
O O6 0.000000 0.142700 0.626708
O O7 0.726972 0.992271 0.619925
O O8 0.500000 0.129241 0.842040
O O9 0.773350 0.252332 0.900743
O O10 0.781373 0.988771 0.850052
O O11 0.726749 0.803890 0.737382
O O12 0.000000 0.788695 0.834558
O O13 0.500000 0.160057 0.143164
O O14 0.767260 0.267644 0.068363
O O15 0.500000 0.343745 0.977890
#
# Coordination Sequence:
#
# PCOD9342896 Si02
#       6
#     4   4   4   4   4   4
#     4  10  20  34  53  76 104 139 174 209 256 314
#     4   9  18  33  53  75 101 136 177 218 259 305
#     4  10  19  33  55  79 104 136 174 216 260 307
#     4  10  20  34  54  79 105 134 173 219 261 304
#     4   8  15  30  50  71  96 129 169 210 251 298
#     4   9  18  32  51  76 104 136 173 210 255 314
#
# _framework density 20.558945000000001
#
# number of rings (size 3 to 8) (size 9 to 14) (size 15 to 20)
#    0.000    2.667    0.000    3.000    0.000    4.667 
#    0.000    3.333    0.000    8.000    0.000    0.000 
#    0.000    0.000    0.000    0.000    0.000    0.000 
#
# Total GULP energy -133959.424034 kJ/mol
# GULP energy per Si atom -5581.642668 kJ/mol
# Density = 2.051215 g / cm^3
# Si number density = 20.558945 Si / 1000 Ang^3
#
#
#
# Elastic Constant Matrix: (Units=GPa)
#
#
# Indices 1 2 3 4 5 6 
#
# 1 36.8596 -6.2325 -12.3473 0.0000 0.0000 0.0000
# 2 -6.2325 147.4208 130.0488 0.0000 0.0000 0.0000
# 3 -12.3473 130.0488 148.1061 0.0000 0.0000 0.0000
# 4 0.0000 0.0000 0.0000 53.5346 0.0000 0.0000
# 5 0.0000 0.0000 0.0000 0.0000 13.0267 0.0000
# 6 0.0000 0.0000 0.0000 0.0000 0.0000 10.9631
#
#
#
# Elastic Compliance Matrix: (Units=1/GPa)
#
#
# Indices 1 2 3 4 5 6 
#
# 1 0.028416 -0.003942 0.005830 0.000000 0.000000 0.000000
# 2 -0.003942 0.030642 -0.027235 0.000000 0.000000 0.000000
# 3 0.005830 -0.027235 0.031152 0.000000 0.000000 0.000000
# 4 0.000000 0.000000 0.000000 0.018679 0.000000 0.000000
# 5 0.000000 0.000000 0.000000 0.000000 0.076765 0.000000
# 6 0.000000 0.000000 0.000000 0.000000 0.000000 0.091215
#
#
# Mechanical properties :
#
#
# Convention : Reuss Voigt Hill
#
# Bulk Modulus (GPa) = 25.30489 61.70273 43.50381
# Shear Modulus (GPa) = 14.67408 30.23271 22.45339
#
# Velocity S-wave (km/s) = 2.67452 3.83892 3.30835
# Velocity P-wave (km/s) = 4.67681 7.05177 5.98331
#
# Compressibility (1/GPa) = 0.03951806
#
# Stress axis : x y z
#
# Youngs Moduli (GPa) = 35.19085 32.63470 32.10027
#
# Poissons Ratio (x) = 0.12864 -0.18716
# Poissons Ratio (y) = 0.13872 0.87425
# Poissons Ratio (z) = -0.20518 0.88880
#
# Static dielectric constant tensor:
#      x y z
#    x 1.762920 0.000000 0.000000 
#    y 0.000000 1.706920 0.000000 
#    z 0.000000 0.000000 1.715760 
# 
# From -- ./inp_files/4733.got.cif
#   From: 2010.05.17/outbox.cif.g08.bks.cpg/sg31_3_cif.got.tgz:4733.got - 2010.06.03 17:08:30.
