data_PCOD9342085
_publ_section_title
;
Structure prediction by ZEFSAII (Michael W. Deem and Ramdas Pophale) SiO2 
 PCOD9342085
Probable space group: P N C 2
;
_chemical_formula_sum "Si O2"
_cell_formula_units_Z 24
_cell_length_a 5.600365
_cell_length_b 9.081752
_cell_length_c 20.940355
_cell_angle_alpha 90.000000
_cell_angle_beta 90.000000
_cell_angle_gamma 90.000000
_cell_volume 1065.050035
_symmetry_space_group_name_H-M "P N C 2"
_symmetry_group_IT_number 30
_symmetry_cell_setting 'orthorhombic'
loop_
_space_group_symop_operation_xyz
x,y,z
-x,-y,z
-x,1/2+y,1/2+z
x,1/2-y,1/2+z
loop_
_atom_site_type_symbol
_atom_site_label
_atom_site_fract_x
_atom_site_fract_y
_atom_site_fract_z
Si Si1 0.513093 0.832439 0.721280
Si Si2 0.116413 0.647400 0.768036
Si Si3 0.725048 0.787299 0.857099
Si Si4 0.500000 0.500000 0.451139
Si Si5 0.731289 0.152652 0.068202
Si Si6 0.764504 0.681302 0.616582
Si Si7 0.500000 0.000000 0.361252
O O1 0.265203 0.743028 0.717253
O O2 0.559710 0.832382 0.797116
O O3 0.729958 0.743239 0.688076
O O4 0.500000 0.000000 0.698806
O O5 0.304034 0.568121 0.814812
O O6 0.000000 0.500000 0.738357
O O7 0.963176 0.745225 0.818023
O O8 0.628277 0.639359 0.892283
O O9 0.691354 0.914144 0.908037
O O10 0.338332 0.603753 0.496572
O O11 0.491571 0.237750 0.089212
O O12 0.989772 0.224215 0.081221
O O13 0.745728 0.994964 0.105864
#
# Coordination Sequence:
#
# PCOD9342085 Si02
#       7
#     4   4   4   2   4   4   2
#     4  11  23  39  58 104 149 180 220 295 383 450
#     4   9  20  38  61  89 146 191 232 269 360 456
#     4  10  20  39  61 102 145 182 221 293 379 444
#     4  10  20  42  69 104 143 172 246 316 360 446
#     4   9  21  43  67  95 122 188 259 294 339 404
#     4   9  20  41  63  92 130 171 242 293 338 416
#     4   8  18  38  53  90 137 180 234 262 336 460
#
# _framework density 22.534153
#
# number of rings (size 3 to 8) (size 9 to 14) (size 15 to 20)
#    0.000    2.667    0.833    0.000    2.333    8.667 
#   30.000    0.000    7.333    0.000    0.000    0.000 
#    0.000    0.000    0.000    0.000    0.000    0.000 
#
# Total GULP energy -133635.191798 kJ/mol
# GULP energy per Si atom -5568.132992 kJ/mol
# Density = 2.248286 g / cm^3
# Si number density = 22.534153 Si / 1000 Ang^3
#
#
#
# Elastic Constant Matrix: (Units=GPa)
#
#
# Indices 1 2 3 4 5 6 
#
# 1 168.5891 37.5106 36.7790 0.0000 0.0000 0.0000
# 2 37.5106 91.5289 26.1556 0.0000 0.0000 0.0000
# 3 36.7790 26.1556 101.1029 0.0000 0.0000 0.0000
# 4 0.0000 0.0000 0.0000 14.9078 0.0000 0.0000
# 5 0.0000 0.0000 0.0000 0.0000 5.3617 0.0000
# 6 0.0000 0.0000 0.0000 0.0000 0.0000 16.7873
#
#
#
# Elastic Compliance Matrix: (Units=1/GPa)
#
#
# Indices 1 2 3 4 5 6 
#
# 1 0.006851 -0.002263 -0.001907 0.000000 0.000000 0.000000
# 2 -0.002263 0.012545 -0.002422 0.000000 0.000000 0.000000
# 3 -0.001907 -0.002422 0.011211 0.000000 0.000000 0.000000
# 4 0.000000 0.000000 0.000000 0.067079 0.000000 0.000000
# 5 0.000000 0.000000 0.000000 0.000000 0.186509 0.000000
# 6 0.000000 0.000000 0.000000 0.000000 0.000000 0.059569
#
#
# Mechanical properties :
#
#
# Convention : Reuss Voigt Hill
#
# Bulk Modulus (GPa) = 57.39391 62.45678 59.92535
# Shear Modulus (GPa) = 13.78335 24.79640 19.28987
#
# Velocity S-wave (km/s) = 2.47587 3.32081 2.92897
# Velocity P-wave (km/s) = 5.80502 6.51770 6.17166
#
# Compressibility (1/GPa) = 0.01742345
#
# Stress axis : x y z
#
# Youngs Moduli (GPa) = 145.96316 79.71268 89.19624
#
# Poissons Ratio (x) = 0.18037 0.17009
# Poissons Ratio (y) = 0.33029 0.21606
# Poissons Ratio (z) = 0.27833 0.19309
#
# Static dielectric constant tensor:
#      x y z
#    x 2.076540 0.000000 0.000000 
#    y 0.000000 1.891960 0.000000 
#    z 0.000000 0.000000 1.853870 
# 
# From -- ./inp_files/7199.got.cif
#   From: 2010.05.17/outbox.cif.g08.bks.cpg/sg30_4_cif.got.tgz:7199.got - 2010.06.03 17:03:02.
