data_PCOD9342078
_publ_section_title
;
Structure prediction by ZEFSAII (Michael W. Deem and Ramdas Pophale) SiO2 
 PCOD9342078
Probable space group: P N C 2
;
_chemical_formula_sum "Si O2"
_cell_formula_units_Z 26
_cell_length_a 9.377198
_cell_length_b 7.932858
_cell_length_c 13.644557
_cell_angle_alpha 90.000000
_cell_angle_beta 90.000000
_cell_angle_gamma 90.000000
_cell_volume 1014.991036
_symmetry_space_group_name_H-M "P N C 2"
_symmetry_group_IT_number 30
_symmetry_cell_setting 'orthorhombic'
loop_
_space_group_symop_operation_xyz
x,y,z
-x,-y,z
-x,1/2+y,1/2+z
x,1/2-y,1/2+z
loop_
_atom_site_type_symbol
_atom_site_label
_atom_site_fract_x
_atom_site_fract_y
_atom_site_fract_z
Si Si1 0.828380 0.618587 0.836490
Si Si2 0.630125 0.094253 0.096379
Si Si3 0.000000 0.000000 0.638865
Si Si4 0.898656 0.858772 0.113930
Si Si5 0.737317 0.206386 0.429762
Si Si6 0.528448 0.763465 0.288986
Si Si7 0.212952 0.470718 0.314677
O O1 0.741878 0.561091 0.602893
O O2 0.911779 0.635782 0.734012
O O3 0.834018 0.454793 0.903684
O O4 0.660851 0.610646 0.805944
O O5 0.557673 0.181575 0.191771
O O6 0.500000 0.000000 0.041371
O O7 0.707175 0.247467 0.041241
O O8 0.952763 0.827311 0.585269
O O9 0.867266 0.016089 0.714506
O O10 0.843403 0.691864 0.375615
O O11 0.000000 0.000000 0.071575
O O12 0.580905 0.215187 0.378023
O O13 0.804886 0.368897 0.380560
O O14 0.626117 0.592035 0.287546
#
# Coordination Sequence:
#
# PCOD9342078 Si02
#       7
#     4   4   2   4   4   4   4
#     4   9  20  39  65  91 137 177 215 289 347 417
#     4  12  22  40  68 102 139 187 230 293 366 419
#     4  10  20  38  68  96 124 184 232 262 354 436
#     4  11  22  42  69  96 137 182 234 287 352 425
#     4  12  21  38  68  95 133 177 230 285 363 418
#     4  10  20  42  64  95 142 178 226 299 355 418
#     4   9  21  37  63  96 128 170 229 280 338 420
#
# _framework density 25.61599
#
# number of rings (size 3 to 8) (size 9 to 14) (size 15 to 20)
#    0.923    0.615    3.077    2.769    0.000    0.000 
#    1.385    4.615    3.385    0.000    0.000    0.000 
#    0.000    0.000    0.000    2.000    0.000    0.000 
#
# Total GULP energy -144893.619748 kJ/mol
# GULP energy per Si atom -5572.831529 kJ/mol
# Density = 2.555769 g / cm^3
# Si number density = 25.615990 Si / 1000 Ang^3
#
#
#
# Elastic Constant Matrix: (Units=GPa)
#
#
# Indices 1 2 3 4 5 6 
#
# 1 115.1507 65.6074 16.7484 0.0000 0.0000 0.0000
# 2 65.6074 201.1715 46.0375 0.0000 0.0000 0.0000
# 3 16.7484 46.0375 50.7206 0.0000 0.0000 0.0000
# 4 0.0000 0.0000 0.0000 30.5137 0.0000 0.0000
# 5 0.0000 0.0000 0.0000 0.0000 -46.4982 0.0000
# 6 0.0000 0.0000 0.0000 0.0000 0.0000 41.4549
#
#
#
# Elastic Compliance Matrix: (Units=1/GPa)
#
#
# Indices 1 2 3 4 5 6 
#
# 1 0.010675 -0.003376 -0.000461 0.000000 0.000000 0.000000
# 2 -0.003376 0.007342 -0.005549 0.000000 0.000000 0.000000
# 3 -0.000461 -0.005549 0.024905 0.000000 0.000000 0.000000
# 4 0.000000 0.000000 0.000000 0.032772 0.000000 0.000000
# 5 0.000000 0.000000 0.000000 0.000000 -0.021506 0.000000
# 6 0.000000 0.000000 0.000000 0.000000 0.000000 0.024123
#
#
# Mechanical properties :
#
#
# Convention : Reuss Voigt Hill
#
# Bulk Modulus (GPa) = 41.40825 69.31438 55.36132
# Shear Modulus (GPa) = 47.55968 21.00405 34.28187
#
# Velocity S-wave (km/s) = 4.31355 2.86660 3.66225
# Velocity P-wave (km/s) = 6.40383 6.17044 6.28822
#
# Compressibility (1/GPa) = 0.02414978
#
# Stress axis : x y z
#
# Youngs Moduli (GPa) = 93.67950 136.20731 40.15300
#
# Poissons Ratio (x) = 0.45982 0.01850
# Poissons Ratio (y) = 0.31625 0.22281
# Poissons Ratio (z) = 0.04316 0.75583
#
# Static dielectric constant tensor:
#      x y z
#    x 2.774540 0.000000 0.000000 
#    y 0.000000 2.123780 0.000000 
#    z 0.000000 0.000000 2.120100 
# 
# From -- ./inp_files/5449.got.cif
#   From: 2010.05.17/outbox.cif.g08.bks.cpg/sg30_3_cif.got.tgz:5449.got - 2010.06.03 17:03:02.
