data_PCOD9342697
_publ_section_title
;
Structure prediction by ZEFSAII (Michael W. Deem and Ramdas Pophale) SiO2 
 PCOD9342697
Probable space group: P M N 21
;
_chemical_formula_sum "Si O2"
_cell_formula_units_Z 32
_cell_length_a 8.759676
_cell_length_b 11.774295
_cell_length_c 17.929605
_cell_angle_alpha 90.000000
_cell_angle_beta 90.000000
_cell_angle_gamma 90.000000
_cell_volume 1849.241697
_symmetry_space_group_name_H-M "P M N 21"
_symmetry_group_IT_number 31
_symmetry_cell_setting 'orthorhombic'
loop_
_space_group_symop_operation_xyz
x,y,z
1/2-x,-y,1/2+z
-x,y,z
1/2+x,-y,1/2+z
loop_
_atom_site_type_symbol
_atom_site_label
_atom_site_fract_x
_atom_site_fract_y
_atom_site_fract_z
Si Si1 0.175236 0.059592 0.030280
Si Si2 0.318615 0.365936 0.397138
Si Si3 0.181403 0.262527 0.246212
Si Si4 0.180436 0.720612 0.594212
Si Si5 0.319593 0.393714 0.935727
Si Si6 0.181819 0.152934 0.464675
Si Si7 0.184114 0.949015 0.811710
Si Si8 0.174517 0.180643 0.867284
O O1 0.273167 0.149604 0.076190
O O2 0.000000 0.056679 0.056147
O O3 0.173908 0.113063 0.946429
O O4 0.245370 0.934079 0.023846
O O5 0.500000 0.350993 0.394194
O O6 0.248428 0.330223 0.317017
O O7 0.272242 0.493774 0.415876
O O8 0.249463 0.279226 0.458573
O O9 0.229400 0.316383 0.167680
O O10 0.256931 0.136680 0.249197
O O11 0.000000 0.254048 0.253349
O O12 0.218006 0.649858 0.519414
O O13 0.000000 0.712502 0.607203
O O14 0.500000 0.416411 0.932249
O O15 0.277337 0.290182 0.880321
O O16 0.231740 0.099518 0.385039
O O17 0.000000 0.155123 0.471270
O O18 0.000000 0.939281 0.820296
O O19 0.220263 0.083030 0.808327
O O20 0.000000 0.216194 0.852488
#
# Coordination Sequence:
#
# PCOD9342697 Si02
#       8
#     4   4   4   4   4   4   4   4
#     4   9  16  28  46  70  98 126 158 195 241 293
#     4  11  21  34  52  73 101 136 176 218 258 304
#     4  11  21  33  51  75 103 133 169 212 259 311
#     4  10  20  34  52  75 103 134 168 209 260 312
#     4  10  20  33  51  75 102 133 173 217 256 302
#     4  10  17  27  45  70  98 125 158 199 244 291
#     4   9  16  28  46  69  97 126 158 196 243 295
#     4   8  15  27  45  69  96 125 156 194 239 288
#
# _framework density 17.304390999999999
#
# number of rings (size 3 to 8) (size 9 to 14) (size 15 to 20)
#    0.000    2.250    0.000    7.125    0.000    5.000 
#    0.000    0.000    0.000    1.500    0.000    1.750 
#    0.000    0.000    0.000    0.000    0.000    0.000 
#
# Total GULP energy -178334.099909 kJ/mol
# GULP energy per Si atom -5572.940622 kJ/mol
# Density = 1.726501 g / cm^3
# Si number density = 17.304391 Si / 1000 Ang^3
#
#
#
# Elastic Constant Matrix: (Units=GPa)
#
#
# Indices 1 2 3 4 5 6 
#
# 1 101.1791 46.5556 21.7569 0.0000 0.0000 0.0000
# 2 46.5556 102.3136 23.1803 0.0000 0.0000 0.0000
# 3 21.7569 23.1803 43.4816 0.0000 0.0000 0.0000
# 4 0.0000 0.0000 0.0000 11.4939 0.0000 0.0000
# 5 0.0000 0.0000 0.0000 0.0000 91.2154 0.0000
# 6 0.0000 0.0000 0.0000 0.0000 0.0000 28.7024
#
#
#
# Elastic Compliance Matrix: (Units=1/GPa)
#
#
# Indices 1 2 3 4 5 6 
#
# 1 0.013036 -0.005066 -0.003822 0.000000 0.000000 0.000000
# 2 -0.005066 0.013085 -0.004441 0.000000 0.000000 0.000000
# 3 -0.003822 -0.004441 0.027278 0.000000 0.000000 0.000000
# 4 0.000000 0.000000 0.000000 0.087003 0.000000 0.000000
# 5 0.000000 0.000000 0.000000 0.000000 0.010963 0.000000
# 6 0.000000 0.000000 0.000000 0.000000 0.000000 0.034840
#
#
# Mechanical properties :
#
#
# Convention : Reuss Voigt Hill
#
# Bulk Modulus (GPa) = 37.39517 47.77334 42.58425
# Shear Modulus (GPa) = 22.54505 36.64777 29.59641
#
# Velocity S-wave (km/s) = 3.61342 4.60698 4.14011
# Velocity P-wave (km/s) = 6.25030 7.48108 6.89321
#
# Compressibility (1/GPa) = 0.02674142
#
# Stress axis : x y z
#
# Youngs Moduli (GPa) = 76.70835 76.42249 36.65916
#
# Poissons Ratio (x) = 0.38715 0.14012
# Poissons Ratio (y) = 0.38860 0.16280
# Poissons Ratio (z) = 0.29321 0.33939
#
# Static dielectric constant tensor:
#      x y z
#    x 1.556800 0.000000 0.000000 
#    y 0.000000 1.605680 0.000000 
#    z 0.000000 0.000000 1.622310 
# 
# From -- ./inp_files/5921.got.cif
#   From: 2010.05.17/outbox.cif.g08.bks.cpg/sg31_3_cif.got.tgz:5921.got - 2010.06.03 17:08:30.
