data_PCOD9342862
_publ_section_title
;
Structure prediction by ZEFSAII (Michael W. Deem and Ramdas Pophale) SiO2 
 PCOD9342862
Probable space group: P M N 21
;
_chemical_formula_sum "Si O2"
_cell_formula_units_Z 32
_cell_length_a 7.422550
_cell_length_b 13.607233
_cell_length_c 13.332115
_cell_angle_alpha 90.000000
_cell_angle_beta 90.000000
_cell_angle_gamma 90.000000
_cell_volume 1346.548512
_symmetry_space_group_name_H-M "P M N 21"
_symmetry_group_IT_number 31
_symmetry_cell_setting 'orthorhombic'
loop_
_space_group_symop_operation_xyz
x,y,z
1/2-x,-y,1/2+z
-x,y,z
1/2+x,-y,1/2+z
loop_
_atom_site_type_symbol
_atom_site_label
_atom_site_fract_x
_atom_site_fract_y
_atom_site_fract_z
Si Si1 0.707114 0.065947 0.599560
Si Si2 0.717383 0.107891 0.979065
Si Si3 0.282559 0.255278 0.492916
Si Si4 0.286510 0.317511 0.904347
Si Si5 0.720880 0.982769 0.791135
Si Si6 0.720077 0.386217 0.684954
Si Si7 0.710272 0.762111 0.768514
Si Si8 0.216906 0.400328 0.114733
O O1 0.500000 0.096115 0.608114
O O2 0.784114 0.145070 0.522512
O O3 0.713799 0.949847 0.575197
O O4 0.785505 0.062862 0.710124
O O5 0.500000 0.111218 0.986733
O O6 0.785153 0.214399 0.948552
O O7 0.772744 0.029360 0.895698
O O8 0.500000 0.258944 0.486484
O O9 0.227311 0.321404 0.588092
O O10 0.220745 0.282498 0.381028
O O11 0.500000 0.302648 0.890473
O O12 0.218053 0.348775 0.794621
O O13 0.262543 0.392038 0.997069
O O14 0.500000 0.981659 0.788989
O O15 0.788268 0.871944 0.777463
O O16 0.500000 0.384396 0.686974
O O17 0.777818 0.497650 0.663375
O O18 0.500000 0.774148 0.744579
O O19 0.785489 0.691578 0.681561
O O20 0.000000 0.399349 0.120913
#
# Coordination Sequence:
#
# PCOD9342862 Si02
#       8
#     4   4   4   4   4   4   4   4
#     4  10  19  32  53  80 108 144 186 223 262 319
#     4  10  19  33  53  78 109 145 179 217 267 321
#     4  10  20  35  57  84 114 147 188 235 278 327
#     4  10  21  38  60  85 113 146 190 236 278 336
#     4   9  17  31  51  74 106 146 180 210 261 326
#     4   9  20  39  60  83 112 148 187 231 286 339
#     4  10  20  35  56  82 114 149 186 229 279 337
#     4  10  22  39  60  84 112 149 188 233 287 337
#
# _framework density 23.76446
#
# number of rings (size 3 to 8) (size 9 to 14) (size 15 to 20)
#    0.000    2.250    1.250    1.500    1.750    5.000 
#    0.000    2.500    0.000    3.000    0.000    0.000 
#    0.000    0.000    0.000    0.000    0.000    0.000 
#
# Total GULP energy -178605.981870 kJ/mol
# GULP energy per Si atom -5581.436933 kJ/mol
# Density = 2.371037 g / cm^3
# Si number density = 23.764460 Si / 1000 Ang^3
#
#
#
# Elastic Constant Matrix: (Units=GPa)
#
#
# Indices 1 2 3 4 5 6 
#
# 1 77.0743 -4.8803 -12.9238 0.0000 0.0000 0.0000
# 2 -4.8803 72.2899 17.3376 0.0000 0.0000 0.0000
# 3 -12.9238 17.3376 121.7919 0.0000 0.0000 0.0000
# 4 0.0000 0.0000 0.0000 31.5151 0.0000 0.0000
# 5 0.0000 0.0000 0.0000 0.0000 14.9272 0.0000
# 6 0.0000 0.0000 0.0000 0.0000 0.0000 7.2963
#
#
#
# Elastic Compliance Matrix: (Units=1/GPa)
#
#
# Indices 1 2 3 4 5 6 
#
# 1 0.013233 0.000576 0.001322 0.000000 0.000000 0.000000
# 2 0.000576 0.014347 -0.001981 0.000000 0.000000 0.000000
# 3 0.001322 -0.001981 0.008633 0.000000 0.000000 0.000000
# 4 0.000000 0.000000 0.000000 0.031731 0.000000 0.000000
# 5 0.000000 0.000000 0.000000 0.000000 0.066992 0.000000
# 6 0.000000 0.000000 0.000000 0.000000 0.000000 0.137056
#
#
# Mechanical properties :
#
#
# Convention : Reuss Voigt Hill
#
# Bulk Modulus (GPa) = 27.74136 30.02481 28.88308
# Shear Modulus (GPa) = 17.59492 28.85589 23.22541
#
# Velocity S-wave (km/s) = 2.72396 3.48838 3.12960
# Velocity P-wave (km/s) = 4.64673 5.37465 5.02389
#
# Compressibility (1/GPa) = 0.03604726
#
# Stress axis : x y z
#
# Youngs Moduli (GPa) = 75.57054 69.69967 115.83375
#
# Poissons Ratio (x) = -0.04016 -0.15315
# Poissons Ratio (y) = -0.04355 0.22950
# Poissons Ratio (z) = -0.09991 0.13809
#
# Static dielectric constant tensor:
#      x y z
#    x 1.896310 0.000000 0.000000 
#    y 0.000000 1.935190 0.000000 
#    z 0.000000 0.000000 1.909230 
# 
# From -- ./inp_files/3723.got.cif
#   From: 2010.05.17/outbox.cif.g08.bks.cpg/sg31_2_cif.got.tgz:3723.got - 2010.06.03 17:08:30.
