data_PCOD9342904
_publ_section_title
;
Structure prediction by ZEFSAII (Michael W. Deem and Ramdas Pophale) SiO2 
 PCOD9342904
Probable space group: P M N 21
;
_chemical_formula_sum "Si O2"
_cell_formula_units_Z 32
_cell_length_a 8.946271
_cell_length_b 11.578692
_cell_length_c 16.284946
_cell_angle_alpha 90.000000
_cell_angle_beta 90.000000
_cell_angle_gamma 90.000000
_cell_volume 1686.894313
_symmetry_space_group_name_H-M "P M N 21"
_symmetry_group_IT_number 31
_symmetry_cell_setting 'orthorhombic'
loop_
_space_group_symop_operation_xyz
x,y,z
1/2-x,-y,1/2+z
-x,y,z
1/2+x,-y,1/2+z
loop_
_atom_site_type_symbol
_atom_site_label
_atom_site_fract_x
_atom_site_fract_y
_atom_site_fract_z
Si Si1 0.680067 0.104048 0.505430
Si Si2 0.820273 0.121774 0.332743
Si Si3 0.318937 0.921472 0.647333
Si Si4 0.327217 0.371273 0.321118
Si Si5 0.832095 0.301989 0.046654
Si Si6 0.833913 0.529808 0.445468
Si Si7 0.332911 0.499677 0.680574
Si Si8 0.668616 0.671728 0.079389
O O1 0.500000 0.109360 0.500224
O O2 0.745466 0.071417 0.415645
O O3 0.748857 0.227451 0.530291
O O4 0.721971 0.019623 0.581299
O O5 0.770755 0.072027 0.243055
O O6 0.773244 0.257010 0.330821
O O7 0.000000 0.112783 0.339261
O O8 0.500000 0.919610 0.651593
O O9 0.274105 0.800847 0.604346
O O10 0.500000 0.338161 0.326056
O O11 0.284458 0.467419 0.387596
O O12 0.283769 0.434615 0.237539
O O13 0.847567 0.414841 0.103323
O O14 0.000000 0.270439 0.017322
O O15 0.723875 0.346025 0.975432
O O16 0.845855 0.439127 0.520306
O O17 0.000000 0.538030 0.409120
O O18 0.500000 0.490819 0.716409
O O19 0.269064 0.376128 0.653568
O O20 0.500000 0.706785 0.103068
#
# Coordination Sequence:
#
# PCOD9342904 Si02
#       8
#     4   4   4   4   4   4   4   4
#     4  11  22  38  61  89 118 156 202 249 300 356
#     4  11  21  39  61  85 115 153 200 250 298 354
#     4   9  20  39  62  85 116 158 201 243 299 360
#     4  12  22  33  54  86 118 150 192 241 293 356
#     4   9  17  34  56  79 108 147 188 231 289 350
#     4  10  20  33  52  80 115 148 184 232 287 345
#     4  10  19  33  56  82 113 147 185 233 292 350
#     4  10  20  35  54  80 115 151 190 235 286 345
#
# _framework density 18.969771999999999
#
# number of rings (size 3 to 8) (size 9 to 14) (size 15 to 20)
#    0.000    1.750    2.500    3.000    0.000    1.500 
#    0.000    5.000    0.000    3.000    0.000    0.000 
#    0.000    0.000    0.000    0.000    0.000    0.000 
#
# Total GULP energy -178271.753152 kJ/mol
# GULP energy per Si atom -5570.992286 kJ/mol
# Density = 1.892660 g / cm^3
# Si number density = 18.969772 Si / 1000 Ang^3
#
#
#
# Elastic Constant Matrix: (Units=GPa)
#
#
# Indices 1 2 3 4 5 6 
#
# 1 76.9792 18.9671 14.2365 0.0000 0.0000 0.0000
# 2 18.9671 45.8638 27.2394 0.0000 0.0000 0.0000
# 3 14.2365 27.2394 56.7077 0.0000 0.0000 0.0000
# 4 0.0000 0.0000 0.0000 24.8528 0.0000 0.0000
# 5 0.0000 0.0000 0.0000 0.0000 37.6650 0.0000
# 6 0.0000 0.0000 0.0000 0.0000 0.0000 3.4975
#
#
#
# Elastic Compliance Matrix: (Units=1/GPa)
#
#
# Indices 1 2 3 4 5 6 
#
# 1 0.014510 -0.005369 -0.001064 0.000000 0.000000 0.000000
# 2 -0.005369 0.032493 -0.014260 0.000000 0.000000 0.000000
# 3 -0.001064 -0.014260 0.024751 0.000000 0.000000 0.000000
# 4 0.000000 0.000000 0.000000 0.040237 0.000000 0.000000
# 5 0.000000 0.000000 0.000000 0.000000 0.026550 0.000000
# 6 0.000000 0.000000 0.000000 0.000000 0.000000 0.285917
#
#
# Mechanical properties :
#
#
# Convention : Reuss Voigt Hill
#
# Bulk Modulus (GPa) = 32.92852 33.38187 33.15519
# Shear Modulus (GPa) = 10.50492 21.14357 15.82425
#
# Velocity S-wave (km/s) = 2.35579 3.34217 2.89135
# Velocity P-wave (km/s) = 4.97953 5.70343 5.35373
#
# Compressibility (1/GPa) = 0.03036881
#
# Stress axis : x y z
#
# Youngs Moduli (GPa) = 68.91742 30.77550 40.40204
#
# Poissons Ratio (x) = 0.16523 0.04298
# Poissons Ratio (y) = 0.37001 0.57614
# Poissons Ratio (z) = 0.07332 0.43887
#
# Static dielectric constant tensor:
#      x y z
#    x 1.677260 0.000000 0.000000 
#    y 0.000000 1.637400 0.000000 
#    z 0.000000 0.000000 1.761980 
# 
# From -- ./inp_files/4961.got.cif
#   From: 2010.05.17/outbox.cif.g08.bks.cpg/sg31_3_cif.got.tgz:4961.got - 2010.06.03 17:08:30.
