data_PCOD9342309
_publ_section_title
;
Structure prediction by ZEFSAII (Michael W. Deem and Ramdas Pophale) SiO2 
 PCOD9342309
Probable space group: P N C 2
;
_chemical_formula_sum "Si O2"
_cell_formula_units_Z 22
_cell_length_a 7.030566
_cell_length_b 13.347098
_cell_length_c 12.996207
_cell_angle_alpha 90.000000
_cell_angle_beta 90.000000
_cell_angle_gamma 90.000000
_cell_volume 1219.533568
_symmetry_space_group_name_H-M "P N C 2"
_symmetry_group_IT_number 30
_symmetry_cell_setting 'orthorhombic'
loop_
_space_group_symop_operation_xyz
x,y,z
-x,-y,z
-x,1/2+y,1/2+z
x,1/2-y,1/2+z
loop_
_atom_site_type_symbol
_atom_site_label
_atom_site_fract_x
_atom_site_fract_y
_atom_site_fract_z
Si Si1 0.000000 0.500000 0.389310
Si Si2 0.521674 0.882079 0.162667
Si Si3 0.512808 0.775928 0.375541
Si Si4 0.345577 0.914672 0.755556
Si Si5 0.155674 0.191725 0.011733
Si Si6 0.245056 0.721201 0.065611
O O1 0.829471 0.459420 0.318979
O O2 0.921328 0.591283 0.457474
O O3 0.528608 0.854277 0.282858
O O4 0.709631 0.840269 0.106308
O O5 0.347618 0.821178 0.110688
O O6 0.500000 0.000000 0.145560
O O7 0.442940 0.672205 0.323775
O O8 0.710011 0.752957 0.433314
O O9 0.356892 0.804708 0.461029
O O10 0.275704 0.863621 0.650750
O O11 0.500000 0.000000 0.735096
O O12 0.974310 0.255589 0.045758
#
# Coordination Sequence:
#
# PCOD9342309 Si02
#       6
#     2   4   4   4   4   4
#     4  12  22  34  68  92 124 160 216 260 310 368
#     4  10  23  39  61  87 120 160 205 249 308 368
#     4  10  22  40  60  85 124 162 201 252 308 369
#     4  11  23  39  62  93 124 162 208 256 310 375
#     4  11  22  36  63  92 120 157 208 255 305 364
#     4  10  23  40  61  89 125 159 203 256 311 363
#
# _framework density 18.039684000000001
#
# number of rings (size 3 to 8) (size 9 to 14) (size 15 to 20)
#    0.000    1.455    3.636    1.091    5.091    2.182 
#    0.000    0.000    0.000    0.000    0.000    0.000 
#    0.000    0.000    0.000    0.000    0.000    0.000 
#
# Total GULP energy -122954.027969 kJ/mol
# GULP energy per Si atom -5588.819453 kJ/mol
# Density = 1.799862 g / cm^3
# Si number density = 18.039684 Si / 1000 Ang^3
#
#
#
# Elastic Constant Matrix: (Units=GPa)
#
#
# Indices 1 2 3 4 5 6 
#
# 1 143.4383 20.1689 55.8289 0.0000 0.0000 0.0000
# 2 20.1689 26.1792 16.4902 0.0000 0.0000 0.0000
# 3 55.8289 16.4902 122.2439 0.0000 0.0000 0.0000
# 4 0.0000 0.0000 0.0000 22.2672 0.0000 0.0000
# 5 0.0000 0.0000 0.0000 0.0000 18.0641 0.0000
# 6 0.0000 0.0000 0.0000 0.0000 0.0000 21.3400
#
#
#
# Elastic Compliance Matrix: (Units=1/GPa)
#
#
# Indices 1 2 3 4 5 6 
#
# 1 0.008987 -0.004741 -0.003465 0.000000 0.000000 0.000000
# 2 -0.004741 0.044247 -0.003803 0.000000 0.000000 0.000000
# 3 -0.003465 -0.003803 0.010276 0.000000 0.000000 0.000000
# 4 0.000000 0.000000 0.000000 0.044909 0.000000 0.000000
# 5 0.000000 0.000000 0.000000 0.000000 0.055358 0.000000
# 6 0.000000 0.000000 0.000000 0.000000 0.000000 0.046860
#
#
# Mechanical properties :
#
#
# Convention : Reuss Voigt Hill
#
# Bulk Modulus (GPa) = 25.32246 52.98193 39.15219
# Shear Modulus (GPa) = 20.17599 25.62582 22.90091
#
# Velocity S-wave (km/s) = 3.34791 3.77307 3.56683
# Velocity P-wave (km/s) = 5.38630 6.95808 6.22202
#
# Compressibility (1/GPa) = 0.03949064
#
# Stress axis : x y z
#
# Youngs Moduli (GPa) = 111.27380 22.60060 97.31629
#
# Poissons Ratio (x) = 0.10715 0.33717
# Poissons Ratio (y) = 0.52757 0.37013
# Poissons Ratio (z) = 0.38553 0.08596
#
# Static dielectric constant tensor:
#      x y z
#    x 1.594210 0.000000 0.000000 
#    y 0.000000 1.591680 0.000000 
#    z 0.000000 0.000000 1.608380 
# 
# From -- ./inp_files/3092.got.cif
#   From: 2010.05.17/outbox.cif.g08.bks.cpg/sg30_2_cif.got.tgz:3092.got - 2010.06.03 17:03:02.
