data_PCOD9342442
_publ_section_title
;
Structure prediction by ZEFSAII (Michael W. Deem and Ramdas Pophale) SiO2 
 PCOD9342442
Probable space group: P N C 2
;
_chemical_formula_sum "Si O2"
_cell_formula_units_Z 26
_cell_length_a 7.211950
_cell_length_b 14.290143
_cell_length_c 11.623302
_cell_angle_alpha 90.000000
_cell_angle_beta 90.000000
_cell_angle_gamma 90.000000
_cell_volume 1197.895142
_symmetry_space_group_name_H-M "P N C 2"
_symmetry_group_IT_number 30
_symmetry_cell_setting 'orthorhombic'
loop_
_space_group_symop_operation_xyz
x,y,z
-x,-y,z
-x,1/2+y,1/2+z
x,1/2-y,1/2+z
loop_
_atom_site_type_symbol
_atom_site_label
_atom_site_fract_x
_atom_site_fract_y
_atom_site_fract_z
Si Si1 0.577668 0.701915 0.876660
Si Si2 0.500000 0.500000 0.291755
Si Si3 0.000000 0.500000 0.006200
Si Si4 0.500000 0.000000 0.173176
Si Si5 0.137654 0.182267 0.176194
Si Si6 0.210115 0.619553 0.813646
Si Si7 0.309529 0.400714 0.476764
Si Si8 0.687065 0.880817 0.611251
O O1 0.711188 0.662030 0.777270
O O2 0.364430 0.696405 0.842904
O O3 0.643941 0.805027 0.911390
O O4 0.593204 0.638122 0.989229
O O5 0.330642 0.483397 0.383173
O O6 0.463706 0.414364 0.204329
O O7 0.159165 0.458621 0.087148
O O8 0.099049 0.575180 0.921314
O O9 0.330094 0.961396 0.249307
O O10 0.545385 0.918512 0.080502
O O11 0.201314 0.286766 0.143040
O O12 0.940801 0.166834 0.232766
O O13 0.136173 0.120094 0.059147
#
# Coordination Sequence:
#
# PCOD9342442 Si02
#       8
#     4   2   2   2   4   4   4   4
#     4  11  22  46  70  97 132 191 229 285 348 430
#     4  11  22  43  68  98 139 190 211 288 356 415
#     4  12  24  40  62 106 134 174 226 296 346 404
#     4  11  22  41  66 104 129 184 231 290 352 423
#     4  11  23  46  69 102 134 184 237 294 339 435
#     4  12  24  42  75  98 139 177 241 292 354 410
#     4  10  23  42  68  95 142 178 229 281 354 415
#     4  11  24  42  69  99 147 177 234 284 357 419
#
# _framework density 21.704739
#
# number of rings (size 3 to 8) (size 9 to 14) (size 15 to 20)
#    0.000    0.923    4.615    2.769    0.000    2.462 
#    0.000    3.077    0.000    0.000    0.000    0.000 
#    0.000    0.000    0.000    0.000    0.000    0.000 
#
# Total GULP energy -144890.362579 kJ/mol
# GULP energy per Si atom -5572.706253 kJ/mol
# Density = 2.165534 g / cm^3
# Si number density = 21.704739 Si / 1000 Ang^3
#
#
#
# Elastic Constant Matrix: (Units=GPa)
#
#
# Indices 1 2 3 4 5 6 
#
# 1 107.8614 12.0691 42.2309 0.0000 0.0000 0.0000
# 2 12.0691 34.6960 28.9535 0.0000 0.0000 0.0000
# 3 42.2309 28.9535 137.2068 0.0000 0.0000 0.0000
# 4 0.0000 0.0000 0.0000 40.1969 0.0000 0.0000
# 5 0.0000 0.0000 0.0000 0.0000 30.8256 0.0000
# 6 0.0000 0.0000 0.0000 0.0000 0.0000 26.1415
#
#
#
# Elastic Compliance Matrix: (Units=1/GPa)
#
#
# Indices 1 2 3 4 5 6 
#
# 1 0.010580 -0.001169 -0.003010 0.000000 0.000000 0.000000
# 2 -0.001169 0.035111 -0.007049 0.000000 0.000000 0.000000
# 3 -0.003010 -0.007049 0.009702 0.000000 0.000000 0.000000
# 4 0.000000 0.000000 0.000000 0.024878 0.000000 0.000000
# 5 0.000000 0.000000 0.000000 0.000000 0.032441 0.000000
# 6 0.000000 0.000000 0.000000 0.000000 0.000000 0.038253
#
#
# Mechanical properties :
#
#
# Convention : Reuss Voigt Hill
#
# Bulk Modulus (GPa) = 30.36048 49.58570 39.97309
# Shear Modulus (GPa) = 27.11492 32.53351 29.82421
#
# Velocity S-wave (km/s) = 3.53833 3.87578 3.71089
# Velocity P-wave (km/s) = 5.54178 6.55164 6.06776
#
# Compressibility (1/GPa) = 0.03293755
#
# Stress axis : x y z
#
# Youngs Moduli (GPa) = 94.51436 28.48115 103.06862
#
# Poissons Ratio (x) = 0.03328 0.31023
# Poissons Ratio (y) = 0.11046 0.72658
# Poissons Ratio (z) = 0.28448 0.20078
#
# Static dielectric constant tensor:
#      x y z
#    x 1.793080 0.000000 0.000000 
#    y 0.000000 1.864970 0.000000 
#    z 0.000000 0.000000 1.809490 
# 
# From -- ./inp_files/3188.got.cif
#   From: 2010.05.17/outbox.cif.g08.bks.cpg/sg30_2_cif.got.tgz:3188.got - 2010.06.03 17:03:02.
