data_PCOD9342383
_publ_section_title
;
Structure prediction by ZEFSAII (Michael W. Deem and Ramdas Pophale) SiO2 
 PCOD9342383
Probable space group: P N C 2
;
_chemical_formula_sum "Si O2"
_cell_formula_units_Z 30
_cell_length_a 7.940518
_cell_length_b 18.306472
_cell_length_c 9.367863
_cell_angle_alpha 90.000000
_cell_angle_beta 90.000000
_cell_angle_gamma 90.000000
_cell_volume 1361.739455
_symmetry_space_group_name_H-M "P N C 2"
_symmetry_group_IT_number 30
_symmetry_cell_setting 'orthorhombic'
loop_
_space_group_symop_operation_xyz
x,y,z
-x,-y,z
-x,1/2+y,1/2+z
x,1/2-y,1/2+z
loop_
_atom_site_type_symbol
_atom_site_label
_atom_site_fract_x
_atom_site_fract_y
_atom_site_fract_z
Si Si1 0.255607 0.885116 0.452000
Si Si2 0.500000 0.000000 0.325490
Si Si3 0.898333 0.409801 0.516486
Si Si4 0.777704 0.295446 0.688706
Si Si5 0.061812 0.859588 0.728001
Si Si6 0.474962 0.271307 0.073574
Si Si7 0.721491 0.951304 0.081542
Si Si8 0.691141 0.832445 0.851470
O O1 0.364232 0.956813 0.420332
O O2 0.177014 0.854951 0.306465
O O3 0.112913 0.889998 0.573045
O O4 0.391380 0.821865 0.491095
O O5 0.607205 0.945629 0.221951
O O6 0.871131 0.324758 0.549017
O O7 0.890927 0.418703 0.346781
O O8 0.747787 0.461385 0.568041
O O9 0.081096 0.427574 0.582247
O O10 0.833316 0.215607 0.734135
O O11 0.583477 0.293309 0.645228
O O12 0.875458 0.838509 0.780560
O O13 0.416277 0.317820 0.209797
O O14 0.342436 0.234092 0.964608
O O15 0.655257 0.905352 0.945415
#
# Coordination Sequence:
#
# PCOD9342383 Si02
#       8
#     4   2   4   4   4   4   4   4
#     4  11  24  41  62  98 133 175 222 276 347 406
#     4  12  24  44  68 102 132 182 238 288 354 422
#     4  10  22  44  67  93 131 183 232 272 345 432
#     4  11  21  41  67  96 129 178 223 277 344 406
#     4  10  24  39  66  96 134 172 219 281 347 408
#     4  11  24  41  65  99 138 170 225 293 337 410
#     4  10  24  42  69  96 131 181 231 281 343 425
#     4  11  25  42  65 103 134 175 227 287 348 412
#
# _framework density 22.030646000000001
#
# number of rings (size 3 to 8) (size 9 to 14) (size 15 to 20)
#    0.000    1.333    2.667    2.400    7.467    1.067 
#    0.000    0.000    0.000    0.000    0.000    0.000 
#    0.000    0.000    0.000    0.000    0.000    0.000 
#
# Total GULP energy -167149.305435 kJ/mol
# GULP energy per Si atom -5571.643515 kJ/mol
# Density = 2.198050 g / cm^3
# Si number density = 22.030646 Si / 1000 Ang^3
#
#
#
# Elastic Constant Matrix: (Units=GPa)
#
#
# Indices 1 2 3 4 5 6 
#
# 1 70.8936 20.6581 45.0268 0.0000 0.0000 0.0000
# 2 20.6581 52.1715 22.2143 0.0000 0.0000 0.0000
# 3 45.0268 22.2143 119.2135 0.0000 0.0000 0.0000
# 4 0.0000 0.0000 0.0000 26.7076 0.0000 0.0000
# 5 0.0000 0.0000 0.0000 0.0000 32.9865 0.0000
# 6 0.0000 0.0000 0.0000 0.0000 0.0000 27.6291
#
#
#
# Elastic Compliance Matrix: (Units=1/GPa)
#
#
# Indices 1 2 3 4 5 6 
#
# 1 0.019703 -0.005032 -0.006504 0.000000 0.000000 0.000000
# 2 -0.005032 0.022105 -0.002218 0.000000 0.000000 0.000000
# 3 -0.006504 -0.002218 0.011258 0.000000 0.000000 0.000000
# 4 0.000000 0.000000 0.000000 0.037443 0.000000 0.000000
# 5 0.000000 0.000000 0.000000 0.000000 0.030315 0.000000
# 6 0.000000 0.000000 0.000000 0.000000 0.000000 0.036194
#
#
# Mechanical properties :
#
#
# Convention : Reuss Voigt Hill
#
# Bulk Modulus (GPa) = 39.12884 46.45299 42.79091
# Shear Modulus (GPa) = 25.90058 27.75660 26.82859
#
# Velocity S-wave (km/s) = 3.43251 3.55337 3.49346
# Velocity P-wave (km/s) = 5.78871 6.16171 5.97812
#
# Compressibility (1/GPa) = 0.02555660
#
# Stress axis : x y z
#
# Youngs Moduli (GPa) = 50.75370 45.23923 88.82369
#
# Poissons Ratio (x) = 0.22766 0.57772
# Poissons Ratio (y) = 0.25541 0.19704
# Poissons Ratio (z) = 0.33011 0.10035
#
# Static dielectric constant tensor:
#      x y z
#    x 1.839640 0.000000 0.000000 
#    y 0.000000 1.867310 0.000000 
#    z 0.000000 0.000000 1.879730 
# 
# From -- ./inp_files/2113.got.cif
#   From: 2010.05.17/outbox.cif.g08.bks.cpg/sg30_2_cif.got.tgz:2113.got - 2010.06.03 17:03:02.
