data_PCOD9342683
_publ_section_title
;
Structure prediction by ZEFSAII (Michael W. Deem and Ramdas Pophale) SiO2 
 PCOD9342683
Probable space group: P M N 21
;
_chemical_formula_sum "Si O2"
_cell_formula_units_Z 22
_cell_length_a 10.929556
_cell_length_b 8.679650
_cell_length_c 8.723282
_cell_angle_alpha 90.000000
_cell_angle_beta 90.000000
_cell_angle_gamma 90.000000
_cell_volume 827.531711
_symmetry_space_group_name_H-M "P M N 21"
_symmetry_group_IT_number 31
_symmetry_cell_setting 'orthorhombic'
loop_
_space_group_symop_operation_xyz
x,y,z
1/2-x,-y,1/2+z
-x,y,z
1/2+x,-y,1/2+z
loop_
_atom_site_type_symbol
_atom_site_label
_atom_site_fract_x
_atom_site_fract_y
_atom_site_fract_z
Si Si1 0.000000 0.542697 0.511101
Si Si2 0.703113 0.703804 0.325373
Si Si3 0.745364 0.160964 0.271064
Si Si4 0.000000 0.218658 0.575466
Si Si5 0.500000 0.125350 0.069799
Si Si6 0.780233 0.467902 0.120575
Si Si7 0.643821 0.998003 0.523652
O O1 0.132037 0.538643 0.597365
O O2 0.000000 0.362821 0.458974
O O3 0.000000 0.723872 0.460523
O O4 0.610008 0.760960 0.196589
O O5 0.807021 0.617880 0.223396
O O6 0.666752 0.569388 0.451395
O O7 0.706937 0.850755 0.438155
O O8 0.617189 0.138922 0.181343
O O9 0.805557 0.320886 0.226369
O O10 0.711087 0.141379 0.446822
O O11 0.830023 0.027596 0.200799
O O12 0.000000 0.048185 0.506118
O O13 0.500000 0.997348 0.493338
#
# Coordination Sequence:
#
# PCOD9342683 Si02
#       7
#     2   4   4   2   2   4   4
#     4   8  18  32  51  79 107 145 197 229 278 355
#     4  10  18  35  56  80 109 145 194 239 294 356
#     4  10  20  36  60  86 119 155 198 253 308 362
#     4  10  16  32  63  76 105 160 199 226 298 359
#     4  10  16  36  60  83 116 159 200 241 304 368
#     4   9  20  32  55  79 108 145 187 242 294 349
#     4  11  21  39  61  86 117 159 204 250 308 370
#
# _framework density 26.585087000000001
#
# number of rings (size 3 to 8) (size 9 to 14) (size 15 to 20)
#    0.000    2.182    3.636    0.000    0.000    1.455 
#    1.636    0.909    0.000    0.000    0.000    0.000 
#    0.000    0.000    0.000    0.000    0.000    0.000 
#
# Total GULP energy -122606.251400 kJ/mol
# GULP energy per Si atom -5573.011427 kJ/mol
# Density = 2.652458 g / cm^3
# Si number density = 26.585087 Si / 1000 Ang^3
#
#
#
# Elastic Constant Matrix: (Units=GPa)
#
#
# Indices 1 2 3 4 5 6 
#
# 1 70.1126 8.5615 65.7664 0.0000 0.0000 0.0000
# 2 8.5615 135.7161 52.8578 0.0000 0.0000 0.0000
# 3 65.7664 52.8578 128.5108 0.0000 0.0000 0.0000
# 4 0.0000 0.0000 0.0000 42.5433 0.0000 0.0000
# 5 0.0000 0.0000 0.0000 0.0000 36.7006 0.0000
# 6 0.0000 0.0000 0.0000 0.0000 0.0000 11.1147
#
#
#
# Elastic Compliance Matrix: (Units=1/GPa)
#
#
# Indices 1 2 3 4 5 6 
#
# 1 0.029889 0.004849 -0.017290 0.000000 0.000000 0.000000
# 2 0.004849 0.009560 -0.006414 0.000000 0.000000 0.000000
# 3 -0.017290 -0.006414 0.019268 0.000000 0.000000 0.000000
# 4 0.000000 0.000000 0.000000 0.023505 0.000000 0.000000
# 5 0.000000 0.000000 0.000000 0.000000 0.027248 0.000000
# 6 0.000000 0.000000 0.000000 0.000000 0.000000 0.089971
#
#
# Mechanical properties :
#
#
# Convention : Reuss Voigt Hill
#
# Bulk Modulus (GPa) = 47.60349 65.41230 56.50789
# Shear Modulus (GPa) = 20.47887 31.88196 26.18042
#
# Velocity S-wave (km/s) = 2.77846 3.46676 3.14152
# Velocity P-wave (km/s) = 5.31395 6.37832 5.87031
#
# Compressibility (1/GPa) = 0.02100686
#
# Stress axis : x y z
#
# Youngs Moduli (GPa) = 33.45687 104.59841 51.89989
#
# Poissons Ratio (x) = -0.50715 0.89737
# Poissons Ratio (y) = -0.16222 0.33286
# Poissons Ratio (z) = 0.57848 0.67085
#
# Static dielectric constant tensor:
#      x y z
#    x 2.118050 0.000000 0.000000 
#    y 0.000000 2.195270 0.000000 
#    z 0.000000 0.000000 2.068890 
# 
# From -- ./inp_files/2450.got.cif
#   From: 2010.05.17/outbox.cif.g08.bks.cpg/sg31_2_cif.got.tgz:2450.got - 2010.06.03 17:08:30.
