data_PCOD9342968
_publ_section_title
;
Structure prediction by ZEFSAII (Michael W. Deem and Ramdas Pophale) SiO2 
 PCOD9342968
Probable space group: P M N 21
;
_chemical_formula_sum "Si O2"
_cell_formula_units_Z 32
_cell_length_a 8.506885
_cell_length_b 12.787135
_cell_length_c 14.348361
_cell_angle_alpha 90.000000
_cell_angle_beta 90.000000
_cell_angle_gamma 90.000000
_cell_volume 1560.795869
_symmetry_space_group_name_H-M "P M N 21"
_symmetry_group_IT_number 31
_symmetry_cell_setting 'orthorhombic'
loop_
_space_group_symop_operation_xyz
x,y,z
1/2-x,-y,1/2+z
-x,y,z
1/2+x,-y,1/2+z
loop_
_atom_site_type_symbol
_atom_site_label
_atom_site_fract_x
_atom_site_fract_y
_atom_site_fract_z
Si Si1 0.182220 0.907315 0.618770
Si Si2 0.687214 0.161977 0.411333
Si Si3 0.809904 0.867524 0.121206
Si Si4 0.310408 0.432411 0.934522
Si Si5 0.191293 0.741401 0.291104
Si Si6 0.812809 0.328382 0.126629
Si Si7 0.189127 0.624304 0.823125
Si Si8 0.817219 0.946035 0.396544
O O1 0.257434 0.793304 0.636253
O O2 0.191606 0.924285 0.506828
O O3 0.000000 0.901241 0.647375
O O4 0.255566 0.017017 0.654250
O O5 0.500000 0.172118 0.416451
O O6 0.748751 0.155364 0.517130
O O7 0.746074 0.260970 0.355297
O O8 0.728838 0.050610 0.368799
O O9 0.760836 0.771492 0.187058
O O10 0.000000 0.871365 0.119942
O O11 0.500000 0.435052 0.937178
O O12 0.256280 0.358555 0.848333
O O13 0.245025 0.544273 0.902806
O O14 0.253722 0.381740 0.031946
O O15 0.244101 0.842711 0.348263
O O16 0.000000 0.737745 0.292453
O O17 0.756056 0.390357 0.218986
O O18 0.000000 0.330253 0.121724
O O19 0.000000 0.621874 0.817826
O O20 0.000000 0.959247 0.371830
#
# Coordination Sequence:
#
# PCOD9342968 Si02
#       8
#     4   4   4   4   4   4   4   4
#     4  10  19  35  57  86 124 162 201 254 312 366
#     4   9  20  37  56  84 124 162 200 254 309 359
#     4   9  18  34  57  88 122 162 206 248 303 375
#     4  11  23  44  68  93 126 165 210 261 319 378
#     4   9  18  34  58  88 122 162 201 246 304 369
#     4  12  25  42  65  92 120 162 212 261 314 373
#     4  11  25  44  64  92 127 166 213 263 316 374
#     4   9  17  32  55  83 119 161 201 245 303 368
#
# _framework density 20.502362000000002
#
# number of rings (size 3 to 8) (size 9 to 14) (size 15 to 20)
#    0.000    2.000    1.250    2.250    1.750    2.500 
#    0.000    3.750    0.000    0.000    0.000    0.000 
#    0.000    0.000    0.000    0.000    0.000    0.000 
#
# Total GULP energy -178541.291083 kJ/mol
# GULP energy per Si atom -5579.415346 kJ/mol
# Density = 2.045570 g / cm^3
# Si number density = 20.502362 Si / 1000 Ang^3
#
#
#
# Elastic Constant Matrix: (Units=GPa)
#
#
# Indices 1 2 3 4 5 6 
#
# 1 58.0635 15.4046 19.8144 0.0000 0.0000 0.0000
# 2 15.4046 74.4593 16.7322 0.0000 0.0000 0.0000
# 3 19.8144 16.7322 75.6165 0.0000 0.0000 0.0000
# 4 0.0000 0.0000 0.0000 28.1958 0.0000 0.0000
# 5 0.0000 0.0000 0.0000 0.0000 7.5709 0.0000
# 6 0.0000 0.0000 0.0000 0.0000 0.0000 25.7860
#
#
#
# Elastic Compliance Matrix: (Units=1/GPa)
#
#
# Indices 1 2 3 4 5 6 
#
# 1 0.019548 -0.003045 -0.004449 0.000000 0.000000 0.000000
# 2 -0.003045 0.014607 -0.002434 0.000000 0.000000 0.000000
# 3 -0.004449 -0.002434 0.014929 0.000000 0.000000 0.000000
# 4 0.000000 0.000000 0.000000 0.035466 0.000000 0.000000
# 5 0.000000 0.000000 0.000000 0.000000 0.132085 0.000000
# 6 0.000000 0.000000 0.000000 0.000000 0.000000 0.038781
#
#
# Mechanical properties :
#
#
# Convention : Reuss Voigt Hill
#
# Bulk Modulus (GPa) = 34.21249 34.67128 34.44188
# Shear Modulus (GPa) = 17.54294 22.72308 20.13301
#
# Velocity S-wave (km/s) = 2.92833 3.33275 3.13706
# Velocity P-wave (km/s) = 5.30630 5.63535 5.47330
#
# Compressibility (1/GPa) = 0.02922909
#
# Stress axis : x y z
#
# Youngs Moduli (GPa) = 51.15501 68.45985 66.98356
#
# Poissons Ratio (x) = 0.20843 0.29799
# Poissons Ratio (y) = 0.15575 0.16307
# Poissons Ratio (z) = 0.22757 0.16666
#
# Static dielectric constant tensor:
#      x y z
#    x 1.701860 0.000000 0.000000 
#    y 0.000000 1.722900 0.000000 
#    z 0.000000 0.000000 1.781210 
# 
# From -- ./inp_files/5072.got.cif
#   From: 2010.05.17/outbox.cif.g08.bks.cpg/sg31_3_cif.got.tgz:5072.got - 2010.06.03 17:08:30.
