data_PCOD9342669
_publ_section_title
;
Structure prediction by ZEFSAII (Michael W. Deem and Ramdas Pophale) SiO2 
 PCOD9342669
Probable space group: P N C 2
;
_chemical_formula_sum "Si O2"
_cell_formula_units_Z 32
_cell_length_a 12.000000
_cell_length_b 15.000000
_cell_length_c 9.000000
_cell_angle_alpha 90.000000
_cell_angle_beta 90.000000
_cell_angle_gamma 90.000000
_cell_volume 1620.000000
_symmetry_space_group_name_H-M "P N C 2"
_symmetry_group_IT_number 30
_symmetry_cell_setting 'orthorhombic'
loop_
_space_group_symop_operation_xyz
x,y,z
-x,-y,z
-x,1/2+y,1/2+z
x,1/2-y,1/2+z
loop_
_atom_site_type_symbol
_atom_site_label
_atom_site_fract_x
_atom_site_fract_y
_atom_site_fract_z
Si Si1 0.557787 0.853526 0.169510
Si Si2 0.972504 0.663688 0.157641
Si Si3 0.228259 0.853146 0.754876
Si Si4 0.658902 0.727644 0.382794
Si Si5 0.112764 0.332711 0.829550
Si Si6 0.301528 0.828068 0.095781
Si Si7 0.759393 0.517921 0.654950
Si Si8 0.770084 0.553801 0.302274
O O1 0.565823 0.792370 0.315292
O O2 0.431928 0.855956 0.110689
O O3 0.633950 0.942381 0.186382
O O4 0.628526 0.798614 0.048441
O O5 0.942100 0.764225 0.212084
O O6 0.881950 0.595688 0.230198
O O7 0.096319 0.645778 0.218105
O O8 0.959921 0.656313 0.978988
O O9 0.280215 0.770751 0.661084
O O10 0.263338 0.957768 0.733216
O O11 0.259193 0.831205 0.925880
O O12 0.774071 0.781741 0.378912
O O13 0.679473 0.634160 0.295745
O O14 0.154463 0.424104 0.752735
O O15 0.238958 0.911231 0.177280
O O16 0.784472 0.536279 0.479845
#
# Coordination Sequence:
#
# PCOD9342669 Si02
#       8
#     4   4   4   4   4   4   4   4
#     4  10  18  34  58  84 112 150 188 231 288 344
#     4  11  20  36  59  84 113 149 187 231 286 341
#     4  11  24  39  55  79 116 157 193 234 283 343
#     4   9  17  32  58  87 110 138 187 241 287 337
#     4  10  19  34  60  89 114 142 186 242 287 337
#     4  11  23  39  55  80 118 156 193 235 283 345
#     4   9  20  37  60  85 111 145 192 240 288 340
#     4   9  19  37  59  82 110 145 190 242 288 337
#
# _framework density 19.753086
#
# number of rings (size 3 to 8) (size 9 to 14) (size 15 to 20)
#    0.000    2.000    0.000    6.000    0.000    1.000 
#    0.000    5.000    0.000    0.000    0.000    0.000 
#    0.000    0.000    0.000    0.000    0.000    0.000 
#
# Total GULP energy -178581.297411 kJ/mol
# GULP energy per Si atom -5580.665544 kJ/mol
# Density = 1.970813 g / cm^3
# Si number density = 19.753086 Si / 1000 Ang^3
#
#
#
# Elastic Constant Matrix: (Units=GPa)
#
#
# Indices 1 2 3 4 5 6 
#
# 1 37.8222 -2.6574 9.3257 0.0000 0.0000 0.0000
# 2 -2.6574 106.9898 16.8745 0.0000 0.0000 0.0000
# 3 9.3257 16.8745 56.0919 0.0000 0.0000 0.0000
# 4 0.0000 0.0000 0.0000 33.3840 0.0000 0.0000
# 5 0.0000 0.0000 0.0000 0.0000 32.3963 0.0000
# 6 0.0000 0.0000 0.0000 0.0000 0.0000 16.4371
#
#
#
# Elastic Compliance Matrix: (Units=1/GPa)
#
#
# Indices 1 2 3 4 5 6 
#
# 1 0.027794 0.001490 -0.005069 0.000000 0.000000 0.000000
# 2 0.001490 0.009892 -0.003224 0.000000 0.000000 0.000000
# 3 -0.005069 -0.003224 0.019640 0.000000 0.000000 0.000000
# 4 0.000000 0.000000 0.000000 0.029954 0.000000 0.000000
# 5 0.000000 0.000000 0.000000 0.000000 0.030868 0.000000
# 6 0.000000 0.000000 0.000000 0.000000 0.000000 0.060838
#
#
# Mechanical properties :
#
#
# Convention : Reuss Voigt Hill
#
# Bulk Modulus (GPa) = 22.87240 27.55438 25.21339
# Shear Modulus (GPa) = 24.13518 28.26755 26.20137
#
# Velocity S-wave (km/s) = 3.49928 3.78702 3.64599
# Velocity P-wave (km/s) = 5.28497 5.75341 5.52416
#
# Compressibility (1/GPa) = 0.04372081
#
# Stress axis : x y z
#
# Youngs Moduli (GPa) = 35.97886 101.09051 50.91526
#
# Poissons Ratio (x) = -0.15061 0.25810
# Poissons Ratio (y) = -0.05360 0.16413
# Poissons Ratio (z) = 0.18238 0.32588
#
# Static dielectric constant tensor:
#      x y z
#    x 1.698140 0.000000 0.000000 
#    y 0.000000 1.723420 0.000000 
#    z 0.000000 0.000000 1.692890 
# 
# From -- ./inp_files/2478.got.cif
#   From: 2010.05.17/outbox.ucp.g08.bks.cvg/sg30_2_cif.got.tgz:2478.got - 2010.06.11 10:34:04.
