data_PCOD9342064
_publ_section_title
;
Structure prediction by ZEFSAII (Michael W. Deem and Ramdas Pophale) SiO2 
 PCOD9342064
Probable space group: P N C 2
;
_chemical_formula_sum "Si O2"
_cell_formula_units_Z 22
_cell_length_a 7.134832
_cell_length_b 10.561965
_cell_length_c 13.862273
_cell_angle_alpha 90.000000
_cell_angle_beta 90.000000
_cell_angle_gamma 90.000000
_cell_volume 1044.631032
_symmetry_space_group_name_H-M "P N C 2"
_symmetry_group_IT_number 30
_symmetry_cell_setting 'orthorhombic'
loop_
_space_group_symop_operation_xyz
x,y,z
-x,-y,z
-x,1/2+y,1/2+z
x,1/2-y,1/2+z
loop_
_atom_site_type_symbol
_atom_site_label
_atom_site_fract_x
_atom_site_fract_y
_atom_site_fract_z
Si Si1 0.800774 0.210211 0.625000
Si Si2 0.166565 0.735989 0.901714
Si Si3 0.000000 0.500000 0.450500
Si Si4 0.512229 0.354493 0.287046
Si Si5 0.280132 0.493492 0.612796
Si Si6 0.126204 0.280225 0.750801
O O1 0.814729 0.185362 0.510571
O O2 0.628952 0.149726 0.685163
O O3 0.777352 0.362450 0.632094
O O4 0.996975 0.193501 0.680369
O O5 0.368523 0.758342 0.853927
O O6 0.083975 0.879640 0.898830
O O7 0.013653 0.669809 0.834111
O O8 0.166664 0.450251 0.518914
O O9 0.500000 0.500000 0.320664
O O10 0.302434 0.302832 0.282615
O O11 0.500000 0.500000 0.597290
O O12 0.216988 0.398668 0.695461
#
# Coordination Sequence:
#
# PCOD9342064 Si02
#       6
#     4   4   2   4   4   4
#     4  10  22  41  65  91 125 162 211 253 310 372
#     4  10  22  37  62  96 122 159 212 255 304 375
#     4  10  20  38  62  94 118 150 216 266 302 356
#     4  11  24  40  64  91 129 165 207 254 310 372
#     4  11  19  35  67  93 115 156 205 262 314 351
#     4  11  21  38  64  89 128 161 197 262 314 359
#
# _framework density 21.060068999999999
#
# number of rings (size 3 to 8) (size 9 to 14) (size 15 to 20)
#    0.000    1.455    5.455    1.091    0.000    9.455 
#    0.000    0.000   28.000    0.000    0.000    0.000 
#    0.000    0.000    0.000    0.000    0.000    0.000 
#
# Total GULP energy -122816.308244 kJ/mol
# GULP energy per Si atom -5582.559466 kJ/mol
# Density = 2.101214 g / cm^3
# Si number density = 21.060069 Si / 1000 Ang^3
#
#
#
# Elastic Constant Matrix: (Units=GPa)
#
#
# Indices 1 2 3 4 5 6 
#
# 1 178.3274 1.2198 58.1214 0.0000 0.0000 0.0000
# 2 1.2198 22.6800 -11.9566 0.0000 0.0000 0.0000
# 3 58.1214 -11.9566 121.5307 0.0000 0.0000 0.0000
# 4 0.0000 0.0000 0.0000 18.2754 0.0000 0.0000
# 5 0.0000 0.0000 0.0000 0.0000 12.9415 0.0000
# 6 0.0000 0.0000 0.0000 0.0000 0.0000 27.8870
#
#
#
# Elastic Compliance Matrix: (Units=1/GPa)
#
#
# Indices 1 2 3 4 5 6 
#
# 1 0.006743 -0.002176 -0.003439 0.000000 0.000000 0.000000
# 2 -0.002176 0.047206 0.005685 0.000000 0.000000 0.000000
# 3 -0.003439 0.005685 0.010432 0.000000 0.000000 0.000000
# 4 0.000000 0.000000 0.000000 0.054718 0.000000 0.000000
# 5 0.000000 0.000000 0.000000 0.000000 0.077271 0.000000
# 6 0.000000 0.000000 0.000000 0.000000 0.000000 0.035859
#
#
# Mechanical properties :
#
#
# Convention : Reuss Voigt Hill
#
# Bulk Modulus (GPa) = 15.49873 46.36748 30.93310
# Shear Modulus (GPa) = 19.71636 30.16435 24.94035
#
# Velocity S-wave (km/s) = 3.06305 3.78868 3.44502
# Velocity P-wave (km/s) = 4.45926 6.41899 5.52668
#
# Compressibility (1/GPa) = 0.06452143
#
# Stress axis : x y z
#
# Youngs Moduli (GPa) = 148.29269 21.18391 95.85556
#
# Poissons Ratio (x) = 0.04609 0.32965
# Poissons Ratio (y) = 0.32264 -0.54491
# Poissons Ratio (z) = 0.50999 -0.12043
#
# Static dielectric constant tensor:
#      x y z
#    x 1.839640 0.000000 0.000000 
#    y 0.000000 1.768200 0.000000 
#    z 0.000000 0.000000 1.839860 
# 
# From -- ./inp_files/4636.got.cif
#   From: 2010.05.17/outbox.cif.g08.bks.cpg/sg30_3_cif.got.tgz:4636.got - 2010.06.03 17:03:02.
