data_PCOD9342111
_publ_section_title
;
Structure prediction by ZEFSAII (Michael W. Deem and Ramdas Pophale) SiO2 
 PCOD9342111
Probable space group: P N C 2
;
_chemical_formula_sum "Si O2"
_cell_formula_units_Z 28
_cell_length_a 10.150236
_cell_length_b 22.277751
_cell_length_c 5.545741
_cell_angle_alpha 90.000000
_cell_angle_beta 90.000000
_cell_angle_gamma 90.000000
_cell_volume 1254.027524
_symmetry_space_group_name_H-M "P N C 2"
_symmetry_group_IT_number 30
_symmetry_cell_setting 'orthorhombic'
loop_
_space_group_symop_operation_xyz
x,y,z
-x,-y,z
-x,1/2+y,1/2+z
x,1/2-y,1/2+z
loop_
_atom_site_type_symbol
_atom_site_label
_atom_site_fract_x
_atom_site_fract_y
_atom_site_fract_z
Si Si1 0.388119 0.401501 0.020170
Si Si2 0.300455 0.270793 0.961848
Si Si3 0.000000 0.500000 0.737449
Si Si4 0.158203 0.446016 0.333862
Si Si5 0.632382 0.102400 0.854203
Si Si6 0.899624 0.424527 0.120144
Si Si7 0.600349 0.224916 0.043413
Si Si8 0.500000 0.000000 0.156725
O O1 0.293979 0.419740 0.244360
O O2 0.525570 0.385855 0.146282
O O3 0.323653 0.341418 0.912860
O O4 0.418318 0.454564 0.830567
O O5 0.237037 0.240498 0.725739
O O6 0.445572 0.241642 0.011167
O O7 0.124476 0.472646 0.592669
O O8 0.057827 0.562671 0.848294
O O9 0.135506 0.505329 0.173011
O O10 0.031937 0.405902 0.260180
O O11 0.772303 0.106816 0.723117
O O12 0.616224 0.153782 0.052266
O O13 0.594508 0.039890 0.984394
O O14 0.656695 0.246746 0.786541
#
# Coordination Sequence:
#
# PCOD9342111 Si02
#       8
#     4   4   2   4   4   4   4   2
#     4  12  24  37  62  94 132 162 215 275 326 400
#     4  10  20  41  62  88 119 172 224 266 322 389
#     4   8  18  42  64  76 128 182 210 258 312 436
#     4   9  20  38  57  88 123 166 215 246 321 408
#     4  12  24  37  62  94 132 162 215 275 326 400
#     4   9  20  38  57  88 123 166 215 246 321 408
#     4  10  20  41  62  88 119 172 224 266 322 389
#     4  12  26  38  56 104 140 170 194 284 354 390
#
# _framework density 22.328057999999999
#
# number of rings (size 3 to 8) (size 9 to 14) (size 15 to 20)
#    0.000    2.000    2.857    3.857    0.000   10.286 
#    0.000    0.000    0.000    1.714    0.000    0.000 
#    0.000    0.000    0.000    0.000    0.000    0.000 
#
# Total GULP energy -156010.034012 kJ/mol
# GULP energy per Si atom -5571.786929 kJ/mol
# Density = 2.227724 g / cm^3
# Si number density = 22.328058 Si / 1000 Ang^3
#
#
#
# Elastic Constant Matrix: (Units=GPa)
#
#
# Indices 1 2 3 4 5 6 
#
# 1 61.0036 -13.9731 3.2668 0.0000 0.0000 0.0000
# 2 -13.9731 81.5642 15.6308 0.0000 0.0000 0.0000
# 3 3.2668 15.6308 113.4106 0.0000 0.0000 0.0000
# 4 0.0000 0.0000 0.0000 26.5817 0.0000 0.0000
# 5 0.0000 0.0000 0.0000 0.0000 402.0190 0.0000
# 6 0.0000 0.0000 0.0000 0.0000 0.0000 2.5137
#
#
#
# Elastic Compliance Matrix: (Units=1/GPa)
#
#
# Indices 1 2 3 4 5 6 
#
# 1 0.017156 0.003116 -0.000924 0.000000 0.000000 0.000000
# 2 0.003116 0.013159 -0.001903 0.000000 0.000000 0.000000
# 3 -0.000924 -0.001903 0.009106 0.000000 0.000000 0.000000
# 4 0.000000 0.000000 0.000000 0.037620 0.000000 0.000000
# 5 0.000000 0.000000 0.000000 0.000000 0.002487 0.000000
# 6 0.000000 0.000000 0.000000 0.000000 0.000000 0.397823
#
#
# Mechanical properties :
#
#
# Convention : Reuss Voigt Hill
#
# Bulk Modulus (GPa) = 25.00063 29.53638 27.26850
# Shear Modulus (GPa) = 10.20187 102.95979 56.58083
#
# Velocity S-wave (km/s) = 2.13986 6.79797 5.03941
# Velocity P-wave (km/s) = 4.16252 8.65295 6.78971
#
# Compressibility (1/GPa) = 0.03999900
#
# Stress axis : x y z
#
# Youngs Moduli (GPa) = 58.28978 75.99441 109.81223
#
# Poissons Ratio (x) = -0.23680 0.10143
# Poissons Ratio (y) = -0.18163 0.20901
# Poissons Ratio (z) = 0.05384 0.14465
#
# Static dielectric constant tensor:
#      x y z
#    x -0.663050 0.000000 0.000000 
#    y 0.000000 1.797650 0.000000 
#    z 0.000000 0.000000 2.117690 
# 
# From -- ./inp_files/779.got.cif
#   From: 2010.05.17/outbox.cif.g08.bks.cpg/sg30_1_cif.got.tgz:779.got - 2010.06.03 17:03:02.
