data_PCOD9342611
_publ_section_title
;
Structure prediction by ZEFSAII (Michael W. Deem and Ramdas Pophale) SiO2 
 PCOD9342611
Probable space group: P N C 2
;
_chemical_formula_sum "Si O2"
_cell_formula_units_Z 22
_cell_length_a 9.094606
_cell_length_b 7.761029
_cell_length_c 14.716809
_cell_angle_alpha 90.000000
_cell_angle_beta 90.000000
_cell_angle_gamma 90.000000
_cell_volume 1038.763901
_symmetry_space_group_name_H-M "P N C 2"
_symmetry_group_IT_number 30
_symmetry_cell_setting 'orthorhombic'
loop_
_space_group_symop_operation_xyz
x,y,z
-x,-y,z
-x,1/2+y,1/2+z
x,1/2-y,1/2+z
loop_
_atom_site_type_symbol
_atom_site_label
_atom_site_fract_x
_atom_site_fract_y
_atom_site_fract_z
Si Si1 0.675858 0.027020 0.990180
Si Si2 0.000000 0.500000 0.799505
Si Si3 0.500000 0.000000 0.344283
Si Si4 0.620501 0.147834 0.792982
Si Si5 0.786588 0.648520 0.940143
Si Si6 0.830310 0.281511 0.658352
Si Si7 0.000000 0.500000 0.078097
O O1 0.750563 0.840876 0.973316
O O2 0.500000 0.000000 0.005901
O O3 0.689401 0.128846 0.893980
O O4 0.751526 0.126854 0.073521
O O5 0.086943 0.363277 0.862581
O O6 0.121821 0.584436 0.735334
O O7 0.452693 0.835247 0.286720
O O8 0.636833 0.934964 0.403749
O O9 0.731228 0.140594 0.709818
O O10 0.500000 0.000000 0.787380
O O11 0.855563 0.529743 0.017892
O O12 0.974682 0.177484 0.629571
#
# Coordination Sequence:
#
# PCOD9342611 Si02
#       7
#     4   2   2   4   4   4   2
#     4  11  25  47  75 108 142 196 248 307 369 433
#     4  11  26  46  71 110 142 200 233 306 375 438
#     4  12  20  46  78 102 144 188 244 300 360 438
#     4  11  25  46  72 112 146 191 245 306 370 425
#     4  11  24  46  76  99 149 190 242 304 373 432
#     4  12  27  45  72 106 150 190 251 298 367 452
#     4  11  28  44  63 112 138 198 237 296 371 438
#
# _framework density 21.179017999999999
#
# number of rings (size 3 to 8) (size 9 to 14) (size 15 to 20)
#    0.000    0.727    5.455    2.182    6.364    1.455 
#    1.636    0.000    0.000    0.000    0.000    0.000 
#    0.000    0.000    0.000    0.000    0.000    0.000 
#
# Total GULP energy -122948.668637 kJ/mol
# GULP energy per Si atom -5588.575847 kJ/mol
# Density = 2.113081 g / cm^3
# Si number density = 21.179018 Si / 1000 Ang^3
#
#
#
# Elastic Constant Matrix: (Units=GPa)
#
#
# Indices 1 2 3 4 5 6 
#
# 1 88.9292 13.3522 39.5269 0.0000 0.0000 0.0000
# 2 13.3522 82.0884 26.6278 0.0000 0.0000 0.0000
# 3 39.5269 26.6278 99.3979 0.0000 0.0000 0.0000
# 4 0.0000 0.0000 0.0000 68.4315 0.0000 0.0000
# 5 0.0000 0.0000 0.0000 0.0000 10.4649 0.0000
# 6 0.0000 0.0000 0.0000 0.0000 0.0000 38.3710
#
#
#
# Elastic Compliance Matrix: (Units=1/GPa)
#
#
# Indices 1 2 3 4 5 6 
#
# 1 0.013678 -0.000504 -0.005304 0.000000 0.000000 0.000000
# 2 -0.000504 0.013360 -0.003378 0.000000 0.000000 0.000000
# 3 -0.005304 -0.003378 0.013075 0.000000 0.000000 0.000000
# 4 0.000000 0.000000 0.000000 0.014613 0.000000 0.000000
# 5 0.000000 0.000000 0.000000 0.000000 0.095557 0.000000
# 6 0.000000 0.000000 0.000000 0.000000 0.000000 0.026061
#
#
# Mechanical properties :
#
#
# Convention : Reuss Voigt Hill
#
# Bulk Modulus (GPa) = 46.00000 47.71436 46.85718
# Shear Modulus (GPa) = 24.75674 36.18071 30.46872
#
# Velocity S-wave (km/s) = 3.42267 4.13768 3.79704
# Velocity P-wave (km/s) = 6.11443 6.73833 6.43395
#
# Compressibility (1/GPa) = 0.02173913
#
# Stress axis : x y z
#
# Youngs Moduli (GPa) = 73.10892 74.85070 76.48219
#
# Poissons Ratio (x) = 0.03774 0.40568
# Poissons Ratio (y) = 0.03687 0.25839
# Poissons Ratio (z) = 0.38779 0.25288
#
# Static dielectric constant tensor:
#      x y z
#    x 1.740510 0.000000 0.000000 
#    y 0.000000 1.732860 0.000000 
#    z 0.000000 0.000000 1.759490 
# 
# From -- ./inp_files/4984.got.cif
#   From: 2010.05.17/outbox.cif.g08.bks.cpg/sg30_3_cif.got.tgz:4984.got - 2010.06.03 17:03:02.
