data_PCOD9342497
_publ_section_title
;
Structure prediction by ZEFSAII (Michael W. Deem and Ramdas Pophale) SiO2 
 PCOD9342497
Probable space group: P N C 2
;
_chemical_formula_sum "Si O2"
_cell_formula_units_Z 32
_cell_length_a 13.973874
_cell_length_b 8.597641
_cell_length_c 10.706531
_cell_angle_alpha 90.000000
_cell_angle_beta 90.000000
_cell_angle_gamma 90.000000
_cell_volume 1286.307816
_symmetry_space_group_name_H-M "P N C 2"
_symmetry_group_IT_number 30
_symmetry_cell_setting 'orthorhombic'
loop_
_space_group_symop_operation_xyz
x,y,z
-x,-y,z
-x,1/2+y,1/2+z
x,1/2-y,1/2+z
loop_
_atom_site_type_symbol
_atom_site_label
_atom_site_fract_x
_atom_site_fract_y
_atom_site_fract_z
Si Si1 0.753444 0.051624 0.717370
Si Si2 0.903526 0.055338 0.108738
Si Si3 0.873981 0.658550 0.376288
Si Si4 0.763564 0.408869 0.793012
Si Si5 0.304612 0.132292 0.472331
Si Si6 0.504424 0.313366 0.072805
Si Si7 0.948303 0.155339 0.462746
Si Si8 0.573998 0.131741 0.848617
O O1 0.751567 0.239522 0.730624
O O2 0.668606 0.031845 0.818201
O O3 0.841423 0.942891 0.758068
O O4 0.722491 0.982639 0.585929
O O5 0.812943 0.995796 0.183524
O O6 0.918538 0.235649 0.077972
O O7 0.000000 0.000000 0.174247
O O8 0.894734 0.973577 0.977283
O O9 0.785764 0.764568 0.426592
O O10 0.971959 0.756768 0.378194
O O11 0.850825 0.379697 0.889413
O O12 0.681741 0.511611 0.855940
O O13 0.396735 0.226239 0.523477
O O14 0.500000 0.500000 0.064222
O O15 0.576422 0.240943 0.970406
O O16 0.536507 0.286679 0.217879
O O17 0.000000 0.000000 0.505993
O O18 0.500000 0.000000 0.881787
#
# Coordination Sequence:
#
# PCOD9342497 Si02
#       8
#     4   4   4   4   4   4   4   4
#     4  12  26  45  72 105 144 189 243 305 366 438
#     4  10  24  44  64  98 142 190 238 298 354 432
#     4  11  26  42  71 102 146 184 248 297 367 433
#     4  12  25  42  71 101 147 184 248 292 361 437
#     4  12  26  44  72 108 141 191 247 302 368 440
#     4  11  24  47  74 107 147 191 242 305 377 453
#     4  11  22  46  66 100 144 193 241 301 371 431
#     4  11  24  47  74 103 150 189 237 306 373 452
#
# _framework density 24.877405
#
# number of rings (size 3 to 8) (size 9 to 14) (size 15 to 20)
#    0.000    0.750    5.000    2.625    1.750    1.500 
#    0.000    0.000    0.000    0.000    0.000    0.000 
#    0.000    0.000    0.000    0.000    0.000    0.000 
#
# Total GULP energy -178634.298379 kJ/mol
# GULP energy per Si atom -5582.321824 kJ/mol
# Density = 2.482078 g / cm^3
# Si number density = 24.877405 Si / 1000 Ang^3
#
#
#
# Elastic Constant Matrix: (Units=GPa)
#
#
# Indices 1 2 3 4 5 6 
#
# 1 57.8477 -1.1493 -6.1437 0.0000 0.0000 0.0000
# 2 -1.1493 63.6257 33.1072 0.0000 0.0000 0.0000
# 3 -6.1437 33.1072 99.4981 0.0000 0.0000 0.0000
# 4 0.0000 0.0000 0.0000 114.5915 0.0000 0.0000
# 5 0.0000 0.0000 0.0000 0.0000 27.6558 0.0000
# 6 0.0000 0.0000 0.0000 0.0000 0.0000 31.7733
#
#
#
# Elastic Compliance Matrix: (Units=1/GPa)
#
#
# Indices 1 2 3 4 5 6 
#
# 1 0.017405 -0.000296 0.001173 0.000000 0.000000 0.000000
# 2 -0.000296 0.019013 -0.006345 0.000000 0.000000 0.000000
# 3 0.001173 -0.006345 0.012234 0.000000 0.000000 0.000000
# 4 0.000000 0.000000 0.000000 0.008727 0.000000 0.000000
# 5 0.000000 0.000000 0.000000 0.000000 0.036159 0.000000
# 6 0.000000 0.000000 0.000000 0.000000 0.000000 0.031473
#
#
# Mechanical properties :
#
#
# Convention : Reuss Voigt Hill
#
# Bulk Modulus (GPa) = 26.51293 30.28888 28.40090
# Shear Modulus (GPa) = 33.66583 47.81460 40.74022
#
# Velocity S-wave (km/s) = 3.68267 4.38883 4.05117
# Velocity P-wave (km/s) = 5.36315 6.15501 5.77267
#
# Compressibility (1/GPa) = 0.03771744
#
# Stress axis : x y z
#
# Youngs Moduli (GPa) = 57.45311 52.59557 81.73919
#
# Poissons Ratio (x) = 0.01557 -0.09590
# Poissons Ratio (y) = 0.01701 0.51861
# Poissons Ratio (z) = -0.06741 0.33370
#
# Static dielectric constant tensor:
#      x y z
#    x 2.061980 0.000000 0.000000 
#    y 0.000000 2.010910 0.000000 
#    z 0.000000 0.000000 1.960750 
# 
# From -- ./inp_files/4388.got.cif
#   From: 2010.05.17/outbox.cif.g08.bks.cpg/sg30_3_cif.got.tgz:4388.got - 2010.06.03 17:03:02.
