data_PCOD9342971
_publ_section_title
;
Structure prediction by ZEFSAII (Michael W. Deem and Ramdas Pophale) SiO2 
 PCOD9342971
Probable space group: P M N 21
;
_chemical_formula_sum "Si O2"
_cell_formula_units_Z 32
_cell_length_a 7.951329
_cell_length_b 15.026477
_cell_length_c 12.873474
_cell_angle_alpha 90.000000
_cell_angle_beta 90.000000
_cell_angle_gamma 90.000000
_cell_volume 1538.128625
_symmetry_space_group_name_H-M "P M N 21"
_symmetry_group_IT_number 31
_symmetry_cell_setting 'orthorhombic'
loop_
_space_group_symop_operation_xyz
x,y,z
1/2-x,-y,1/2+z
-x,y,z
1/2+x,-y,1/2+z
loop_
_atom_site_type_symbol
_atom_site_label
_atom_site_fract_x
_atom_site_fract_y
_atom_site_fract_z
Si Si1 0.203164 0.834295 0.152160
Si Si2 0.805365 0.639181 0.860274
Si Si3 0.200765 0.642579 0.087701
Si Si4 0.700021 0.449450 0.158751
Si Si5 0.793760 0.940915 0.944928
Si Si6 0.192795 0.829675 0.750756
Si Si7 0.202061 0.133649 0.885621
Si Si8 0.303257 0.729846 0.548619
O O1 0.263028 0.731490 0.144318
O O2 0.256313 0.870701 0.264063
O O3 0.000000 0.837105 0.150061
O O4 0.260043 0.887907 0.048664
O O5 0.726786 0.580972 0.769725
O O6 0.811960 0.738821 0.817310
O O7 0.000000 0.608946 0.872370
O O8 0.724364 0.639264 0.972049
O O9 0.229969 0.545547 0.132700
O O10 0.000000 0.656525 0.079393
O O11 0.500000 0.458098 0.166783
O O12 0.729535 0.365752 0.081733
O O13 0.736059 0.899426 0.834238
O O14 0.000000 0.935233 0.942605
O O15 0.742171 0.043734 0.943662
O O16 0.280508 0.799986 0.644114
O O17 0.000000 0.854797 0.724878
O O18 0.000000 0.136066 0.894491
O O19 0.267170 0.221032 0.946327
O O20 0.500000 0.713491 0.533973
#
# Coordination Sequence:
#
# PCOD9342971 Si02
#       8
#     4   4   4   4   4   4   4   4
#     4  10  21  38  62  87 115 150 195 241 286 346
#     4   8  15  31  53  75 100 137 181 222 276 336
#     4  10  19  35  58  83 111 146 185 234 293 348
#     4  10  21  36  57  83 110 148 195 239 283 344
#     4   9  18  36  60  84 112 151 192 233 286 346
#     4   9  16  32  59  82 104 140 188 238 282 335
#     4  10  23  39  56  82 122 162 193 233 291 347
#     4  10  21  37  55  80 116 154 191 236 287 338
#
# _framework density 20.804503
#
# number of rings (size 3 to 8) (size 9 to 14) (size 15 to 20)
#    0.000    2.500    1.250    1.500    1.750    2.500 
#    0.000    8.125    0.000    0.000    0.000    0.000 
#    0.000    0.000    0.000    0.000    0.000    0.000 
#
# Total GULP energy -178344.109538 kJ/mol
# GULP energy per Si atom -5573.253423 kJ/mol
# Density = 2.075715 g / cm^3
# Si number density = 20.804503 Si / 1000 Ang^3
#
#
#
# Elastic Constant Matrix: (Units=GPa)
#
#
# Indices 1 2 3 4 5 6 
#
# 1 12.6958 -4.5029 -3.4986 0.0000 0.0000 0.0000
# 2 -4.5029 102.6224 47.9983 0.0000 0.0000 0.0000
# 3 -3.4986 47.9983 68.9501 0.0000 0.0000 0.0000
# 4 0.0000 0.0000 0.0000 20.5162 0.0000 0.0000
# 5 0.0000 0.0000 0.0000 0.0000 13.8675 0.0000
# 6 0.0000 0.0000 0.0000 0.0000 0.0000 15.4912
#
#
#
# Elastic Compliance Matrix: (Units=1/GPa)
#
#
# Indices 1 2 3 4 5 6 
#
# 1 0.080279 0.002398 0.002404 0.000000 0.000000 0.000000
# 2 0.002398 0.014521 -0.009987 0.000000 0.000000 0.000000
# 3 0.002404 -0.009987 0.021577 0.000000 0.000000 0.000000
# 4 0.000000 0.000000 0.000000 0.048742 0.000000 0.000000
# 5 0.000000 0.000000 0.000000 0.000000 0.072111 0.000000
# 6 0.000000 0.000000 0.000000 0.000000 0.000000 0.064553
#
#
# Mechanical properties :
#
#
# Convention : Reuss Voigt Hill
#
# Bulk Modulus (GPa) = 9.43325 29.36244 19.39785
# Shear Modulus (GPa) = 14.38902 19.59309 16.99105
#
# Velocity S-wave (km/s) = 2.63274 3.07216 2.86090
# Velocity P-wave (km/s) = 3.71293 5.16995 4.50079
#
# Compressibility (1/GPa) = 0.10600803
#
# Stress axis : x y z
#
# Youngs Moduli (GPa) = 12.45654 68.86779 46.34528
#
# Poissons Ratio (x) = -0.16516 -0.11141
# Poissons Ratio (y) = -0.02987 0.46283
# Poissons Ratio (z) = -0.02995 0.68775
#
# Static dielectric constant tensor:
#      x y z
#    x 1.762160 0.000000 0.000000 
#    y 0.000000 1.767010 0.000000 
#    z 0.000000 0.000000 1.776060 
# 
# From -- ./inp_files/3671.got.cif
#   From: 2010.05.17/outbox.cif.g08.bks.cpg/sg31_2_cif.got.tgz:3671.got - 2010.06.03 17:08:30.
