data_PCOD9342738
_publ_section_title
;
Structure prediction by ZEFSAII (Michael W. Deem and Ramdas Pophale) SiO2 
 PCOD9342738
Probable space group: P M N 21
;
_chemical_formula_sum "Si O2"
_cell_formula_units_Z 32
_cell_length_a 13.504692
_cell_length_b 10.300276
_cell_length_c 13.362686
_cell_angle_alpha 90.000000
_cell_angle_beta 90.000000
_cell_angle_gamma 90.000000
_cell_volume 1858.777082
_symmetry_space_group_name_H-M "P M N 21"
_symmetry_group_IT_number 31
_symmetry_cell_setting 'orthorhombic'
loop_
_space_group_symop_operation_xyz
x,y,z
1/2-x,-y,1/2+z
-x,y,z
1/2+x,-y,1/2+z
loop_
_atom_site_type_symbol
_atom_site_label
_atom_site_fract_x
_atom_site_fract_y
_atom_site_fract_z
Si Si1 0.114087 0.076098 0.002830
Si Si2 0.618042 0.770303 0.871282
Si Si3 0.380254 0.430059 0.684867
Si Si4 0.119153 0.509719 0.412007
Si Si5 0.813237 0.291123 0.147147
Si Si6 0.119131 0.863057 0.170971
Si Si7 0.115834 0.748604 0.552844
Si Si8 0.694940 0.053091 0.888463
O O1 0.130574 0.210610 0.061812
O O2 0.000000 0.059124 0.975405
O O3 0.142883 0.963508 0.082675
O O4 0.189685 0.072542 0.911556
O O5 0.500000 0.783453 0.883689
O O6 0.654205 0.638040 0.924621
O O7 0.640804 0.746997 0.753955
O O8 0.667783 0.903104 0.903557
O O9 0.500000 0.445864 0.678130
O O10 0.351397 0.437707 0.802597
O O11 0.329879 0.554977 0.635410
O O12 0.354660 0.286308 0.647212
O O13 0.141413 0.614136 0.495959
O O14 0.000000 0.501981 0.408329
O O15 0.698515 0.246734 0.139153
O O16 0.165773 0.905558 0.276505
O O17 0.000000 0.867750 0.185278
O O18 0.136837 0.859988 0.470434
O O19 0.000000 0.750123 0.581542
#
# Coordination Sequence:
#
# PCOD9342738 Si02
#       8
#     4   4   4   4   4   4   4   4
#     4  10  21  35  51  74 105 135 170 210 256 306
#     4  10  18  31  52  76  99 127 168 212 249 293
#     4   9  16  28  49  74  95 118 159 207 248 289
#     4   8  15  27  45  69  96 122 154 204 254 285
#     4  10  19  30  51  76  97 133 166 204 250 298
#     4  10  18  32  55  78 102 132 167 215 254 293
#     4  10  19  32  48  74 103 130 165 207 253 300
#     4  11  20  31  54  77 101 133 172 209 257 298
#
# _framework density 17.215620000000001
#
# number of rings (size 3 to 8) (size 9 to 14) (size 15 to 20)
#    0.000    2.250    2.500    3.000    0.000    1.000 
#    0.000    0.625    0.000    0.750    0.000    0.000 
#    0.000    0.000    0.000    0.000    0.000    0.000 
#
# Total GULP energy -178353.342320 kJ/mol
# GULP energy per Si atom -5573.541948 kJ/mol
# Density = 1.717644 g / cm^3
# Si number density = 17.215620 Si / 1000 Ang^3
#
#
#
# Elastic Constant Matrix: (Units=GPa)
#
#
# Indices 1 2 3 4 5 6 
#
# 1 56.9685 5.8111 6.6925 0.0000 0.0000 0.0000
# 2 5.8111 102.3433 9.3076 0.0000 0.0000 0.0000
# 3 6.6925 9.3076 15.0566 0.0000 0.0000 0.0000
# 4 0.0000 0.0000 0.0000 12.5314 0.0000 0.0000
# 5 0.0000 0.0000 0.0000 0.0000 22.9601 0.0000
# 6 0.0000 0.0000 0.0000 0.0000 0.0000 14.9549
#
#
#
# Elastic Compliance Matrix: (Units=1/GPa)
#
#
# Indices 1 2 3 4 5 6 
#
# 1 0.018531 -0.000321 -0.008038 0.000000 0.000000 0.000000
# 2 -0.000321 0.010359 -0.006261 0.000000 0.000000 0.000000
# 3 -0.008038 -0.006261 0.073859 0.000000 0.000000 0.000000
# 4 0.000000 0.000000 0.000000 0.079800 0.000000 0.000000
# 5 0.000000 0.000000 0.000000 0.000000 0.043554 0.000000
# 6 0.000000 0.000000 0.000000 0.000000 0.000000 0.066868
#
#
# Mechanical properties :
#
#
# Convention : Reuss Voigt Hill
#
# Bulk Modulus (GPa) = 13.60387 24.22118 18.91253
# Shear Modulus (GPa) = 14.42118 20.25977 17.34048
#
# Velocity S-wave (km/s) = 2.89741 3.43421 3.17717
# Velocity P-wave (km/s) = 4.37179 5.46122 4.94659
#
# Compressibility (1/GPa) = 0.07350848
#
# Stress axis : x y z
#
# Youngs Moduli (GPa) = 53.96468 96.53769 13.53927
#
# Poissons Ratio (x) = 0.03100 0.10883
# Poissons Ratio (y) = 0.01733 0.08477
# Poissons Ratio (z) = 0.43378 0.60439
#
# Static dielectric constant tensor:
#      x y z
#    x 1.576250 0.000000 0.000000 
#    y 0.000000 1.624500 0.000000 
#    z 0.000000 0.000000 1.571800 
# 
# From -- ./inp_files/5465.got.cif
#   From: 2010.05.17/outbox.cif.g08.bks.cpg/sg31_3_cif.got.tgz:5465.got - 2010.06.03 17:08:30.
