data_PCOD9342454
_publ_section_title
;
Structure prediction by ZEFSAII (Michael W. Deem and Ramdas Pophale) SiO2 
 PCOD9342454
Probable space group: P N C 2
;
_chemical_formula_sum "Si O2"
_cell_formula_units_Z 18
_cell_length_a 5.215208
_cell_length_b 15.496721
_cell_length_c 9.223627
_cell_angle_alpha 90.000000
_cell_angle_beta 90.000000
_cell_angle_gamma 90.000000
_cell_volume 745.440836
_symmetry_space_group_name_H-M "P N C 2"
_symmetry_group_IT_number 30
_symmetry_cell_setting 'orthorhombic'
loop_
_space_group_symop_operation_xyz
x,y,z
-x,-y,z
-x,1/2+y,1/2+z
x,1/2-y,1/2+z
loop_
_atom_site_type_symbol
_atom_site_label
_atom_site_fract_x
_atom_site_fract_y
_atom_site_fract_z
Si Si1 0.332917 0.148557 0.941340
Si Si2 0.000000 0.500000 0.500112
Si Si3 0.242025 0.552761 0.785247
Si Si4 0.318198 0.788425 0.484090
Si Si5 0.188908 0.267870 0.158702
O O1 0.204508 0.057045 0.911528
O O2 0.615837 0.190220 0.933014
O O3 0.197067 0.213158 0.827091
O O4 0.250765 0.170170 0.107352
O O5 0.818555 0.448276 0.613657
O O6 0.500000 0.500000 0.811602
O O7 0.272155 0.647155 0.851951
O O8 0.000000 0.500000 0.850211
O O9 0.572397 0.814548 0.576972
O O10 0.078482 0.792230 0.589502
#
# Coordination Sequence:
#
# PCOD9342454 Si02
#       5
#     4   2   4   4   4
#     4  10  26  45  75 108 153 199 258 317 390 465
#     4  10  26  46  74 112 158 192 258 328 388 442
#     4  10  23  43  74 108 142 193 254 316 374 460
#     4  10  24  44  75 103 142 199 254 307 382 471
#     4  10  25  42  76 103 147 197 253 313 372 475
#
# _framework density 24.146785999999999
#
# number of rings (size 3 to 8) (size 9 to 14) (size 15 to 20)
#    2.000    0.000    0.000    1.333    9.333    1.778 
#    6.000    0.000    0.000    0.000    0.000    0.000 
#    0.000    0.000    0.000    0.000    0.000    0.000 
#
# Total GULP energy -100346.669061 kJ/mol
# GULP energy per Si atom -5574.814948 kJ/mol
# Density = 2.409183 g / cm^3
# Si number density = 24.146786 Si / 1000 Ang^3
#
#
#
# Elastic Constant Matrix: (Units=GPa)
#
#
# Indices 1 2 3 4 5 6 
#
# 1 184.8795 38.3936 29.4712 0.0000 0.0000 0.0000
# 2 38.3936 87.5087 22.1695 0.0000 0.0000 0.0000
# 3 29.4712 22.1695 71.2064 0.0000 0.0000 0.0000
# 4 0.0000 0.0000 0.0000 42.7774 0.0000 0.0000
# 5 0.0000 0.0000 0.0000 0.0000 31.2859 0.0000
# 6 0.0000 0.0000 0.0000 0.0000 0.0000 39.3224
#
#
#
# Elastic Compliance Matrix: (Units=1/GPa)
#
#
# Indices 1 2 3 4 5 6 
#
# 1 0.006169 -0.002236 -0.001857 0.000000 0.000000 0.000000
# 2 -0.002236 0.013217 -0.003189 0.000000 0.000000 0.000000
# 3 -0.001857 -0.003189 0.015805 0.000000 0.000000 0.000000
# 4 0.000000 0.000000 0.000000 0.023377 0.000000 0.000000
# 5 0.000000 0.000000 0.000000 0.000000 0.031963 0.000000
# 6 0.000000 0.000000 0.000000 0.000000 0.000000 0.025431
#
#
# Mechanical properties :
#
#
# Convention : Reuss Voigt Hill
#
# Bulk Modulus (GPa) = 48.48305 58.18478 53.33392
# Shear Modulus (GPa) = 36.38936 39.58118 37.98527
#
# Velocity S-wave (km/s) = 3.88623 4.05308 3.97053
# Velocity P-wave (km/s) = 6.34501 6.78616 6.56928
#
# Compressibility (1/GPa) = 0.02062576
#
# Stress axis : x y z
#
# Youngs Moduli (GPa) = 162.09102 75.66274 63.26996
#
# Poissons Ratio (x) = 0.16920 0.11750
# Poissons Ratio (y) = 0.36248 0.20179
# Poissons Ratio (z) = 0.30103 0.24131
#
# Static dielectric constant tensor:
#      x y z
#    x 2.010600 0.000000 0.000000 
#    y 0.000000 1.982750 0.000000 
#    z 0.000000 0.000000 1.911720 
# 
# From -- ./inp_files/1288.got.cif
#   From: 2010.05.17/outbox.cif.g08.bks.cpg/sg30_1_cif.got.tgz:1288.got - 2010.06.03 17:03:02.
