data_PCOD9342834
_publ_section_title
;
Structure prediction by ZEFSAII (Michael W. Deem and Ramdas Pophale) SiO2 
 PCOD9342834
Probable space group: P M N 21
;
_chemical_formula_sum "Si O2"
_cell_formula_units_Z 32
_cell_length_a 15.324283
_cell_length_b 8.995125
_cell_length_c 10.952705
_cell_angle_alpha 90.000000
_cell_angle_beta 90.000000
_cell_angle_gamma 90.000000
_cell_volume 1509.762928
_symmetry_space_group_name_H-M "P M N 21"
_symmetry_group_IT_number 31
_symmetry_cell_setting 'orthorhombic'
loop_
_space_group_symop_operation_xyz
x,y,z
1/2-x,-y,1/2+z
-x,y,z
1/2+x,-y,1/2+z
loop_
_atom_site_type_symbol
_atom_site_label
_atom_site_fract_x
_atom_site_fract_y
_atom_site_fract_z
Si Si1 0.847783 0.814662 0.428040
Si Si2 0.637611 0.841193 0.405901
Si Si3 0.637610 0.841193 0.934203
Si Si4 0.347782 0.185339 0.412064
Si Si5 0.400021 0.148107 0.670052
Si Si6 0.144359 0.183102 0.170052
Si Si7 0.903912 0.348716 0.670052
Si Si8 0.669160 0.343987 0.170052
O O1 0.742641 0.822092 0.415496
O O2 0.882398 0.766688 0.295496
O O3 0.872040 0.716018 0.544174
O O4 0.880018 0.983485 0.448947
O O5 0.602018 0.790189 0.538192
O O6 0.605754 0.750907 0.290238
O O7 0.619983 0.016515 0.391157
O O8 0.742640 0.822091 0.924609
O O9 0.602017 0.790189 0.801910
O O10 0.605753 0.750906 0.049865
O O11 0.382397 0.233313 0.544609
O O12 0.372039 0.283984 0.295931
O O13 0.500000 0.095750 0.670051
O O14 0.340566 0.997740 0.670052
O O15 0.234181 0.273871 0.170052
O O16 0.833363 0.479226 0.670052
O O17 0.000000 0.419254 0.670054
#
# Coordination Sequence:
#
# PCOD9342834 Si02
#       8
#     4   4   4   4   4   4   4   4
#     4   9  18  36  63  86 107 144 194 242 284 334
#     4   9  18  37  62  85 109 143 191 240 287 339
#     4   9  18  37  62  85 109 143 191 240 287 339
#     4   9  18  36  63  86 107 144 194 242 284 334
#     4  10  19  31  54  90 120 140 178 244 307 345
#     4   8  18  35  59  85 106 140 193 242 285 331
#     4  12  26  38  52  84 127 161 187 225 283 345
#     4  10  21  38  59  83 115 157 202 235 269 333
#
# _framework density 21.195381999999999
#
# number of rings (size 3 to 8) (size 9 to 14) (size 15 to 20)
#    0.000    2.500    0.000    3.000    0.000   11.000 
#    0.000    2.500    0.000    0.000    0.000    0.000 
#    0.000    0.000    0.000    0.000    0.000    0.000 
#
# Total GULP energy -178532.754544 kJ/mol
# GULP energy per Si atom -5579.148579 kJ/mol
# Density = 2.114714 g / cm^3
# Si number density = 21.195382 Si / 1000 Ang^3
#
#
#
# Elastic Constant Matrix: (Units=GPa)
#
#
# Indices 1 2 3 4 5 6 
#
# 1 56.8255 7.9328 12.8699 0.0000 0.0000 0.0000
# 2 7.9328 40.9407 59.6921 0.0000 0.0000 0.0000
# 3 12.8699 59.6921 237.0028 0.0000 0.0000 0.0000
# 4 0.0000 0.0000 0.0000 2.1401 0.0000 0.0000
# 5 0.0000 0.0000 0.0000 0.0000 -11.9279 0.0000
# 6 0.0000 0.0000 0.0000 0.0000 0.0000 10.0861
#
#
#
# Elastic Compliance Matrix: (Units=1/GPa)
#
#
# Indices 1 2 3 4 5 6 
#
# 1 0.018091 -0.003276 -0.000157 0.000000 0.000000 0.000000
# 2 -0.003276 0.039194 -0.009693 0.000000 0.000000 0.000000
# 3 -0.000157 -0.009693 0.006669 0.000000 0.000000 0.000000
# 4 0.000000 0.000000 0.000000 0.467257 0.000000 0.000000
# 5 0.000000 0.000000 0.000000 0.000000 -0.083837 0.000000
# 6 0.000000 0.000000 0.000000 0.000000 0.000000 0.099147
#
#
# Mechanical properties :
#
#
# Convention : Reuss Voigt Hill
#
# Bulk Modulus (GPa) = 26.52517 55.08429 40.80473
# Shear Modulus (GPa) = 8.54204 17.01129 12.77666
#
# Velocity S-wave (km/s) = 2.00970 2.83608 2.45787
# Velocity P-wave (km/s) = 4.23402 6.06380 5.22956
#
# Compressibility (1/GPa) = 0.03770004
#
# Stress axis : x y z
#
# Youngs Moduli (GPa) = 55.27709 25.51440 149.94011
#
# Poissons Ratio (x) = 0.08358 0.02358
# Poissons Ratio (y) = 0.18109 1.45344
# Poissons Ratio (z) = 0.00869 0.24732
#
# Static dielectric constant tensor:
#      x y z
#    x 2.322610 0.000000 0.000000 
#    y 0.000000 1.708290 0.000000 
#    z 0.000000 0.000000 1.801040 
# 
# From -- ./inp_files/4427.got.cif
#   From: 2010.05.17/outbox.cif.g08.bks.cpg/sg31_3_cif.got.tgz:4427.got - 2010.06.03 17:08:30.
