data_PCOD9342796
_publ_section_title
;
Structure prediction by ZEFSAII (Michael W. Deem and Ramdas Pophale) SiO2 
 PCOD9342796
Probable space group: P M N 21
;
_chemical_formula_sum "Si O2"
_cell_formula_units_Z 32
_cell_length_a 7.670906
_cell_length_b 15.078000
_cell_length_c 12.583010
_cell_angle_alpha 90.000000
_cell_angle_beta 90.000000
_cell_angle_gamma 90.000000
_cell_volume 1455.375104
_symmetry_space_group_name_H-M "P M N 21"
_symmetry_group_IT_number 31
_symmetry_cell_setting 'orthorhombic'
loop_
_space_group_symop_operation_xyz
x,y,z
1/2-x,-y,1/2+z
-x,y,z
1/2+x,-y,1/2+z
loop_
_atom_site_type_symbol
_atom_site_label
_atom_site_fract_x
_atom_site_fract_y
_atom_site_fract_z
Si Si1 0.798419 0.623925 0.808740
Si Si2 0.298262 0.134348 0.582409
Si Si3 0.788059 0.058262 0.031672
Si Si4 0.290190 0.839056 0.320942
Si Si5 0.785227 0.667716 0.041769
Si Si6 0.701540 0.767105 0.648510
Si Si7 0.703424 0.439909 0.748041
Si Si8 0.300893 0.336013 0.940197
O O1 0.784460 0.717147 0.747717
O O2 0.714412 0.545443 0.740388
O O3 0.000000 0.600342 0.816124
O O4 0.727233 0.629587 0.928402
O O5 0.500000 0.134282 0.546946
O O6 0.286733 0.134193 0.709311
O O7 0.225792 0.229938 0.548746
O O8 0.219322 0.040622 0.547613
O O9 0.725250 0.137717 0.109461
O O10 0.000000 0.056612 0.044459
O O11 0.752820 0.090624 0.912830
O O12 0.500000 0.828004 0.313308
O O13 0.208068 0.747502 0.360338
O O14 0.726074 0.611810 0.145028
O O15 0.000000 0.667273 0.042617
O O16 0.500000 0.780276 0.674706
O O17 0.712743 0.700930 0.546640
O O18 0.500000 0.414693 0.754370
O O19 0.777180 0.412166 0.864295
O O20 0.500000 0.357562 0.970548
#
# Coordination Sequence:
#
# PCOD9342796 Si02
#       8
#     4   4   4   4   4   4   4   4
#     4  11  24  39  58  87 118 157 200 239 292 360
#     4  10  18  36  61  82 110 155 199 243 291 350
#     4   8  18  34  56  82 111 152 197 234 290 350
#     4  10  19  33  52  83 118 149 189 243 299 349
#     4   9  20  39  60  84 115 149 192 242 295 347
#     4  10  21  39  58  83 122 158 191 243 301 348
#     4  10  21  39  60  85 113 148 192 243 300 350
#     4  10  19  35  61  86 109 146 198 245 290 352
#
# _framework density 21.987459999999999
#
# number of rings (size 3 to 8) (size 9 to 14) (size 15 to 20)
#    0.000    2.250    1.250    2.250    1.750    2.000 
#    0.000    6.875    0.000    0.000    0.000    0.000 
#    0.000    0.000    0.000    0.000    0.000    0.000 
#
# Total GULP energy -178556.844733 kJ/mol
# GULP energy per Si atom -5579.901398 kJ/mol
# Density = 2.193742 g / cm^3
# Si number density = 21.987460 Si / 1000 Ang^3
#
#
#
# Elastic Constant Matrix: (Units=GPa)
#
#
# Indices 1 2 3 4 5 6 
#
# 1 45.6850 1.8340 -1.3413 0.0000 0.0000 0.0000
# 2 1.8340 128.8905 46.0467 0.0000 0.0000 0.0000
# 3 -1.3413 46.0467 63.8980 0.0000 0.0000 0.0000
# 4 0.0000 0.0000 0.0000 22.7420 0.0000 0.0000
# 5 0.0000 0.0000 0.0000 0.0000 -7.5202 0.0000
# 6 0.0000 0.0000 0.0000 0.0000 0.0000 13.3573
#
#
#
# Elastic Compliance Matrix: (Units=1/GPa)
#
#
# Indices 1 2 3 4 5 6 
#
# 1 0.021942 -0.000642 0.000923 0.000000 0.000000 0.000000
# 2 -0.000642 0.010467 -0.007556 0.000000 0.000000 0.000000
# 3 0.000923 -0.007556 0.021115 0.000000 0.000000 0.000000
# 4 0.000000 0.000000 0.000000 0.043972 0.000000 0.000000
# 5 0.000000 0.000000 0.000000 0.000000 -0.132976 0.000000
# 6 0.000000 0.000000 0.000000 0.000000 0.000000 0.074866
#
#
# Mechanical properties :
#
#
# Convention : Reuss Voigt Hill
#
# Bulk Modulus (GPa) = 25.65854 36.83914 31.24884
# Shear Modulus (GPa) = 74.70825 18.51141 46.60983
#
# Velocity S-wave (km/s) = 5.83536 2.90471 4.60916
# Velocity P-wave (km/s) = 7.55625 5.29536 6.52448
#
# Compressibility (1/GPa) = 0.03897338
#
# Stress axis : x y z
#
# Youngs Moduli (GPa) = 45.57485 95.53613 47.36033
#
# Poissons Ratio (x) = 0.06134 -0.04373
# Poissons Ratio (y) = 0.02926 0.35788
# Poissons Ratio (z) = -0.04208 0.72192
#
# Static dielectric constant tensor:
#      x y z
#    x 1.833660 0.000000 0.000000 
#    y 0.000000 1.823670 0.000000 
#    z 0.000000 0.000000 1.789710 
# 
# From -- ./inp_files/3576.got.cif
#   From: 2010.05.17/outbox.cif.g08.bks.cpg/sg31_2_cif.got.tgz:3576.got - 2010.06.03 17:08:30.
