data_PCOD9342496
_publ_section_title
;
Structure prediction by ZEFSAII (Michael W. Deem and Ramdas Pophale) SiO2 
 PCOD9342496
Probable space group: P N C 2
;
_chemical_formula_sum "Si O2"
_cell_formula_units_Z 18
_cell_length_a 13.222609
_cell_length_b 5.248241
_cell_length_c 10.303713
_cell_angle_alpha 90.000000
_cell_angle_beta 90.000000
_cell_angle_gamma 90.000000
_cell_volume 715.030684
_symmetry_space_group_name_H-M "P N C 2"
_symmetry_group_IT_number 30
_symmetry_cell_setting 'orthorhombic'
loop_
_space_group_symop_operation_xyz
x,y,z
-x,-y,z
-x,1/2+y,1/2+z
x,1/2-y,1/2+z
loop_
_atom_site_type_symbol
_atom_site_label
_atom_site_fract_x
_atom_site_fract_y
_atom_site_fract_z
Si Si1 0.837005 0.517081 0.485450
Si Si2 0.660459 0.747796 0.644979
Si Si3 0.679279 0.234468 0.803109
Si Si4 0.981099 0.257189 0.636561
Si Si5 0.500000 0.500000 0.476560
O O1 0.749287 0.684187 0.545743
O O2 0.784963 0.371792 0.365352
O O3 0.937122 0.695473 0.518177
O O4 0.871220 0.284365 0.578239
O O5 0.675035 0.530627 0.758904
O O6 0.558202 0.689886 0.570891
O O7 0.664280 0.038734 0.685470
O O8 0.584145 0.154956 0.894420
O O9 0.000000 0.500000 0.725908
O O10 0.000000 0.000000 0.707319
#
# Coordination Sequence:
#
# PCOD9342496 Si02
#       5
#     4   4   4   4   2
#     4   8  22  38  60  84 126 150 192 246 282 338
#     4  11  24  38  63  89 116 154 199 235 293 348
#     4  11  24  38  63  89 116 154 199 235 293 348
#     4   8  18  34  60  82 116 160 186 230 302 330
#     4  10  24  44  60  86 124 152 188 252 288 346
#
# _framework density 25.173745
#
# number of rings (size 3 to 8) (size 9 to 14) (size 15 to 20)
#    1.333    0.889    0.000    1.333    6.222    7.111 
#    0.000    8.889    0.000    0.000    0.000    0.000 
#    0.000    0.000    0.000    0.000    0.000    0.000 
#
# Total GULP energy -100251.021966 kJ/mol
# GULP energy per Si atom -5569.501220 kJ/mol
# Density = 2.511645 g / cm^3
# Si number density = 25.173745 Si / 1000 Ang^3
#
#
#
# Elastic Constant Matrix: (Units=GPa)
#
#
# Indices 1 2 3 4 5 6 
#
# 1 85.7738 2.1723 12.4326 0.0000 0.0000 0.0000
# 2 2.1723 111.4322 -2.4434 0.0000 0.0000 0.0000
# 3 12.4326 -2.4434 46.3671 0.0000 0.0000 0.0000
# 4 0.0000 0.0000 0.0000 14.8502 0.0000 0.0000
# 5 0.0000 0.0000 0.0000 0.0000 -5.0575 0.0000
# 6 0.0000 0.0000 0.0000 0.0000 0.0000 25.1845
#
#
#
# Elastic Compliance Matrix: (Units=1/GPa)
#
#
# Indices 1 2 3 4 5 6 
#
# 1 0.012141 -0.000308 -0.003272 0.000000 0.000000 0.000000
# 2 -0.000308 0.008992 0.000557 0.000000 0.000000 0.000000
# 3 -0.003272 0.000557 0.022474 0.000000 0.000000 0.000000
# 4 0.000000 0.000000 0.000000 0.067339 0.000000 0.000000
# 5 0.000000 0.000000 0.000000 0.000000 -0.197726 0.000000
# 6 0.000000 0.000000 0.000000 0.000000 0.000000 0.039707
#
#
# Mechanical properties :
#
#
# Convention : Reuss Voigt Hill
#
# Bulk Modulus (GPa) = 26.62434 29.76623 28.19529
# Shear Modulus (GPa) = -175.39554 22.42287 -76.48633
#
# Velocity S-wave (km/s) = -8.35615 2.98774 -5.51809
# Velocity P-wave (km/s) = 9.08301 4.87361 5.41983
#
# Compressibility (1/GPa) = 0.03755962
#
# Stress axis : x y z
#
# Youngs Moduli (GPa) = 82.36836 111.20650 44.49670
#
# Poissons Ratio (x) = 0.03430 0.14557
# Poissons Ratio (y) = 0.02540 -0.02477
# Poissons Ratio (z) = 0.26947 -0.06189
#
# Static dielectric constant tensor:
#      x y z
#    x 2.108240 0.000000 0.000000 
#    y 0.000000 2.059280 0.000000 
#    z 0.000000 0.000000 2.009770 
# 
# From -- ./inp_files/4177.got.cif
#   From: 2010.05.17/outbox.cif.g08.bks.cpg/sg30_3_cif.got.tgz:4177.got - 2010.06.03 17:03:02.
