data_PCOD9342420
_publ_section_title
;
Structure prediction by ZEFSAII (Michael W. Deem and Ramdas Pophale) SiO2 
 PCOD9342420
Probable space group: P N C 2
;
_chemical_formula_sum "Si O2"
_cell_formula_units_Z 22
_cell_length_a 15.258788
_cell_length_b 5.011932
_cell_length_c 12.782687
_cell_angle_alpha 90.000000
_cell_angle_beta 90.000000
_cell_angle_gamma 90.000000
_cell_volume 977.568871
_symmetry_space_group_name_H-M "P N C 2"
_symmetry_group_IT_number 30
_symmetry_cell_setting 'orthorhombic'
loop_
_space_group_symop_operation_xyz
x,y,z
-x,-y,z
-x,1/2+y,1/2+z
x,1/2-y,1/2+z
loop_
_atom_site_type_symbol
_atom_site_label
_atom_site_fract_x
_atom_site_fract_y
_atom_site_fract_z
Si Si1 0.000000 0.500000 0.400820
Si Si2 0.596551 0.415895 0.718225
Si Si3 0.500000 0.500000 0.367965
Si Si4 0.724102 0.238511 0.030215
Si Si5 0.000000 0.000000 0.264826
Si Si6 0.083761 0.793806 0.583856
Si Si7 0.661980 0.742954 0.905819
O O1 0.929556 0.380458 0.479637
O O2 0.968430 0.749819 0.332683
O O3 0.500000 0.500000 0.678924
O O4 0.566043 0.181117 0.798685
O O5 0.660859 0.328030 0.626845
O O6 0.646544 0.649233 0.784660
O O7 0.436712 0.321649 0.436452
O O8 0.687566 0.475737 0.962206
O O9 0.723659 0.979670 0.951594
O O10 0.815185 0.361400 0.075277
O O11 0.072477 0.883367 0.187264
O O12 0.000000 0.000000 0.585310
#
# Coordination Sequence:
#
# PCOD9342420 Si02
#       7
#     2   4   2   4   2   4   4
#     4  11  24  45  76 100 136 197 240 297 378 426
#     4  10  25  45  72 104 149 189 246 298 362 435
#     4  10  22  48  68 104 152 190 242 290 352 448
#     4  12  29  43  75 109 144 193 241 302 369 428
#     4  11  24  47  76 102 136 195 238 305 370 430
#     4  11  27  49  72 112 147 185 259 302 361 456
#     4  11  26  46  68 108 142 191 237 300 350 441
#
# _framework density 22.504808000000001
#
# number of rings (size 3 to 8) (size 9 to 14) (size 15 to 20)
#    0.000    1.091    3.636    0.000   11.455    2.909 
#    0.000    1.818    0.000    0.000    0.000    0.000 
#    0.000    0.000    0.000    0.000    0.000    0.000 
#
# Total GULP energy -122642.690062 kJ/mol
# GULP energy per Si atom -5574.667730 kJ/mol
# Density = 2.245359 g / cm^3
# Si number density = 22.504808 Si / 1000 Ang^3
#
#
#
# Elastic Constant Matrix: (Units=GPa)
#
#
# Indices 1 2 3 4 5 6 
#
# 1 114.9606 25.3471 29.9858 0.0000 0.0000 0.0000
# 2 25.3471 135.5641 27.7586 0.0000 0.0000 0.0000
# 3 29.9858 27.7586 58.9710 0.0000 0.0000 0.0000
# 4 0.0000 0.0000 0.0000 501.6434 0.0000 0.0000
# 5 0.0000 0.0000 0.0000 0.0000 56.9471 0.0000
# 6 0.0000 0.0000 0.0000 0.0000 0.0000 25.2362
#
#
#
# Elastic Compliance Matrix: (Units=1/GPa)
#
#
# Indices 1 2 3 4 5 6 
#
# 1 0.010133 -0.000929 -0.004715 0.000000 0.000000 0.000000
# 2 -0.000929 0.008249 -0.003410 0.000000 0.000000 0.000000
# 3 -0.004715 -0.003410 0.020960 0.000000 0.000000 0.000000
# 4 0.000000 0.000000 0.000000 0.001993 0.000000 0.000000
# 5 0.000000 0.000000 0.000000 0.000000 0.017560 0.000000
# 6 0.000000 0.000000 0.000000 0.000000 0.000000 0.039626
#
#
# Mechanical properties :
#
#
# Convention : Reuss Voigt Hill
#
# Bulk Modulus (GPa) = 47.09665 52.85320 49.97493
# Shear Modulus (GPa) = 40.41746 131.85896 86.13821
#
# Velocity S-wave (km/s) = 4.24246 7.66281 6.19343
# Velocity P-wave (km/s) = 6.70602 10.09098 8.56734
#
# Compressibility (1/GPa) = 0.02123293
#
# Stress axis : x y z
#
# Youngs Moduli (GPa) = 98.68336 121.23242 47.70891
#
# Poissons Ratio (x) = 0.11265 0.22496
# Poissons Ratio (y) = 0.09169 0.16270
# Poissons Ratio (z) = 0.46532 0.41344
#
# Static dielectric constant tensor:
#      x y z
#    x 1.892070 0.000000 0.000000 
#    y 0.000000 1.832480 0.000000 
#    z 0.000000 0.000000 1.875260 
# 
# From -- ./inp_files/4326.got.cif
#   From: 2010.05.17/outbox.cif.g08.bks.cpg/sg30_3_cif.got.tgz:4326.got - 2010.06.03 17:03:02.
