data_PCOD9342558
_publ_section_title
;
Structure prediction by ZEFSAII (Michael W. Deem and Ramdas Pophale) SiO2 
 PCOD9342558
Probable space group: P N C 2
;
_chemical_formula_sum "Si O2"
_cell_formula_units_Z 30
_cell_length_a 16.224702
_cell_length_b 10.327575
_cell_length_c 8.783155
_cell_angle_alpha 90.000000
_cell_angle_beta 90.000000
_cell_angle_gamma 90.000000
_cell_volume 1471.721496
_symmetry_space_group_name_H-M "P N C 2"
_symmetry_group_IT_number 30
_symmetry_cell_setting 'orthorhombic'
loop_
_space_group_symop_operation_xyz
x,y,z
-x,-y,z
-x,1/2+y,1/2+z
x,1/2-y,1/2+z
loop_
_atom_site_type_symbol
_atom_site_label
_atom_site_fract_x
_atom_site_fract_y
_atom_site_fract_z
Si Si1 0.792175 0.782587 0.528530
Si Si2 0.385680 0.380031 0.071909
Si Si3 0.500000 0.500000 0.575846
Si Si4 0.020191 0.357201 0.053373
Si Si5 0.382765 0.562129 0.808298
Si Si6 0.047114 0.884346 0.213196
Si Si7 0.493300 0.289730 0.347026
Si Si8 0.212040 0.454444 0.725510
O O1 0.709724 0.845514 0.602608
O O2 0.786020 0.629511 0.569383
O O3 0.788927 0.842414 0.357044
O O4 0.883985 0.823361 0.582529
O O5 0.444824 0.363859 0.214857
O O6 0.390949 0.515994 0.982651
O O7 0.423238 0.282139 0.946512
O O8 0.427993 0.462494 0.692106
O O9 0.532202 0.389832 0.465613
O O10 0.961356 0.248469 0.124000
O O11 0.000000 0.500000 0.113583
O O12 0.000212 0.361306 0.872982
O O13 0.434599 0.693404 0.792825
O O14 0.289743 0.546320 0.757713
O O15 0.135227 0.948980 0.239483
O O16 0.000000 0.000000 0.125929
#
# Coordination Sequence:
#
# PCOD9342558 Si02
#       8
#     4   4   2   4   4   4   4   4
#     4  11  20  38  68  96 127 165 220 276 317 399
#     4  11  22  38  67  92 124 170 220 267 330 386
#     4  12  24  40  64  90 126 174 220 264 334 396
#     4  11  22  42  65  97 134 174 219 269 341 401
#     4  11  24  44  64  92 133 171 217 291 323 391
#     4  11  22  43  67  95 131 177 217 276 338 401
#     4  12  23  41  62  93 128 171 218 265 333 396
#     4  11  23  43  68  97 134 173 224 275 339 395
#
# _framework density 20.384291000000001
#
# number of rings (size 3 to 8) (size 9 to 14) (size 15 to 20)
#    0.000    0.800    6.667    2.400    1.867    0.533 
#    4.800    1.333    0.000    0.000    0.000    0.000 
#    0.000    0.000    0.000    0.000    0.000    0.000 
#
# Total GULP energy -167253.988588 kJ/mol
# GULP energy per Si atom -5575.132953 kJ/mol
# Density = 2.033790 g / cm^3
# Si number density = 20.384291 Si / 1000 Ang^3
#
#
#
# Elastic Constant Matrix: (Units=GPa)
#
#
# Indices 1 2 3 4 5 6 
#
# 1 137.7520 23.7532 22.1697 0.0000 0.0000 0.0000
# 2 23.7532 86.1535 25.7031 0.0000 0.0000 0.0000
# 3 22.1697 25.7031 66.1149 0.0000 0.0000 0.0000
# 4 0.0000 0.0000 0.0000 24.3527 0.0000 0.0000
# 5 0.0000 0.0000 0.0000 0.0000 8.0380 0.0000
# 6 0.0000 0.0000 0.0000 0.0000 0.0000 26.2630
#
#
#
# Elastic Compliance Matrix: (Units=1/GPa)
#
#
# Indices 1 2 3 4 5 6 
#
# 1 0.007855 -0.001561 -0.002027 0.000000 0.000000 0.000000
# 2 -0.001561 0.013440 -0.004702 0.000000 0.000000 0.000000
# 3 -0.002027 -0.004702 0.017633 0.000000 0.000000 0.000000
# 4 0.000000 0.000000 0.000000 0.041063 0.000000 0.000000
# 5 0.000000 0.000000 0.000000 0.000000 0.124409 0.000000
# 6 0.000000 0.000000 0.000000 0.000000 0.000000 0.038076
#
#
# Mechanical properties :
#
#
# Convention : Reuss Voigt Hill
#
# Bulk Modulus (GPa) = 44.74567 48.14138 46.44353
# Shear Modulus (GPa) = 18.76134 26.29037 22.52585
#
# Velocity S-wave (km/s) = 3.03707 3.59519 3.32785
# Velocity P-wave (km/s) = 5.85637 6.39547 6.13185
#
# Compressibility (1/GPa) = 0.02234853
#
# Stress axis : x y z
#
# Youngs Moduli (GPa) = 127.31063 74.40348 56.71269
#
# Poissons Ratio (x) = 0.11613 0.11496
# Poissons Ratio (y) = 0.19872 0.26664
# Poissons Ratio (z) = 0.25807 0.34982
#
# Static dielectric constant tensor:
#      x y z
#    x 1.768990 0.000000 0.000000 
#    y 0.000000 1.783540 0.000000 
#    z 0.000000 0.000000 1.745530 
# 
# From -- ./inp_files/2681.got.cif
#   From: 2010.05.17/outbox.cif.g08.bks.cpg/sg30_2_cif.got.tgz:2681.got - 2010.06.03 17:03:02.
