data_PCOD9342076
_publ_section_title
;
Structure prediction by ZEFSAII (Michael W. Deem and Ramdas Pophale) SiO2 
 PCOD9342076
Probable space group: P N C 2
;
_chemical_formula_sum "Si O2"
_cell_formula_units_Z 32
_cell_length_a 5.087737
_cell_length_b 31.708045
_cell_length_c 8.728122
_cell_angle_alpha 90.000000
_cell_angle_beta 90.000000
_cell_angle_gamma 90.000000
_cell_volume 1408.039788
_symmetry_space_group_name_H-M "P N C 2"
_symmetry_group_IT_number 30
_symmetry_cell_setting 'orthorhombic'
loop_
_space_group_symop_operation_xyz
x,y,z
-x,-y,z
-x,1/2+y,1/2+z
x,1/2-y,1/2+z
loop_
_atom_site_type_symbol
_atom_site_label
_atom_site_fract_x
_atom_site_fract_y
_atom_site_fract_z
Si Si1 0.041911 0.952597 0.248190
Si Si2 0.484554 0.251350 0.623445
Si Si3 0.163646 0.135897 0.360029
Si Si4 0.192048 0.208820 0.853430
Si Si5 0.450182 0.046476 0.036631
Si Si6 0.524468 0.128197 0.863014
Si Si7 0.842614 0.179714 0.103611
Si Si8 0.680010 0.159228 0.549075
O O1 0.333813 0.947328 0.175066
O O2 0.940485 0.912487 0.346189
O O3 0.838244 0.951914 0.107881
O O4 0.000000 0.000000 0.316881
O O5 0.213016 0.238522 0.707859
O O6 0.409787 0.269970 0.460715
O O7 0.658202 0.288394 0.698860
O O8 0.621165 0.206537 0.604742
O O9 0.456199 0.142684 0.428177
O O10 0.081794 0.158691 0.198696
O O11 0.965074 0.157958 0.476474
O O12 0.282563 0.160414 0.833272
O O13 0.942602 0.206890 0.959405
O O14 0.500000 0.000000 0.975434
O O15 0.460139 0.081029 0.905934
O O16 0.678907 0.131799 0.704193
O O17 0.672982 0.144280 0.016946
#
# Coordination Sequence:
#
# PCOD9342076 Si02
#       8
#     4   4   4   4   4   4   4   4
#     4  10  21  39  68 101 131 164 220 277 327 391
#     4  10  24  42  56  97 123 171 222 273 329 390
#     4  12  25  44  67  99 129 180 219 275 330 407
#     4  10  23  38  65  85 126 165 216 272 327 379
#     4  10  20  38  68 100 128 165 217 275 322 390
#     4  10  23  43  61  98 127 172 216 272 330 399
#     4  11  24  40  73  88 125 175 232 271 323 394
#     4  11  28  42  64  93 142 173 216 272 342 390
#
# _framework density 22.72663
#
# number of rings (size 3 to 8) (size 9 to 14) (size 15 to 20)
#    0.000    1.500    1.250    2.250   10.500    2.000 
#    0.000    1.250    0.000    0.000    0.000    0.000 
#    0.000    0.000    0.000    0.000    0.000    0.000 
#
# Total GULP energy -178749.607816 kJ/mol
# GULP energy per Si atom -5585.925244 kJ/mol
# Density = 2.267490 g / cm^3
# Si number density = 22.726630 Si / 1000 Ang^3
#
#
#
# Elastic Constant Matrix: (Units=GPa)
#
#
# Indices 1 2 3 4 5 6 
#
# 1 70.7749 -4.0242 9.9350 0.0000 0.0000 0.0000
# 2 -4.0242 105.5010 25.6184 0.0000 0.0000 0.0000
# 3 9.9350 25.6184 61.3045 0.0000 0.0000 0.0000
# 4 0.0000 0.0000 0.0000 26.7028 0.0000 0.0000
# 5 0.0000 0.0000 0.0000 0.0000 32.3076 0.0000
# 6 0.0000 0.0000 0.0000 0.0000 0.0000 17.2865
#
#
#
# Elastic Compliance Matrix: (Units=1/GPa)
#
#
# Indices 1 2 3 4 5 6 
#
# 1 0.014607 0.001260 -0.002894 0.000000 0.000000 0.000000
# 2 0.001260 0.010658 -0.004658 0.000000 0.000000 0.000000
# 3 -0.002894 -0.004658 0.018727 0.000000 0.000000 0.000000
# 4 0.000000 0.000000 0.000000 0.037449 0.000000 0.000000
# 5 0.000000 0.000000 0.000000 0.000000 0.030952 0.000000
# 6 0.000000 0.000000 0.000000 0.000000 0.000000 0.057849
#
#
# Mechanical properties :
#
#
# Convention : Reuss Voigt Hill
#
# Bulk Modulus (GPa) = 31.83825 33.40431 32.62128
# Shear Modulus (GPa) = 25.86710 28.99612 27.43161
#
# Velocity S-wave (km/s) = 3.37736 3.57580 3.47800
# Velocity P-wave (km/s) = 5.40818 5.63726 5.52391
#
# Compressibility (1/GPa) = 0.03140877
#
# Stress axis : x y z
#
# Youngs Moduli (GPa) = 68.45968 93.82890 53.39759
#
# Poissons Ratio (x) = -0.11821 0.15452
# Poissons Ratio (y) = -0.08625 0.24872
# Poissons Ratio (z) = 0.19810 0.43704
#
# Static dielectric constant tensor:
#      x y z
#    x 1.878860 0.000000 0.000000 
#    y 0.000000 1.885630 0.000000 
#    z 0.000000 0.000000 1.880690 
# 
# From -- ./inp_files/1488.got.cif
#   From: 2010.05.17/outbox.cif.g08.bks.cpg/sg30_1_cif.got.tgz:1488.got - 2010.06.03 17:03:02.
