data_PCOD9342818
_publ_section_title
;
Structure prediction by ZEFSAII (Michael W. Deem and Ramdas Pophale) SiO2 
 PCOD9342818
Probable space group: P M N 21
;
_chemical_formula_sum "Si O2"
_cell_formula_units_Z 32
_cell_length_a 7.337152
_cell_length_b 11.228221
_cell_length_c 14.508364
_cell_angle_alpha 90.000000
_cell_angle_beta 90.000000
_cell_angle_gamma 90.000000
_cell_volume 1195.244933
_symmetry_space_group_name_H-M "P M N 21"
_symmetry_group_IT_number 31
_symmetry_cell_setting 'orthorhombic'
loop_
_space_group_symop_operation_xyz
x,y,z
1/2-x,-y,1/2+z
-x,y,z
1/2+x,-y,1/2+z
loop_
_atom_site_type_symbol
_atom_site_label
_atom_site_fract_x
_atom_site_fract_y
_atom_site_fract_z
Si Si1 0.777117 0.798472 0.442220
Si Si2 0.276225 0.689054 0.063117
Si Si3 0.218141 0.934533 0.279151
Si Si4 0.790107 0.545872 0.457926
Si Si5 0.779369 0.705023 0.733536
Si Si6 0.780395 0.440643 0.741035
Si Si7 0.285163 0.073543 0.111994
Si Si8 0.709764 0.848590 0.905665
O O1 0.711651 0.674637 0.483672
O O2 0.720200 0.907066 0.508406
O O3 0.000000 0.792913 0.439179
O O4 0.715965 0.822872 0.338083
O O5 0.500000 0.695367 0.062837
O O6 0.218724 0.659615 0.167901
O O7 0.215898 0.572800 0.003870
O O8 0.213503 0.802221 0.002536
O O9 0.263413 0.956906 0.173614
O O10 0.286700 0.047659 0.339961
O O11 0.000000 0.936100 0.281634
O O12 0.784797 0.554069 0.346569
O O13 0.000000 0.546715 0.488719
O O14 0.729473 0.572415 0.703079
O O15 0.712682 0.814105 0.670702
O O16 0.712988 0.735064 0.836642
O O17 0.000000 0.709184 0.735433
O O18 0.000000 0.434819 0.744664
O O19 0.500000 0.090271 0.106017
O O20 0.500000 0.883977 0.923786
#
# Coordination Sequence:
#
# PCOD9342818 Si02
#       8
#     4   4   4   4   4   4   4   4
#     4   9  18  34  54  74 100 134 170 204 244 297
#     4   9  17  30  49  72  97 129 164 196 241 299
#     4   9  18  33  52  74 100 128 162 208 253 289
#     4  10  19  34  54  73  98 134 171 204 241 296
#     4   9  16  27  47  71  98 125 156 202 245 281
#     4  10  19  31  47  73 105 132 158 199 254 299
#     4   9  17  32  54  78  97 128 174 208 241 292
#     4   9  16  29  49  69  91 122 161 199 237 287
#
# _framework density 26.772755
#
# number of rings (size 3 to 8) (size 9 to 14) (size 15 to 20)
#    0.000    2.750    1.250    0.750    0.000    3.000 
#    2.250    3.125    0.000    1.500    0.000    0.000 
#    0.000    0.000    0.000    0.000    0.000    0.000 
#
# Total GULP energy -178764.068270 kJ/mol
# GULP energy per Si atom -5586.377133 kJ/mol
# Density = 2.671182 g / cm^3
# Si number density = 26.772755 Si / 1000 Ang^3
#
#
#
# Elastic Constant Matrix: (Units=GPa)
#
#
# Indices 1 2 3 4 5 6 
#
# 1 103.0776 -4.3683 -11.0552 0.0000 0.0000 0.0000
# 2 -4.3683 55.3145 25.5763 0.0000 0.0000 0.0000
# 3 -11.0552 25.5763 152.8988 0.0000 0.0000 0.0000
# 4 0.0000 0.0000 0.0000 55.8894 0.0000 0.0000
# 5 0.0000 0.0000 0.0000 0.0000 6.2268 0.0000
# 6 0.0000 0.0000 0.0000 0.0000 0.0000 1.9328
#
#
#
# Elastic Compliance Matrix: (Units=1/GPa)
#
#
# Indices 1 2 3 4 5 6 
#
# 1 0.009789 0.000483 0.000627 0.000000 0.000000 0.000000
# 2 0.000483 0.019618 -0.003247 0.000000 0.000000 0.000000
# 3 0.000627 -0.003247 0.007129 0.000000 0.000000 0.000000
# 4 0.000000 0.000000 0.000000 0.017892 0.000000 0.000000
# 5 0.000000 0.000000 0.000000 0.000000 0.160595 0.000000
# 6 0.000000 0.000000 0.000000 0.000000 0.000000 0.517374
#
#
# Mechanical properties :
#
#
# Convention : Reuss Voigt Hill
#
# Bulk Modulus (GPa) = 30.99560 36.84404 33.91982
# Shear Modulus (GPa) = 6.68964 32.88569 19.78767
#
# Velocity S-wave (km/s) = 1.58243 3.50855 2.72158
# Velocity P-wave (km/s) = 3.86539 5.49590 4.75111
#
# Compressibility (1/GPa) = 0.03226264
#
# Stress axis : x y z
#
# Youngs Moduli (GPa) = 102.15388 50.97413 140.27816
#
# Poissons Ratio (x) = -0.02463 -0.08795
# Poissons Ratio (y) = -0.04936 0.45543
# Poissons Ratio (z) = -0.06405 0.16550
#
# Static dielectric constant tensor:
#      x y z
#    x 2.072720 0.000000 0.000000 
#    y 0.000000 2.119980 0.000000 
#    z 0.000000 0.000000 2.103670 
# 
# From -- ./inp_files/4050.got.cif
#   From: 2010.05.17/outbox.cif.g08.bks.cpg/sg31_3_cif.got.tgz:4050.got - 2010.06.03 17:08:30.
