data_PCOD9342237
_publ_section_title
;
Structure prediction by ZEFSAII (Michael W. Deem and Ramdas Pophale) SiO2 
 PCOD9342237
Probable space group: P N C 2
;
_chemical_formula_sum "Si O2"
_cell_formula_units_Z 32
_cell_length_a 8.744044
_cell_length_b 15.576809
_cell_length_c 12.282521
_cell_angle_alpha 90.000000
_cell_angle_beta 90.000000
_cell_angle_gamma 90.000000
_cell_volume 1672.932215
_symmetry_space_group_name_H-M "P N C 2"
_symmetry_group_IT_number 30
_symmetry_cell_setting 'orthorhombic'
loop_
_space_group_symop_operation_xyz
x,y,z
-x,-y,z
-x,1/2+y,1/2+z
x,1/2-y,1/2+z
loop_
_atom_site_type_symbol
_atom_site_label
_atom_site_fract_x
_atom_site_fract_y
_atom_site_fract_z
Si Si1 0.817486 0.645832 0.015050
Si Si2 0.318700 0.331367 0.555694
Si Si3 0.318700 0.831367 0.055694
Si Si4 0.316602 0.000000 0.668556
Si Si5 0.822278 0.398855 0.768561
Si Si6 0.313812 0.500000 0.420949
Si Si7 0.182514 0.854168 0.515050
Si Si8 0.822278 0.898855 0.268561
O O1 0.765061 0.743602 0.026382
O O2 0.742328 0.583494 0.103950
O O3 0.000000 0.638411 0.025851
O O4 0.776044 0.615845 0.893162
O O5 0.500000 0.321178 0.539678
O O6 0.265548 0.413503 0.484242
O O7 0.281388 0.351721 0.681063
O O8 0.281388 0.851721 0.181063
O O9 0.234940 0.743602 0.026382
O O10 0.265549 0.913503 0.984241
O O11 0.265573 0.000000 0.794827
O O12 0.257672 0.916506 0.603949
O O13 0.500000 0.000000 0.667668
O O14 0.815182 0.500000 0.745975
O O15 0.000000 0.371094 0.756428
O O16 0.776044 0.384155 0.893162
O O17 0.500000 0.500000 0.423468
#
# Coordination Sequence:
#
# PCOD9342237 Si02
#       8
#     4   4   4   4   4   4   4   4
#     4  11  24  43  63  92 127 164 206 255 310 371
#     4  11  23  41  64  93 124 161 206 257 311 368
#     4  11  23  41  64  93 124 161 206 257 311 368
#     4  11  23  42  65  92 124 165 208 255 310 369
#     4  10  21  41  65  89 121 159 205 258 309 367
#     4   9  22  42  61  88 126 159 200 255 308 361
#     4  11  24  43  63  92 127 164 206 255 310 371
#     4  10  21  41  65  89 121 159 205 258 309 367
#
# _framework density 19.128088999999999
#
# number of rings (size 3 to 8) (size 9 to 14) (size 15 to 20)
#    0.000    1.500    2.500    1.875    3.500    2.000 
#    0.000    3.750    0.000    0.000    0.000    0.000 
#    0.000    0.000    0.000    0.000    0.000    0.000 
#
# Total GULP energy -178807.204172 kJ/mol
# GULP energy per Si atom -5587.725130 kJ/mol
# Density = 1.908455 g / cm^3
# Si number density = 19.128089 Si / 1000 Ang^3
#
#
#
# Elastic Constant Matrix: (Units=GPa)
#
#
# Indices 1 2 3 4 5 6 
#
# 1 30.4578 18.3057 32.1340 0.0000 0.0000 0.0000
# 2 18.3057 109.8273 39.4812 0.0000 0.0000 0.0000
# 3 32.1340 39.4812 108.2013 0.0000 0.0000 0.0000
# 4 0.0000 0.0000 0.0000 25.5888 0.0000 0.0000
# 5 0.0000 0.0000 0.0000 0.0000 30.2476 0.0000
# 6 0.0000 0.0000 0.0000 0.0000 0.0000 8.8832
#
#
#
# Elastic Compliance Matrix: (Units=1/GPa)
#
#
# Indices 1 2 3 4 5 6 
#
# 1 0.048874 -0.003370 -0.013285 0.000000 0.000000 0.000000
# 2 -0.003370 0.010712 -0.002908 0.000000 0.000000 0.000000
# 3 -0.013285 -0.002908 0.014248 0.000000 0.000000 0.000000
# 4 0.000000 0.000000 0.000000 0.039080 0.000000 0.000000
# 5 0.000000 0.000000 0.000000 0.000000 0.033061 0.000000
# 6 0.000000 0.000000 0.000000 0.000000 0.000000 0.112573
#
#
# Mechanical properties :
#
#
# Convention : Reuss Voigt Hill
#
# Bulk Modulus (GPa) = 28.81147 47.59203 38.20175
# Shear Modulus (GPa) = 16.16849 23.51494 19.84172
#
# Velocity S-wave (km/s) = 2.91052 3.51000 3.22422
# Velocity P-wave (km/s) = 5.13711 6.43129 5.82028
#
# Compressibility (1/GPa) = 0.03470840
#
# Stress axis : x y z
#
# Youngs Moduli (GPa) = 20.46074 93.35071 70.18296
#
# Poissons Ratio (x) = 0.31463 0.93238
# Poissons Ratio (y) = 0.06896 0.20408
# Poissons Ratio (z) = 0.27182 0.27145
#
# Static dielectric constant tensor:
#      x y z
#    x 1.693710 0.000000 0.000000 
#    y 0.000000 1.675200 0.000000 
#    z 0.000000 0.000000 1.649430 
# 
# From -- ./inp_files/3780.got.cif
#   From: 2010.05.17/outbox.cif.g08.bks.cpg/sg30_2_cif.got.tgz:3780.got - 2010.06.03 17:03:02.
