data_PCOD9342253
_publ_section_title
;
Structure prediction by ZEFSAII (Michael W. Deem and Ramdas Pophale) SiO2 
 PCOD9342253
Probable space group: P N C 2
;
_chemical_formula_sum "Si O2"
_cell_formula_units_Z 32
_cell_length_a 8.143003
_cell_length_b 12.037165
_cell_length_c 14.370493
_cell_angle_alpha 90.000000
_cell_angle_beta 90.000000
_cell_angle_gamma 90.000000
_cell_volume 1408.576621
_symmetry_space_group_name_H-M "P N C 2"
_symmetry_group_IT_number 30
_symmetry_cell_setting 'orthorhombic'
loop_
_space_group_symop_operation_xyz
x,y,z
-x,-y,z
-x,1/2+y,1/2+z
x,1/2-y,1/2+z
loop_
_atom_site_type_symbol
_atom_site_label
_atom_site_fract_x
_atom_site_fract_y
_atom_site_fract_z
Si Si1 0.137978 0.339094 0.917290
Si Si2 0.308235 0.159358 0.046838
Si Si3 0.200836 0.786369 0.186986
Si Si4 0.839731 0.754386 0.712138
Si Si5 0.778731 0.086226 0.383968
Si Si6 0.829590 0.435991 0.502927
Si Si7 0.488914 0.131893 0.735634
Si Si8 0.408968 0.715957 0.431321
O O1 0.153451 0.276807 0.819501
O O2 0.231709 0.455660 0.901729
O O3 0.948544 0.373067 0.931238
O O4 0.203677 0.255181 0.994900
O O5 0.228101 0.152652 0.148790
O O6 0.294424 0.038060 0.004029
O O7 0.494535 0.191600 0.025866
O O8 0.209248 0.869576 0.276901
O O9 0.179403 0.865882 0.097736
O O10 0.356580 0.702564 0.193805
O O11 0.027951 0.719208 0.188231
O O12 0.690070 0.838255 0.694836
O O13 0.628307 0.154853 0.424925
O O14 0.764285 0.349454 0.426917
O O15 0.000000 0.500000 0.488319
O O16 0.490278 0.172636 0.843245
O O17 0.500000 0.000000 0.730040
#
# Coordination Sequence:
#
# PCOD9342253 Si02
#       8
#     4   4   4   4   4   4   4   4
#     4  10  21  42  68  96 137 182 237 288 354 418
#     4  12  23  40  68 102 136 184 225 295 353 424
#     4  10  23  44  71 104 135 183 245 300 363 418
#     4  11  23  44  71 102 137 180 243 287 359 421
#     4   9  21  41  67  95 136 185 231 297 348 419
#     4  12  23  41  71 100 139 175 237 301 351 425
#     4  11  24  47  68  99 148 190 234 294 350 440
#     4  11  24  42  64 103 143 184 238 285 360 427
#
# _framework density 22.717970000000001
#
# number of rings (size 3 to 8) (size 9 to 14) (size 15 to 20)
#    0.000    1.250    2.500    3.375    1.750    1.000 
#    4.500    1.250    0.000    0.000    0.000    0.000 
#    0.000    0.000    0.000    0.000    0.000    0.000 
#
# Total GULP energy -178622.502104 kJ/mol
# GULP energy per Si atom -5581.953191 kJ/mol
# Density = 2.266626 g / cm^3
# Si number density = 22.717970 Si / 1000 Ang^3
#
#
#
# Elastic Constant Matrix: (Units=GPa)
#
#
# Indices 1 2 3 4 5 6 
#
# 1 126.7696 39.0176 26.3349 0.0000 0.0000 0.0000
# 2 39.0176 100.9135 -5.1733 0.0000 0.0000 0.0000
# 3 26.3349 -5.1733 43.3147 0.0000 0.0000 0.0000
# 4 0.0000 0.0000 0.0000 14.5907 0.0000 0.0000
# 5 0.0000 0.0000 0.0000 0.0000 28.4755 0.0000
# 6 0.0000 0.0000 0.0000 0.0000 0.0000 33.4669
#
#
#
# Elastic Compliance Matrix: (Units=1/GPa)
#
#
# Indices 1 2 3 4 5 6 
#
# 1 0.010749 -0.004519 -0.007075 0.000000 0.000000 0.000000
# 2 -0.004519 0.011870 0.004165 0.000000 0.000000 0.000000
# 3 -0.007075 0.004165 0.027886 0.000000 0.000000 0.000000
# 4 0.000000 0.000000 0.000000 0.068537 0.000000 0.000000
# 5 0.000000 0.000000 0.000000 0.000000 0.035118 0.000000
# 6 0.000000 0.000000 0.000000 0.000000 0.000000 0.029880
#
#
# Mechanical properties :
#
#
# Convention : Reuss Voigt Hill
#
# Bulk Modulus (GPa) = 28.05236 43.48403 35.76819
# Shear Modulus (GPa) = 23.72153 29.36120 26.54137
#
# Velocity S-wave (km/s) = 3.23488 3.59893 3.42175
# Velocity P-wave (km/s) = 5.13103 6.03755 5.60266
#
# Compressibility (1/GPa) = 0.03564762
#
# Stress axis : x y z
#
# Youngs Moduli (GPa) = 93.03354 84.24523 35.86066
#
# Poissons Ratio (x) = 0.38068 0.25371
# Poissons Ratio (y) = 0.42039 -0.14936
# Poissons Ratio (z) = 0.65820 -0.35088
#
# Static dielectric constant tensor:
#      x y z
#    x 1.918080 0.000000 0.000000 
#    y 0.000000 1.800390 0.000000 
#    z 0.000000 0.000000 1.905090 
# 
# From -- ./inp_files/5217.got.cif
#   From: 2010.05.17/outbox.cif.g08.bks.cpg/sg30_3_cif.got.tgz:5217.got - 2010.06.03 17:03:02.
