data_PCOD9342698
_publ_section_title
;
Structure prediction by ZEFSAII (Michael W. Deem and Ramdas Pophale) SiO2 
 PCOD9342698
Probable space group: P M N 21
;
_chemical_formula_sum "Si O2"
_cell_formula_units_Z 32
_cell_length_a 30.622400
_cell_length_b 9.523421
_cell_length_c 5.532019
_cell_angle_alpha 90.000000
_cell_angle_beta 90.000000
_cell_angle_gamma 90.000000
_cell_volume 1613.302741
_symmetry_space_group_name_H-M "P M N 21"
_symmetry_group_IT_number 31
_symmetry_cell_setting 'orthorhombic'
loop_
_space_group_symop_operation_xyz
x,y,z
1/2-x,-y,1/2+z
-x,y,z
1/2+x,-y,1/2+z
loop_
_atom_site_type_symbol
_atom_site_label
_atom_site_fract_x
_atom_site_fract_y
_atom_site_fract_z
Si Si1 0.682998 0.215287 0.547370
Si Si2 0.448076 0.565867 0.423002
Si Si3 0.949062 0.763242 0.377661
Si Si4 0.229251 0.043843 0.004425
Si Si5 0.419269 0.558437 0.926237
Si Si6 0.321503 0.458426 0.914352
Si Si7 0.590943 0.250799 0.375541
Si Si8 0.246395 0.336254 0.214325
O O1 0.672927 0.309184 0.780126
O O2 0.643214 0.247438 0.367439
O O3 0.730232 0.264990 0.446544
O O4 0.686802 0.047868 0.575255
O O5 0.500000 0.551429 0.450249
O O6 0.427729 0.629879 0.666935
O O7 0.425932 0.411699 0.393178
O O8 0.437584 0.634304 0.163535
O O9 0.943652 0.592777 0.394498
O O10 0.928956 0.813448 0.632033
O O11 0.000000 0.796007 0.361530
O O12 0.924826 0.811288 0.132915
O O13 0.232297 0.210169 0.038175
O O14 0.261174 0.991684 0.223918
O O15 0.368668 0.520671 0.968412
O O16 0.295690 0.568869 0.749448
O O17 0.286057 0.431808 0.120701
#
# Coordination Sequence:
#
# PCOD9342698 Si02
#       8
#     4   4   4   4   4   4   4   4
#     4  11  21  36  52  75 106 146 180 226 266 324
#     4  10  17  29  45  68 103 133 163 205 267 329
#     4  10  17  28  44  68 103 132 160 205 267 326
#     4  10  22  38  57  75 104 140 187 221 263 312
#     4  10  19  28  44  69  99 137 162 209 261 320
#     4  12  21  34  53  76 111 142 183 226 275 319
#     4  10  18  27  45  68  97 133 166 205 261 315
#     4  11  23  36  54  79 106 149 190 229 272 321
#
# _framework density 19.835087000000001
#
# number of rings (size 3 to 8) (size 9 to 14) (size 15 to 20)
#    0.000    1.500    5.000    5.250    0.000    0.000 
#    0.000    0.000    0.000    0.000    0.000    0.000 
#    0.000   11.000    0.000    0.000    0.000    0.000 
#
# Total GULP energy -178209.517327 kJ/mol
# GULP energy per Si atom -5569.047416 kJ/mol
# Density = 1.978994 g / cm^3
# Si number density = 19.835087 Si / 1000 Ang^3
#
#
#
# Elastic Constant Matrix: (Units=GPa)
#
#
# Indices 1 2 3 4 5 6 
#
# 1 105.9409 19.1693 15.2870 0.0000 0.0000 0.0000
# 2 19.1693 21.7436 8.8882 0.0000 0.0000 0.0000
# 3 15.2870 8.8882 122.4162 0.0000 0.0000 0.0000
# 4 0.0000 0.0000 0.0000 8.3043 0.0000 0.0000
# 5 0.0000 0.0000 0.0000 0.0000 -26.9556 0.0000
# 6 0.0000 0.0000 0.0000 0.0000 0.0000 2.4059
#
#
#
# Elastic Compliance Matrix: (Units=1/GPa)
#
#
# Indices 1 2 3 4 5 6 
#
# 1 0.011290 -0.009664 -0.000708 0.000000 0.000000 0.000000
# 2 -0.009664 0.055669 -0.002835 0.000000 0.000000 0.000000
# 3 -0.000708 -0.002835 0.008463 0.000000 0.000000 0.000000
# 4 0.000000 0.000000 0.000000 0.120420 0.000000 0.000000
# 5 0.000000 0.000000 0.000000 0.000000 -0.037098 0.000000
# 6 0.000000 0.000000 0.000000 0.000000 0.000000 0.415652
#
#
# Mechanical properties :
#
#
# Convention : Reuss Voigt Hill
#
# Bulk Modulus (GPa) = 20.40489 37.42107 28.91298
# Shear Modulus (GPa) = 8.10181 10.53466 9.31823
#
# Velocity S-wave (km/s) = 2.02323 2.30709 2.16980
# Velocity P-wave (km/s) = 3.97084 5.09940 4.57009
#
# Compressibility (1/GPa) = 0.04900786
#
# Stress axis : x y z
#
# Youngs Moduli (GPa) = 88.57377 17.96330 118.15948
#
# Poissons Ratio (x) = 0.17359 0.08368
# Poissons Ratio (y) = 0.85596 0.33500
# Poissons Ratio (z) = 0.06273 0.05093
#
# Static dielectric constant tensor:
#      x y z
#    x 1.692010 0.000000 0.000000 
#    y 0.000000 1.708940 0.000000 
#    z 0.000000 0.000000 1.862470 
# 
# From -- ./inp_files/1374.got.cif
#   From: 2010.05.17/outbox.cif.g08.bks.cpg/sg31_1_cif.got.tgz:1374.got - 2010.06.03 17:08:30.
