data_PCOD9342456
_publ_section_title
;
Structure prediction by ZEFSAII (Michael W. Deem and Ramdas Pophale) SiO2 
 PCOD9342456
Probable space group: P N C 2
;
_chemical_formula_sum "Si O2"
_cell_formula_units_Z 24
_cell_length_a 7.333626
_cell_length_b 24.215407
_cell_length_c 5.127535
_cell_angle_alpha 90.000000
_cell_angle_beta 90.000000
_cell_angle_gamma 90.000000
_cell_volume 910.582217
_symmetry_space_group_name_H-M "P N C 2"
_symmetry_group_IT_number 30
_symmetry_cell_setting 'orthorhombic'
loop_
_space_group_symop_operation_xyz
x,y,z
-x,-y,z
-x,1/2+y,1/2+z
x,1/2-y,1/2+z
loop_
_atom_site_type_symbol
_atom_site_label
_atom_site_fract_x
_atom_site_fract_y
_atom_site_fract_z
Si Si1 0.950083 0.113179 0.700660
Si Si2 0.743776 0.561568 0.874773
Si Si3 0.000000 0.500000 0.488628
Si Si4 0.460315 0.883194 0.690686
Si Si5 0.500000 0.500000 0.251011
Si Si6 0.514604 0.219558 0.022732
Si Si7 0.042514 0.718047 0.527746
O O1 0.747155 0.130049 0.614963
O O2 0.014852 0.159800 0.903874
O O3 0.090447 0.099806 0.472625
O O4 0.938308 0.054154 0.838301
O O5 0.827164 0.525585 0.643802
O O6 0.571124 0.601457 0.929662
O O7 0.675195 0.512868 0.069587
O O8 0.540906 0.835517 0.870220
O O9 0.470145 0.939522 0.866642
O O10 0.458331 0.267462 0.817201
O O11 0.736041 0.217512 0.032646
O O12 0.984680 0.735535 0.816362
#
# Coordination Sequence:
#
# PCOD9342456 Si02
#       7
#     4   4   2   4   2   4   4
#     4  11  23  43  69  96 137 182 229 291 353 418
#     4  10  23  44  61  97 134 172 230 279 346 426
#     4  12  24  40  68 102 136 184 230 300 346 428
#     4   9  20  42  63  93 128 177 216 278 341 408
#     4   8  18  40  62  86 128 172 208 278 332 412
#     4   9  18  38  62  94 128 172 224 276 336 408
#     4   9  20  39  67  99 133 178 235 290 352 421
#
# _framework density 26.356763000000001
#
# number of rings (size 3 to 8) (size 9 to 14) (size 15 to 20)
#    1.000    1.333    0.000    2.500    2.333    0.000 
#   18.000    1.667    0.000    0.000    0.000    0.000 
#    0.000    0.000    0.000    0.000    0.000    0.000 
#
# Total GULP energy -133966.897266 kJ/mol
# GULP energy per Si atom -5581.954053 kJ/mol
# Density = 2.629677 g / cm^3
# Si number density = 26.356763 Si / 1000 Ang^3
#
#
#
# Elastic Constant Matrix: (Units=GPa)
#
#
# Indices 1 2 3 4 5 6 
#
# 1 113.8165 -0.0073 8.9102 0.0000 0.0000 0.0000
# 2 -0.0073 115.0356 -2.3629 0.0000 0.0000 0.0000
# 3 8.9102 -2.3629 80.4979 0.0000 0.0000 0.0000
# 4 0.0000 0.0000 0.0000 22.0548 0.0000 0.0000
# 5 0.0000 0.0000 0.0000 0.0000 3.9545 0.0000
# 6 0.0000 0.0000 0.0000 0.0000 0.0000 13.4050
#
#
#
# Elastic Compliance Matrix: (Units=1/GPa)
#
#
# Indices 1 2 3 4 5 6 
#
# 1 0.008863 -0.000020 -0.000982 0.000000 0.000000 0.000000
# 2 -0.000020 0.008698 0.000257 0.000000 0.000000 0.000000
# 3 -0.000982 0.000257 0.012539 0.000000 0.000000 0.000000
# 4 0.000000 0.000000 0.000000 0.045342 0.000000 0.000000
# 5 0.000000 0.000000 0.000000 0.000000 0.252878 0.000000
# 6 0.000000 0.000000 0.000000 0.000000 0.000000 0.074599
#
#
# Mechanical properties :
#
#
# Convention : Reuss Voigt Hill
#
# Bulk Modulus (GPa) = 34.94959 35.82557 35.38758
# Shear Modulus (GPa) = 12.07893 28.07017 20.07455
#
# Velocity S-wave (km/s) = 2.14308 3.26699 2.76279
# Velocity P-wave (km/s) = 4.40599 5.27759 4.86136
#
# Compressibility (1/GPa) = 0.02861264
#
# Stress axis : x y z
#
# Youngs Moduli (GPa) = 112.82968 114.96564 79.75186
#
# Poissons Ratio (x) = 0.00225 0.07828
# Poissons Ratio (y) = 0.00221 -0.02054
# Poissons Ratio (z) = 0.11075 -0.02960
#
# Static dielectric constant tensor:
#      x y z
#    x 2.106380 0.000000 0.000000 
#    y 0.000000 2.737370 0.000000 
#    z 0.000000 0.000000 2.095600 
# 
# From -- ./inp_files/440.got.cif
#   From: 2010.05.17/outbox.cif.g08.bks.cpg/sg30_1_cif.got.tgz:440.got - 2010.06.03 17:03:02.
