data_PCOD9342036
_publ_section_title
;
Structure prediction by ZEFSAII (Michael W. Deem and Ramdas Pophale) SiO2 
 PCOD9342036
Probable space group: P N C 2
;
_chemical_formula_sum "Si O2"
_cell_formula_units_Z 32
_cell_length_a 13.227105
_cell_length_b 4.992743
_cell_length_c 23.789620
_cell_angle_alpha 90.000000
_cell_angle_beta 90.000000
_cell_angle_gamma 90.000000
_cell_volume 1571.055464
_symmetry_space_group_name_H-M "P N C 2"
_symmetry_group_IT_number 30
_symmetry_cell_setting 'orthorhombic'
loop_
_space_group_symop_operation_xyz
x,y,z
-x,-y,z
-x,1/2+y,1/2+z
x,1/2-y,1/2+z
loop_
_atom_site_type_symbol
_atom_site_label
_atom_site_fract_x
_atom_site_fract_y
_atom_site_fract_z
Si Si1 0.932475 0.234530 0.815660
Si Si2 0.383010 0.557776 0.326626
Si Si3 0.383964 0.088853 0.952370
Si Si4 0.207547 0.135127 0.759981
Si Si5 0.880510 0.013074 0.165827
Si Si6 0.754955 0.991997 0.366622
Si Si7 0.274456 0.944301 0.489739
Si Si8 0.880772 0.516739 0.090018
O O1 0.120741 0.906221 0.761130
O O2 0.000000 0.500000 0.806600
O O3 0.839076 0.277606 0.856218
O O4 0.000000 0.000000 0.839921
O O5 0.500000 0.500000 0.315095
O O6 0.361324 0.383659 0.384378
O O7 0.317534 0.498235 0.270264
O O8 0.348863 0.853592 0.347753
O O9 0.368537 0.349205 0.991132
O O10 0.500000 0.000000 0.953407
O O11 0.314700 0.850863 0.976233
O O12 0.185026 0.361668 0.713827
O O13 0.206427 0.290412 0.819313
O O14 0.865828 0.815123 0.112779
O O15 0.858949 0.307025 0.140857
O O16 0.000000 0.000000 0.180910
O O17 0.770766 0.936852 0.431887
O O18 0.195789 0.957289 0.539714
O O19 0.000000 0.500000 0.074903
#
# Coordination Sequence:
#
# PCOD9342036 Si02
#       8
#     4   4   4   4   4   4   4   4
#     4  11  23  36  53  84 131 163 193 244 320 386
#     4   9  20  37  58  92 135 169 204 253 314 389
#     4  10  20  36  62  97 127 162 202 250 316 378
#     4  11  22  38  61  93 123 162 217 260 317 378
#     4  10  24  41  63  86 120 161 214 263 303 366
#     4  10  22  36  58  96 127 160 209 251 322 380
#     4  11  21  39  64  89 127 162 206 262 305 377
#     4  10  23  44  62  89 117 166 213 250 309 370
#
# _framework density 20.368475
#
# number of rings (size 3 to 8) (size 9 to 14) (size 15 to 20)
#    0.000    1.750    2.500    1.125    5.250    1.500 
#    0.000    0.625    0.000    3.000    0.000    0.000 
#    0.000    0.000    0.000    0.000    0.000    0.000 
#
# Total GULP energy -178198.140604 kJ/mol
# GULP energy per Si atom -5568.691894 kJ/mol
# Density = 2.032212 g / cm^3
# Si number density = 20.368475 Si / 1000 Ang^3
#
#
#
# Elastic Constant Matrix: (Units=GPa)
#
#
# Indices 1 2 3 4 5 6 
#
# 1 74.2066 -2.7189 34.1208 0.0000 0.0000 0.0000
# 2 -2.7189 72.7595 -2.1729 0.0000 0.0000 0.0000
# 3 34.1208 -2.1729 84.5866 0.0000 0.0000 0.0000
# 4 0.0000 0.0000 0.0000 21.1135 0.0000 0.0000
# 5 0.0000 0.0000 0.0000 0.0000 27.2379 0.0000
# 6 0.0000 0.0000 0.0000 0.0000 0.0000 25.0879
#
#
#
# Elastic Compliance Matrix: (Units=1/GPa)
#
#
# Indices 1 2 3 4 5 6 
#
# 1 0.016557 0.000420 -0.006668 0.000000 0.000000 0.000000
# 2 0.000420 0.013765 0.000184 0.000000 0.000000 0.000000
# 3 -0.006668 0.000184 0.014517 0.000000 0.000000 0.000000
# 4 0.000000 0.000000 0.000000 0.047363 0.000000 0.000000
# 5 0.000000 0.000000 0.000000 0.000000 0.036714 0.000000
# 6 0.000000 0.000000 0.000000 0.000000 0.000000 0.039860
#
#
# Mechanical properties :
#
#
# Convention : Reuss Voigt Hill
#
# Bulk Modulus (GPa) = 30.57102 32.22342 31.39722
# Shear Modulus (GPa) = 26.06779 28.17612 27.12196
#
# Velocity S-wave (km/s) = 3.58133 3.72334 3.65302
# Velocity P-wave (km/s) = 5.66946 5.85994 5.76549
#
# Compressibility (1/GPa) = 0.03271072
#
# Stress axis : x y z
#
# Youngs Moduli (GPa) = 60.39615 72.64751 68.88588
#
# Poissons Ratio (x) = -0.03048 0.45934
# Poissons Ratio (y) = -0.02534 -0.01270
# Poissons Ratio (z) = 0.40273 -0.01339
#
# Static dielectric constant tensor:
#      x y z
#    x 1.796900 0.000000 0.000000 
#    y 0.000000 2.142600 0.000000 
#    z 0.000000 0.000000 1.735740 
# 
# From -- ./inp_files/7419.got.cif
#   From: 2010.05.17/outbox.cif.g08.bks.cpg/sg30_4_cif.got.tgz:7419.got - 2010.06.03 17:03:02.
