data_PCOD9342887
_publ_section_title
;
Structure prediction by ZEFSAII (Michael W. Deem and Ramdas Pophale) SiO2 
 PCOD9342887
Probable space group: P M N 21
;
_chemical_formula_sum "Si O2"
_cell_formula_units_Z 32
_cell_length_a 7.510527
_cell_length_b 11.049328
_cell_length_c 17.672484
_cell_angle_alpha 90.000000
_cell_angle_beta 90.000000
_cell_angle_gamma 90.000000
_cell_volume 1466.573640
_symmetry_space_group_name_H-M "P M N 21"
_symmetry_group_IT_number 31
_symmetry_cell_setting 'orthorhombic'
loop_
_space_group_symop_operation_xyz
x,y,z
1/2-x,-y,1/2+z
-x,y,z
1/2+x,-y,1/2+z
loop_
_atom_site_type_symbol
_atom_site_label
_atom_site_fract_x
_atom_site_fract_y
_atom_site_fract_z
Si Si1 0.280844 0.552269 0.647360
Si Si2 0.718826 0.896062 0.396143
Si Si3 0.794643 0.702574 0.086508
Si Si4 0.292346 0.684226 0.792789
Si Si5 0.283572 0.785909 0.552577
Si Si6 0.303205 0.823579 0.239819
Si Si7 0.706816 0.166978 0.437599
Si Si8 0.791895 0.074194 0.192436
O O1 0.500000 0.551773 0.650494
O O2 0.218503 0.427783 0.610023
O O3 0.223542 0.581159 0.734336
O O4 0.226162 0.661927 0.592163
O O5 0.500000 0.896985 0.390940
O O6 0.772498 0.819803 0.469292
O O7 0.782998 0.823307 0.322305
O O8 0.778406 0.036912 0.406903
O O9 0.790462 0.775162 0.165187
O O10 0.000000 0.679394 0.064810
O O11 0.716504 0.778538 0.016060
O O12 0.500000 0.658274 0.807173
O O13 0.215768 0.729314 0.872782
O O14 0.278807 0.803956 0.740658
O O15 0.500000 0.782797 0.553479
O O16 0.231741 0.894417 0.608386
O O17 0.500000 0.767770 0.241749
O O18 0.315220 0.967284 0.228181
O O19 0.500000 0.139348 0.453504
O O20 0.000000 0.039383 0.191240
#
# Coordination Sequence:
#
# PCOD9342887 Si02
#       8
#     4   4   4   4   4   4   4   4
#     4   8  16  33  54  75  99 133 178 217 252 302
#     4   9  17  29  46  73 107 133 160 207 264 312
#     4  10  21  37  55  75 102 140 183 220 254 306
#     4   9  17  31  54  80 104 134 171 214 260 308
#     4   8  14  28  52  76  97 126 169 214 251 297
#     4  11  21  32  48  74 110 142 164 207 269 314
#     4  10  19  33  53  78 106 137 174 218 265 310
#     4   9  16  29  52  77  99 131 171 207 251 309
#
# _framework density 21.819566999999999
#
# number of rings (size 3 to 8) (size 9 to 14) (size 15 to 20)
#    0.000    2.750    1.250    2.625    0.000    2.500 
#    2.250    0.625    0.000    1.500    0.000    0.000 
#    0.000    0.000    0.000    0.000    0.000    0.000 
#
# Total GULP energy -178298.125455 kJ/mol
# GULP energy per Si atom -5571.816420 kJ/mol
# Density = 2.176990 g / cm^3
# Si number density = 21.819567 Si / 1000 Ang^3
#
#
#
# Elastic Constant Matrix: (Units=GPa)
#
#
# Indices 1 2 3 4 5 6 
#
# 1 46.6369 4.0168 1.1900 0.0000 0.0000 0.0000
# 2 4.0168 38.7937 27.2743 0.0000 0.0000 0.0000
# 3 1.1900 27.2743 171.6666 0.0000 0.0000 0.0000
# 4 0.0000 0.0000 0.0000 23.5114 0.0000 0.0000
# 5 0.0000 0.0000 0.0000 0.0000 -17.3110 0.0000
# 6 0.0000 0.0000 0.0000 0.0000 0.0000 4.9104
#
#
#
# Elastic Compliance Matrix: (Units=1/GPa)
#
#
# Indices 1 2 3 4 5 6 
#
# 1 0.021643 -0.002404 0.000232 0.000000 0.000000 0.000000
# 2 -0.002404 0.029286 -0.004636 0.000000 0.000000 0.000000
# 3 0.000232 -0.004636 0.006560 0.000000 0.000000 0.000000
# 4 0.000000 0.000000 0.000000 0.042533 0.000000 0.000000
# 5 0.000000 0.000000 0.000000 0.000000 -0.057767 0.000000
# 6 0.000000 0.000000 0.000000 0.000000 0.000000 0.203648
#
#
# Mechanical properties :
#
#
# Convention : Reuss Voigt Hill
#
# Bulk Modulus (GPa) = 22.79324 35.78439 29.28882
# Shear Modulus (GPa) = 18.23853 17.19656 17.71755
#
# Velocity S-wave (km/s) = 2.89430 2.81040 2.85266
# Velocity P-wave (km/s) = 4.65169 5.19297 4.92976
#
# Compressibility (1/GPa) = 0.04387266
#
# Stress axis : x y z
#
# Youngs Moduli (GPa) = 46.20349 34.14617 152.43335
#
# Poissons Ratio (x) = 0.08209 -0.03535
# Poissons Ratio (y) = 0.11108 0.70672
# Poissons Ratio (z) = -0.01072 0.15831
#
# Static dielectric constant tensor:
#      x y z
#    x 1.850000 0.000000 0.000000 
#    y 0.000000 1.784100 0.000000 
#    z 0.000000 0.000000 1.829190 
# 
# From -- ./inp_files/5896.got.cif
#   From: 2010.05.17/outbox.cif.g08.bks.cpg/sg31_3_cif.got.tgz:5896.got - 2010.06.03 17:08:30.
