data_PCOD9342548
_publ_section_title
;
Structure prediction by ZEFSAII (Michael W. Deem and Ramdas Pophale) SiO2 
 PCOD9342548
Probable space group: P N C 2
;
_chemical_formula_sum "Si O2"
_cell_formula_units_Z 12
_cell_length_a 5.100273
_cell_length_b 5.690158
_cell_length_c 17.380939
_cell_angle_alpha 90.000000
_cell_angle_beta 90.000000
_cell_angle_gamma 90.000000
_cell_volume 504.418474
_symmetry_space_group_name_H-M "P N C 2"
_symmetry_group_IT_number 30
_symmetry_cell_setting 'orthorhombic'
loop_
_space_group_symop_operation_xyz
x,y,z
-x,-y,z
-x,1/2+y,1/2+z
x,1/2-y,1/2+z
loop_
_atom_site_type_symbol
_atom_site_label
_atom_site_fract_x
_atom_site_fract_y
_atom_site_fract_z
Si Si1 0.000000 0.500000 0.475140
Si Si2 0.735998 0.651783 0.080478
Si Si3 0.500000 0.000000 0.728345
Si Si4 0.756947 0.338356 0.848005
O O1 0.685955 0.349400 0.282569
O O2 0.791306 0.620654 0.531280
O O3 0.500000 0.500000 0.045702
O O4 0.650000 0.674914 0.169466
O O5 0.859137 0.191516 0.921387
O O6 0.000000 0.500000 0.079418
O O7 0.500000 0.500000 0.861440
O O8 0.000000 0.500000 0.824296
#
# Coordination Sequence:
#
# PCOD9342548 Si02
#       4
#     2   4   2   4
#     4  12  28  54  80 118 162 206 264 324 398 460
#     4  10  27  49  79 115 153 202 264 324 389 464
#     4  10  28  56  78 116 160 206 270 318 398 456
#     4  12  29  49  82 116 160 211 262 324 387 476
#
# _framework density 23.789770999999998
#
# number of rings (size 3 to 8) (size 9 to 14) (size 15 to 20)
#    1.000    0.000    0.000    3.000    7.000   17.333 
#    0.000    3.333    0.000    0.000    0.000    0.000 
#    0.000    0.000    0.000    0.000    0.000    0.000 
#
# Total GULP energy -67240.648931 kJ/mol
# GULP energy per Si atom -5603.387411 kJ/mol
# Density = 2.373562 g / cm^3
# Si number density = 23.789771 Si / 1000 Ang^3
#
#
#
# Elastic Constant Matrix: (Units=GPa)
#
#
# Indices 1 2 3 4 5 6 
#
# 1 180.4890 69.3589 64.6908 0.0000 0.0000 0.0000
# 2 69.3589 114.9710 86.0118 0.0000 0.0000 0.0000
# 3 64.6908 86.0118 187.0258 0.0000 0.0000 0.0000
# 4 0.0000 0.0000 0.0000 36.1330 0.0000 0.0000
# 5 0.0000 0.0000 0.0000 0.0000 -19.3844 0.0000
# 6 0.0000 0.0000 0.0000 0.0000 0.0000 63.3428
#
#
#
# Elastic Compliance Matrix: (Units=1/GPa)
#
#
# Indices 1 2 3 4 5 6 
#
# 1 0.007283 -0.003825 -0.000760 0.000000 0.000000 0.000000
# 2 -0.003825 0.015269 -0.005699 0.000000 0.000000 0.000000
# 3 -0.000760 -0.005699 0.008231 0.000000 0.000000 0.000000
# 4 0.000000 0.000000 0.000000 0.027676 0.000000 0.000000
# 5 0.000000 0.000000 0.000000 0.000000 -0.051588 0.000000
# 6 0.000000 0.000000 0.000000 0.000000 0.000000 0.015787
#
#
# Mechanical properties :
#
#
# Convention : Reuss Voigt Hill
#
# Bulk Modulus (GPa) = 97.90105 102.51212 100.20658
# Shear Modulus (GPa) = 107.22763 33.51324 70.37044
#
# Velocity S-wave (km/s) = 6.72093 3.75737 5.44466
# Velocity P-wave (km/s) = 10.07322 7.87453 9.04096
#
# Compressibility (1/GPa) = 0.01021440
#
# Stress axis : x y z
#
# Youngs Moduli (GPa) = 137.31071 65.49279 121.49673
#
# Poissons Ratio (x) = 0.25050 0.09234
# Poissons Ratio (y) = 0.52520 0.69241
# Poissons Ratio (z) = 0.10436 0.37325
#
# Static dielectric constant tensor:
#      x y z
#    x 1.868480 0.000000 0.000000 
#    y 0.000000 1.844120 0.000000 
#    z 0.000000 0.000000 1.887020 
# 
# From -- ./inp_files/4510.got.cif
#   From: 2010.05.17/outbox.cif.g08.bks.cpg/sg30_3_cif.got.tgz:4510.got - 2010.06.03 17:03:02.
