data_PCOD9342188
_publ_section_title
;
Structure prediction by ZEFSAII (Michael W. Deem and Ramdas Pophale) SiO2 
 PCOD9342188
Probable space group: P N C 2
;
_chemical_formula_sum "Si O2"
_cell_formula_units_Z 16
_cell_length_a 8.556474
_cell_length_b 16.827472
_cell_length_c 5.008850
_cell_angle_alpha 90.000000
_cell_angle_beta 90.000000
_cell_angle_gamma 90.000000
_cell_volume 721.193390
_symmetry_space_group_name_H-M "P N C 2"
_symmetry_group_IT_number 30
_symmetry_cell_setting 'orthorhombic'
loop_
_space_group_symop_operation_xyz
x,y,z
-x,-y,z
-x,1/2+y,1/2+z
x,1/2-y,1/2+z
loop_
_atom_site_type_symbol
_atom_site_label
_atom_site_fract_x
_atom_site_fract_y
_atom_site_fract_z
Si Si1 0.831789 0.461060 0.625000
Si Si2 0.118381 0.707206 0.353007
Si Si3 0.258330 0.205410 0.763513
Si Si4 0.327615 0.472775 0.130226
O O1 0.840080 0.371998 0.512833
O O2 0.708002 0.503625 0.434094
O O3 0.000000 0.500000 0.574004
O O4 0.787936 0.480666 0.929549
O O5 0.175003 0.722962 0.053069
O O6 0.930230 0.706878 0.305895
O O7 0.314817 0.226252 0.059899
O O8 0.302307 0.121800 0.632066
O O9 0.500000 0.500000 0.056190
#
# Coordination Sequence:
#
# PCOD9342188 Si02
#       4
#     4   4   4   4
#     4  12  24  42  69  97 129 171 224 274 327 386
#     4  10  21  38  63  99 128 164 218 280 325 378
#     4  10  21  39  65  94 127 173 222 266 321 398
#     4  12  26  44  65  99 138 175 218 272 334 394
#
# _framework density 22.185448000000001
#
# number of rings (size 3 to 8) (size 9 to 14) (size 15 to 20)
#    0.000    1.000    2.500    4.500    7.000    0.000 
#    0.000    7.500    0.000    0.000    0.000    0.000 
#    0.000    0.000    0.000    0.000    0.000    0.000 
#
# Total GULP energy -89307.622709 kJ/mol
# GULP energy per Si atom -5581.726419 kJ/mol
# Density = 2.213495 g / cm^3
# Si number density = 22.185448 Si / 1000 Ang^3
#
#
#
# Elastic Constant Matrix: (Units=GPa)
#
#
# Indices 1 2 3 4 5 6 
#
# 1 32.1559 14.0521 14.4427 0.0000 0.0000 0.0000
# 2 14.0521 110.7767 32.8733 0.0000 0.0000 0.0000
# 3 14.4427 32.8733 107.5108 0.0000 0.0000 0.0000
# 4 0.0000 0.0000 0.0000 44.8857 0.0000 0.0000
# 5 0.0000 0.0000 0.0000 0.0000 31.4681 0.0000
# 6 0.0000 0.0000 0.0000 0.0000 0.0000 3.8280
#
#
#
# Elastic Compliance Matrix: (Units=1/GPa)
#
#
# Indices 1 2 3 4 5 6 
#
# 1 0.034137 -0.003266 -0.003587 0.000000 0.000000 0.000000
# 2 -0.003266 0.010240 -0.002692 0.000000 0.000000 0.000000
# 3 -0.003587 -0.002692 0.010607 0.000000 0.000000 0.000000
# 4 0.000000 0.000000 0.000000 0.022279 0.000000 0.000000
# 5 0.000000 0.000000 0.000000 0.000000 0.031778 0.000000
# 6 0.000000 0.000000 0.000000 0.000000 0.000000 0.261230
#
#
# Mechanical properties :
#
#
# Convention : Reuss Voigt Hill
#
# Bulk Modulus (GPa) = 27.86076 41.46440 34.66258
# Shear Modulus (GPa) = 12.45871 28.64140 20.55006
#
# Velocity S-wave (km/s) = 2.37232 3.59695 3.04680
# Velocity P-wave (km/s) = 4.48210 5.99843 5.29483
#
# Compressibility (1/GPa) = 0.03589278
#
# Stress axis : x y z
#
# Youngs Moduli (GPa) = 29.29391 97.65214 94.28123
#
# Poissons Ratio (x) = 0.31891 0.33821
# Poissons Ratio (y) = 0.09567 0.25385
# Poissons Ratio (z) = 0.10509 0.26293
#
# Static dielectric constant tensor:
#      x y z
#    x 1.746720 0.000000 0.000000 
#    y 0.000000 1.845270 0.000000 
#    z 0.000000 0.000000 1.768250 
# 
# From -- ./inp_files/321.got.cif
#   From: 2010.05.17/outbox.cif.g08.bks.cpg/sg30_1_cif.got.tgz:321.got - 2010.06.03 17:03:02.
