data_PCOD9342201
_publ_section_title
;
Structure prediction by ZEFSAII (Michael W. Deem and Ramdas Pophale) SiO2 
 PCOD9342201
Probable space group: P N C 2
;
_chemical_formula_sum "Si O2"
_cell_formula_units_Z 16
_cell_length_a 6.910887
_cell_length_b 16.030895
_cell_length_c 5.249959
_cell_angle_alpha 90.000000
_cell_angle_beta 90.000000
_cell_angle_gamma 90.000000
_cell_volume 581.630903
_symmetry_space_group_name_H-M "P N C 2"
_symmetry_group_IT_number 30
_symmetry_cell_setting 'orthorhombic'
loop_
_space_group_symop_operation_xyz
x,y,z
-x,-y,z
-x,1/2+y,1/2+z
x,1/2-y,1/2+z
loop_
_atom_site_type_symbol
_atom_site_label
_atom_site_fract_x
_atom_site_fract_y
_atom_site_fract_z
Si Si1 0.744422 0.286341 0.710400
Si Si2 0.784960 0.461926 0.425605
Si Si3 0.288340 0.285942 0.843229
Si Si4 0.777497 0.529179 0.922513
O O1 0.821147 0.219583 0.500522
O O2 0.777584 0.372197 0.558901
O O3 0.516569 0.275482 0.778084
O O4 0.692996 0.520382 0.640290
O O5 0.000000 0.500000 0.384400
O O6 0.696607 0.470324 0.145054
O O7 0.211369 0.279507 0.553898
O O8 0.247841 0.373950 0.978499
O O9 0.000000 0.500000 0.887896
#
# Coordination Sequence:
#
# PCOD9342201 Si02
#       4
#     4   4   4   4
#     4  10  21  39  62  88 120 160 205 253 304 361
#     4  10  21  39  59  88 125 160 202 250 307 369
#     4  10  21  39  62  88 120 160 205 253 304 361
#     4  10  21  39  59  88 125 160 202 250 307 369
#
# _framework density 27.508855000000001
#
# number of rings (size 3 to 8) (size 9 to 14) (size 15 to 20)
#    0.000    2.000    0.000    3.000    0.000    1.000 
#    0.000   32.500    0.000    0.000    0.000    0.000 
#    0.000    0.000    0.000    0.000    0.000    0.000 
#
# Total GULP energy -89315.009383 kJ/mol
# GULP energy per Si atom -5582.188086 kJ/mol
# Density = 2.744624 g / cm^3
# Si number density = 27.508855 Si / 1000 Ang^3
#
#
#
# Elastic Constant Matrix: (Units=GPa)
#
#
# Indices 1 2 3 4 5 6 
#
# 1 113.6654 -33.1630 16.4290 0.0000 0.0000 0.0000
# 2 -33.1630 117.2814 52.9300 0.0000 0.0000 0.0000
# 3 16.4290 52.9300 206.3097 0.0000 0.0000 0.0000
# 4 0.0000 0.0000 0.0000 57.4125 0.0000 0.0000
# 5 0.0000 0.0000 0.0000 0.0000 -30.2026 0.0000
# 6 0.0000 0.0000 0.0000 0.0000 0.0000 24.0380
#
#
#
# Elastic Compliance Matrix: (Units=1/GPa)
#
#
# Indices 1 2 3 4 5 6 
#
# 1 0.010113 0.003645 -0.001740 0.000000 0.000000 0.000000
# 2 0.003645 0.010957 -0.003101 0.000000 0.000000 0.000000
# 3 -0.001740 -0.003101 0.005781 0.000000 0.000000 0.000000
# 4 0.000000 0.000000 0.000000 0.017418 0.000000 0.000000
# 5 0.000000 0.000000 0.000000 0.000000 -0.033110 0.000000
# 6 0.000000 0.000000 0.000000 0.000000 0.000000 0.041601
#
#
# Mechanical properties :
#
#
# Convention : Reuss Voigt Hill
#
# Bulk Modulus (GPa) = 40.88732 56.62760 48.75746
# Shear Modulus (GPa) = 78.98159 36.98693 57.98426
#
# Velocity S-wave (km/s) = 5.36411 3.67078 4.59610
# Velocity P-wave (km/s) = 7.29798 6.21258 6.77704
#
# Compressibility (1/GPa) = 0.02445746
#
# Stress axis : x y z
#
# Youngs Moduli (GPa) = 98.88473 91.26737 172.97035
#
# Poissons Ratio (x) = -0.33267 0.30105
# Poissons Ratio (y) = -0.36044 0.53643
# Poissons Ratio (z) = 0.17210 0.28305
#
# Static dielectric constant tensor:
#      x y z
#    x 1.191720 0.000000 0.000000 
#    y 0.000000 2.144750 0.000000 
#    z 0.000000 0.000000 2.228660 
# 
# From -- ./inp_files/304.got.cif
#   From: 2010.05.17/outbox.cif.g08.bks.cpg/sg30_1_cif.got.tgz:304.got - 2010.06.03 17:03:02.
