data_PCOD9342027
_publ_section_title
;
Structure prediction by ZEFSAII (Michael W. Deem and Ramdas Pophale) SiO2 
 PCOD9342027
Probable space group: P N C 2
;
_chemical_formula_sum "Si O2"
_cell_formula_units_Z 32
_cell_length_a 20.889225
_cell_length_b 9.457705
_cell_length_c 8.641332
_cell_angle_alpha 90.000000
_cell_angle_beta 90.000000
_cell_angle_gamma 90.000000
_cell_volume 1707.217219
_symmetry_space_group_name_H-M "P N C 2"
_symmetry_group_IT_number 30
_symmetry_cell_setting 'orthorhombic'
loop_
_space_group_symop_operation_xyz
x,y,z
-x,-y,z
-x,1/2+y,1/2+z
x,1/2-y,1/2+z
loop_
_atom_site_type_symbol
_atom_site_label
_atom_site_fract_x
_atom_site_fract_y
_atom_site_fract_z
Si Si1 0.822329 0.407321 0.343670
Si Si2 0.177671 0.592679 0.713630
Si Si3 0.439074 0.092298 0.715326
Si Si4 0.062536 0.092136 0.714296
Si Si5 0.317347 0.906506 0.342380
Si Si6 0.317347 0.593494 0.214920
Si Si7 0.062536 0.407864 0.843004
Si Si8 0.560926 0.592298 0.841974
O O1 0.821915 0.401953 0.528650
O O2 0.836153 0.250000 0.278650
O O3 0.875546 0.514960 0.283744
O O4 0.751817 0.447137 0.282248
O O5 0.248183 0.552863 0.775052
O O6 0.124454 0.485040 0.773555
O O7 0.442176 0.250000 0.778650
O O8 0.440585 0.097639 0.528650
O O9 0.500000 0.000000 0.767319
O O10 0.373548 0.013420 0.760541
O O11 0.056323 0.250000 0.778650
O O12 0.067799 0.096327 0.528650
O O13 0.000000 0.000000 0.755222
O O14 0.332232 0.750000 0.278650
O O15 0.313380 0.900301 0.528650
O O16 0.373548 0.013420 0.296758
O O17 0.000000 0.500000 0.802078
O O18 0.500000 0.500000 0.789981
#
# Coordination Sequence:
#
# PCOD9342027 Si02
#       8
#     4   4   4   4   4   4   4   4
#     4  11  22  38  61  87 118 154 193 236 285 340
#     4  11  22  38  61  87 118 154 193 236 285 340
#     4  10  22  38  57  83 113 147 188 234 283 338
#     4  11  24  41  62  88 118 152 192 237 286 341
#     4  10  20  36  58  84 115 149 190 235 282 339
#     4  10  20  36  58  84 115 149 190 235 282 339
#     4  11  24  41  62  88 118 152 192 237 286 341
#     4  10  22  38  57  83 113 147 188 234 283 338
#
# _framework density 18.743953000000001
#
# number of rings (size 3 to 8) (size 9 to 14) (size 15 to 20)
#    0.000    1.500    0.000    6.750    0.000    7.500 
#    0.000    2.500    0.000    0.000    0.000    0.000 
#    0.000    0.000    0.000    0.000    0.000    0.000 
#
# Total GULP energy -178933.984349 kJ/mol
# GULP energy per Si atom -5591.687011 kJ/mol
# Density = 1.870129 g / cm^3
# Si number density = 18.743953 Si / 1000 Ang^3
#
#
#
# Elastic Constant Matrix: (Units=GPa)
#
#
# Indices 1 2 3 4 5 6 
#
# 1 167.7973 147.5953 67.2856 0.0000 0.0000 0.0000
# 2 147.5953 177.8372 64.2535 0.0000 0.0000 0.0000
# 3 67.2856 64.2535 84.6807 0.0000 0.0000 0.0000
# 4 0.0000 0.0000 0.0000 36.9620 0.0000 0.0000
# 5 0.0000 0.0000 0.0000 0.0000 -20.8164 0.0000
# 6 0.0000 0.0000 0.0000 0.0000 0.0000 42.1761
#
#
#
# Elastic Compliance Matrix: (Units=1/GPa)
#
#
# Indices 1 2 3 4 5 6 
#
# 1 0.023735 -0.017752 -0.005390 0.000000 0.000000 0.000000
# 2 -0.017752 0.021023 -0.001847 0.000000 0.000000 0.000000
# 3 -0.005390 -0.001847 0.017493 0.000000 0.000000 0.000000
# 4 0.000000 0.000000 0.000000 0.027055 0.000000 0.000000
# 5 0.000000 0.000000 0.000000 0.000000 -0.048039 0.000000
# 6 0.000000 0.000000 0.000000 0.000000 0.000000 0.023710
#
#
# Mechanical properties :
#
#
# Convention : Reuss Voigt Hill
#
# Bulk Modulus (GPa) = 81.46834 109.84269 95.65552
# Shear Modulus (GPa) = 42.00024 21.74305 31.87164
#
# Velocity S-wave (km/s) = 4.73878 3.40958 4.12803
# Velocity P-wave (km/s) = 8.57318 8.61564 8.59444
#
# Compressibility (1/GPa) = 0.01227471
#
# Stress axis : x y z
#
# Youngs Moduli (GPa) = 42.13110 47.56635 57.16442
#
# Poissons Ratio (x) = 0.84438 0.30813
# Poissons Ratio (y) = 0.74789 0.10557
# Poissons Ratio (z) = 0.22710 0.08785
#
# Static dielectric constant tensor:
#      x y z
#    x 1.636710 0.000000 0.000000 
#    y 0.000000 1.604550 0.000000 
#    z 0.000000 0.000000 1.630200 
# 
# From -- ./inp_files/2805.got.cif
#   From: 2010.05.17/outbox.cif.g08.bks.cpg/sg30_2_cif.got.tgz:2805.got - 2010.06.03 17:03:02.
