data_PCOD9342993
_publ_section_title
;
Structure prediction by ZEFSAII (Michael W. Deem and Ramdas Pophale) SiO2 
 PCOD9342993
Probable space group: P M N 21
;
_chemical_formula_sum "Si O2"
_cell_formula_units_Z 32
_cell_length_a 8.917931
_cell_length_b 12.042646
_cell_length_c 15.521383
_cell_angle_alpha 90.000000
_cell_angle_beta 90.000000
_cell_angle_gamma 90.000000
_cell_volume 1666.926472
_symmetry_space_group_name_H-M "P M N 21"
_symmetry_group_IT_number 31
_symmetry_cell_setting 'orthorhombic'
loop_
_space_group_symop_operation_xyz
x,y,z
1/2-x,-y,1/2+z
-x,y,z
1/2+x,-y,1/2+z
loop_
_atom_site_type_symbol
_atom_site_label
_atom_site_fract_x
_atom_site_fract_y
_atom_site_fract_z
Si Si1 0.677822 0.276768 0.582310
Si Si2 0.179399 0.751421 0.278558
Si Si3 0.822916 0.496859 0.526477
Si Si4 0.822916 0.496859 0.321757
Si Si5 0.821322 0.145673 0.424117
Si Si6 0.177822 0.723232 0.765924
Si Si7 0.321662 0.902325 0.424117
Si Si8 0.320601 0.248579 0.069675
O O1 0.500000 0.269445 0.567346
O O2 0.709946 0.231225 0.677689
O O3 0.728548 0.404953 0.576403
O O4 0.763699 0.210747 0.508225
O O5 0.217558 0.623538 0.300568
O O6 0.266455 0.833516 0.341035
O O7 0.000000 0.763673 0.293520
O O8 0.802498 0.478956 0.424117
O O9 0.782440 0.623538 0.547665
O O10 0.000000 0.482564 0.545833
O O11 0.728547 0.404953 0.271831
O O12 0.000000 0.482563 0.302400
O O13 0.763701 0.210747 0.340008
O O14 0.000000 0.142311 0.424117
O O15 0.753661 0.022741 0.424116
O O16 0.209945 0.768775 0.670544
O O17 0.000000 0.730556 0.780889
O O18 0.500000 0.913136 0.424116
O O19 0.266456 0.833516 0.507198
O O20 0.500000 0.236328 0.054712
#
# Coordination Sequence:
#
# PCOD9342993 Si02
#       8
#     4   4   4   4   4   4   4   4
#     4  11  23  39  64  95 126 160 206 257 302 358
#     4  10  22  42  65  91 127 167 202 247 307 367
#     4  10  19  35  62  92 127 167 203 243 302 369
#     4  10  19  35  62  92 127 167 203 243 302 369
#     4  12  26  45  66  85 120 167 205 253 311 368
#     4  11  23  39  64  95 126 160 206 257 302 358
#     4  12  26  43  66  93 120 155 207 263 303 360
#     4  10  22  42  65  91 127 167 202 247 307 367
#
# _framework density 19.197006999999999
#
# number of rings (size 3 to 8) (size 9 to 14) (size 15 to 20)
#    0.000    1.250    2.500    3.750    0.000    4.000 
#    0.000    0.000    0.000    0.000    0.000    0.000 
#    0.000    0.000    0.000    0.000    0.000    0.000 
#
# Total GULP energy -179001.158573 kJ/mol
# GULP energy per Si atom -5593.786205 kJ/mol
# Density = 1.915331 g / cm^3
# Si number density = 19.197007 Si / 1000 Ang^3
#
#
#
# Elastic Constant Matrix: (Units=GPa)
#
#
# Indices 1 2 3 4 5 6 
#
# 1 98.5515 57.3308 67.4114 0.0000 0.0000 0.0000
# 2 57.3308 109.6101 49.0003 0.0000 0.0000 0.0000
# 3 67.4114 49.0003 94.0219 0.0000 0.0000 0.0000
# 4 0.0000 0.0000 0.0000 -0.6158 0.0000 0.0000
# 5 0.0000 0.0000 0.0000 0.0000 16.1771 0.0000
# 6 0.0000 0.0000 0.0000 0.0000 0.0000 29.5910
#
#
#
# Elastic Compliance Matrix: (Units=1/GPa)
#
#
# Indices 1 2 3 4 5 6 
#
# 1 0.022544 -0.005953 -0.013061 0.000000 0.000000 0.000000
# 2 -0.005953 0.013466 -0.002750 0.000000 0.000000 0.000000
# 3 -0.013061 -0.002750 0.021434 0.000000 0.000000 0.000000
# 4 0.000000 0.000000 0.000000 -1.623855 0.000000 0.000000
# 5 0.000000 0.000000 0.000000 0.000000 0.061816 0.000000
# 6 0.000000 0.000000 0.000000 0.000000 0.000000 0.033794
#
#
# Mechanical properties :
#
#
# Convention : Reuss Voigt Hill
#
# Bulk Modulus (GPa) = 71.86040 72.18539 72.02290
# Shear Modulus (GPa) = -3.51461 17.59318 7.03929
#
# Velocity S-wave (km/s) = -1.35454 3.03058 1.91698
# Velocity P-wave (km/s) = 5.92183 7.06611 6.51913
#
# Compressibility (1/GPa) = 0.01391587
#
# Stress axis : x y z
#
# Youngs Moduli (GPa) = 44.35777 74.26048 46.65554
#
# Poissons Ratio (x) = 0.44204 0.60938
# Poissons Ratio (y) = 0.26404 0.12831
# Poissons Ratio (z) = 0.57937 0.20423
#
# Static dielectric constant tensor:
#      x y z
#    x 1.635710 0.000000 0.000000 
#    y 0.000000 1.643360 0.000000 
#    z 0.000000 0.000000 1.662970 
# 
# From -- ./inp_files/5067.got.cif
#   From: 2010.05.17/outbox.cif.g08.bks.cpg/sg31_3_cif.got.tgz:5067.got - 2010.06.03 17:08:30.
