data_PCOD9342816
_publ_section_title
;
Structure prediction by ZEFSAII (Michael W. Deem and Ramdas Pophale) SiO2 
 PCOD9342816
Probable space group: P M N 21
;
_chemical_formula_sum "Si O2"
_cell_formula_units_Z 32
_cell_length_a 7.373210
_cell_length_b 13.035278
_cell_length_c 12.881112
_cell_angle_alpha 90.000000
_cell_angle_beta 90.000000
_cell_angle_gamma 90.000000
_cell_volume 1238.027403
_symmetry_space_group_name_H-M "P M N 21"
_symmetry_group_IT_number 31
_symmetry_cell_setting 'orthorhombic'
loop_
_space_group_symop_operation_xyz
x,y,z
1/2-x,-y,1/2+z
-x,y,z
1/2+x,-y,1/2+z
loop_
_atom_site_type_symbol
_atom_site_label
_atom_site_fract_x
_atom_site_fract_y
_atom_site_fract_z
Si Si1 0.215452 0.583404 0.239070
Si Si2 0.222016 0.920279 0.269270
Si Si3 0.779020 0.651743 0.014431
Si Si4 0.294886 0.855130 0.722825
Si Si5 0.280334 0.128476 0.536639
Si Si6 0.722322 0.640584 0.685782
Si Si7 0.293620 0.102183 0.990767
Si Si8 0.784809 0.427144 0.962362
O O1 0.277759 0.638680 0.135248
O O2 0.283251 0.466078 0.235359
O O3 0.249793 0.625362 0.352924
O O4 0.000000 0.578833 0.227059
O O5 0.268449 0.869764 0.159403
O O6 0.000000 0.921110 0.272871
O O7 0.287921 0.038568 0.261359
O O8 0.282963 0.871316 0.377491
O O9 0.720340 0.765799 0.983145
O O10 0.000000 0.652685 0.008853
O O11 0.715197 0.545461 0.962807
O O12 0.500000 0.853969 0.762429
O O13 0.210123 0.743812 0.739607
O O14 0.301740 0.865000 0.596695
O O15 0.500000 0.121872 0.531042
O O16 0.206577 0.022311 0.492933
O O17 0.500000 0.644816 0.689218
O O18 0.779113 0.631018 0.565124
O O19 0.500000 0.138863 0.998485
O O20 0.000000 0.434983 0.975082
#
# Coordination Sequence:
#
# PCOD9342816 Si02
#       8
#     4   4   4   4   4   4   4   4
#     4   9  17  31  50  72  94 123 159 193 226 272
#     4   8  16  29  46  65  88 117 151 188 230 272
#     4   8  16  31  50  68  92 125 161 192 224 271
#     4   9  17  33  52  67  87 126 167 190 217 277
#     4   9  17  33  52  67  87 126 167 190 217 277
#     4   8  16  31  50  68  92 125 161 192 224 271
#     4  10  19  31  46  71 100 119 143 196 250 276
#     4   9  17  31  48  70  98 125 151 191 238 274
#
# _framework density 25.847567999999999
#
# number of rings (size 3 to 8) (size 9 to 14) (size 15 to 20)
#    0.000    3.250    0.000    2.625    0.000    2.000 
#    0.000   12.500    0.000    0.000    0.000    0.000 
#    0.000    0.000    0.000    0.000    0.000    0.000 
#
# Total GULP energy -178765.008425 kJ/mol
# GULP energy per Si atom -5586.406513 kJ/mol
# Density = 2.578874 g / cm^3
# Si number density = 25.847568 Si / 1000 Ang^3
#
#
#
# Elastic Constant Matrix: (Units=GPa)
#
#
# Indices 1 2 3 4 5 6 
#
# 1 98.7428 -0.8609 -8.4990 0.0000 0.0000 0.0000
# 2 -0.8609 121.4608 -14.5561 0.0000 0.0000 0.0000
# 3 -8.4990 -14.5561 128.1756 0.0000 0.0000 0.0000
# 4 0.0000 0.0000 0.0000 -16.5445 0.0000 0.0000
# 5 0.0000 0.0000 0.0000 0.0000 8.5806 0.0000
# 6 0.0000 0.0000 0.0000 0.0000 0.0000 -3.8715
#
#
#
# Elastic Compliance Matrix: (Units=1/GPa)
#
#
# Indices 1 2 3 4 5 6 
#
# 1 0.010188 0.000155 0.000693 0.000000 0.000000 0.000000
# 2 0.000155 0.008349 0.000958 0.000000 0.000000 0.000000
# 3 0.000693 0.000958 0.007957 0.000000 0.000000 0.000000
# 4 0.000000 0.000000 0.000000 -0.060443 0.000000 0.000000
# 5 0.000000 0.000000 0.000000 0.000000 0.116542 0.000000
# 6 0.000000 0.000000 0.000000 0.000000 0.000000 -0.258301
#
#
# Mechanical properties :
#
#
# Convention : Reuss Voigt Hill
#
# Bulk Modulus (GPa) = 33.21388 33.39412 33.30400
# Shear Modulus (GPa) = -29.53580 22.45262 -3.54159
#
# Velocity S-wave (km/s) = -3.38404 2.95049 -1.17182
# Velocity P-wave (km/s) = 1.54634 4.95529 3.32894
#
# Compressibility (1/GPa) = 0.03010790
#
# Stress axis : x y z
#
# Youngs Moduli (GPa) = 98.15146 119.77381 125.68173
#
# Poissons Ratio (x) = -0.01860 -0.08712
# Poissons Ratio (y) = -0.01524 -0.12046
# Poissons Ratio (z) = -0.06804 -0.11480
#
# Static dielectric constant tensor:
#      x y z
#    x 1.981650 0.000000 0.000000 
#    y 0.000000 2.024540 0.000000 
#    z 0.000000 0.000000 2.021800 
# 
# From -- ./inp_files/5112.got.cif
#   From: 2010.05.17/outbox.cif.g08.bks.cpg/sg31_3_cif.got.tgz:5112.got - 2010.06.03 17:08:30.
