data_PCOD9342717
_publ_section_title
;
Structure prediction by ZEFSAII (Michael W. Deem and Ramdas Pophale) SiO2 
 PCOD9342717
Probable space group: P M N 21
;
_chemical_formula_sum "Si O2"
_cell_formula_units_Z 32
_cell_length_a 7.525146
_cell_length_b 11.749145
_cell_length_c 16.880467
_cell_angle_alpha 90.000000
_cell_angle_beta 90.000000
_cell_angle_gamma 90.000000
_cell_volume 1492.470141
_symmetry_space_group_name_H-M "P M N 21"
_symmetry_group_IT_number 31
_symmetry_cell_setting 'orthorhombic'
loop_
_space_group_symop_operation_xyz
x,y,z
1/2-x,-y,1/2+z
-x,y,z
1/2+x,-y,1/2+z
loop_
_atom_site_type_symbol
_atom_site_label
_atom_site_fract_x
_atom_site_fract_y
_atom_site_fract_z
Si Si1 0.716430 0.824913 0.773650
Si Si2 0.215353 0.067283 0.104390
Si Si3 0.286385 0.168255 0.658987
Si Si4 0.796252 0.431756 0.649057
Si Si5 0.781533 0.523318 0.479319
Si Si6 0.789123 0.428768 0.308261
Si Si7 0.216471 0.941508 0.328517
Si Si8 0.703147 0.221960 0.960169
O O1 0.500000 0.821062 0.775893
O O2 0.763780 0.873484 0.687368
O O3 0.781737 0.697731 0.788873
O O4 0.775014 0.927159 0.831689
O O5 0.294416 0.144559 0.037006
O O6 0.000000 0.069274 0.099484
O O7 0.270801 0.934674 0.101264
O O8 0.500000 0.177529 0.653926
O O9 0.215273 0.294938 0.650723
O O10 0.242590 0.115727 0.744571
O O11 0.719254 0.471070 0.563576
O O12 0.730756 0.487679 0.731901
O O13 0.000000 0.468113 0.647142
O O14 0.722921 0.470566 0.394621
O O15 0.721977 0.654446 0.477038
O O16 0.000000 0.516543 0.480308
O O17 0.000000 0.417628 0.318384
O O18 0.288899 0.856389 0.393670
O O19 0.000000 0.945507 0.334336
O O20 0.500000 0.244301 0.934149
#
# Coordination Sequence:
#
# PCOD9342717 Si02
#       8
#     4   4   4   4   4   4   4   4
#     4   8  15  29  51  76  96 121 164 210 246 287
#     4   9  18  32  50  74 101 126 159 209 258 299
#     4   9  18  35  55  72  97 135 175 210 253 314
#     4  11  22  35  52  78 111 139 171 222 270 304
#     4   9  20  35  51  76 108 141 176 214 259 316
#     4  10  19  35  58  77 100 141 183 211 249 315
#     4   8  15  29  51  76  97 122 164 213 250 294
#     4  10  18  30  50  73  98 129 164 201 249 305
#
# _framework density 21.440966
#
# number of rings (size 3 to 8) (size 9 to 14) (size 15 to 20)
#    0.000    2.750    0.000    3.375    0.000    3.500 
#    0.000    6.875    0.000    2.250    0.000    0.000 
#    0.000    0.000    0.000    0.000    0.000    0.000 
#
# Total GULP energy -178349.103636 kJ/mol
# GULP energy per Si atom -5573.409489 kJ/mol
# Density = 2.139217 g / cm^3
# Si number density = 21.440966 Si / 1000 Ang^3
#
#
#
# Elastic Constant Matrix: (Units=GPa)
#
#
# Indices 1 2 3 4 5 6 
#
# 1 48.3200 -7.1117 0.3960 0.0000 0.0000 0.0000
# 2 -7.1117 174.8421 67.5320 0.0000 0.0000 0.0000
# 3 0.3960 67.5320 104.2016 0.0000 0.0000 0.0000
# 4 0.0000 0.0000 0.0000 30.6732 0.0000 0.0000
# 5 0.0000 0.0000 0.0000 0.0000 13.3855 0.0000
# 6 0.0000 0.0000 0.0000 0.0000 0.0000 0.7126
#
#
#
# Elastic Compliance Matrix: (Units=1/GPa)
#
#
# Indices 1 2 3 4 5 6 
#
# 1 0.020875 0.001173 -0.000840 0.000000 0.000000 0.000000
# 2 0.001173 0.007695 -0.004992 0.000000 0.000000 0.000000
# 3 -0.000840 -0.004992 0.012835 0.000000 0.000000 0.000000
# 4 0.000000 0.000000 0.000000 0.032602 0.000000 0.000000
# 5 0.000000 0.000000 0.000000 0.000000 0.074707 0.000000
# 6 0.000000 0.000000 0.000000 0.000000 0.000000 1.403288
#
#
# Mechanical properties :
#
#
# Convention : Reuss Voigt Hill
#
# Bulk Modulus (GPa) = 31.16317 49.88846 40.52582
# Shear Modulus (GPa) = 3.18063 26.72410 14.95237
#
# Velocity S-wave (km/s) = 1.21929 3.53427 2.64365
# Velocity P-wave (km/s) = 4.06794 6.32243 5.31607
#
# Compressibility (1/GPa) = 0.03208916
#
# Stress axis : x y z
#
# Youngs Moduli (GPa) = 47.90426 129.95164 77.91200
#
# Poissons Ratio (x) = -0.15250 0.06543
# Poissons Ratio (y) = -0.05621 0.38891
# Poissons Ratio (z) = 0.04023 0.64867
#
# Static dielectric constant tensor:
#      x y z
#    x 1.836110 0.000000 0.000000 
#    y 0.000000 1.765500 0.000000 
#    z 0.000000 0.000000 1.783810 
# 
# From -- ./inp_files/5932.got.cif
#   From: 2010.05.17/outbox.cif.g08.bks.cpg/sg31_3_cif.got.tgz:5932.got - 2010.06.03 17:08:30.
