data_PCOD9342864
_publ_section_title
;
Structure prediction by ZEFSAII (Michael W. Deem and Ramdas Pophale) SiO2 
 PCOD9342864
Probable space group: P M N 21
;
_chemical_formula_sum "Si O2"
_cell_formula_units_Z 32
_cell_length_a 7.775779
_cell_length_b 14.952895
_cell_length_c 12.607502
_cell_angle_alpha 90.000000
_cell_angle_beta 90.000000
_cell_angle_gamma 90.000000
_cell_volume 1465.879388
_symmetry_space_group_name_H-M "P M N 21"
_symmetry_group_IT_number 31
_symmetry_cell_setting 'orthorhombic'
loop_
_space_group_symop_operation_xyz
x,y,z
1/2-x,-y,1/2+z
-x,y,z
1/2+x,-y,1/2+z
loop_
_atom_site_type_symbol
_atom_site_label
_atom_site_fract_x
_atom_site_fract_y
_atom_site_fract_z
Si Si1 0.801399 0.654597 0.016720
Si Si2 0.201998 0.160482 0.815649
Si Si3 0.297186 0.227524 0.111225
Si Si4 0.199433 0.355930 0.278217
Si Si5 0.787959 0.548470 0.225142
Si Si6 0.295854 0.853628 0.067196
Si Si7 0.305057 0.338743 0.918630
Si Si8 0.704562 0.046543 0.009878
O O1 0.731580 0.604911 0.122154
O O2 0.787727 0.761116 0.032113
O O3 0.000000 0.628147 0.007822
O O4 0.717417 0.633295 0.904089
O O5 0.222893 0.139415 0.693469
O O6 0.305172 0.248722 0.847820
O O7 0.263112 0.082018 0.892074
O O8 0.000000 0.178122 0.835651
O O9 0.500000 0.222599 0.085758
O O10 0.279152 0.266650 0.228287
O O11 0.224696 0.301805 0.028065
O O12 0.228708 0.128272 0.084554
O O13 0.268244 0.445711 0.222653
O O14 0.000000 0.349392 0.252491
O O15 0.726464 0.589883 0.337493
O O16 0.000000 0.552102 0.227727
O O17 0.500000 0.845153 0.041854
O O18 0.225188 0.946925 0.022776
O O19 0.500000 0.369149 0.942011
O O20 0.500000 0.038650 0.030750
#
# Coordination Sequence:
#
# PCOD9342864 Si02
#       8
#     4   4   4   4   4   4   4   4
#     4  11  23  41  63  88 119 155 199 243 293 360
#     4  10  19  32  53  85 117 145 189 246 296 344
#     4   9  19  36  59  85 115 155 200 242 292 354
#     4  11  24  40  59  86 124 161 196 246 299 351
#     4   9  20  38  60  85 114 152 195 240 293 350
#     4  10  21  38  59  86 118 153 194 246 300 349
#     4   9  17  35  60  81 107 148 194 241 292 347
#     4   9  20  38  59  82 116 159 201 242 293 355
#
# _framework density 21.829899999999999
#
# number of rings (size 3 to 8) (size 9 to 14) (size 15 to 20)
#    0.000    2.250    1.250    1.875    1.750    4.000 
#    0.000    4.375    0.000    0.000    0.000    0.000 
#    0.000    0.000    0.000    0.000    0.000    0.000 
#
# Total GULP energy -178523.039855 kJ/mol
# GULP energy per Si atom -5578.844995 kJ/mol
# Density = 2.178021 g / cm^3
# Si number density = 21.829900 Si / 1000 Ang^3
#
#
#
# Elastic Constant Matrix: (Units=GPa)
#
#
# Indices 1 2 3 4 5 6 
#
# 1 26.0073 2.7436 -3.9562 0.0000 0.0000 0.0000
# 2 2.7436 105.9733 32.2110 0.0000 0.0000 0.0000
# 3 -3.9562 32.2110 36.0530 0.0000 0.0000 0.0000
# 4 0.0000 0.0000 0.0000 18.3010 0.0000 0.0000
# 5 0.0000 0.0000 0.0000 0.0000 13.5867 0.0000
# 6 0.0000 0.0000 0.0000 0.0000 0.0000 -20.9416
#
#
#
# Elastic Compliance Matrix: (Units=1/GPa)
#
#
# Indices 1 2 3 4 5 6 
#
# 1 0.039900 -0.003245 0.007278 0.000000 0.000000 0.000000
# 2 -0.003245 0.013218 -0.012166 0.000000 0.000000 0.000000
# 3 0.007278 -0.012166 0.039405 0.000000 0.000000 0.000000
# 4 0.000000 0.000000 0.000000 0.054642 0.000000 0.000000
# 5 0.000000 0.000000 0.000000 0.000000 0.073602 0.000000
# 6 0.000000 0.000000 0.000000 0.000000 0.000000 -0.047752
#
#
# Mechanical properties :
#
#
# Convention : Reuss Voigt Hill
#
# Bulk Modulus (GPa) = 13.11355 25.55891 19.33623
# Shear Modulus (GPa) = 23.28835 11.32490 17.30663
#
# Velocity S-wave (km/s) = 3.26975 2.28014 2.81872
# Velocity P-wave (km/s) = 4.50280 4.32038 4.41253
#
# Compressibility (1/GPa) = 0.07625703
#
# Stress axis : x y z
#
# Youngs Moduli (GPa) = 25.06254 75.65363 25.37765
#
# Poissons Ratio (x) = 0.24550 -0.18469
# Poissons Ratio (y) = 0.08133 0.30874
# Poissons Ratio (z) = -0.18240 0.92037
#
# Static dielectric constant tensor:
#      x y z
#    x 1.839090 0.000000 0.000000 
#    y 0.000000 1.820290 0.000000 
#    z 0.000000 0.000000 1.794840 
# 
# From -- ./inp_files/3679.got.cif
#   From: 2010.05.17/outbox.cif.g08.bks.cpg/sg31_2_cif.got.tgz:3679.got - 2010.06.03 17:08:30.
