data_PCOD9342330
_publ_section_title
;
Structure prediction by ZEFSAII (Michael W. Deem and Ramdas Pophale) SiO2 
 PCOD9342330
Probable space group: P N C 2
;
_chemical_formula_sum "Si O2"
_cell_formula_units_Z 20
_cell_length_a 12.793655
_cell_length_b 13.121872
_cell_length_c 4.856220
_cell_angle_alpha 90.000000
_cell_angle_beta 90.000000
_cell_angle_gamma 90.000000
_cell_volume 815.246204
_symmetry_space_group_name_H-M "P N C 2"
_symmetry_group_IT_number 30
_symmetry_cell_setting 'orthorhombic'
loop_
_space_group_symop_operation_xyz
x,y,z
-x,-y,z
-x,1/2+y,1/2+z
x,1/2-y,1/2+z
loop_
_atom_site_type_symbol
_atom_site_label
_atom_site_fract_x
_atom_site_fract_y
_atom_site_fract_z
Si Si1 0.709980 0.444649 0.541980
Si Si2 0.394511 0.313452 0.150057
Si Si3 0.000000 0.000000 0.837776
Si Si4 0.105489 0.813452 0.150056
Si Si5 0.790020 0.944649 0.541980
Si Si6 0.500000 0.000000 0.337776
O O1 0.772501 0.342385 0.611254
O O2 0.726541 0.470711 0.223166
O O3 0.593478 0.457161 0.648329
O O4 0.773459 0.529289 0.723166
O O5 0.416666 0.214937 0.962645
O O6 0.457882 0.408052 0.027557
O O7 0.272501 0.342385 0.111254
O O8 0.093478 0.042839 0.648329
O O9 0.957882 0.091947 0.027557
O O10 0.083334 0.714937 0.962643
#
# Coordination Sequence:
#
# PCOD9342330 Si02
#       6
#     4   4   2   4   4   2
#     4  10  22  41  64  91 128 170 217 274 328 384
#     4  11  24  41  65 100 135 174 224 272 328 393
#     4  10  24  44  70  96 134 180 222 272 332 394
#     4  11  24  41  65 100 135 174 224 272 328 393
#     4  10  22  41  64  91 128 170 217 274 328 384
#     4  10  24  44  70  96 134 180 222 272 332 394
#
# _framework density 24.532468000000001
#
# number of rings (size 3 to 8) (size 9 to 14) (size 15 to 20)
#    0.000    1.600    0.000    4.800    0.000   17.600 
#    0.000    0.000    0.000    0.000    0.000    0.000 
#    0.000    0.000    0.000    0.000    0.000    0.000 
#
# Total GULP energy -112022.329798 kJ/mol
# GULP energy per Si atom -5601.116490 kJ/mol
# Density = 2.447663 g / cm^3
# Si number density = 24.532468 Si / 1000 Ang^3
#
#
#
# Elastic Constant Matrix: (Units=GPa)
#
#
# Indices 1 2 3 4 5 6 
#
# 1 163.7166 44.0168 17.3428 0.0000 0.0000 0.0000
# 2 44.0168 84.5008 18.3282 0.0000 0.0000 0.0000
# 3 17.3428 18.3282 81.6978 0.0000 0.0000 0.0000
# 4 0.0000 0.0000 0.0000 37.5259 0.0000 0.0000
# 5 0.0000 0.0000 0.0000 0.0000 35.9014 0.0000
# 6 0.0000 0.0000 0.0000 0.0000 0.0000 45.9956
#
#
#
# Elastic Compliance Matrix: (Units=1/GPa)
#
#
# Indices 1 2 3 4 5 6 
#
# 1 0.007143 -0.003565 -0.000716 0.000000 0.000000 0.000000
# 2 -0.003565 0.014219 -0.002433 0.000000 0.000000 0.000000
# 3 -0.000716 -0.002433 0.012938 0.000000 0.000000 0.000000
# 4 0.000000 0.000000 0.000000 0.026648 0.000000 0.000000
# 5 0.000000 0.000000 0.000000 0.000000 0.027854 0.000000
# 6 0.000000 0.000000 0.000000 0.000000 0.000000 0.021741
#
#
# Mechanical properties :
#
#
# Convention : Reuss Voigt Hill
#
# Bulk Modulus (GPa) = 47.91482 54.36564 51.14023
# Shear Modulus (GPa) = 38.18849 40.56639 39.37744
#
# Velocity S-wave (km/s) = 3.94972 4.07083 4.01074
# Velocity P-wave (km/s) = 6.35405 6.65615 6.50686
#
# Compressibility (1/GPa) = 0.02087037
#
# Stress axis : x y z
#
# Youngs Moduli (GPa) = 140.00620 70.32812 77.29078
#
# Poissons Ratio (x) = 0.25073 0.05537
# Poissons Ratio (y) = 0.49915 0.18806
# Poissons Ratio (z) = 0.10030 0.17112
#
# Static dielectric constant tensor:
#      x y z
#    x 1.980970 0.000000 0.000000 
#    y 0.000000 1.956410 0.000000 
#    z 0.000000 0.000000 1.883680 
# 
# From -- ./inp_files/654.got.cif
#   From: 2010.05.17/outbox.cif.g08.bks.cpg/sg30_1_cif.got.tgz:654.got - 2010.06.03 17:03:02.
