data_PCOD9342075
_publ_section_title
;
Structure prediction by ZEFSAII (Michael W. Deem and Ramdas Pophale) SiO2 
 PCOD9342075
Probable space group: P N C 2
;
_chemical_formula_sum "Si O2"
_cell_formula_units_Z 22
_cell_length_a 7.508294
_cell_length_b 14.153295
_cell_length_c 9.049470
_cell_angle_alpha 90.000000
_cell_angle_beta 90.000000
_cell_angle_gamma 90.000000
_cell_volume 961.660933
_symmetry_space_group_name_H-M "P N C 2"
_symmetry_group_IT_number 30
_symmetry_cell_setting 'orthorhombic'
loop_
_space_group_symop_operation_xyz
x,y,z
-x,-y,z
-x,1/2+y,1/2+z
x,1/2-y,1/2+z
loop_
_atom_site_type_symbol
_atom_site_label
_atom_site_fract_x
_atom_site_fract_y
_atom_site_fract_z
Si Si1 0.793796 0.477886 0.626900
Si Si2 0.000000 0.000000 0.632146
Si Si3 0.167364 0.805262 0.906447
Si Si4 0.697692 0.093719 0.430287
Si Si5 0.793103 0.629073 0.371503
Si Si6 0.538154 0.107606 0.717607
O O1 0.787349 0.378554 0.537994
O O2 0.685848 0.460991 0.776129
O O3 0.748080 0.562604 0.512668
O O4 0.000000 0.500000 0.665670
O O5 0.110141 0.066701 0.744444
O O6 0.852587 0.044049 0.525138
O O7 0.241079 0.700891 0.907537
O O8 0.270515 0.854811 0.769856
O O9 0.952828 0.799949 0.907548
O O10 0.530464 0.103587 0.540969
O O11 0.613679 0.667703 0.298996
O O12 0.500000 0.000000 0.768054
#
# Coordination Sequence:
#
# PCOD9342075 Si02
#       6
#     4   2   4   4   4   4
#     4  10  20  38  66 100 131 175 231 279 345 413
#     4  12  20  42  70  94 138 192 230 272 360 428
#     4  11  23  44  69  97 141 183 228 292 348 419
#     4  12  24  40  69 108 140 172 240 304 342 399
#     4  11  21  45  71  92 132 198 229 262 361 440
#     4  12  22  44  71  96 135 192 230 275 357 434
#
# _framework density 22.877085000000001
#
# number of rings (size 3 to 8) (size 9 to 14) (size 15 to 20)
#    0.000    0.727    9.091    1.091    0.000    0.000 
#    6.545    0.000    0.000    0.000    0.000    0.000 
#    0.000    0.000    0.000    0.000    0.000    0.000 
#
# Total GULP energy -122842.505999 kJ/mol
# GULP energy per Si atom -5583.750273 kJ/mol
# Density = 2.282502 g / cm^3
# Si number density = 22.877085 Si / 1000 Ang^3
#
#
#
# Elastic Constant Matrix: (Units=GPa)
#
#
# Indices 1 2 3 4 5 6 
#
# 1 94.7625 6.2597 49.0126 0.0000 0.0000 0.0000
# 2 6.2597 52.1682 6.2506 0.0000 0.0000 0.0000
# 3 49.0126 6.2506 141.5987 0.0000 0.0000 0.0000
# 4 0.0000 0.0000 0.0000 -1.6918 0.0000 0.0000
# 5 0.0000 0.0000 0.0000 0.0000 32.4531 0.0000
# 6 0.0000 0.0000 0.0000 0.0000 0.0000 13.1298
#
#
#
# Elastic Compliance Matrix: (Units=1/GPa)
#
#
# Indices 1 2 3 4 5 6 
#
# 1 0.012908 -0.001019 -0.004423 0.000000 0.000000 0.000000
# 2 -0.001019 0.019351 -0.000502 0.000000 0.000000 0.000000
# 3 -0.004423 -0.000502 0.008615 0.000000 0.000000 0.000000
# 4 0.000000 0.000000 0.000000 -0.591069 0.000000 0.000000
# 5 0.000000 0.000000 0.000000 0.000000 0.030814 0.000000
# 6 0.000000 0.000000 0.000000 0.000000 0.000000 0.076163
#
#
# Mechanical properties :
#
#
# Convention : Reuss Voigt Hill
#
# Bulk Modulus (GPa) = 34.49764 45.73055 40.11410
# Shear Modulus (GPa) = -11.85762 23.91197 6.02718
#
# Velocity S-wave (km/s) = -2.27913 3.23652 1.62490
# Velocity P-wave (km/s) = 2.86119 5.83094 4.59272
#
# Compressibility (1/GPa) = 0.02898749
#
# Stress axis : x y z
#
# Youngs Moduli (GPa) = 77.47409 51.67660 116.07323
#
# Poissons Ratio (x) = 0.05265 0.51337
# Poissons Ratio (y) = 0.07893 0.05822
# Poissons Ratio (z) = 0.34265 0.02592
#
# Static dielectric constant tensor:
#      x y z
#    x 1.960730 0.000000 0.000000 
#    y 0.000000 1.881310 0.000000 
#    z 0.000000 0.000000 1.905870 
# 
# From -- ./inp_files/1845.got.cif
#   From: 2010.05.17/outbox.cif.g08.bks.cpg/sg30_1_cif.got.tgz:1845.got - 2010.06.03 17:03:02.
