data_PCOD9342978
_publ_section_title
;
Structure prediction by ZEFSAII (Michael W. Deem and Ramdas Pophale) SiO2 
 PCOD9342978
Probable space group: P M N 21
;
_chemical_formula_sum "Si O2"
_cell_formula_units_Z 32
_cell_length_a 8.724136
_cell_length_b 9.363852
_cell_length_c 21.372870
_cell_angle_alpha 90.000000
_cell_angle_beta 90.000000
_cell_angle_gamma 90.000000
_cell_volume 1745.982201
_symmetry_space_group_name_H-M "P M N 21"
_symmetry_group_IT_number 31
_symmetry_cell_setting 'orthorhombic'
loop_
_space_group_symop_operation_xyz
x,y,z
1/2-x,-y,1/2+z
-x,y,z
1/2+x,-y,1/2+z
loop_
_atom_site_type_symbol
_atom_site_label
_atom_site_fract_x
_atom_site_fract_y
_atom_site_fract_z
Si Si1 0.176229 0.674722 0.777900
Si Si2 0.316603 0.662969 0.647568
Si Si3 0.177671 0.327491 0.780050
Si Si4 0.185703 0.656890 0.915429
Si Si5 0.314779 0.843850 0.526975
Si Si6 0.815744 0.669665 0.147630
Si Si7 0.816653 0.663414 0.412416
Si Si8 0.183352 0.161817 0.530110
O O1 0.262839 0.718235 0.715203
O O2 0.180787 0.501256 0.779485
O O3 0.233371 0.716820 0.846891
O O4 0.000000 0.719489 0.772041
O O5 0.500000 0.662341 0.647495
O O6 0.265044 0.757468 0.589193
O O7 0.268316 0.497218 0.640104
O O8 0.260612 0.282103 0.716333
O O9 0.260934 0.284883 0.844015
O O10 0.000000 0.283398 0.780557
O O11 0.251214 0.496844 0.921475
O O12 0.000000 0.649585 0.916300
O O13 0.247419 0.752129 0.971463
O O14 0.500000 0.847463 0.525201
O O15 0.252241 0.761601 0.466524
O O16 0.248383 0.002200 0.529037
O O17 0.739563 0.760779 0.093171
O O18 0.000000 0.677894 0.143386
O O19 0.000000 0.660578 0.414970
O O20 0.000000 0.161873 0.526902
#
# Coordination Sequence:
#
# PCOD9342978 Si02
#       8
#     4   4   4   4   4   4   4   4
#     4   8  16  30  53  82 111 139 173 218 270 323
#     4   9  19  34  57  84 109 139 179 222 270 326
#     4   9  17  32  54  83 115 146 180 224 275 330
#     4  10  20  37  59  84 112 147 186 227 278 336
#     4  11  23  40  57  77 110 152 190 230 280 336
#     4  10  19  35  59  86 113 144 182 228 279 336
#     4  11  21  35  58  88 115 144 184 232 280 332
#     4  12  25  39  55  80 111 147 190 237 284 335
#
# _framework density 18.327793
#
# number of rings (size 3 to 8) (size 9 to 14) (size 15 to 20)
#    0.000    2.000    0.000    5.250    0.000    6.000 
#    0.000    1.250    0.000    3.000    0.000    0.000 
#    0.000    0.000    0.000    0.000    0.000    0.000 
#
# Total GULP energy -178645.172760 kJ/mol
# GULP energy per Si atom -5582.661649 kJ/mol
# Density = 1.828608 g / cm^3
# Si number density = 18.327793 Si / 1000 Ang^3
#
#
#
# Elastic Constant Matrix: (Units=GPa)
#
#
# Indices 1 2 3 4 5 6 
#
# 1 102.0984 42.5985 67.3981 0.0000 0.0000 0.0000
# 2 42.5985 83.3589 87.4606 0.0000 0.0000 0.0000
# 3 67.3981 87.4606 209.8947 0.0000 0.0000 0.0000
# 4 0.0000 0.0000 0.0000 -9.3839 0.0000 0.0000
# 5 0.0000 0.0000 0.0000 0.0000 36.7199 0.0000
# 6 0.0000 0.0000 0.0000 0.0000 0.0000 -79.0774
#
#
#
# Elastic Compliance Matrix: (Units=1/GPa)
#
#
# Indices 1 2 3 4 5 6 
#
# 1 0.013164 -0.004073 -0.002530 0.000000 0.000000 0.000000
# 2 -0.004073 0.022575 -0.008099 0.000000 0.000000 0.000000
# 3 -0.002530 -0.008099 0.008951 0.000000 0.000000 0.000000
# 4 0.000000 0.000000 0.000000 -0.106566 0.000000 0.000000
# 5 0.000000 0.000000 0.000000 0.000000 0.027233 0.000000
# 6 0.000000 0.000000 0.000000 0.000000 0.000000 -0.012646
#
#
# Mechanical properties :
#
#
# Convention : Reuss Voigt Hill
#
# Bulk Modulus (GPa) = 65.41447 87.80738 76.61093
# Shear Modulus (GPa) = -390.95587 2.84470 -194.05559
#
# Velocity S-wave (km/s) = -14.62109 1.24719 -10.30099
# Velocity P-wave (km/s) = 15.78816 7.07725 9.97944
#
# Compressibility (1/GPa) = 0.01528714
#
# Stress axis : x y z
#
# Youngs Moduli (GPa) = 75.96605 44.29668 111.71388
#
# Poissons Ratio (x) = 0.18040 0.28263
# Poissons Ratio (y) = 0.30938 0.90477
# Poissons Ratio (z) = 0.19219 0.35876
#
# Static dielectric constant tensor:
#      x y z
#    x 1.615740 0.000000 0.000000 
#    y 0.000000 1.611250 0.000000 
#    z 0.000000 0.000000 1.634460 
# 
# From -- ./inp_files/6244.got.cif
#   From: 2010.05.17/outbox.cif.g08.bks.cpg/sg31_4_cif.got.tgz:6244.got - 2010.06.03 17:08:30.
