data_PCOD9342876
_publ_section_title
;
Structure prediction by ZEFSAII (Michael W. Deem and Ramdas Pophale) SiO2 
 PCOD9342876
Probable space group: P M N 21
;
_chemical_formula_sum "Si O2"
_cell_formula_units_Z 32
_cell_length_a 8.157742
_cell_length_b 12.757731
_cell_length_c 14.534603
_cell_angle_alpha 90.000000
_cell_angle_beta 90.000000
_cell_angle_gamma 90.000000
_cell_volume 1512.678313
_symmetry_space_group_name_H-M "P M N 21"
_symmetry_group_IT_number 31
_symmetry_cell_setting 'orthorhombic'
loop_
_space_group_symop_operation_xyz
x,y,z
1/2-x,-y,1/2+z
-x,y,z
1/2+x,-y,1/2+z
loop_
_atom_site_type_symbol
_atom_site_label
_atom_site_fract_x
_atom_site_fract_y
_atom_site_fract_z
Si Si1 0.811527 0.412549 0.456440
Si Si2 0.807442 0.052135 0.505467
Si Si3 0.691664 0.850291 0.264514
Si Si4 0.803732 0.682069 0.763668
Si Si5 0.199944 0.918085 0.795904
Si Si6 0.197423 0.824113 0.471418
Si Si7 0.299984 0.391184 0.070546
Si Si8 0.817757 0.745952 0.096838
O O1 0.734609 0.366923 0.363169
O O2 0.738484 0.516452 0.504204
O O3 0.800358 0.325980 0.536908
O O4 0.000000 0.433808 0.433194
O O5 0.776422 0.071993 0.397417
O O6 0.702472 0.137386 0.557558
O O7 0.000000 0.066677 0.526635
O O8 0.761892 0.931805 0.523626
O O9 0.500000 0.844123 0.242603
O O10 0.721099 0.828928 0.371668
O O11 0.780075 0.763094 0.203458
O O12 0.744390 0.971764 0.247134
O O13 0.748917 0.804280 0.757938
O O14 0.743001 0.614015 0.676673
O O15 0.000000 0.686240 0.755504
O O16 0.000000 0.918432 0.803048
O O17 0.240706 0.720590 0.526316
O O18 0.000000 0.825623 0.458100
O O19 0.500000 0.401299 0.072128
O O20 0.000000 0.705652 0.081425
#
# Coordination Sequence:
#
# PCOD9342876 Si02
#       8
#     4   4   4   4   4   4   4   4
#     4  11  23  41  62  88 121 157 203 257 300 349
#     4  10  19  32  57  87 119 154 193 240 296 355
#     4  10  21  36  57  89 125 161 199 245 297 356
#     4  10  20  38  63  88 116 157 199 244 300 362
#     4   9  18  33  57  85 119 156 195 239 295 356
#     4   9  19  38  61  87 121 159 194 238 299 361
#     4   9  21  40  64  90 118 156 203 248 299 358
#     4  12  24  38  57  84 119 162 206 247 298 357
#
# _framework density 21.154530999999999
#
# number of rings (size 3 to 8) (size 9 to 14) (size 15 to 20)
#    0.000    2.000    1.250    2.250    1.750    2.000 
#    0.000    5.625    0.000    0.000    0.000    0.000 
#    0.000    0.000    0.000    0.000    0.000    0.000 
#
# Total GULP energy -178622.076355 kJ/mol
# GULP energy per Si atom -5581.939886 kJ/mol
# Density = 2.110638 g / cm^3
# Si number density = 21.154531 Si / 1000 Ang^3
#
#
#
# Elastic Constant Matrix: (Units=GPa)
#
#
# Indices 1 2 3 4 5 6 
#
# 1 13.5083 -0.0458 -4.1867 0.0000 0.0000 0.0000
# 2 -0.0458 96.4878 31.1398 0.0000 0.0000 0.0000
# 3 -4.1867 31.1398 62.7641 0.0000 0.0000 0.0000
# 4 0.0000 0.0000 0.0000 20.6599 0.0000 0.0000
# 5 0.0000 0.0000 0.0000 0.0000 7.9179 0.0000
# 6 0.0000 0.0000 0.0000 0.0000 0.0000 15.7824
#
#
#
# Elastic Compliance Matrix: (Units=1/GPa)
#
#
# Indices 1 2 3 4 5 6 
#
# 1 0.075884 -0.001902 0.006006 0.000000 0.000000 0.000000
# 2 -0.001902 0.012388 -0.006273 0.000000 0.000000 0.000000
# 3 0.006006 -0.006273 0.019445 0.000000 0.000000 0.000000
# 4 0.000000 0.000000 0.000000 0.048403 0.000000 0.000000
# 5 0.000000 0.000000 0.000000 0.000000 0.126296 0.000000
# 6 0.000000 0.000000 0.000000 0.000000 0.000000 0.063362
#
#
# Mechanical properties :
#
#
# Convention : Reuss Voigt Hill
#
# Bulk Modulus (GPa) = 9.67326 25.17498 17.42412
# Shear Modulus (GPa) = 13.00135 18.59558 15.79846
#
# Velocity S-wave (km/s) = 2.48178 2.96807 2.73575
# Velocity P-wave (km/s) = 3.57700 4.86541 4.27008
#
# Compressibility (1/GPa) = 0.10337777
#
# Stress axis : x y z
#
# Youngs Moduli (GPa) = 13.17809 80.72616 51.42578
#
# Poissons Ratio (x) = 0.15356 -0.30884
# Poissons Ratio (y) = 0.02507 0.32259
# Poissons Ratio (z) = -0.07914 0.50638
#
# Static dielectric constant tensor:
#      x y z
#    x 1.751000 0.000000 0.000000 
#    y 0.000000 1.769070 0.000000 
#    z 0.000000 0.000000 1.773030 
# 
# From -- ./inp_files/4984.got.cif
#   From: 2010.05.17/outbox.cif.g08.bks.cpg/sg31_3_cif.got.tgz:4984.got - 2010.06.03 17:08:30.
