data_PCOD9342945
_publ_section_title
;
Structure prediction by ZEFSAII (Michael W. Deem and Ramdas Pophale) SiO2 
 PCOD9342945
Probable space group: P M N 21
;
_chemical_formula_sum "Si O2"
_cell_formula_units_Z 32
_cell_length_a 7.953819
_cell_length_b 16.379603
_cell_length_c 11.387599
_cell_angle_alpha 90.000000
_cell_angle_beta 90.000000
_cell_angle_gamma 90.000000
_cell_volume 1483.580925
_symmetry_space_group_name_H-M "P M N 21"
_symmetry_group_IT_number 31
_symmetry_cell_setting 'orthorhombic'
loop_
_space_group_symop_operation_xyz
x,y,z
1/2-x,-y,1/2+z
-x,y,z
1/2+x,-y,1/2+z
loop_
_atom_site_type_symbol
_atom_site_label
_atom_site_fract_x
_atom_site_fract_y
_atom_site_fract_z
Si Si1 0.201158 0.159514 0.916440
Si Si2 0.809079 0.147844 0.546534
Si Si3 0.799658 0.458096 0.698214
Si Si4 0.794662 0.023380 0.732200
Si Si5 0.702799 0.154312 0.184579
Si Si6 0.191228 0.727187 0.228975
Si Si7 0.703466 0.448586 0.436707
Si Si8 0.806022 0.727316 0.864343
O O1 0.259158 0.082367 0.837677
O O2 0.280536 0.240621 0.860033
O O3 0.000000 0.164681 0.908033
O O4 0.253617 0.150042 0.049256
O O5 0.742369 0.066312 0.609304
O O6 0.808503 0.214777 0.651163
O O7 0.704382 0.193757 0.448026
O O8 0.000000 0.135012 0.505802
O O9 0.728336 0.367044 0.712162
O O10 0.758288 0.484296 0.563579
O O11 0.742164 0.508792 0.813874
O O12 0.000000 0.455151 0.706013
O O13 0.000000 0.024048 0.730463
O O14 0.736547 0.930699 0.741416
O O15 0.500000 0.155890 0.196958
O O16 0.770955 0.236478 0.245386
O O17 0.000000 0.743442 0.191575
O O18 0.500000 0.450744 0.440823
O O19 0.764688 0.353993 0.424553
O O20 0.000000 0.706207 0.841645
#
# Coordination Sequence:
#
# PCOD9342945 Si02
#       8
#     4   4   4   4   4   4   4   4
#     4  10  21  38  57  83 119 154 198 252 303 360
#     4  10  19  34  58  85 115 149 193 244 291 347
#     4  11  23  40  64  94 127 165 208 260 315 375
#     4   8  18  35  54  79 115 154 193 243 297 351
#     4  10  21  37  56  82 119 161 201 246 301 360
#     4  11  21  37  62  87 113 150 197 244 301 364
#     4  10  23  42  62  91 128 163 208 260 313 380
#     4  10  21  37  59  85 118 158 200 245 297 363
#
# _framework density 21.569434000000001
#
# number of rings (size 3 to 8) (size 9 to 14) (size 15 to 20)
#    0.000    2.000    1.250    3.000    1.750    2.500 
#    0.000    4.375    0.000    0.000    0.000    0.000 
#    0.000    0.000    0.000    0.000    0.000    0.000 
#
# Total GULP energy -178526.130517 kJ/mol
# GULP energy per Si atom -5578.941579 kJ/mol
# Density = 2.152034 g / cm^3
# Si number density = 21.569434 Si / 1000 Ang^3
#
#
#
# Elastic Constant Matrix: (Units=GPa)
#
#
# Indices 1 2 3 4 5 6 
#
# 1 43.5692 7.5304 2.8993 0.0000 0.0000 0.0000
# 2 7.5304 60.0406 37.1059 0.0000 0.0000 0.0000
# 3 2.8993 37.1059 122.0739 0.0000 0.0000 0.0000
# 4 0.0000 0.0000 0.0000 27.8324 0.0000 0.0000
# 5 0.0000 0.0000 0.0000 0.0000 28.4279 0.0000
# 6 0.0000 0.0000 0.0000 0.0000 0.0000 14.5970
#
#
#
# Elastic Compliance Matrix: (Units=1/GPa)
#
#
# Indices 1 2 3 4 5 6 
#
# 1 0.023478 -0.003201 0.000416 0.000000 0.000000 0.000000
# 2 -0.003201 0.020944 -0.006290 0.000000 0.000000 0.000000
# 3 0.000416 -0.006290 0.010094 0.000000 0.000000 0.000000
# 4 0.000000 0.000000 0.000000 0.035929 0.000000 0.000000
# 5 0.000000 0.000000 0.000000 0.000000 0.035177 0.000000
# 6 0.000000 0.000000 0.000000 0.000000 0.000000 0.068507
#
#
# Mechanical properties :
#
#
# Convention : Reuss Voigt Hill
#
# Bulk Modulus (GPa) = 27.50003 35.63944 31.56974
# Shear Modulus (GPa) = 22.28136 26.04800 24.16468
#
# Velocity S-wave (km/s) = 3.21753 3.47887 3.35075
# Velocity P-wave (km/s) = 5.15563 5.71802 5.44409
#
# Compressibility (1/GPa) = 0.03636359
#
# Stress axis : x y z
#
# Youngs Moduli (GPa) = 42.59367 47.74546 99.06978
#
# Poissons Ratio (x) = 0.15285 -0.04116
# Poissons Ratio (y) = 0.13636 0.62318
# Poissons Ratio (z) = -0.01770 0.30033
#
# Static dielectric constant tensor:
#      x y z
#    x 1.778750 0.000000 0.000000 
#    y 0.000000 1.785870 0.000000 
#    z 0.000000 0.000000 1.846330 
# 
# From -- ./inp_files/3588.got.cif
#   From: 2010.05.17/outbox.cif.g08.bks.cpg/sg31_2_cif.got.tgz:3588.got - 2010.06.03 17:08:30.
