data_PCOD9342686
_publ_section_title
;
Structure prediction by ZEFSAII (Michael W. Deem and Ramdas Pophale) SiO2 
 PCOD9342686
Probable space group: P M N 21
;
_chemical_formula_sum "Si O2"
_cell_formula_units_Z 32
_cell_length_a 9.054560
_cell_length_b 21.899319
_cell_length_c 7.124089
_cell_angle_alpha 90.000000
_cell_angle_beta 90.000000
_cell_angle_gamma 90.000000
_cell_volume 1412.626331
_symmetry_space_group_name_H-M "P M N 21"
_symmetry_group_IT_number 31
_symmetry_cell_setting 'orthorhombic'
loop_
_space_group_symop_operation_xyz
x,y,z
1/2-x,-y,1/2+z
-x,y,z
1/2+x,-y,1/2+z
loop_
_atom_site_type_symbol
_atom_site_label
_atom_site_fract_x
_atom_site_fract_y
_atom_site_fract_z
Si Si1 0.832801 0.543080 0.693980
Si Si2 0.333136 0.074912 0.472951
Si Si3 0.167349 0.580016 0.258399
Si Si4 0.833278 0.951059 0.530004
Si Si5 0.323831 0.289902 0.852068
Si Si6 0.176392 0.168966 0.950118
Si Si7 0.181131 0.800237 0.854471
Si Si8 0.324660 0.329893 0.290436
O O1 0.839657 0.567338 0.481712
O O2 0.750457 0.479136 0.685878
O O3 0.764162 0.600957 0.807833
O O4 0.000000 0.531506 0.759818
O O5 0.500000 0.068175 0.543275
O O6 0.338491 0.068637 0.246747
O O7 0.282611 0.144823 0.496448
O O8 0.236056 0.018096 0.533029
O O9 0.226444 0.649138 0.241095
O O10 0.000000 0.580427 0.186976
O O11 0.742753 0.899021 0.418670
O O12 0.000000 0.953391 0.459322
O O13 0.500000 0.281481 0.817986
O O14 0.241040 0.225870 0.832473
O O15 0.306926 0.308573 0.072946
O O16 0.233112 0.184960 0.161662
O O17 0.000000 0.167062 0.940394
O O18 0.220850 0.730487 0.904740
O O19 0.000000 0.802023 0.825385
O O20 0.500000 0.336779 0.319491
#
# Coordination Sequence:
#
# PCOD9342686 Si02
#       8
#     4   4   4   4   4   4   4   4
#     4   9  17  29  46  68  93 121 155 193 231 272
#     4   9  18  31  48  71  94 119 156 197 232 271
#     4   9  18  31  47  68  94 124 156 190 230 277
#     4  10  20  33  49  69  96 128 156 187 231 278
#     4   8  14  27  44  61  86 118 151 187 229 274
#     4  10  17  25  42  68  93 115 148 193 233 271
#     4   8  14  27  45  64  90 121 152 188 230 272
#     4   7  11  23  43  63  84 114 148 183 224 269
#
# _framework density 22.652840000000001
#
# number of rings (size 3 to 8) (size 9 to 14) (size 15 to 20)
#    0.000    3.250    0.000    4.500    0.000    3.500 
#    0.000    5.000    0.000    1.500    0.000    8.750 
#    0.000    0.000    0.000    0.000    0.000    0.000 
#
# Total GULP energy -178436.817501 kJ/mol
# GULP energy per Si atom -5576.150547 kJ/mol
# Density = 2.260128 g / cm^3
# Si number density = 22.652840 Si / 1000 Ang^3
#
#
#
# Elastic Constant Matrix: (Units=GPa)
#
#
# Indices 1 2 3 4 5 6 
#
# 1 66.3073 87.0624 4.9223 0.0000 0.0000 0.0000
# 2 87.0624 258.1693 45.2487 0.0000 0.0000 0.0000
# 3 4.9223 45.2487 57.7195 0.0000 0.0000 0.0000
# 4 0.0000 0.0000 0.0000 45.9226 0.0000 0.0000
# 5 0.0000 0.0000 0.0000 0.0000 3.0146 0.0000
# 6 0.0000 0.0000 0.0000 0.0000 0.0000 56.0589
#
#
#
# Elastic Compliance Matrix: (Units=1/GPa)
#
#
# Indices 1 2 3 4 5 6 
#
# 1 0.028735 -0.010736 0.005966 0.000000 0.000000 0.000000
# 2 -0.010736 0.008501 -0.005749 0.000000 0.000000 0.000000
# 3 0.005966 -0.005749 0.021323 0.000000 0.000000 0.000000
# 4 0.000000 0.000000 0.000000 0.021776 0.000000 0.000000
# 5 0.000000 0.000000 0.000000 0.000000 0.331722 0.000000
# 6 0.000000 0.000000 0.000000 0.000000 0.000000 0.017838
#
#
# Mechanical properties :
#
#
# Convention : Reuss Voigt Hill
#
# Bulk Modulus (GPa) = 26.65157 72.96254 49.80705
# Shear Modulus (GPa) = 10.78885 37.33006 24.05946
#
# Velocity S-wave (km/s) = 2.18473 4.06386 3.26251
# Velocity P-wave (km/s) = 4.26085 7.36878 6.01887
#
# Compressibility (1/GPa) = 0.03752125
#
# Stress axis : x y z
#
# Youngs Moduli (GPa) = 34.80113 117.62635 46.89686
#
# Poissons Ratio (x) = 1.26281 -0.27978
# Poissons Ratio (y) = 0.37362 0.26962
# Poissons Ratio (z) = -0.20762 0.67625
#
# Static dielectric constant tensor:
#      x y z
#    x 1.769700 0.000000 0.000000 
#    y 0.000000 1.930170 0.000000 
#    z 0.000000 0.000000 1.964130 
# 
# From -- ./inp_files/3810.got.cif
#   From: 2010.05.17/outbox.cif.g08.bks.cpg/sg31_2_cif.got.tgz:3810.got - 2010.06.03 17:08:30.
