data_PCOD9342619
_publ_section_title
;
Structure prediction by ZEFSAII (Michael W. Deem and Ramdas Pophale) SiO2 
 PCOD9342619
Probable space group: P N C 2
;
_chemical_formula_sum "Si O2"
_cell_formula_units_Z 18
_cell_length_a 5.145466
_cell_length_b 5.797583
_cell_length_c 22.471611
_cell_angle_alpha 90.000000
_cell_angle_beta 90.000000
_cell_angle_gamma 90.000000
_cell_volume 670.356610
_symmetry_space_group_name_H-M "P N C 2"
_symmetry_group_IT_number 30
_symmetry_cell_setting 'orthorhombic'
loop_
_space_group_symop_operation_xyz
x,y,z
-x,-y,z
-x,1/2+y,1/2+z
x,1/2-y,1/2+z
loop_
_atom_site_type_symbol
_atom_site_label
_atom_site_fract_x
_atom_site_fract_y
_atom_site_fract_z
Si Si1 0.068360 0.251069 0.774520
Si Si2 0.739026 0.351849 0.531132
Si Si3 0.240004 0.643259 0.154761
Si Si4 0.620460 0.751072 0.870784
Si Si5 0.000000 0.000000 0.449699
O O1 0.364741 0.249505 0.797509
O O2 0.000000 0.500000 0.799642
O O3 0.915293 0.246122 0.711686
O O4 0.000000 0.000000 0.800670
O O5 0.500000 0.500000 0.508168
O O6 0.679089 0.301197 0.600490
O O7 0.000000 0.500000 0.529518
O O8 0.791600 0.121625 0.493433
O O9 0.500000 0.500000 0.172113
O O10 0.000000 0.500000 0.127097
O O11 0.500000 0.500000 0.884181
O O12 0.884790 0.707460 0.908937
O O13 0.500000 0.000000 0.884761
#
# Coordination Sequence:
#
# PCOD9342619 Si02
#       5
#     4   4   4   4   2
#     4  11  25  49  81 120 166 220 279 353 433 526
#     4  12  29  52  88 129 171 231 295 367 446 530
#     4  11  25  50  82 125 174 223 281 361 445 528
#     4  12  30  54  88 124 175 232 296 368 447 526
#     4  12  32  54  84 126 182 228 318 362 452 530
#
# _framework density 26.851381
#
# number of rings (size 3 to 8) (size 9 to 14) (size 15 to 20)
#    0.000    0.444    2.222    3.333    6.222    8.889 
#    0.000    1.111    0.000    0.000    0.000    0.000 
#    0.000    0.000    0.000    0.000    0.000    0.000 
#
# Total GULP energy -100242.186513 kJ/mol
# GULP energy per Si atom -5569.010362 kJ/mol
# Density = 2.679027 g / cm^3
# Si number density = 26.851381 Si / 1000 Ang^3
#
#
#
# Elastic Constant Matrix: (Units=GPa)
#
#
# Indices 1 2 3 4 5 6 
#
# 1 112.7105 69.2472 70.5145 0.0000 0.0000 0.0000
# 2 69.2472 226.3795 66.5021 0.0000 0.0000 0.0000
# 3 70.5145 66.5021 211.9620 0.0000 0.0000 0.0000
# 4 0.0000 0.0000 0.0000 17.6207 0.0000 0.0000
# 5 0.0000 0.0000 0.0000 0.0000 36.4416 0.0000
# 6 0.0000 0.0000 0.0000 0.0000 0.0000 67.4079
#
#
#
# Elastic Compliance Matrix: (Units=1/GPa)
#
#
# Indices 1 2 3 4 5 6 
#
# 1 0.012747 -0.002923 -0.003324 0.000000 0.000000 0.000000
# 2 -0.002923 0.005536 -0.000765 0.000000 0.000000 0.000000
# 3 -0.003324 -0.000765 0.006063 0.000000 0.000000 0.000000
# 4 0.000000 0.000000 0.000000 0.056751 0.000000 0.000000
# 5 0.000000 0.000000 0.000000 0.000000 0.027441 0.000000
# 6 0.000000 0.000000 0.000000 0.000000 0.000000 0.014835
#
#
# Mechanical properties :
#
#
# Convention : Reuss Voigt Hill
#
# Bulk Modulus (GPa) = 96.85612 107.06441 101.96027
# Shear Modulus (GPa) = 35.50169 47.27994 41.39081
#
# Velocity S-wave (km/s) = 3.64009 4.20074 3.93043
# Velocity P-wave (km/s) = 7.33597 7.96793 7.65847
#
# Compressibility (1/GPa) = 0.01032459
#
# Stress axis : x y z
#
# Youngs Moduli (GPa) = 78.44690 180.63432 164.92377
#
# Poissons Ratio (x) = 0.52798 0.54816
# Poissons Ratio (y) = 0.22930 0.12609
# Poissons Ratio (z) = 0.26073 0.13810
#
# Static dielectric constant tensor:
#      x y z
#    x 2.252620 0.000000 0.000000 
#    y 0.000000 2.045070 0.000000 
#    z 0.000000 0.000000 2.143260 
# 
# From -- ./inp_files/7149.got.cif
#   From: 2010.05.17/outbox.cif.g08.bks.cpg/sg30_4_cif.got.tgz:7149.got - 2010.06.03 17:03:02.
