data_PCOD9342230
_publ_section_title
;
Structure prediction by ZEFSAII (Michael W. Deem and Ramdas Pophale) SiO2 
 PCOD9342230
Probable space group: P N C 2
;
_chemical_formula_sum "Si O2"
_cell_formula_units_Z 26
_cell_length_a 12.691422
_cell_length_b 11.651478
_cell_length_c 8.074184
_cell_angle_alpha 90.000000
_cell_angle_beta 90.000000
_cell_angle_gamma 90.000000
_cell_volume 1193.960466
_symmetry_space_group_name_H-M "P N C 2"
_symmetry_group_IT_number 30
_symmetry_cell_setting 'orthorhombic'
loop_
_space_group_symop_operation_xyz
x,y,z
-x,-y,z
-x,1/2+y,1/2+z
x,1/2-y,1/2+z
loop_
_atom_site_type_symbol
_atom_site_label
_atom_site_fract_x
_atom_site_fract_y
_atom_site_fract_z
Si Si1 0.766281 0.494422 0.539120
Si Si2 0.519672 0.220848 0.156793
Si Si3 0.251324 0.721935 0.090652
Si Si4 0.569702 0.896897 0.844134
Si Si5 0.878828 0.020266 0.715464
Si Si6 0.500000 0.000000 0.382199
Si Si7 0.736863 0.499800 0.916859
O O1 0.762105 0.355794 0.554952
O O2 0.665217 0.548995 0.446033
O O3 0.856278 0.519635 0.403293
O O4 0.767589 0.536732 0.730464
O O5 0.629665 0.288999 0.160894
O O6 0.420489 0.299030 0.207032
O O7 0.524902 0.109802 0.270002
O O8 0.502013 0.171835 0.975379
O O9 0.191688 0.459708 0.071450
O O10 0.250524 0.639494 0.928326
O O11 0.500000 0.000000 0.775723
O O12 0.835886 0.152336 0.697748
O O13 0.000000 0.000000 0.675965
O O14 0.615019 0.974956 0.455857
#
# Coordination Sequence:
#
# PCOD9342230 Si02
#       7
#     4   4   4   4   4   2   4
#     4  12  21  44  70 104 138 192 240 304 365 437
#     4  12  22  38  66 103 150 194 234 292 362 457
#     4  10  21  40  70 104 139 183 254 299 356 438
#     4  12  24  39  62 103 154 195 245 292 361 452
#     4  10  26  44  71 102 137 184 260 315 357 434
#     4  12  20  40  66 106 158 188 234 292 368 464
#     4  10  23  37  69 101 147 185 229 297 364 440
#
# _framework density 21.776264999999999
#
# number of rings (size 3 to 8) (size 9 to 14) (size 15 to 20)
#    0.923    0.000    5.385    2.769    0.000    3.077 
#    1.385    0.000    6.769    0.000    0.000    0.000 
#    0.000    0.000    0.000    0.000    0.000    0.000 
#
# Total GULP energy -144914.338724 kJ/mol
# GULP energy per Si atom -5573.628412 kJ/mol
# Density = 2.172670 g / cm^3
# Si number density = 21.776265 Si / 1000 Ang^3
#
#
#
# Elastic Constant Matrix: (Units=GPa)
#
#
# Indices 1 2 3 4 5 6 
#
# 1 119.5258 16.2747 78.7827 0.0000 0.0000 0.0000
# 2 16.2747 62.9270 14.5649 0.0000 0.0000 0.0000
# 3 78.7827 14.5649 106.1043 0.0000 0.0000 0.0000
# 4 0.0000 0.0000 0.0000 20.2310 0.0000 0.0000
# 5 0.0000 0.0000 0.0000 0.0000 26.9286 0.0000
# 6 0.0000 0.0000 0.0000 0.0000 0.0000 21.7233
#
#
#
# Elastic Compliance Matrix: (Units=1/GPa)
#
#
# Indices 1 2 3 4 5 6 
#
# 1 0.016518 -0.001480 -0.012061 0.000000 0.000000 0.000000
# 2 -0.001480 0.016546 -0.001172 0.000000 0.000000 0.000000
# 3 -0.012061 -0.001172 0.018541 0.000000 0.000000 0.000000
# 4 0.000000 0.000000 0.000000 0.049429 0.000000 0.000000
# 5 0.000000 0.000000 0.000000 0.000000 0.037135 0.000000
# 6 0.000000 0.000000 0.000000 0.000000 0.000000 0.046034
#
#
# Mechanical properties :
#
#
# Convention : Reuss Voigt Hill
#
# Bulk Modulus (GPa) = 45.09151 56.42243 50.75697
# Shear Modulus (GPa) = 22.62211 25.70556 24.16383
#
# Velocity S-wave (km/s) = 3.22660 3.43948 3.33474
# Velocity P-wave (km/s) = 5.88498 6.46062 6.17951
#
# Compressibility (1/GPa) = 0.02217712
#
# Stress axis : x y z
#
# Youngs Moduli (GPa) = 60.54012 60.43919 53.93388
#
# Poissons Ratio (x) = 0.08947 0.65052
# Poissons Ratio (y) = 0.08962 0.06321
# Poissons Ratio (z) = 0.73020 0.07084
#
# Static dielectric constant tensor:
#      x y z
#    x 1.793330 0.000000 0.000000 
#    y 0.000000 1.805430 0.000000 
#    z 0.000000 0.000000 1.950600 
# 
# From -- ./inp_files/4085.got.cif
#   From: 2010.05.17/outbox.cif.g08.bks.cpg/sg30_3_cif.got.tgz:4085.got - 2010.06.03 17:03:02.
