data_PCOD9342501
_publ_section_title
;
Structure prediction by ZEFSAII (Michael W. Deem and Ramdas Pophale) SiO2 
 PCOD9342501
Probable space group: P N C 2
;
_chemical_formula_sum "Si O2"
_cell_formula_units_Z 18
_cell_length_a 6.860692
_cell_length_b 11.519917
_cell_length_c 10.036008
_cell_angle_alpha 90.000000
_cell_angle_beta 90.000000
_cell_angle_gamma 90.000000
_cell_volume 793.191902
_symmetry_space_group_name_H-M "P N C 2"
_symmetry_group_IT_number 30
_symmetry_cell_setting 'orthorhombic'
loop_
_space_group_symop_operation_xyz
x,y,z
-x,-y,z
-x,1/2+y,1/2+z
x,1/2-y,1/2+z
loop_
_atom_site_type_symbol
_atom_site_label
_atom_site_fract_x
_atom_site_fract_y
_atom_site_fract_z
Si Si1 0.528618 0.867279 0.743610
Si Si2 0.161823 0.584149 0.825720
Si Si3 0.116550 0.287514 0.380877
Si Si4 0.000000 0.500000 0.570113
Si Si5 0.517153 0.212003 0.469494
O O1 0.241940 0.155922 0.762324
O O2 0.555262 0.211087 0.625587
O O3 0.561248 0.171267 0.885387
O O4 0.500000 0.000000 0.712362
O O5 0.171396 0.532487 0.676173
O O6 0.361306 0.609154 0.901191
O O7 0.000000 0.500000 0.893156
O O8 0.053883 0.708414 0.826022
O O9 0.051930 0.388879 0.481060
O O10 0.284172 0.206077 0.447671
#
# Coordination Sequence:
#
# PCOD9342501 Si02
#       5
#     4   4   4   2   4
#     4  10  25  44  70 101 135 193 235 301 367 435
#     4  10  25  43  70 111 142 199 236 311 375 445
#     4  10  24  44  72 103 148 191 245 297 378 449
#     4  10  24  44  74 112 154 192 254 322 384 434
#     4  10  25  45  67 100 147 181 254 291 365 450
#
# _framework density 22.693121000000001
#
# number of rings (size 3 to 8) (size 9 to 14) (size 15 to 20)
#    2.000    0.000    0.000    1.333    9.333    0.000 
#    0.000    2.222    0.000    0.000    0.000    0.000 
#    0.000    0.000    0.000    0.000    0.000    0.000 
#
# Total GULP energy -100254.947516 kJ/mol
# GULP energy per Si atom -5569.719306 kJ/mol
# Density = 2.264147 g / cm^3
# Si number density = 22.693121 Si / 1000 Ang^3
#
#
#
# Elastic Constant Matrix: (Units=GPa)
#
#
# Indices 1 2 3 4 5 6 
#
# 1 67.2407 31.4481 7.8374 0.0000 0.0000 0.0000
# 2 31.4481 63.1256 20.4039 0.0000 0.0000 0.0000
# 3 7.8374 20.4039 118.0962 0.0000 0.0000 0.0000
# 4 0.0000 0.0000 0.0000 44.5231 0.0000 0.0000
# 5 0.0000 0.0000 0.0000 0.0000 21.6756 0.0000
# 6 0.0000 0.0000 0.0000 0.0000 0.0000 34.4638
#
#
#
# Elastic Compliance Matrix: (Units=1/GPa)
#
#
# Indices 1 2 3 4 5 6 
#
# 1 0.019408 -0.009800 0.000405 0.000000 0.000000 0.000000
# 2 -0.009800 0.021727 -0.003103 0.000000 0.000000 0.000000
# 3 0.000405 -0.003103 0.008977 0.000000 0.000000 0.000000
# 4 0.000000 0.000000 0.000000 0.022460 0.000000 0.000000
# 5 0.000000 0.000000 0.000000 0.000000 0.046135 0.000000
# 6 0.000000 0.000000 0.000000 0.000000 0.000000 0.029016
#
#
# Mechanical properties :
#
#
# Convention : Reuss Voigt Hill
#
# Bulk Modulus (GPa) = 39.81592 40.87126 40.34359
# Shear Modulus (GPa) = 27.61054 32.71737 30.16395
#
# Velocity S-wave (km/s) = 3.49190 3.80113 3.64979
# Velocity P-wave (km/s) = 5.81732 6.10855 5.96471
#
# Compressibility (1/GPa) = 0.02511558
#
# Stress axis : x y z
#
# Youngs Moduli (GPa) = 51.52522 46.02663 111.39604
#
# Poissons Ratio (x) = 0.45104 -0.04513
# Poissons Ratio (y) = 0.50493 0.34571
# Poissons Ratio (z) = -0.02087 0.14284
#
# Static dielectric constant tensor:
#      x y z
#    x 2.006290 0.000000 0.000000 
#    y 0.000000 1.811600 0.000000 
#    z 0.000000 0.000000 1.855950 
# 
# From -- ./inp_files/1674.got.cif
#   From: 2010.05.17/outbox.cif.g08.bks.cpg/sg30_1_cif.got.tgz:1674.got - 2010.06.03 17:03:02.
