data_PCOD9342581
_publ_section_title
;
Structure prediction by ZEFSAII (Michael W. Deem and Ramdas Pophale) SiO2 
 PCOD9342581
Probable space group: P N C 2
;
_chemical_formula_sum "Si O2"
_cell_formula_units_Z 24
_cell_length_a 5.278866
_cell_length_b 20.898985
_cell_length_c 8.745285
_cell_angle_alpha 90.000000
_cell_angle_beta 90.000000
_cell_angle_gamma 90.000000
_cell_volume 964.805564
_symmetry_space_group_name_H-M "P N C 2"
_symmetry_group_IT_number 30
_symmetry_cell_setting 'orthorhombic'
loop_
_space_group_symop_operation_xyz
x,y,z
-x,-y,z
-x,1/2+y,1/2+z
x,1/2-y,1/2+z
loop_
_atom_site_type_symbol
_atom_site_label
_atom_site_fract_x
_atom_site_fract_y
_atom_site_fract_z
Si Si1 0.764262 0.611530 0.653660
Si Si2 0.669704 0.240514 0.391748
Si Si3 0.746311 0.405360 0.833434
Si Si4 0.000333 0.647524 0.351969
Si Si5 0.318609 0.240579 0.649231
Si Si6 0.257644 0.539921 0.169728
O O1 0.493291 0.588870 0.718402
O O2 0.770759 0.688023 0.685660
O O3 0.993664 0.579313 0.746040
O O4 0.823249 0.609590 0.472390
O O5 0.766819 0.169051 0.385314
O O6 0.854594 0.296329 0.445752
O O7 0.395193 0.239066 0.472765
O O8 0.600160 0.263206 0.221347
O O9 0.704498 0.441789 0.991756
O O10 0.203332 0.600884 0.275587
O O11 0.843967 0.683394 0.218127
O O12 0.500000 0.500000 0.220854
O O13 0.000000 0.500000 0.178387
#
# Coordination Sequence:
#
# PCOD9342581 Si02
#       6
#     4   4   4   4   4   4
#     4  11  24  44  71 116 150 199 239 320 405 463
#     4  11  23  39  69 111 158 202 237 321 404 462
#     4  11  25  48  75 106 157 195 264 310 392 466
#     4  12  26  45  76 116 161 198 262 327 394 476
#     4  11  23  37  66 111 163 190 237 300 407 473
#     4  12  31  53  81 113 153 218 279 320 380 464
#
# _framework density 24.875478000000001
#
# number of rings (size 3 to 8) (size 9 to 14) (size 15 to 20)
#    0.000    0.667    3.333    4.000   11.667    0.000 
#    0.000    3.333    0.000    0.000    0.000    0.000 
#    0.000    0.000    0.000    0.000    0.000    0.000 
#
# Total GULP energy -134343.879399 kJ/mol
# GULP energy per Si atom -5597.661642 kJ/mol
# Density = 2.481886 g / cm^3
# Si number density = 24.875478 Si / 1000 Ang^3
#
#
#
# Elastic Constant Matrix: (Units=GPa)
#
#
# Indices 1 2 3 4 5 6 
#
# 1 129.7329 28.1735 32.2750 0.0000 0.0000 0.0000
# 2 28.1735 74.8434 7.2565 0.0000 0.0000 0.0000
# 3 32.2750 7.2565 81.5169 0.0000 0.0000 0.0000
# 4 0.0000 0.0000 0.0000 52.3745 0.0000 0.0000
# 5 0.0000 0.0000 0.0000 0.0000 61.0555 0.0000
# 6 0.0000 0.0000 0.0000 0.0000 0.0000 32.1690
#
#
#
# Elastic Compliance Matrix: (Units=1/GPa)
#
#
# Indices 1 2 3 4 5 6 
#
# 1 0.009231 -0.003148 -0.003375 0.000000 0.000000 0.000000
# 2 -0.003148 0.014551 -0.000049 0.000000 0.000000 0.000000
# 3 -0.003375 -0.000049 0.013608 0.000000 0.000000 0.000000
# 4 0.000000 0.000000 0.000000 0.019093 0.000000 0.000000
# 5 0.000000 0.000000 0.000000 0.000000 0.016379 0.000000
# 6 0.000000 0.000000 0.000000 0.000000 0.000000 0.031086
#
#
# Mechanical properties :
#
#
# Convention : Reuss Voigt Hill
#
# Bulk Modulus (GPa) = 41.24205 46.83370 44.03787
# Shear Modulus (GPa) = 39.94468 43.67901 41.81185
#
# Velocity S-wave (km/s) = 4.01157 4.19490 4.10426
# Velocity P-wave (km/s) = 6.17028 6.50623 6.34048
#
# Compressibility (1/GPa) = 0.02424710
#
# Stress axis : x y z
#
# Youngs Moduli (GPa) = 108.32711 68.72429 73.48661
#
# Poissons Ratio (x) = 0.21633 0.24800
# Poissons Ratio (y) = 0.34099 0.00360
# Poissons Ratio (z) = 0.36558 0.00337
#
# Static dielectric constant tensor:
#      x y z
#    x 1.988470 0.000000 0.000000 
#    y 0.000000 1.837660 0.000000 
#    z 0.000000 0.000000 1.950670 
# 
# From -- ./inp_files/1396.got.cif
#   From: 2010.05.17/outbox.cif.g08.bks.cpg/sg30_1_cif.got.tgz:1396.got - 2010.06.03 17:03:02.
