data_PCOD9342770
_publ_section_title
;
Structure prediction by ZEFSAII (Michael W. Deem and Ramdas Pophale) SiO2 
 PCOD9342770
Probable space group: P M N 21
;
_chemical_formula_sum "Si O2"
_cell_formula_units_Z 32
_cell_length_a 8.588989
_cell_length_b 10.359219
_cell_length_c 20.375478
_cell_angle_alpha 90.000000
_cell_angle_beta 90.000000
_cell_angle_gamma 90.000000
_cell_volume 1812.912598
_symmetry_space_group_name_H-M "P M N 21"
_symmetry_group_IT_number 31
_symmetry_cell_setting 'orthorhombic'
loop_
_space_group_symop_operation_xyz
x,y,z
1/2-x,-y,1/2+z
-x,y,z
1/2+x,-y,1/2+z
loop_
_atom_site_type_symbol
_atom_site_label
_atom_site_fract_x
_atom_site_fract_y
_atom_site_fract_z
Si Si1 0.812080 0.460178 0.631330
Si Si2 0.686652 0.831742 0.142260
Si Si3 0.314488 0.166513 0.254246
Si Si4 0.812795 0.898174 0.286190
Si Si5 0.813102 0.445296 0.271560
Si Si6 0.314585 0.900769 0.609843
Si Si7 0.188573 0.672798 0.524762
Si Si8 0.810515 0.661393 0.375129
O O1 0.771456 0.311079 0.617781
O O2 0.751177 0.153610 0.716625
O O3 0.740767 0.503542 0.700526
O O4 0.000000 0.467591 0.637428
O O5 0.500000 0.844422 0.142962
O O6 0.757504 0.951992 0.103007
O O7 0.752799 0.194166 0.054049
O O8 0.500000 0.164512 0.252614
O O9 0.254063 0.302443 0.280723
O O10 0.252844 0.149084 0.179616
O O11 0.251442 0.042561 0.293390
O O12 0.765109 0.797263 0.342131
O O13 0.000000 0.902499 0.282553
O O14 0.759794 0.545398 0.327533
O O15 0.000000 0.439569 0.272348
O O16 0.500000 0.897056 0.613354
O O17 0.236320 0.557751 0.573898
O O18 0.240766 0.650258 0.450181
O O19 0.000000 0.678379 0.525470
O O20 0.000000 0.658728 0.375176
#
# Coordination Sequence:
#
# PCOD9342770 Si02
#       8
#     4   4   4   4   4   4   4   4
#     4  10  20  33  55  83 110 143 186 230 277 329
#     4  10  19  32  52  81 110 140 178 226 278 325
#     4  11  21  34  53  81 111 143 180 226 277 328
#     4  10  18  33  54  80 106 138 181 228 275 324
#     4  11  20  34  56  83 113 144 185 233 278 326
#     4  11  21  34  53  81 109 142 183 229 278 326
#     4  10  20  38  58  79 111 149 187 227 276 339
#     4   9  20  36  57  82 110 147 186 227 279 333
#
# _framework density 17.651153999999998
#
# number of rings (size 3 to 8) (size 9 to 14) (size 15 to 20)
#    0.000    1.750    2.500    4.875    0.000    0.500 
#    0.000    3.750    0.000    4.500    0.000    0.000 
#    0.000    0.000    0.000    0.000    0.000    0.000 
#
# Total GULP energy -178663.013667 kJ/mol
# GULP energy per Si atom -5583.219177 kJ/mol
# Density = 1.761098 g / cm^3
# Si number density = 17.651154 Si / 1000 Ang^3
#
#
#
# Elastic Constant Matrix: (Units=GPa)
#
#
# Indices 1 2 3 4 5 6 
#
# 1 54.9987 44.3524 31.3100 0.0000 0.0000 0.0000
# 2 44.3524 177.1210 86.0866 0.0000 0.0000 0.0000
# 3 31.3100 86.0866 119.2708 0.0000 0.0000 0.0000
# 4 0.0000 0.0000 0.0000 25.2165 0.0000 0.0000
# 5 0.0000 0.0000 0.0000 0.0000 19.2899 0.0000
# 6 0.0000 0.0000 0.0000 0.0000 0.0000 26.9134
#
#
#
# Elastic Compliance Matrix: (Units=1/GPa)
#
#
# Indices 1 2 3 4 5 6 
#
# 1 0.023439 -0.004434 -0.002952 0.000000 0.000000 0.000000
# 2 -0.004434 0.009536 -0.005719 0.000000 0.000000 0.000000
# 3 -0.002952 -0.005719 0.013287 0.000000 0.000000 0.000000
# 4 0.000000 0.000000 0.000000 0.039657 0.000000 0.000000
# 5 0.000000 0.000000 0.000000 0.000000 0.051841 0.000000
# 6 0.000000 0.000000 0.000000 0.000000 0.000000 0.037156
#
#
# Mechanical properties :
#
#
# Convention : Reuss Voigt Hill
#
# Bulk Modulus (GPa) = 49.87312 74.98763 62.43038
# Shear Modulus (GPa) = 24.06057 26.92673 25.49365
#
# Velocity S-wave (km/s) = 3.69605 3.90999 3.80452
# Velocity P-wave (km/s) = 6.82133 7.93470 7.39899
#
# Compressibility (1/GPa) = 0.02005088
#
# Stress axis : x y z
#
# Youngs Moduli (GPa) = 42.66397 104.86994 75.26261
#
# Poissons Ratio (x) = 0.46503 0.22221
# Poissons Ratio (y) = 0.18919 0.43039
# Poissons Ratio (z) = 0.12596 0.59970
#
# Static dielectric constant tensor:
#      x y z
#    x 1.600120 0.000000 0.000000 
#    y 0.000000 1.614280 0.000000 
#    z 0.000000 0.000000 1.576760 
# 
# From -- ./inp_files/6484.got.cif
#   From: 2010.05.17/outbox.cif.g08.bks.cpg/sg31_4_cif.got.tgz:6484.got - 2010.06.03 17:08:30.
