data_PCOD9342264
_publ_section_title
;
Structure prediction by ZEFSAII (Michael W. Deem and Ramdas Pophale) SiO2 
 PCOD9342264
Probable space group: P N C 2
;
_chemical_formula_sum "Si O2"
_cell_formula_units_Z 30
_cell_length_a 11.368513
_cell_length_b 11.647851
_cell_length_c 11.168036
_cell_angle_alpha 90.000000
_cell_angle_beta 90.000000
_cell_angle_gamma 90.000000
_cell_volume 1478.857317
_symmetry_space_group_name_H-M "P N C 2"
_symmetry_group_IT_number 30
_symmetry_cell_setting 'orthorhombic'
loop_
_space_group_symop_operation_xyz
x,y,z
-x,-y,z
-x,1/2+y,1/2+z
x,1/2-y,1/2+z
loop_
_atom_site_type_symbol
_atom_site_label
_atom_site_fract_x
_atom_site_fract_y
_atom_site_fract_z
Si Si1 0.847593 0.424578 0.618190
Si Si2 0.358816 0.515046 0.283840
Si Si3 0.618913 0.426265 0.024755
Si Si4 0.098851 0.330327 0.537437
Si Si5 0.732800 0.535512 0.816520
Si Si6 0.500000 0.500000 0.660251
Si Si7 0.806994 0.790026 0.775621
Si Si8 0.371342 0.670842 0.506658
O O1 0.828995 0.549877 0.555658
O O2 0.839288 0.465772 0.755424
O O3 0.741487 0.338604 0.592433
O O4 0.967512 0.368214 0.574778
O O5 0.500000 0.500000 0.293102
O O6 0.340752 0.581900 0.160630
O O7 0.283646 0.397396 0.276619
O O8 0.330610 0.595727 0.394559
O O9 0.500000 0.500000 0.020520
O O10 0.714956 0.493073 0.949393
O O11 0.598556 0.299930 0.973519
O O12 0.140383 0.238193 0.640881
O O13 0.109762 0.303530 0.395081
O O14 0.614373 0.506964 0.742489
O O15 0.744374 0.670715 0.806614
O O16 0.479666 0.609024 0.573830
#
# Coordination Sequence:
#
# PCOD9342264 Si02
#       8
#     4   4   4   4   4   2   4   4
#     4   9  21  42  66  91 124 177 231 272 331 398
#     4  11  25  40  62  99 136 177 218 277 335 410
#     4  11  26  38  59  94 136 172 214 279 329 396
#     4  10  21  43  69  97 130 174 227 286 332 400
#     4  10  22  39  65  96 131 173 224 271 334 408
#     4  10  22  38  62  90 122 186 218 258 328 424
#     4  11  23  41  70  96 134 177 224 275 345 404
#     4  11  23  41  62  90 129 177 224 266 340 399
#
# _framework density 20.285931000000001
#
# number of rings (size 3 to 8) (size 9 to 14) (size 15 to 20)
#    0.000    1.600    2.667    0.800    9.333    1.067 
#    0.000    0.000    0.000    3.200    0.000    0.000 
#    0.000    0.000    0.000    0.000    0.000    0.000 
#
# Total GULP energy -167159.205803 kJ/mol
# GULP energy per Si atom -5571.973527 kJ/mol
# Density = 2.023976 g / cm^3
# Si number density = 20.285931 Si / 1000 Ang^3
#
#
#
# Elastic Constant Matrix: (Units=GPa)
#
#
# Indices 1 2 3 4 5 6 
#
# 1 64.0331 34.5825 21.1872 0.0000 0.0000 0.0000
# 2 34.5825 110.2349 21.6001 0.0000 0.0000 0.0000
# 3 21.1872 21.6001 92.7629 0.0000 0.0000 0.0000
# 4 0.0000 0.0000 0.0000 20.8026 0.0000 0.0000
# 5 0.0000 0.0000 0.0000 0.0000 11.4957 0.0000
# 6 0.0000 0.0000 0.0000 0.0000 0.0000 27.0995
#
#
#
# Elastic Compliance Matrix: (Units=1/GPa)
#
#
# Indices 1 2 3 4 5 6 
#
# 1 0.019670 -0.005543 -0.003202 0.000000 0.000000 0.000000
# 2 -0.005543 0.011067 -0.001311 0.000000 0.000000 0.000000
# 3 -0.003202 -0.001311 0.011817 0.000000 0.000000 0.000000
# 4 0.000000 0.000000 0.000000 0.048071 0.000000 0.000000
# 5 0.000000 0.000000 0.000000 0.000000 0.086989 0.000000
# 6 0.000000 0.000000 0.000000 0.000000 0.000000 0.036901
#
#
# Mechanical properties :
#
#
# Convention : Reuss Voigt Hill
#
# Bulk Modulus (GPa) = 44.55968 46.86339 45.71153
# Shear Modulus (GPa) = 20.65186 24.52363 22.58775
#
# Velocity S-wave (km/s) = 3.19413 3.48069 3.34049
# Velocity P-wave (km/s) = 5.96798 6.26939 6.12054
#
# Compressibility (1/GPa) = 0.02244181
#
# Stress axis : x y z
#
# Youngs Moduli (GPa) = 50.83821 90.35472 84.62564
#
# Poissons Ratio (x) = 0.50088 0.27096
# Poissons Ratio (y) = 0.28182 0.11094
# Poissons Ratio (z) = 0.16278 0.11845
#
# Static dielectric constant tensor:
#      x y z
#    x 1.736950 0.000000 0.000000 
#    y 0.000000 1.713320 0.000000 
#    z 0.000000 0.000000 1.795710 
# 
# From -- ./inp_files/4128.got.cif
#   From: 2010.05.17/outbox.cif.g08.bks.cpg/sg30_3_cif.got.tgz:4128.got - 2010.06.03 17:03:02.
