data_PCOD9342782
_publ_section_title
;
Structure prediction by ZEFSAII (Michael W. Deem and Ramdas Pophale) SiO2 
 PCOD9342782
Probable space group: P M N 21
;
_chemical_formula_sum "Si O2"
_cell_formula_units_Z 28
_cell_length_a 10.216858
_cell_length_b 5.817898
_cell_length_c 20.022159
_cell_angle_alpha 90.000000
_cell_angle_beta 90.000000
_cell_angle_gamma 90.000000
_cell_volume 1190.129900
_symmetry_space_group_name_H-M "P M N 21"
_symmetry_group_IT_number 31
_symmetry_cell_setting 'orthorhombic'
loop_
_space_group_symop_operation_xyz
x,y,z
1/2-x,-y,1/2+z
-x,y,z
1/2+x,-y,1/2+z
loop_
_atom_site_type_symbol
_atom_site_label
_atom_site_fract_x
_atom_site_fract_y
_atom_site_fract_z
Si Si1 0.650252 0.976626 0.854280
Si Si2 0.772898 0.574322 0.051847
Si Si3 0.346092 0.475818 0.810233
Si Si4 0.145194 0.046435 0.633893
Si Si5 0.500000 0.295010 0.453408
Si Si6 0.500000 0.806806 0.441613
Si Si7 0.143411 0.284314 0.173830
Si Si8 0.794633 0.826110 0.492845
O O1 0.500000 0.965402 0.828973
O O2 0.710176 0.221670 0.827408
O O3 0.649701 0.028688 0.932808
O O4 0.706663 0.720092 0.840436
O O5 0.693128 0.710180 0.107668
O O6 0.847992 0.399344 0.101279
O O7 0.876878 0.703950 0.005239
O O8 0.677679 0.445198 0.999714
O O9 0.500000 0.462446 0.830704
O O10 0.340967 0.526324 0.731311
O O11 0.000000 0.047409 0.661449
O O12 0.247570 0.911563 0.679479
O O13 0.153035 0.917813 0.562467
O O14 0.500000 0.542101 0.415626
O O15 0.500000 0.063183 0.409172
O O16 0.637276 0.817909 0.481158
O O17 0.000000 0.177685 0.180821
#
# Coordination Sequence:
#
# PCOD9342782 Si02
#       8
#     4   4   4   4   2   2   4   4
#     4  10  21  38  61  87 122 160 201 255 310 371
#     4  10  21  33  59  89 123 159 202 253 315 373
#     4   9  21  39  62  91 115 154 213 262 307 360
#     4  11  24  37  58  92 130 168 201 251 323 392
#     4  10  18  34  52  88 118 154 194 250 303 350
#     4  10  20  34  58  86 122 156 204 256 293 362
#     4  10  22  39  65  92 118 162 213 272 311 365
#     4  10  22  37  59  87 127 160 205 254 313 377
#
# _framework density 23.526841999999998
#
# number of rings (size 3 to 8) (size 9 to 14) (size 15 to 20)
#    0.000    2.000    2.143    0.429    8.000    2.857 
#    0.000    0.000    3.143    0.000    0.000    0.000 
#    0.000    0.000    0.000    0.000    0.000    0.000 
#
# Total GULP energy -155871.378874 kJ/mol
# GULP energy per Si atom -5566.834960 kJ/mol
# Density = 2.347329 g / cm^3
# Si number density = 23.526842 Si / 1000 Ang^3
#
#
#
# Elastic Constant Matrix: (Units=GPa)
#
#
# Indices 1 2 3 4 5 6 
#
# 1 92.3502 15.7170 -12.7962 0.0000 0.0000 0.0000
# 2 15.7170 153.1772 21.2638 0.0000 0.0000 0.0000
# 3 -12.7962 21.2638 44.0300 0.0000 0.0000 0.0000
# 4 0.0000 0.0000 0.0000 33.3656 0.0000 0.0000
# 5 0.0000 0.0000 0.0000 0.0000 -16.6449 0.0000
# 6 0.0000 0.0000 0.0000 0.0000 0.0000 11.9649
#
#
#
# Elastic Compliance Matrix: (Units=1/GPa)
#
#
# Indices 1 2 3 4 5 6 
#
# 1 0.011727 -0.001797 0.004276 0.000000 0.000000 0.000000
# 2 -0.001797 0.007273 -0.004035 0.000000 0.000000 0.000000
# 3 0.004276 -0.004035 0.025903 0.000000 0.000000 0.000000
# 4 0.000000 0.000000 0.000000 0.029971 0.000000 0.000000
# 5 0.000000 0.000000 0.000000 0.000000 -0.060078 0.000000
# 6 0.000000 0.000000 0.000000 0.000000 0.000000 0.083578
#
#
# Mechanical properties :
#
#
# Convention : Reuss Voigt Hill
#
# Bulk Modulus (GPa) = 23.92851 37.54742 30.73797
# Shear Modulus (GPa) = 43.32215 23.42862 33.37538
#
# Velocity S-wave (km/s) = 4.29580 3.15909 3.77053
# Velocity P-wave (km/s) = 5.89898 5.41300 5.66121
#
# Compressibility (1/GPa) = 0.04179115
#
# Stress axis : x y z
#
# Youngs Moduli (GPa) = 85.27630 137.49838 38.60583
#
# Poissons Ratio (x) = 0.24705 -0.16507
# Poissons Ratio (y) = 0.15322 0.15576
# Poissons Ratio (z) = -0.36462 0.55474
#
# Static dielectric constant tensor:
#      x y z
#    x 1.923880 0.000000 0.000000 
#    y 0.000000 2.132290 0.000000 
#    z 0.000000 0.000000 1.864300 
# 
# From -- ./inp_files/6319.got.cif
#   From: 2010.05.17/outbox.cif.g08.bks.cpg/sg31_4_cif.got.tgz:6319.got - 2010.06.03 17:08:30.
