data_PCOD9342024
_publ_section_title
;
Structure prediction by ZEFSAII (Michael W. Deem and Ramdas Pophale) SiO2 
 PCOD9342024
Probable space group: P N C 2
;
_chemical_formula_sum "Si O2"
_cell_formula_units_Z 28
_cell_length_a 11.354211
_cell_length_b 11.903980
_cell_length_c 11.147800
_cell_angle_alpha 90.000000
_cell_angle_beta 90.000000
_cell_angle_gamma 90.000000
_cell_volume 1506.740000
_symmetry_space_group_name_H-M "P N C 2"
_symmetry_group_IT_number 30
_symmetry_cell_setting 'orthorhombic'
loop_
_space_group_symop_operation_xyz
x,y,z
-x,-y,z
-x,1/2+y,1/2+z
x,1/2-y,1/2+z
loop_
_atom_site_type_symbol
_atom_site_label
_atom_site_fract_x
_atom_site_fract_y
_atom_site_fract_z
Si Si1 0.256214 0.842968 0.125000
Si Si2 0.272922 0.612380 0.231317
Si Si3 0.364054 0.031266 0.266443
Si Si4 0.309507 0.303264 0.546514
Si Si5 0.539255 0.130084 0.928834
Si Si6 0.633509 0.553253 0.041492
Si Si7 0.861703 0.509438 0.446509
O O1 0.216498 0.725520 0.179447
O O2 0.295080 0.918563 0.235641
O O3 0.368750 0.833889 0.033464
O O4 0.165964 0.918283 0.050387
O O5 0.394506 0.644626 0.302315
O O6 0.295646 0.537052 0.116649
O O7 0.204294 0.539624 0.329866
O O8 0.500000 0.000000 0.257400
O O9 0.337014 0.120832 0.163090
O O10 0.337354 0.063476 0.401482
O O11 0.416663 0.308711 0.450307
O O12 0.323582 0.174778 0.589847
O O13 0.197743 0.370554 0.486599
O O14 0.500000 0.000000 0.942017
O O15 0.500000 0.500000 0.049500
O O16 0.000000 0.500000 0.425401
#
# Coordination Sequence:
#
# PCOD9342024 Si02
#       7
#     4   4   4   4   4   4   4
#     4  10  20  38  65  90 122 164 209 265 323 391
#     4  11  24  38  63  92 130 159 217 263 331 391
#     4  10  20  36  55  88 131 164 197 246 320 392
#     4  11  21  40  63  87 131 170 208 258 327 387
#     4  11  18  35  60  89 125 168 197 248 317 404
#     4  11  26  33  57 100 134 164 201 257 324 406
#     4  10  24  47  68  88 119 176 232 271 326 383
#
# _framework density 18.583165999999999
#
# number of rings (size 3 to 8) (size 9 to 14) (size 15 to 20)
#    0.000    1.429    5.714    1.286   10.000    0.000 
#    2.571    0.000    0.000    3.429    0.000    0.000 
#    0.000    0.000    0.000    0.000    0.000    0.000 
#
# Total GULP energy -155939.002572 kJ/mol
# GULP energy per Si atom -5569.250092 kJ/mol
# Density = 1.854087 g / cm^3
# Si number density = 18.583166 Si / 1000 Ang^3
#
#
#
# Elastic Constant Matrix: (Units=GPa)
#
#
# Indices 1 2 3 4 5 6 
#
# 1 52.1339 7.6819 10.2870 0.0000 0.0000 0.0000
# 2 7.6819 111.9291 21.2734 0.0000 0.0000 0.0000
# 3 10.2870 21.2734 67.3083 0.0000 0.0000 0.0000
# 4 0.0000 0.0000 0.0000 19.9906 0.0000 0.0000
# 5 0.0000 0.0000 0.0000 0.0000 8.3657 0.0000
# 6 0.0000 0.0000 0.0000 0.0000 0.0000 8.3341
#
#
#
# Elastic Compliance Matrix: (Units=1/GPa)
#
#
# Indices 1 2 3 4 5 6 
#
# 1 0.019851 -0.000836 -0.002770 0.000000 0.000000 0.000000
# 2 -0.000836 0.009540 -0.002888 0.000000 0.000000 0.000000
# 3 -0.002770 -0.002888 0.016193 0.000000 0.000000 0.000000
# 4 0.000000 0.000000 0.000000 0.050024 0.000000 0.000000
# 5 0.000000 0.000000 0.000000 0.000000 0.119536 0.000000
# 6 0.000000 0.000000 0.000000 0.000000 0.000000 0.119988
#
#
# Mechanical properties :
#
#
# Convention : Reuss Voigt Hill
#
# Bulk Modulus (GPa) = 30.67678 34.42841 32.55259
# Shear Modulus (GPa) = 13.92817 20.14668 17.03743
#
# Velocity S-wave (km/s) = 2.74068 3.29619 3.03119
# Velocity P-wave (km/s) = 5.15352 5.74921 5.45949
#
# Compressibility (1/GPa) = 0.03259795
#
# Stress axis : x y z
#
# Youngs Moduli (GPa) = 50.37508 104.81720 61.75523
#
# Poissons Ratio (x) = 0.08763 0.17104
# Poissons Ratio (y) = 0.04211 0.17832
# Poissons Ratio (z) = 0.13952 0.30267
#
# Static dielectric constant tensor:
#      x y z
#    x 1.643150 0.000000 0.000000 
#    y 0.000000 1.748770 0.000000 
#    z 0.000000 0.000000 1.635160 
# 
# From -- ./inp_files/4117.got.cif
#   From: 2010.05.17/outbox.cif.g08.bks.cpg/sg30_3_cif.got.tgz:4117.got - 2010.06.03 17:03:02.
