data_PCOD9342451
_publ_section_title
;
Structure prediction by ZEFSAII (Michael W. Deem and Ramdas Pophale) SiO2 
 PCOD9342451
Probable space group: P N C 2
;
_chemical_formula_sum "Si O2"
_cell_formula_units_Z 24
_cell_length_a 12.938723
_cell_length_b 7.530877
_cell_length_c 10.220340
_cell_angle_alpha 90.000000
_cell_angle_beta 90.000000
_cell_angle_gamma 90.000000
_cell_volume 995.869229
_symmetry_space_group_name_H-M "P N C 2"
_symmetry_group_IT_number 30
_symmetry_cell_setting 'orthorhombic'
loop_
_space_group_symop_operation_xyz
x,y,z
-x,-y,z
-x,1/2+y,1/2+z
x,1/2-y,1/2+z
loop_
_atom_site_type_symbol
_atom_site_label
_atom_site_fract_x
_atom_site_fract_y
_atom_site_fract_z
Si Si1 0.900862 0.236384 0.723000
Si Si2 0.224412 0.713687 0.961802
Si Si3 0.578832 0.164580 0.826183
Si Si4 0.136594 0.187310 0.762193
Si Si5 0.492157 0.211606 0.070370
Si Si6 0.736082 0.813436 0.514733
O O1 0.838670 0.339712 0.832870
O O2 0.852805 0.275069 0.578677
O O3 0.020785 0.264975 0.757042
O O4 0.878629 0.026993 0.753526
O O5 0.311925 0.847730 0.902182
O O6 0.271009 0.526818 0.007603
O O7 0.574826 0.235764 0.680385
O O8 0.500000 0.000000 0.813238
O O9 0.520458 0.290017 0.928767
O O10 0.182604 0.242089 0.623694
O O11 0.216093 0.240123 0.878233
O O12 0.500000 0.000000 0.066776
O O13 0.372303 0.254540 0.078531
#
# Coordination Sequence:
#
# PCOD9342451 Si02
#       6
#     4   4   4   4   4   4
#     4  10  23  44  70 103 142 184 236 293 366 437
#     4  11  25  43  73 101 141 187 238 296 366 429
#     4  11  27  45  70 100 141 185 240 293 354 427
#     4  10  23  43  71 103 142 184 234 297 363 438
#     4  11  27  44  70 102 141 185 241 292 354 425
#     4  11  25  43  72 101 143 187 237 295 365 432
#
# _framework density 24.099550000000001
#
# number of rings (size 3 to 8) (size 9 to 14) (size 15 to 20)
#    0.000    1.333    0.000    3.000   16.333    3.333 
#    0.000    0.000    0.000    0.000    0.000    0.000 
#    0.000    0.000    0.000    0.000    0.000    0.000 
#
# Total GULP energy -133789.484124 kJ/mol
# GULP energy per Si atom -5574.561839 kJ/mol
# Density = 2.404470 g / cm^3
# Si number density = 24.099550 Si / 1000 Ang^3
#
#
#
# Elastic Constant Matrix: (Units=GPa)
#
#
# Indices 1 2 3 4 5 6 
#
# 1 107.3465 24.8942 7.5357 0.0000 0.0000 0.0000
# 2 24.8942 45.1161 24.9474 0.0000 0.0000 0.0000
# 3 7.5357 24.9474 146.9630 0.0000 0.0000 0.0000
# 4 0.0000 0.0000 0.0000 -104.6989 0.0000 0.0000
# 5 0.0000 0.0000 0.0000 0.0000 45.4791 0.0000
# 6 0.0000 0.0000 0.0000 0.0000 0.0000 38.0446
#
#
#
# Elastic Compliance Matrix: (Units=1/GPa)
#
#
# Indices 1 2 3 4 5 6 
#
# 1 0.010716 -0.006190 0.000501 0.000000 0.000000 0.000000
# 2 -0.006190 0.028037 -0.004442 0.000000 0.000000 0.000000
# 3 0.000501 -0.004442 0.007533 0.000000 0.000000 0.000000
# 4 0.000000 0.000000 0.000000 -0.009551 0.000000 0.000000
# 5 0.000000 0.000000 0.000000 0.000000 0.021988 0.000000
# 6 0.000000 0.000000 0.000000 0.000000 0.000000 0.026285
#
#
# Mechanical properties :
#
#
# Convention : Reuss Voigt Hill
#
# Bulk Modulus (GPa) = 38.42583 46.02002 42.22293
# Shear Modulus (GPa) = 43.88141 11.90150 27.89145
#
# Velocity S-wave (km/s) = 4.27176 2.22468 3.40567
# Velocity P-wave (km/s) = 6.34900 5.07308 5.74656
#
# Compressibility (1/GPa) = 0.02602416
#
# Stress axis : x y z
#
# Youngs Moduli (GPa) = 93.31892 35.66739 132.75350
#
# Poissons Ratio (x) = 0.22078 -0.06655
# Poissons Ratio (y) = 0.57765 0.58968
# Poissons Ratio (z) = -0.04678 0.15843
#
# Static dielectric constant tensor:
#      x y z
#    x 2.006750 0.000000 0.000000 
#    y 0.000000 2.043090 0.000000 
#    z 0.000000 0.000000 1.968000 
# 
# From -- ./inp_files/4046.got.cif
#   From: 2010.05.17/outbox.cif.g08.bks.cpg/sg30_3_cif.got.tgz:4046.got - 2010.06.03 17:03:02.
