data_PCOD9342489
_publ_section_title
;
Structure prediction by ZEFSAII (Michael W. Deem and Ramdas Pophale) SiO2 
 PCOD9342489
Probable space group: P N C 2
;
_chemical_formula_sum "Si O2"
_cell_formula_units_Z 18
_cell_length_a 9.074316
_cell_length_b 8.342110
_cell_length_c 10.860982
_cell_angle_alpha 90.000000
_cell_angle_beta 90.000000
_cell_angle_gamma 90.000000
_cell_volume 822.164849
_symmetry_space_group_name_H-M "P N C 2"
_symmetry_group_IT_number 30
_symmetry_cell_setting 'orthorhombic'
loop_
_space_group_symop_operation_xyz
x,y,z
-x,-y,z
-x,1/2+y,1/2+z
x,1/2-y,1/2+z
loop_
_atom_site_type_symbol
_atom_site_label
_atom_site_fract_x
_atom_site_fract_y
_atom_site_fract_z
Si Si1 0.751560 0.392716 0.784290
Si Si2 0.497396 0.819855 0.658578
Si Si3 0.500000 0.500000 0.927926
Si Si4 0.172748 0.312769 0.651605
Si Si5 0.987620 0.808145 0.895819
O O1 0.627421 0.280237 0.724947
O O2 0.650458 0.522815 0.855320
O O3 0.831080 0.495328 0.677942
O O4 0.862740 0.293989 0.870542
O O5 0.657816 0.743162 0.650362
O O6 0.500000 0.000000 0.713746
O O7 0.459887 0.852630 0.516012
O O8 0.101649 0.233487 0.771917
O O9 0.092064 0.264439 0.524644
O O10 0.000000 0.000000 0.898131
#
# Coordination Sequence:
#
# PCOD9342489 Si02
#       5
#     4   4   2   4   4
#     4  12  24  50  72 107 148 199 249 312 372 451
#     4  10  24  44  72 103 145 188 254 295 367 440
#     4  10  24  42  76 102 144 198 248 316 364 428
#     4  12  26  49  72 112 144 199 242 318 371 452
#     4  12  29  45  74 106 151 191 248 305 390 446
#
# _framework density 21.893421
#
# number of rings (size 3 to 8) (size 9 to 14) (size 15 to 20)
#    0.667    0.000    2.222    4.667    6.222    1.778 
#    0.000    0.000    0.000    0.000    0.000    0.000 
#    0.000    0.000    0.000    0.000    0.000    0.000 
#
# Total GULP energy -100441.813570 kJ/mol
# GULP energy per Si atom -5580.100754 kJ/mol
# Density = 2.184359 g / cm^3
# Si number density = 21.893421 Si / 1000 Ang^3
#
#
#
# Elastic Constant Matrix: (Units=GPa)
#
#
# Indices 1 2 3 4 5 6 
#
# 1 158.3108 43.5987 85.1998 0.0000 0.0000 0.0000
# 2 43.5987 86.2556 40.1054 0.0000 0.0000 0.0000
# 3 85.1998 40.1054 163.7923 0.0000 0.0000 0.0000
# 4 0.0000 0.0000 0.0000 20.1996 0.0000 0.0000
# 5 0.0000 0.0000 0.0000 0.0000 50.7089 0.0000
# 6 0.0000 0.0000 0.0000 0.0000 0.0000 44.2490
#
#
#
# Elastic Compliance Matrix: (Units=1/GPa)
#
#
# Indices 1 2 3 4 5 6 
#
# 1 0.009326 -0.002774 -0.004172 0.000000 0.000000 0.000000
# 2 -0.002774 0.013908 -0.001962 0.000000 0.000000 0.000000
# 3 -0.004172 -0.001962 0.008756 0.000000 0.000000 0.000000
# 4 0.000000 0.000000 0.000000 0.049506 0.000000 0.000000
# 5 0.000000 0.000000 0.000000 0.000000 0.019720 0.000000
# 6 0.000000 0.000000 0.000000 0.000000 0.000000 0.022599
#
#
# Mechanical properties :
#
#
# Convention : Reuss Voigt Hill
#
# Bulk Modulus (GPa) = 70.55618 82.90739 76.73179
# Shear Modulus (GPa) = 34.16311 38.99515 36.57913
#
# Velocity S-wave (km/s) = 3.95451 4.22493 4.09195
# Velocity P-wave (km/s) = 7.29026 7.85817 7.57954
#
# Compressibility (1/GPa) = 0.01417310
#
# Stress axis : x y z
#
# Youngs Moduli (GPa) = 107.22889 71.90035 114.20955
#
# Poissons Ratio (x) = 0.19946 0.47645
# Poissons Ratio (y) = 0.29747 0.22413
# Poissons Ratio (z) = 0.44733 0.14110
#
# Static dielectric constant tensor:
#      x y z
#    x 1.808090 0.000000 0.000000 
#    y 0.000000 1.837360 0.000000 
#    z 0.000000 0.000000 1.847290 
# 
# From -- ./inp_files/3484.got.cif
#   From: 2010.05.17/outbox.cif.g08.bks.cpg/sg30_2_cif.got.tgz:3484.got - 2010.06.03 17:03:02.
