data_PCOD9342368
_publ_section_title
;
Structure prediction by ZEFSAII (Michael W. Deem and Ramdas Pophale) SiO2 
 PCOD9342368
Probable space group: P N C 2
;
_chemical_formula_sum "Si O2"
_cell_formula_units_Z 20
_cell_length_a 8.491663
_cell_length_b 10.516786
_cell_length_c 9.371503
_cell_angle_alpha 90.000000
_cell_angle_beta 90.000000
_cell_angle_gamma 90.000000
_cell_volume 836.922099
_symmetry_space_group_name_H-M "P N C 2"
_symmetry_group_IT_number 30
_symmetry_cell_setting 'orthorhombic'
loop_
_space_group_symop_operation_xyz
x,y,z
-x,-y,z
-x,1/2+y,1/2+z
x,1/2-y,1/2+z
loop_
_atom_site_type_symbol
_atom_site_label
_atom_site_fract_x
_atom_site_fract_y
_atom_site_fract_z
Si Si1 0.587301 0.804652 0.039780
Si Si2 0.081818 0.372001 0.477735
Si Si3 0.914515 0.318684 0.188306
Si Si4 0.327176 0.018441 0.568020
Si Si5 0.621033 0.330329 0.813294
O O1 0.677022 0.669124 0.058840
O O2 0.501242 0.846326 0.183792
O O3 0.731152 0.891768 0.992870
O O4 0.456795 0.772706 0.921259
O O5 0.033826 0.349434 0.314818
O O6 0.004525 0.255441 0.564037
O O7 0.000000 0.500000 0.530992
O O8 0.815590 0.442132 0.137841
O O9 0.780380 0.225114 0.249503
O O10 0.343533 0.952228 0.411997
O O11 0.500000 0.000000 0.640160
#
# Coordination Sequence:
#
# PCOD9342368 Si02
#       5
#     4   4   4   4   4
#     4  11  25  45  71 107 143 185 239 290 358 423
#     4  12  30  46  69 107 147 190 230 291 366 424
#     4  12  24  48  70 103 143 184 241 291 352 430
#     4  10  22  42  77  99 136 186 239 293 354 405
#     4  11  21  45  75 104 134 187 242 289 348 418
#
# _framework density 23.897086999999999
#
# number of rings (size 3 to 8) (size 9 to 14) (size 15 to 20)
#    0.000    0.800    6.000    1.200    5.600    6.400 
#    0.000    2.000    0.000    0.000    0.000    0.000 
#    0.000    0.000    0.000    0.000    0.000    0.000 
#
# Total GULP energy -111987.714616 kJ/mol
# GULP energy per Si atom -5599.385731 kJ/mol
# Density = 2.384270 g / cm^3
# Si number density = 23.897087 Si / 1000 Ang^3
#
#
#
# Elastic Constant Matrix: (Units=GPa)
#
#
# Indices 1 2 3 4 5 6 
#
# 1 65.6683 20.7699 55.7660 0.0000 0.0000 0.0000
# 2 20.7699 64.1414 18.0963 0.0000 0.0000 0.0000
# 3 55.7660 18.0963 147.6991 0.0000 0.0000 0.0000
# 4 0.0000 0.0000 0.0000 25.2739 0.0000 0.0000
# 5 0.0000 0.0000 0.0000 0.0000 1.2006 0.0000
# 6 0.0000 0.0000 0.0000 0.0000 0.0000 40.6436
#
#
#
# Elastic Compliance Matrix: (Units=1/GPa)
#
#
# Indices 1 2 3 4 5 6 
#
# 1 0.024110 -0.005427 -0.008438 0.000000 0.000000 0.000000
# 2 -0.005427 0.017370 -0.000079 0.000000 0.000000 0.000000
# 3 -0.008438 -0.000079 0.009966 0.000000 0.000000 0.000000
# 4 0.000000 0.000000 0.000000 0.039566 0.000000 0.000000
# 5 0.000000 0.000000 0.000000 0.000000 0.832902 0.000000
# 6 0.000000 0.000000 0.000000 0.000000 0.000000 0.024604
#
#
# Mechanical properties :
#
#
# Convention : Reuss Voigt Hill
#
# Bulk Modulus (GPa) = 42.44797 51.86367 47.15582
# Shear Modulus (GPa) = 5.07996 25.61541 15.34768
#
# Velocity S-wave (km/s) = 1.45958 3.27755 2.53700
# Velocity P-wave (km/s) = 4.54333 6.00609 5.32518
#
# Compressibility (1/GPa) = 0.02355825
#
# Stress axis : x y z
#
# Youngs Moduli (GPa) = 41.47607 57.57010 100.33854
#
# Poissons Ratio (x) = 0.31241 0.84669
# Poissons Ratio (y) = 0.22507 0.00796
# Poissons Ratio (z) = 0.34999 0.00457
#
# Static dielectric constant tensor:
#      x y z
#    x 1.917500 0.000000 0.000000 
#    y 0.000000 2.030340 0.000000 
#    z 0.000000 0.000000 1.891650 
# 
# From -- ./inp_files/1694.got.cif
#   From: 2010.05.17/outbox.cif.g08.bks.cpg/sg30_1_cif.got.tgz:1694.got - 2010.06.03 17:03:02.
