data_PCOD9342880
_publ_section_title
;
Structure prediction by ZEFSAII (Michael W. Deem and Ramdas Pophale) SiO2 
 PCOD9342880
Probable space group: P M N 21
;
_chemical_formula_sum "Si O2"
_cell_formula_units_Z 32
_cell_length_a 7.630088
_cell_length_b 12.837840
_cell_length_c 12.792928
_cell_angle_alpha 90.000000
_cell_angle_beta 90.000000
_cell_angle_gamma 90.000000
_cell_volume 1253.116537
_symmetry_space_group_name_H-M "P M N 21"
_symmetry_group_IT_number 31
_symmetry_cell_setting 'orthorhombic'
loop_
_space_group_symop_operation_xyz
x,y,z
1/2-x,-y,1/2+z
-x,y,z
1/2+x,-y,1/2+z
loop_
_atom_site_type_symbol
_atom_site_label
_atom_site_fract_x
_atom_site_fract_y
_atom_site_fract_z
Si Si1 0.706010 0.924688 0.440420
Si Si2 0.200463 0.847315 0.992415
Si Si3 0.285760 0.370712 0.537879
Si Si4 0.798582 0.603009 0.492289
Si Si5 0.697641 0.651016 0.723218
Si Si6 0.211392 0.098936 0.721141
Si Si7 0.297487 0.132611 0.164803
Si Si8 0.214771 0.576526 0.270421
O O1 0.500000 0.940009 0.419666
O O2 0.774103 0.869103 0.336346
O O3 0.716818 0.863866 0.549034
O O4 0.780674 0.042130 0.457672
O O5 0.276306 0.732124 0.977088
O O6 0.199469 0.855012 0.119103
O O7 0.000000 0.844717 0.954047
O O8 0.500000 0.375754 0.532280
O O9 0.208044 0.477162 0.494385
O O10 0.236668 0.370259 0.661213
O O11 0.700903 0.635885 0.596895
O O12 0.726365 0.629433 0.377818
O O13 0.000000 0.638940 0.503002
O O14 0.500000 0.653441 0.760302
O O15 0.772852 0.766135 0.735275
O O16 0.780448 0.543814 0.764304
O O17 0.000000 0.113442 0.708421
O O18 0.255988 0.975335 0.717276
O O19 0.500000 0.121904 0.142746
O O20 0.000000 0.573510 0.273414
#
# Coordination Sequence:
#
# PCOD9342880 Si02
#       8
#     4   4   4   4   4   4   4   4
#     4   9  18  34  52  73 102 136 169 205 249 299
#     4   9  18  32  52  74  98 130 168 204 246 299
#     4   9  18  34  52  72  99 132 165 202 247 298
#     4  10  19  33  52  75 101 131 167 210 250 291
#     4  10  20  36  54  74 102 136 168 203 250 306
#     4   9  19  34  51  72 102 133 166 209 252 292
#     4  10  20  34  52  77 104 132 168 213 254 293
#     4   8  17  33  51  71 100 132 163 200 246 294
#
# _framework density 25.536332000000002
#
# number of rings (size 3 to 8) (size 9 to 14) (size 15 to 20)
#    0.000    2.750    0.000    1.875    0.000    3.500 
#    0.000    8.750    0.000    0.000    0.000    0.000 
#    0.000    0.000    0.000    0.000    0.000    0.000 
#
# Total GULP energy -178746.560639 kJ/mol
# GULP energy per Si atom -5585.830020 kJ/mol
# Density = 2.547821 g / cm^3
# Si number density = 25.536332 Si / 1000 Ang^3
#
#
#
# Elastic Constant Matrix: (Units=GPa)
#
#
# Indices 1 2 3 4 5 6 
#
# 1 54.1374 -9.9438 3.2390 0.0000 0.0000 0.0000
# 2 -9.9438 100.3318 -22.8069 0.0000 0.0000 0.0000
# 3 3.2390 -22.8069 110.1472 0.0000 0.0000 0.0000
# 4 0.0000 0.0000 0.0000 -13.2354 0.0000 0.0000
# 5 0.0000 0.0000 0.0000 0.0000 13.4799 0.0000
# 6 0.0000 0.0000 0.0000 0.0000 0.0000 10.7419
#
#
#
# Elastic Compliance Matrix: (Units=1/GPa)
#
#
# Indices 1 2 3 4 5 6 
#
# 1 0.018817 0.001825 -0.000175 0.000000 0.000000 0.000000
# 2 0.001825 0.010636 0.002149 0.000000 0.000000 0.000000
# 3 -0.000175 0.002149 0.009529 0.000000 0.000000 0.000000
# 4 0.000000 0.000000 0.000000 -0.075555 0.000000 0.000000
# 5 0.000000 0.000000 0.000000 0.000000 0.074185 0.000000
# 6 0.000000 0.000000 0.000000 0.000000 0.000000 0.093093
#
#
# Mechanical properties :
#
#
# Convention : Reuss Voigt Hill
#
# Bulk Modulus (GPa) = 21.46895 22.84365 22.15630
# Shear Modulus (GPa) = 36.06598 21.80583 28.93590
#
# Velocity S-wave (km/s) = 3.76219 2.92535 3.36985
# Velocity P-wave (km/s) = 5.22471 4.51389 4.88225
#
# Compressibility (1/GPa) = 0.04657890
#
# Stress axis : x y z
#
# Youngs Moduli (GPa) = 53.14275 94.01828 104.94478
#
# Poissons Ratio (x) = -0.17159 0.01841
# Poissons Ratio (y) = -0.09699 -0.22549
# Poissons Ratio (z) = 0.00932 -0.20201
#
# Static dielectric constant tensor:
#      x y z
#    x 1.914050 0.000000 0.000000 
#    y 0.000000 2.035610 0.000000 
#    z 0.000000 0.000000 2.060940 
# 
# From -- ./inp_files/5143.got.cif
#   From: 2010.05.17/outbox.cif.g08.bks.cpg/sg31_3_cif.got.tgz:5143.got - 2010.06.03 17:08:30.
