data_PCOD9342273
_publ_section_title
;
Structure prediction by ZEFSAII (Michael W. Deem and Ramdas Pophale) SiO2 
 PCOD9342273
Probable space group: P N C 2
;
_chemical_formula_sum "Si O2"
_cell_formula_units_Z 32
_cell_length_a 18.328811
_cell_length_b 5.417204
_cell_length_c 14.822943
_cell_angle_alpha 90.000000
_cell_angle_beta 90.000000
_cell_angle_gamma 90.000000
_cell_volume 1471.783474
_symmetry_space_group_name_H-M "P N C 2"
_symmetry_group_IT_number 30
_symmetry_cell_setting 'orthorhombic'
loop_
_space_group_symop_operation_xyz
x,y,z
-x,-y,z
-x,1/2+y,1/2+z
x,1/2-y,1/2+z
loop_
_atom_site_type_symbol
_atom_site_label
_atom_site_fract_x
_atom_site_fract_y
_atom_site_fract_z
Si Si1 0.657111 0.597726 0.138230
Si Si2 0.808596 0.060918 0.242795
Si Si3 0.307606 0.575757 0.316750
Si Si4 0.542839 0.257694 0.386131
Si Si5 0.084096 0.937438 0.745686
Si Si6 0.813063 0.680739 0.094577
Si Si7 0.424983 0.596324 0.593243
Si Si8 0.181602 0.328521 0.397508
O O1 0.668057 0.635907 0.246203
O O2 0.734749 0.547451 0.089513
O O3 0.609851 0.346027 0.133071
O O4 0.623451 0.847008 0.096254
O O5 0.751401 0.276663 0.257911
O O6 0.892129 0.153304 0.240388
O O7 0.793381 0.926301 0.150058
O O8 0.801265 0.895712 0.330921
O O9 0.376293 0.736403 0.344821
O O10 0.258174 0.478248 0.399165
O O11 0.500000 0.500000 0.349687
O O12 0.554991 0.316191 0.492069
O O13 0.500000 0.000000 0.375111
O O14 0.128462 0.053763 0.660989
O O15 0.120011 0.027518 0.840223
O O16 0.000000 0.000000 0.741377
O O17 0.841158 0.741902 0.995689
O O18 0.500000 0.500000 0.638642
#
# Coordination Sequence:
#
# PCOD9342273 Si02
#       8
#     4   4   4   4   4   4   4   4
#     4  12  23  40  70  93 137 184 239 296 358 425
#     4  10  21  44  69  94 145 176 230 301 343 432
#     4  11  24  40  65  97 133 182 239 296 360 432
#     4  11  26  44  66  99 139 184 242 305 370 435
#     4  10  23  46  67 103 144 183 228 292 360 429
#     4  11  23  41  67 105 134 186 240 287 356 430
#     4  11  25  44  64  96 136 182 237 301 363 431
#     4  10  23  42  68 101 137 182 241 288 358 430
#
# _framework density 21.742327
#
# number of rings (size 3 to 8) (size 9 to 14) (size 15 to 20)
#    0.000    1.250    3.750    3.375    3.500    5.500 
#    4.500    0.000    0.000    0.000    0.000    0.000 
#    0.000    0.000    0.000    0.000    0.000    0.000 
#
# Total GULP energy -178578.511782 kJ/mol
# GULP energy per Si atom -5580.578493 kJ/mol
# Density = 2.169284 g / cm^3
# Si number density = 21.742327 Si / 1000 Ang^3
#
#
#
# Elastic Constant Matrix: (Units=GPa)
#
#
# Indices 1 2 3 4 5 6 
#
# 1 157.8100 51.1950 25.6725 0.0000 0.0000 0.0000
# 2 51.1950 104.1226 13.9817 0.0000 0.0000 0.0000
# 3 25.6725 13.9817 93.0034 0.0000 0.0000 0.0000
# 4 0.0000 0.0000 0.0000 5.2429 0.0000 0.0000
# 5 0.0000 0.0000 0.0000 0.0000 16.9363 0.0000
# 6 0.0000 0.0000 0.0000 0.0000 0.0000 29.9371
#
#
#
# Elastic Compliance Matrix: (Units=1/GPa)
#
#
# Indices 1 2 3 4 5 6 
#
# 1 0.007766 -0.003603 -0.001602 0.000000 0.000000 0.000000
# 2 -0.003603 0.011474 -0.000730 0.000000 0.000000 0.000000
# 3 -0.001602 -0.000730 0.011304 0.000000 0.000000 0.000000
# 4 0.000000 0.000000 0.000000 0.190734 0.000000 0.000000
# 5 0.000000 0.000000 0.000000 0.000000 0.059045 0.000000
# 6 0.000000 0.000000 0.000000 0.000000 0.000000 0.033403
#
#
# Mechanical properties :
#
#
# Convention : Reuss Voigt Hill
#
# Bulk Modulus (GPa) = 53.55325 59.62603 56.58964
# Shear Modulus (GPa) = 15.06828 28.02905 21.54866
#
# Velocity S-wave (km/s) = 2.63542 3.59436 3.15158
# Velocity P-wave (km/s) = 5.82623 6.68651 6.27114
#
# Compressibility (1/GPa) = 0.01867300
#
# Stress axis : x y z
#
# Youngs Moduli (GPa) = 128.76077 87.15473 88.46183
#
# Poissons Ratio (x) = 0.31406 0.14172
# Poissons Ratio (y) = 0.46398 0.06460
# Poissons Ratio (z) = 0.20629 0.06364
#
# Static dielectric constant tensor:
#      x y z
#    x 1.876340 0.000000 0.000000 
#    y 0.000000 1.887340 0.000000 
#    z 0.000000 0.000000 1.804470 
# 
# From -- ./inp_files/5681.got.cif
#   From: 2010.05.17/outbox.cif.g08.bks.cpg/sg30_3_cif.got.tgz:5681.got - 2010.06.03 17:03:02.
