data_PCOD9342140
_publ_section_title
;
Structure prediction by ZEFSAII (Michael W. Deem and Ramdas Pophale) SiO2 
 PCOD9342140
Probable space group: P N C 2
;
_chemical_formula_sum "Si O2"
_cell_formula_units_Z 20
_cell_length_a 15.453172
_cell_length_b 5.338883
_cell_length_c 10.591104
_cell_angle_alpha 90.000000
_cell_angle_beta 90.000000
_cell_angle_gamma 90.000000
_cell_volume 873.794435
_symmetry_space_group_name_H-M "P N C 2"
_symmetry_group_IT_number 30
_symmetry_cell_setting 'orthorhombic'
loop_
_space_group_symop_operation_xyz
x,y,z
-x,-y,z
-x,1/2+y,1/2+z
x,1/2-y,1/2+z
loop_
_atom_site_type_symbol
_atom_site_label
_atom_site_fract_x
_atom_site_fract_y
_atom_site_fract_z
Si Si1 0.677496 0.182205 0.146150
Si Si2 0.752149 0.778523 0.993724
Si Si3 0.097280 0.444180 0.847054
Si Si4 0.824714 0.453302 0.262957
Si Si5 0.401151 0.580305 0.912361
O O1 0.748518 0.402574 0.162610
O O2 0.729078 0.923466 0.122379
O O3 0.623029 0.175307 0.273591
O O4 0.617613 0.228183 0.025932
O O5 0.837270 0.610289 0.963263
O O6 0.667274 0.641066 0.941334
O O7 0.775213 0.006577 0.896387
O O8 0.125165 0.693089 0.773433
O O9 0.000000 0.500000 0.888854
O O10 0.112617 0.195171 0.761023
O O11 0.500000 0.500000 0.916206
#
# Coordination Sequence:
#
# PCOD9342140 Si02
#       5
#     4   4   4   4   4
#     4  12  24  50  71 113 160 211 266 327 410 483
#     4  10  24  43  75 107 156 206 263 320 404 461
#     4  10  20  43  76 113 152 202 266 320 386 465
#     4  10  22  43  75 108 153 203 257 315 394 456
#     4  12  29  45  76 113 153 215 266 339 400 484
#
# _framework density 22.888679
#
# number of rings (size 3 to 8) (size 9 to 14) (size 15 to 20)
#    1.200    0.000    4.000    0.600    8.400    0.000 
#    0.000    0.000    8.800    0.000    0.000    0.000 
#    0.000    0.000    0.000    0.000    0.000    0.000 
#
# Total GULP energy -111611.829163 kJ/mol
# GULP energy per Si atom -5580.591458 kJ/mol
# Density = 2.283658 g / cm^3
# Si number density = 22.888679 Si / 1000 Ang^3
#
#
#
# Elastic Constant Matrix: (Units=GPa)
#
#
# Indices 1 2 3 4 5 6 
#
# 1 209.5079 68.3420 60.4922 0.0000 0.0000 0.0000
# 2 68.3420 147.2247 29.4480 0.0000 0.0000 0.0000
# 3 60.4922 29.4480 117.3189 0.0000 0.0000 0.0000
# 4 0.0000 0.0000 0.0000 35.8436 0.0000 0.0000
# 5 0.0000 0.0000 0.0000 0.0000 20.4156 0.0000
# 6 0.0000 0.0000 0.0000 0.0000 0.0000 28.5026
#
#
#
# Elastic Compliance Matrix: (Units=1/GPa)
#
#
# Indices 1 2 3 4 5 6 
#
# 1 0.006325 -0.002404 -0.002658 0.000000 0.000000 0.000000
# 2 -0.002404 0.008065 -0.000785 0.000000 0.000000 0.000000
# 3 -0.002658 -0.000785 0.010091 0.000000 0.000000 0.000000
# 4 0.000000 0.000000 0.000000 0.027899 0.000000 0.000000
# 5 0.000000 0.000000 0.000000 0.000000 0.048982 0.000000
# 6 0.000000 0.000000 0.000000 0.000000 0.000000 0.035085
#
#
# Mechanical properties :
#
#
# Convention : Reuss Voigt Hill
#
# Bulk Modulus (GPa) = 78.20002 87.84620 83.02311
# Shear Modulus (GPa) = 32.80776 38.00366 35.40571
#
# Velocity S-wave (km/s) = 3.79008 4.07918 3.93729
# Velocity P-wave (km/s) = 7.30702 7.78777 7.55122
#
# Compressibility (1/GPa) = 0.01278772
#
# Stress axis : x y z
#
# Youngs Moduli (GPa) = 158.10872 123.98618 99.09724
#
# Poissons Ratio (x) = 0.29811 0.26337
# Poissons Ratio (y) = 0.38015 0.07777
# Poissons Ratio (z) = 0.42020 0.09730
#
# Static dielectric constant tensor:
#      x y z
#    x 1.811720 0.000000 0.000000 
#    y 0.000000 1.990540 0.000000 
#    z 0.000000 0.000000 1.953510 
# 
# From -- ./inp_files/4196.got.cif
#   From: 2010.05.17/outbox.cif.g08.bks.cpg/sg30_3_cif.got.tgz:4196.got - 2010.06.03 17:03:02.
