data_PCOD9342556
_publ_section_title
;
Structure prediction by ZEFSAII (Michael W. Deem and Ramdas Pophale) SiO2 
 PCOD9342556
Probable space group: P N C 2
;
_chemical_formula_sum "Si O2"
_cell_formula_units_Z 32
_cell_length_a 5.684042
_cell_length_b 18.544742
_cell_length_c 13.423404
_cell_angle_alpha 90.000000
_cell_angle_beta 90.000000
_cell_angle_gamma 90.000000
_cell_volume 1414.948833
_symmetry_space_group_name_H-M "P N C 2"
_symmetry_group_IT_number 30
_symmetry_cell_setting 'orthorhombic'
loop_
_space_group_symop_operation_xyz
x,y,z
-x,-y,z
-x,1/2+y,1/2+z
x,1/2-y,1/2+z
loop_
_atom_site_type_symbol
_atom_site_label
_atom_site_fract_x
_atom_site_fract_y
_atom_site_fract_z
Si Si1 0.256097 0.463692 0.246600
Si Si2 0.214511 0.810009 0.549272
Si Si3 0.637715 0.932285 0.334297
Si Si4 0.714511 0.189991 0.314484
Si Si5 0.073316 0.189124 0.145939
Si Si6 0.137716 0.432285 0.029458
Si Si7 0.426684 0.310877 0.217816
Si Si8 0.243903 0.036308 0.117155
O O1 0.500000 0.500000 0.284051
O O2 0.261435 0.466310 0.125530
O O3 0.295291 0.378345 0.267805
O O4 0.000000 0.500000 0.274775
O O5 0.250000 0.813624 0.431878
O O6 0.436960 0.831284 0.616304
O O7 0.118441 0.730915 0.578568
O O8 0.025053 0.870786 0.575454
O O9 0.474946 0.870786 0.288301
O O10 0.750000 0.897629 0.431878
O O11 0.761435 0.966310 0.238226
O O12 0.500000 0.000000 0.380769
O O13 0.618441 0.269085 0.285188
O O14 0.936961 0.168716 0.247452
O O15 0.250000 0.250000 0.181877
O O16 0.204708 0.121655 0.095951
O O17 0.000000 0.500000 0.982987
O O18 0.500000 0.000000 0.088980
O O19 0.000000 0.000000 0.079705
#
# Coordination Sequence:
#
# PCOD9342556 Si02
#       8
#     4   4   4   4   4   4   4   4
#     4  11  23  39  63  93 127 174 221 268 330 393
#     4  11  24  39  64  96 133 175 223 272 332 397
#     4  11  20  34  56  92 135 173 205 250 318 405
#     4  11  24  39  64  96 133 175 223 272 332 397
#     4  11  23  42  64  95 131 172 223 276 327 399
#     4  11  20  34  56  92 135 173 205 250 318 405
#     4  11  23  42  64  95 131 172 223 276 327 399
#     4  11  23  39  63  93 127 174 221 268 330 393
#
# _framework density 22.615659999999998
#
# number of rings (size 3 to 8) (size 9 to 14) (size 15 to 20)
#    0.000    1.000    2.500    6.000    3.500    0.000 
#    0.000    0.000    0.000    0.000    6.500    0.000 
#    0.000    0.000    0.000    0.000    0.000    0.000 
#
# Total GULP energy -178482.285555 kJ/mol
# GULP energy per Si atom -5577.571424 kJ/mol
# Density = 2.256419 g / cm^3
# Si number density = 22.615660 Si / 1000 Ang^3
#
#
#
# Elastic Constant Matrix: (Units=GPa)
#
#
# Indices 1 2 3 4 5 6 
#
# 1 123.4792 55.7313 -2.8689 0.0000 0.0000 0.0000
# 2 55.7313 137.9279 -10.9224 0.0000 0.0000 0.0000
# 3 -2.8689 -10.9224 18.9799 0.0000 0.0000 0.0000
# 4 0.0000 0.0000 0.0000 16.8768 0.0000 0.0000
# 5 0.0000 0.0000 0.0000 0.0000 28.7370 0.0000
# 6 0.0000 0.0000 0.0000 0.0000 0.0000 63.6533
#
#
#
# Elastic Compliance Matrix: (Units=1/GPa)
#
#
# Indices 1 2 3 4 5 6 
#
# 1 0.009918 -0.004074 -0.000846 0.000000 0.000000 0.000000
# 2 -0.004074 0.009270 0.004719 0.000000 0.000000 0.000000
# 3 -0.000846 0.004719 0.055275 0.000000 0.000000 0.000000
# 4 0.000000 0.000000 0.000000 0.059253 0.000000 0.000000
# 5 0.000000 0.000000 0.000000 0.000000 0.034798 0.000000
# 6 0.000000 0.000000 0.000000 0.000000 0.000000 0.015710
#
#
# Mechanical properties :
#
#
# Convention : Reuss Voigt Hill
#
# Bulk Modulus (GPa) = 13.50236 40.47409 26.98823
# Shear Modulus (GPa) = 23.88760 37.74988 30.81874
#
# Velocity S-wave (km/s) = 3.25351 4.09001 3.69550
# Velocity P-wave (km/s) = 4.48298 6.34347 5.49257
#
# Compressibility (1/GPa) = 0.07406111
#
# Stress axis : x y z
#
# Youngs Moduli (GPa) = 100.82862 107.87316 18.09128
#
# Poissons Ratio (x) = 0.43951 0.01530
# Poissons Ratio (y) = 0.41081 -0.08537
# Poissons Ratio (z) = 0.08526 -0.50904
#
# Static dielectric constant tensor:
#      x y z
#    x 1.766250 0.000000 0.000000 
#    y 0.000000 1.908380 0.000000 
#    z 0.000000 0.000000 1.808040 
# 
# From -- ./inp_files/4769.got.cif
#   From: 2010.05.17/outbox.cif.g08.bks.cpg/sg30_3_cif.got.tgz:4769.got - 2010.06.03 17:03:02.
