data_PCOD9342942
_publ_section_title
;
Structure prediction by ZEFSAII (Michael W. Deem and Ramdas Pophale) SiO2 
 PCOD9342942
Probable space group: P M N 21
;
_chemical_formula_sum "Si O2"
_cell_formula_units_Z 32
_cell_length_a 9.467697
_cell_length_b 16.020833
_cell_length_c 11.121927
_cell_angle_alpha 90.000000
_cell_angle_beta 90.000000
_cell_angle_gamma 90.000000
_cell_volume 1686.978253
_symmetry_space_group_name_H-M "P M N 21"
_symmetry_group_IT_number 31
_symmetry_cell_setting 'orthorhombic'
loop_
_space_group_symop_operation_xyz
x,y,z
1/2-x,-y,1/2+z
-x,y,z
1/2+x,-y,1/2+z
loop_
_atom_site_type_symbol
_atom_site_label
_atom_site_fract_x
_atom_site_fract_y
_atom_site_fract_z
Si Si1 0.669457 0.048746 0.181710
Si Si2 0.166605 0.523028 0.988813
Si Si3 0.842086 0.217580 0.528511
Si Si4 0.670205 0.961243 0.926170
Si Si5 0.666535 0.332259 0.685373
Si Si6 0.664891 0.365539 0.952742
Si Si7 0.662811 0.244245 0.155710
Si Si8 0.340783 0.639282 0.826613
O O1 0.500000 0.037451 0.197428
O O2 0.750469 0.016238 0.301381
O O3 0.699385 0.147869 0.171920
O O4 0.706276 0.009560 0.050811
O O5 0.241691 0.435895 0.016053
O O6 0.246738 0.563161 0.874289
O O7 0.000000 0.513723 0.967159
O O8 0.186073 0.589189 0.096604
O O9 0.794648 0.135305 0.457973
O O10 0.742199 0.251044 0.632532
O O11 0.849889 0.294373 0.435919
O O12 0.000000 0.199998 0.574723
O O13 0.500000 0.968363 0.908169
O O14 0.500000 0.315709 0.692291
O O15 0.717217 0.355572 0.817377
O O16 0.500000 0.392553 0.952933
O O17 0.669992 0.277020 0.019597
O O18 0.500000 0.255548 0.197305
O O19 0.763241 0.306720 0.226597
O O20 0.500000 0.612897 0.793968
#
# Coordination Sequence:
#
# PCOD9342942 Si02
#       8
#     4   4   4   4   4   4   4   4
#     4  10  22  39  61  89 123 161 205 252 304 367
#     4  10  21  36  55  82 110 143 188 236 281 338
#     4   9  18  34  57  82 108 142 183 230 283 337
#     4  10  21  39  61  90 124 158 200 252 304 362
#     4   9  20  37  55  78 110 144 186 234 283 347
#     4  10  22  38  54  78 114 151 187 237 293 346
#     4  10  21  37  57  83 115 152 192 235 288 347
#     4  10  19  34  58  82 108 145 185 228 280 334
#
# _framework density 18.968827999999998
#
# number of rings (size 3 to 8) (size 9 to 14) (size 15 to 20)
#    0.000    2.250    1.250    0.750    1.750    4.000 
#    0.000    1.250    0.000    0.000    0.000    0.000 
#    0.000    0.000    0.000    0.000    0.000    0.000 
#
# Total GULP energy -178428.650439 kJ/mol
# GULP energy per Si atom -5575.895326 kJ/mol
# Density = 1.892565 g / cm^3
# Si number density = 18.968828 Si / 1000 Ang^3
#
#
#
# Elastic Constant Matrix: (Units=GPa)
#
#
# Indices 1 2 3 4 5 6 
#
# 1 58.8685 30.6846 58.2813 0.0000 0.0000 0.0000
# 2 30.6846 55.9673 33.4265 0.0000 0.0000 0.0000
# 3 58.2813 33.4265 88.9160 0.0000 0.0000 0.0000
# 4 0.0000 0.0000 0.0000 22.0503 0.0000 0.0000
# 5 0.0000 0.0000 0.0000 0.0000 26.8736 0.0000
# 6 0.0000 0.0000 0.0000 0.0000 0.0000 22.8699
#
#
#
# Elastic Compliance Matrix: (Units=1/GPa)
#
#
# Indices 1 2 3 4 5 6 
#
# 1 0.052929 -0.010701 -0.030670 0.000000 0.000000 0.000000
# 2 -0.010701 0.025204 -0.002461 0.000000 0.000000 0.000000
# 3 -0.030670 -0.002461 0.032275 0.000000 0.000000 0.000000
# 4 0.000000 0.000000 0.000000 0.045351 0.000000 0.000000
# 5 0.000000 0.000000 0.000000 0.000000 0.037211 0.000000
# 6 0.000000 0.000000 0.000000 0.000000 0.000000 0.043726
#
#
# Mechanical properties :
#
#
# Convention : Reuss Voigt Hill
#
# Bulk Modulus (GPa) = 43.96793 49.83741 46.90267
# Shear Modulus (GPa) = 15.06285 19.78274 17.42280
#
# Velocity S-wave (km/s) = 2.82101 3.23291 3.03396
# Velocity P-wave (km/s) = 5.81723 6.34555 6.08712
#
# Compressibility (1/GPa) = 0.02274385
#
# Stress axis : x y z
#
# Youngs Moduli (GPa) = 18.89314 39.67568 30.98365
#
# Poissons Ratio (x) = 0.42457 0.95028
# Poissons Ratio (y) = 0.20218 0.07625
# Poissons Ratio (z) = 0.57946 0.09764
#
# Static dielectric constant tensor:
#      x y z
#    x 1.658480 0.000000 0.000000 
#    y 0.000000 1.642420 0.000000 
#    z 0.000000 0.000000 1.688760 
# 
# From -- ./inp_files/3632.got.cif
#   From: 2010.05.17/outbox.cif.g08.bks.cpg/sg31_2_cif.got.tgz:3632.got - 2010.06.03 17:08:30.
