data_PCOD9342018
_publ_section_title
;
Structure prediction by ZEFSAII (Michael W. Deem and Ramdas Pophale) SiO2 
 PCOD9342018
Probable space group: P N C 2
;
_chemical_formula_sum "Si O2"
_cell_formula_units_Z 24
_cell_length_a 7.490931
_cell_length_b 5.629300
_cell_length_c 24.678275
_cell_angle_alpha 90.000000
_cell_angle_beta 90.000000
_cell_angle_gamma 90.000000
_cell_volume 1040.650723
_symmetry_space_group_name_H-M "P N C 2"
_symmetry_group_IT_number 30
_symmetry_cell_setting 'orthorhombic'
loop_
_space_group_symop_operation_xyz
x,y,z
-x,-y,z
-x,1/2+y,1/2+z
x,1/2-y,1/2+z
loop_
_atom_site_type_symbol
_atom_site_label
_atom_site_fract_x
_atom_site_fract_y
_atom_site_fract_z
Si Si1 0.747091 0.859334 0.765060
Si Si2 0.800975 0.388001 0.158686
Si Si3 0.500000 0.000000 0.324040
Si Si4 0.219869 0.501168 0.038949
Si Si5 0.698186 0.387567 0.372216
Si Si6 0.000000 0.000000 0.207842
Si Si7 0.795565 0.001548 0.991052
O O1 0.585017 0.696462 0.785260
O O2 0.909356 0.692749 0.746485
O O3 0.706904 0.013014 0.711947
O O4 0.786712 0.017878 0.817421
O O5 0.724335 0.467434 0.101548
O O6 0.846071 0.112037 0.169718
O O7 0.000000 0.500000 0.158270
O O8 0.655029 0.110817 0.361663
O O9 0.000000 0.500000 0.036116
O O10 0.282739 0.746779 0.011209
O O11 0.279350 0.251479 0.012046
O O12 0.500000 0.500000 0.376787
O O13 0.793030 0.470588 0.426310
O O14 0.000000 0.000000 0.010787
#
# Coordination Sequence:
#
# PCOD9342018 Si02
#       7
#     4   4   2   4   4   2   4
#     4  10  21  37  59  91 117 157 202 250 310 369
#     4   9  19  33  58  88 124 155 194 246 304 366
#     4  10  22  40  62  78 120 166 202 254 312 378
#     4   9  20  36  59  91 124 156 198 246 308 360
#     4  10  23  40  60  82 118 160 203 251 308 367
#     4  10  20  34  62  90 124 156 194 256 306 372
#     4  10  22  38  62  90 119 157 203 255 299 360
#
# _framework density 23.062494999999998
#
# number of rings (size 3 to 8) (size 9 to 14) (size 15 to 20)
#    0.000    2.333    0.000    1.000   12.833    3.333 
#    1.500    0.000    1.833    2.000    0.000    0.000 
#    0.000    0.000    0.000    0.000    0.000    0.000 
#
# Total GULP energy -133914.244390 kJ/mol
# GULP energy per Si atom -5579.760183 kJ/mol
# Density = 2.301000 g / cm^3
# Si number density = 23.062495 Si / 1000 Ang^3
#
#
#
# Elastic Constant Matrix: (Units=GPa)
#
#
# Indices 1 2 3 4 5 6 
#
# 1 52.2736 14.0897 1.7842 0.0000 0.0000 0.0000
# 2 14.0897 170.5795 97.7257 0.0000 0.0000 0.0000
# 3 1.7842 97.7257 180.5790 0.0000 0.0000 0.0000
# 4 0.0000 0.0000 0.0000 24.4087 0.0000 0.0000
# 5 0.0000 0.0000 0.0000 0.0000 -273.9825 0.0000
# 6 0.0000 0.0000 0.0000 0.0000 0.0000 15.3142
#
#
#
# Elastic Compliance Matrix: (Units=1/GPa)
#
#
# Indices 1 2 3 4 5 6 
#
# 1 0.019688 -0.002195 0.000994 0.000000 0.000000 0.000000
# 2 -0.002195 0.008742 -0.004709 0.000000 0.000000 0.000000
# 3 0.000994 -0.004709 0.008076 0.000000 0.000000 0.000000
# 4 0.000000 0.000000 0.000000 0.040969 0.000000 0.000000
# 5 0.000000 0.000000 0.000000 0.000000 -0.003650 0.000000
# 6 0.000000 0.000000 0.000000 0.000000 0.000000 0.065299
#
#
# Mechanical properties :
#
#
# Convention : Reuss Voigt Hill
#
# Bulk Modulus (GPa) = 40.51193 70.07015 55.29104
# Shear Modulus (GPa) = 31.41219 -27.52976 1.94122
#
# Velocity S-wave (km/s) = 3.69460 -3.45875 0.91845
# Velocity P-wave (km/s) = 5.98367 3.80764 5.01510
#
# Compressibility (1/GPa) = 0.02468409
#
# Stress axis : x y z
#
# Youngs Moduli (GPa) = 50.79245 114.39621 123.81797
#
# Poissons Ratio (x) = 0.25115 -0.12303
# Poissons Ratio (y) = 0.11151 0.58307
# Poissons Ratio (z) = -0.05047 0.53870
#
# Static dielectric constant tensor:
#      x y z
#    x 1.909020 0.000000 0.000000 
#    y 0.000000 1.997470 0.000000 
#    z 0.000000 0.000000 1.860020 
# 
# From -- ./inp_files/7327.got.cif
#   From: 2010.05.17/outbox.cif.g08.bks.cpg/sg30_4_cif.got.tgz:7327.got - 2010.06.03 17:03:02.
