data_PCOD9342465
_publ_section_title
;
Structure prediction by ZEFSAII (Michael W. Deem and Ramdas Pophale) SiO2 
 PCOD9342465
Probable space group: P N C 2
;
_chemical_formula_sum "Si O2"
_cell_formula_units_Z 24
_cell_length_a 7.957377
_cell_length_b 13.850630
_cell_length_c 9.790102
_cell_angle_alpha 90.000000
_cell_angle_beta 90.000000
_cell_angle_gamma 90.000000
_cell_volume 1079.013004
_symmetry_space_group_name_H-M "P N C 2"
_symmetry_group_IT_number 30
_symmetry_cell_setting 'orthorhombic'
loop_
_space_group_symop_operation_xyz
x,y,z
-x,-y,z
-x,1/2+y,1/2+z
x,1/2-y,1/2+z
loop_
_atom_site_type_symbol
_atom_site_label
_atom_site_fract_x
_atom_site_fract_y
_atom_site_fract_z
Si Si1 0.616765 0.089127 0.112530
Si Si2 0.803835 0.027991 0.540296
Si Si3 0.223556 0.332741 0.933676
Si Si4 0.604956 0.730943 0.188938
Si Si5 0.319481 0.609626 0.302712
Si Si6 0.156884 0.819994 0.333739
O O1 0.508429 0.187543 0.116979
O O2 0.776074 0.113816 0.208993
O O3 0.500000 0.000000 0.159166
O O4 0.665549 0.070882 0.955581
O O5 0.766296 0.036382 0.698897
O O6 0.765659 0.130042 0.469149
O O7 0.717687 0.942548 0.456383
O O8 0.000000 0.000000 0.525951
O O9 0.342515 0.276635 0.831901
O O10 0.040811 0.324651 0.865011
O O11 0.241338 0.290782 0.086868
O O12 0.494861 0.638527 0.230283
O O13 0.217942 0.711097 0.312185
#
# Coordination Sequence:
#
# PCOD9342465 Si02
#       6
#     4   4   4   4   4   4
#     4  11  24  43  65 101 137 185 233 292 350 425
#     4  10  24  44  67 102 132 186 240 288 360 425
#     4  11  25  42  73 101 140 181 239 302 360 435
#     4  11  24  44  66 104 137 183 235 291 361 424
#     4  11  24  43  68  99 140 185 233 289 357 429
#     4  10  23  45  70  95 138 189 230 291 359 428
#
# _framework density 22.242547999999999
#
# number of rings (size 3 to 8) (size 9 to 14) (size 15 to 20)
#    0.000    1.333    1.667    3.000   11.667    0.000 
#    0.000    2.500    0.000    0.000    0.000    0.000 
#    0.000    0.000    0.000    0.000    0.000    0.000 
#
# Total GULP energy -134109.887155 kJ/mol
# GULP energy per Si atom -5587.911965 kJ/mol
# Density = 2.219192 g / cm^3
# Si number density = 22.242548 Si / 1000 Ang^3
#
#
#
# Elastic Constant Matrix: (Units=GPa)
#
#
# Indices 1 2 3 4 5 6 
#
# 1 59.6604 18.8308 35.5343 0.0000 0.0000 0.0000
# 2 18.8308 57.0575 9.0183 0.0000 0.0000 0.0000
# 3 35.5343 9.0183 127.0367 0.0000 0.0000 0.0000
# 4 0.0000 0.0000 0.0000 24.7470 0.0000 0.0000
# 5 0.0000 0.0000 0.0000 0.0000 43.1503 0.0000
# 6 0.0000 0.0000 0.0000 0.0000 0.0000 21.2130
#
#
#
# Elastic Compliance Matrix: (Units=1/GPa)
#
#
# Indices 1 2 3 4 5 6 
#
# 1 0.022219 -0.006423 -0.005759 0.000000 0.000000 0.000000
# 2 -0.006423 0.019582 0.000406 0.000000 0.000000 0.000000
# 3 -0.005759 0.000406 0.009454 0.000000 0.000000 0.000000
# 4 0.000000 0.000000 0.000000 0.040409 0.000000 0.000000
# 5 0.000000 0.000000 0.000000 0.000000 0.023175 0.000000
# 6 0.000000 0.000000 0.000000 0.000000 0.000000 0.047141
#
#
# Mechanical properties :
#
#
# Convention : Reuss Voigt Hill
#
# Bulk Modulus (GPa) = 36.09624 41.16904 38.63264
# Shear Modulus (GPa) = 25.67205 29.84679 27.75942
#
# Velocity S-wave (km/s) = 3.40102 3.66714 3.53658
# Velocity P-wave (km/s) = 5.62905 6.03986 5.83807
#
# Compressibility (1/GPa) = 0.02770372
#
# Stress axis : x y z
#
# Youngs Moduli (GPa) = 45.00670 51.06822 105.77760
#
# Poissons Ratio (x) = 0.32800 0.60918
# Poissons Ratio (y) = 0.28906 -0.04299
# Poissons Ratio (z) = 0.25920 -0.02076
#
# Static dielectric constant tensor:
#      x y z
#    x 1.845110 0.000000 0.000000 
#    y 0.000000 1.850000 0.000000 
#    z 0.000000 0.000000 1.806040 
# 
# From -- ./inp_files/1824.got.cif
#   From: 2010.05.17/outbox.cif.g08.bks.cpg/sg30_1_cif.got.tgz:1824.got - 2010.06.03 17:03:02.
