data_PCOD9342859
_publ_section_title
;
Structure prediction by ZEFSAII (Michael W. Deem and Ramdas Pophale) SiO2 
 PCOD9342859
Probable space group: P M N 21
;
_chemical_formula_sum "Si O2"
_cell_formula_units_Z 32
_cell_length_a 7.511013
_cell_length_b 15.325771
_cell_length_c 10.341140
_cell_angle_alpha 90.000000
_cell_angle_beta 90.000000
_cell_angle_gamma 90.000000
_cell_volume 1190.389982
_symmetry_space_group_name_H-M "P M N 21"
_symmetry_group_IT_number 31
_symmetry_cell_setting 'orthorhombic'
loop_
_space_group_symop_operation_xyz
x,y,z
1/2-x,-y,1/2+z
-x,y,z
1/2+x,-y,1/2+z
loop_
_atom_site_type_symbol
_atom_site_label
_atom_site_fract_x
_atom_site_fract_y
_atom_site_fract_z
Si Si1 0.213286 0.049845 0.674520
Si Si2 0.214492 0.434284 0.381670
Si Si3 0.780471 0.234809 0.761972
Si Si4 0.801061 0.234208 0.047698
Si Si5 0.291033 0.064735 0.404156
Si Si6 0.791593 0.244542 0.322169
Si Si7 0.714516 0.569420 0.214039
Si Si8 0.714767 0.432719 0.049577
O O1 0.277792 0.149397 0.685861
O O2 0.257782 0.013478 0.535121
O O3 0.000000 0.053585 0.688960
O O4 0.286189 0.988749 0.785775
O O5 0.286577 0.334831 0.374194
O O6 0.247725 0.457298 0.215824
O O7 0.250950 0.546488 0.381533
O O8 0.000000 0.430496 0.387892
O O9 0.717555 0.330385 0.717140
O O10 0.000000 0.239190 0.761320
O O11 0.719968 0.216593 0.908937
O O12 0.712276 0.213955 0.184506
O O13 0.810498 0.339929 0.051011
O O14 0.000000 0.195858 0.045251
O O15 0.500000 0.075848 0.386375
O O16 0.214001 0.161634 0.413076
O O17 0.000000 0.262560 0.296581
O O18 0.500000 0.573588 0.211219
O O19 0.756843 0.544502 0.047654
O O20 0.500000 0.417901 0.050762
#
# Coordination Sequence:
#
# PCOD9342859 Si02
#       8
#     4   4   4   4   4   4   4   4
#     4  10  24  47  73  97 128 169 209 261 327 394
#     4  10  20  34  52  79 115 160 209 251 300 366
#     4   9  19  36  61  88 117 158 212 257 309 382
#     4  10  19  34  58  87 116 164 218 257 304 378
#     4  11  26  46  71 103 132 163 211 268 325 387
#     4  10  22  38  62  89 123 170 215 260 316 381
#     4  10  19  32  53  79 112 155 201 254 304 355
#     4  10  20  31  48  78 119 161 203 260 315 359
#
# _framework density 26.881948000000001
#
# number of rings (size 3 to 8) (size 9 to 14) (size 15 to 20)
#    0.000    2.000    2.500    0.375    3.500    2.000 
#    0.000    1.250    0.000    0.000    0.000    0.000 
#    0.000    0.000    0.000    0.000    0.000    0.000 
#
# Total GULP energy -178631.982302 kJ/mol
# GULP energy per Si atom -5582.249447 kJ/mol
# Density = 2.682076 g / cm^3
# Si number density = 26.881948 Si / 1000 Ang^3
#
#
#
# Elastic Constant Matrix: (Units=GPa)
#
#
# Indices 1 2 3 4 5 6 
#
# 1 83.7128 1.4723 4.6936 0.0000 0.0000 0.0000
# 2 1.4723 121.0819 62.1226 0.0000 0.0000 0.0000
# 3 4.6936 62.1226 205.8230 0.0000 0.0000 0.0000
# 4 0.0000 0.0000 0.0000 39.7568 0.0000 0.0000
# 5 0.0000 0.0000 0.0000 0.0000 31.8022 0.0000
# 6 0.0000 0.0000 0.0000 0.0000 0.0000 -54.5654
#
#
#
# Elastic Compliance Matrix: (Units=1/GPa)
#
#
# Indices 1 2 3 4 5 6 
#
# 1 0.011961 -0.000007 -0.000271 0.000000 0.000000 0.000000
# 2 -0.000007 0.009772 -0.002949 0.000000 0.000000 0.000000
# 3 -0.000271 -0.002949 0.005755 0.000000 0.000000 0.000000
# 4 0.000000 0.000000 0.000000 0.025153 0.000000 0.000000
# 5 0.000000 0.000000 0.000000 0.000000 0.031444 0.000000
# 6 0.000000 0.000000 0.000000 0.000000 0.000000 -0.018327
#
#
# Mechanical properties :
#
#
# Convention : Reuss Voigt Hill
#
# Bulk Modulus (GPa) = 47.54053 60.79942 54.16997
# Shear Modulus (GPa) = 63.11267 26.22067 44.66667
#
# Velocity S-wave (km/s) = 4.85064 3.12653 4.08068
# Velocity P-wave (km/s) = 7.00677 5.97494 6.51133
#
# Compressibility (1/GPa) = 0.02103469
#
# Stress axis : x y z
#
# Youngs Moduli (GPa) = 83.60572 102.33170 173.76486
#
# Poissons Ratio (x) = 0.00067 0.04706
# Poissons Ratio (y) = 0.00054 0.51249
# Poissons Ratio (z) = 0.02264 0.30181
#
# Static dielectric constant tensor:
#      x y z
#    x 1.929650 0.000000 0.000000 
#    y 0.000000 2.021510 0.000000 
#    z 0.000000 0.000000 2.499660 
# 
# From -- ./inp_files/3693.got.cif
#   From: 2010.05.17/outbox.cif.g08.bks.cpg/sg31_2_cif.got.tgz:3693.got - 2010.06.03 17:08:30.
