data_PCOD9342542
_publ_section_title
;
Structure prediction by ZEFSAII (Michael W. Deem and Ramdas Pophale) SiO2 
 PCOD9342542
Probable space group: P N C 2
;
_chemical_formula_sum "Si O2"
_cell_formula_units_Z 18
_cell_length_a 9.867563
_cell_length_b 7.361731
_cell_length_c 9.927551
_cell_angle_alpha 90.000000
_cell_angle_beta 90.000000
_cell_angle_gamma 90.000000
_cell_volume 721.160579
_symmetry_space_group_name_H-M "P N C 2"
_symmetry_group_IT_number 30
_symmetry_cell_setting 'orthorhombic'
loop_
_space_group_symop_operation_xyz
x,y,z
-x,-y,z
-x,1/2+y,1/2+z
x,1/2-y,1/2+z
loop_
_atom_site_type_symbol
_atom_site_label
_atom_site_fract_x
_atom_site_fract_y
_atom_site_fract_z
Si Si1 0.623026 0.277793 0.317560
Si Si2 0.000000 0.000000 0.737869
Si Si3 0.455644 0.292888 0.071955
Si Si4 0.877064 0.366029 0.677545
Si Si5 0.229158 0.410911 0.425182
O O1 0.503205 0.220442 0.216519
O O2 0.562311 0.281765 0.464750
O O3 0.753283 0.154251 0.283635
O O4 0.677419 0.485740 0.314133
O O5 0.096052 0.120648 0.836431
O O6 0.925692 0.157899 0.655596
O O7 0.500000 0.500000 0.073436
O O8 0.310687 0.240874 0.008974
O O9 0.819228 0.448617 0.539754
O O10 0.000000 0.500000 0.717498
#
# Coordination Sequence:
#
# PCOD9342542 Si02
#       5
#     4   2   4   4   4
#     4  11  26  48  69 111 150 203 259 326 389 473
#     4  10  26  50  74 116 158 208 270 326 388 478
#     4  12  27  43  78 112 153 203 260 326 404 462
#     4  11  25  47  78 107 154 211 255 326 391 470
#     4  11  24  50  75 110 163 200 266 328 391 478
#
# _framework density 24.959768
#
# number of rings (size 3 to 8) (size 9 to 14) (size 15 to 20)
#    0.000    0.889    3.333    2.000    6.222    3.556 
#    8.000    0.000    0.000    0.000    0.000    0.000 
#    0.000    0.000    0.000    0.000    0.000    0.000 
#
# Total GULP energy -100476.432355 kJ/mol
# GULP energy per Si atom -5582.024020 kJ/mol
# Density = 2.490296 g / cm^3
# Si number density = 24.959768 Si / 1000 Ang^3
#
#
#
# Elastic Constant Matrix: (Units=GPa)
#
#
# Indices 1 2 3 4 5 6 
#
# 1 97.5699 45.8435 19.8108 0.0000 0.0000 0.0000
# 2 45.8435 117.5524 11.5361 0.0000 0.0000 0.0000
# 3 19.8108 11.5361 60.4647 0.0000 0.0000 0.0000
# 4 0.0000 0.0000 0.0000 25.1211 0.0000 0.0000
# 5 0.0000 0.0000 0.0000 0.0000 -53.1626 0.0000
# 6 0.0000 0.0000 0.0000 0.0000 0.0000 55.4714
#
#
#
# Elastic Compliance Matrix: (Units=1/GPa)
#
#
# Indices 1 2 3 4 5 6 
#
# 1 0.013203 -0.004815 -0.003407 0.000000 0.000000 0.000000
# 2 -0.004815 0.010425 -0.000412 0.000000 0.000000 0.000000
# 3 -0.003407 -0.000412 0.017733 0.000000 0.000000 0.000000
# 4 0.000000 0.000000 0.000000 0.039807 0.000000 0.000000
# 5 0.000000 0.000000 0.000000 0.000000 -0.018810 0.000000
# 6 0.000000 0.000000 0.000000 0.000000 0.000000 0.018027
#
#
# Mechanical properties :
#
#
# Convention : Reuss Voigt Hill
#
# Bulk Modulus (GPa) = 41.50312 47.77420 44.63866
# Shear Modulus (GPa) = 47.31093 18.71243 33.01168
#
# Velocity S-wave (km/s) = 4.35844 2.74104 3.64070
# Velocity P-wave (km/s) = 6.48013 5.40368 5.96624
#
# Compressibility (1/GPa) = 0.02409457
#
# Stress axis : x y z
#
# Youngs Moduli (GPa) = 75.74017 95.92480 56.39053
#
# Poissons Ratio (x) = 0.46184 0.19214
# Poissons Ratio (y) = 0.36466 0.02320
# Poissons Ratio (z) = 0.25807 0.03947
#
# Static dielectric constant tensor:
#      x y z
#    x 2.137210 0.000000 0.000000 
#    y 0.000000 3.700710 0.000000 
#    z 0.000000 0.000000 2.002860 
# 
# From -- ./inp_files/2247.got.cif
#   From: 2010.05.17/outbox.cif.g08.bks.cpg/sg30_2_cif.got.tgz:2247.got - 2010.06.03 17:03:02.
