data_PCOD9342522
_publ_section_title
;
Structure prediction by ZEFSAII (Michael W. Deem and Ramdas Pophale) SiO2 
 PCOD9342522
Probable space group: P N C 2
;
_chemical_formula_sum "Si O2"
_cell_formula_units_Z 26
_cell_length_a 23.289017
_cell_length_b 5.362195
_cell_length_c 9.210736
_cell_angle_alpha 90.000000
_cell_angle_beta 90.000000
_cell_angle_gamma 90.000000
_cell_volume 1150.239019
_symmetry_space_group_name_H-M "P N C 2"
_symmetry_group_IT_number 30
_symmetry_cell_setting 'orthorhombic'
loop_
_space_group_symop_operation_xyz
x,y,z
-x,-y,z
-x,1/2+y,1/2+z
x,1/2-y,1/2+z
loop_
_atom_site_type_symbol
_atom_site_label
_atom_site_fract_x
_atom_site_fract_y
_atom_site_fract_z
Si Si1 0.254349 0.458244 0.380440
Si Si2 0.568866 0.008782 0.602201
Si Si3 0.000000 0.500000 0.682561
Si Si4 0.034726 0.270276 0.938043
Si Si5 0.803607 0.274490 0.135422
Si Si6 0.388641 0.488000 0.436381
Si Si7 0.156945 0.435841 0.877996
O O1 0.247590 0.605562 0.229122
O O2 0.221934 0.594106 0.513214
O O3 0.320303 0.446197 0.421982
O O4 0.216376 0.212134 0.354933
O O5 0.594008 0.257839 0.522770
O O6 0.500000 0.000000 0.594275
O O7 0.589175 0.756551 0.521212
O O8 0.587171 0.005050 0.771800
O O9 0.006934 0.725744 0.796179
O O10 0.953683 0.564736 0.560004
O O11 0.096324 0.305086 0.866345
O O12 0.000000 0.500000 0.014958
O O13 0.841926 0.148118 0.257421
O O14 0.839392 0.471302 0.043170
#
# Coordination Sequence:
#
# PCOD9342522 Si02
#       7
#     4   4   2   4   4   4   4
#     4  11  25  43  68 102 142 185 240 288 369 432
#     4  12  26  49  75 111 148 201 256 314 378 447
#     4  10  26  44  68  98 134 174 236 284 354 430
#     4  10  27  43  70  96 139 180 237 287 365 425
#     4  10  25  42  68  97 142 178 234 288 363 423
#     4  12  28  45  80 106 157 196 255 314 379 448
#     4  11  25  43  70 100 142 182 236 296 360 440
#
# _framework density 22.603998000000001
#
# number of rings (size 3 to 8) (size 9 to 14) (size 15 to 20)
#    0.462    0.615    0.000    4.154   16.154    1.231 
#    0.000    0.000    0.000    0.000    0.000    0.000 
#    0.000    0.000    0.000    0.000    0.000    0.000 
#
# Total GULP energy -144902.370727 kJ/mol
# GULP energy per Si atom -5573.168105 kJ/mol
# Density = 2.255255 g / cm^3
# Si number density = 22.603998 Si / 1000 Ang^3
#
#
#
# Elastic Constant Matrix: (Units=GPa)
#
#
# Indices 1 2 3 4 5 6 
#
# 1 95.8423 17.6234 11.4551 0.0000 0.0000 0.0000
# 2 17.6234 102.6252 50.2582 0.0000 0.0000 0.0000
# 3 11.4551 50.2582 175.6108 0.0000 0.0000 0.0000
# 4 0.0000 0.0000 0.0000 21.3596 0.0000 0.0000
# 5 0.0000 0.0000 0.0000 0.0000 30.0363 0.0000
# 6 0.0000 0.0000 0.0000 0.0000 0.0000 24.6835
#
#
#
# Elastic Compliance Matrix: (Units=1/GPa)
#
#
# Indices 1 2 3 4 5 6 
#
# 1 0.010780 -0.001752 -0.000202 0.000000 0.000000 0.000000
# 2 -0.001752 0.011617 -0.003210 0.000000 0.000000 0.000000
# 3 -0.000202 -0.003210 0.006626 0.000000 0.000000 0.000000
# 4 0.000000 0.000000 0.000000 0.046817 0.000000 0.000000
# 5 0.000000 0.000000 0.000000 0.000000 0.033293 0.000000
# 6 0.000000 0.000000 0.000000 0.000000 0.000000 0.040513
#
#
# Mechanical properties :
#
#
# Convention : Reuss Voigt Hill
#
# Bulk Modulus (GPa) = 53.49104 59.19461 56.34282
# Shear Modulus (GPa) = 30.08278 34.86532 32.47405
#
# Velocity S-wave (km/s) = 3.65205 3.93165 3.79443
# Velocity P-wave (km/s) = 6.44198 6.84507 6.64658
#
# Compressibility (1/GPa) = 0.01869472
#
# Stress axis : x y z
#
# Youngs Moduli (GPa) = 92.76308 86.07782 150.91210
#
# Poissons Ratio (x) = 0.15085 0.03043
# Poissons Ratio (y) = 0.16257 0.48450
# Poissons Ratio (z) = 0.01871 0.27635
#
# Static dielectric constant tensor:
#      x y z
#    x 2.132440 0.000000 0.000000 
#    y 0.000000 2.132160 0.000000 
#    z 0.000000 0.000000 1.799050 
# 
# From -- ./inp_files/2810.got.cif
#   From: 2010.05.17/outbox.cif.g08.bks.cpg/sg30_2_cif.got.tgz:2810.got - 2010.06.03 17:03:02.
