data_PCOD9342427
_publ_section_title
;
Structure prediction by ZEFSAII (Michael W. Deem and Ramdas Pophale) SiO2 
 PCOD9342427
Probable space group: P N C 2
;
_chemical_formula_sum "Si O2"
_cell_formula_units_Z 32
_cell_length_a 9.724839
_cell_length_b 12.216249
_cell_length_c 13.774267
_cell_angle_alpha 90.000000
_cell_angle_beta 90.000000
_cell_angle_gamma 90.000000
_cell_volume 1636.397447
_symmetry_space_group_name_H-M "P N C 2"
_symmetry_group_IT_number 30
_symmetry_cell_setting 'orthorhombic'
loop_
_space_group_symop_operation_xyz
x,y,z
-x,-y,z
-x,1/2+y,1/2+z
x,1/2-y,1/2+z
loop_
_atom_site_type_symbol
_atom_site_label
_atom_site_fract_x
_atom_site_fract_y
_atom_site_fract_z
Si Si1 0.709741 0.277307 0.187480
Si Si2 0.995005 0.881573 0.641413
Si Si3 0.803749 0.427402 0.572477
Si Si4 0.539075 0.619313 0.060293
Si Si5 0.267838 0.100661 0.742144
Si Si6 0.361952 0.896796 0.873905
Si Si7 0.888862 0.656619 0.552328
Si Si8 0.354092 0.293358 0.410988
O O1 0.741063 0.153799 0.152888
O O2 0.587191 0.325177 0.119773
O O3 0.672997 0.295346 0.300886
O O4 0.851476 0.342990 0.165622
O O5 0.895437 0.905739 0.732565
O O6 0.915818 0.778304 0.593560
O O7 0.000000 0.000000 0.588002
O O8 0.722254 0.412592 0.472046
O O9 0.814874 0.553932 0.606795
O O10 0.956213 0.386615 0.543250
O O11 0.500000 0.500000 0.023954
O O12 0.659005 0.600914 0.138905
O O13 0.592110 0.692320 0.972408
O O14 0.314588 0.210284 0.798095
O O15 0.326106 0.996990 0.801461
O O16 0.516629 0.876205 0.910942
O O17 0.787582 0.668224 0.461009
#
# Coordination Sequence:
#
# PCOD9342427 Si02
#       8
#     4   4   4   4   4   4   4   4
#     4  11  23  38  63  95 126 175 218 273 330 385
#     4  11  22  40  67  98 128 168 219 277 332 392
#     4  10  23  41  61  93 137 165 219 276 327 398
#     4  12  22  42  62  91 136 169 215 279 332 392
#     4  12  23  39  66  99 126 165 227 275 318 391
#     4  12  22  37  65  98 123 172 225 269 324 388
#     4  10  23  40  63  96 129 171 210 271 344 391
#     4  12  24  37  64  96 129 168 216 272 329 390
#
# _framework density 19.555152
#
# number of rings (size 3 to 8) (size 9 to 14) (size 15 to 20)
#    0.000    0.750    7.500    0.375    1.750    0.000 
#    0.000    1.250    0.000    0.000    0.000    0.000 
#    0.000    0.000    0.000    0.000    0.000    0.000 
#
# Total GULP energy -178194.349368 kJ/mol
# GULP energy per Si atom -5568.573418 kJ/mol
# Density = 1.951064 g / cm^3
# Si number density = 19.555152 Si / 1000 Ang^3
#
#
#
# Elastic Constant Matrix: (Units=GPa)
#
#
# Indices 1 2 3 4 5 6 
#
# 1 73.4901 19.3402 12.2259 0.0000 0.0000 0.0000
# 2 19.3402 120.3917 42.9385 0.0000 0.0000 0.0000
# 3 12.2259 42.9385 62.6405 0.0000 0.0000 0.0000
# 4 0.0000 0.0000 0.0000 37.8815 0.0000 0.0000
# 5 0.0000 0.0000 0.0000 0.0000 29.6848 0.0000
# 6 0.0000 0.0000 0.0000 0.0000 0.0000 20.8179
#
#
#
# Elastic Compliance Matrix: (Units=1/GPa)
#
#
# Indices 1 2 3 4 5 6 
#
# 1 0.014330 -0.001727 -0.001613 0.000000 0.000000 0.000000
# 2 -0.001727 0.011202 -0.007342 0.000000 0.000000 0.000000
# 3 -0.001613 -0.007342 0.021312 0.000000 0.000000 0.000000
# 4 0.000000 0.000000 0.000000 0.026398 0.000000 0.000000
# 5 0.000000 0.000000 0.000000 0.000000 0.033687 0.000000
# 6 0.000000 0.000000 0.000000 0.000000 0.000000 0.048036
#
#
# Mechanical properties :
#
#
# Convention : Reuss Voigt Hill
#
# Bulk Modulus (GPa) = 39.24598 45.05906 42.15252
# Shear Modulus (GPa) = 27.05311 29.81133 28.43222
#
# Velocity S-wave (km/s) = 3.72348 3.90869 3.81721
# Velocity P-wave (km/s) = 6.21278 6.59261 6.40551
#
# Compressibility (1/GPa) = 0.02548032
#
# Stress axis : x y z
#
# Youngs Moduli (GPa) = 69.78331 89.26904 46.92280
#
# Poissons Ratio (x) = 0.15414 0.07570
# Poissons Ratio (y) = 0.12049 0.34450
# Poissons Ratio (z) = 0.11258 0.65539
#
# Static dielectric constant tensor:
#      x y z
#    x 1.726950 0.000000 0.000000 
#    y 0.000000 1.793200 0.000000 
#    z 0.000000 0.000000 1.672940 
# 
# From -- ./inp_files/5210.got.cif
#   From: 2010.05.17/outbox.cif.g08.bks.cpg/sg30_3_cif.got.tgz:5210.got - 2010.06.03 17:03:02.
