data_PCOD9342143
_publ_section_title
;
Structure prediction by ZEFSAII (Michael W. Deem and Ramdas Pophale) SiO2 
 PCOD9342143
Probable space group: P N C 2
;
_chemical_formula_sum "Si O2"
_cell_formula_units_Z 30
_cell_length_a 20.104623
_cell_length_b 5.475750
_cell_length_c 11.793411
_cell_angle_alpha 90.000000
_cell_angle_beta 90.000000
_cell_angle_gamma 90.000000
_cell_volume 1298.311726
_symmetry_space_group_name_H-M "P N C 2"
_symmetry_group_IT_number 30
_symmetry_cell_setting 'orthorhombic'
loop_
_space_group_symop_operation_xyz
x,y,z
-x,-y,z
-x,1/2+y,1/2+z
x,1/2-y,1/2+z
loop_
_atom_site_type_symbol
_atom_site_label
_atom_site_fract_x
_atom_site_fract_y
_atom_site_fract_z
Si Si1 0.500000 0.000000 0.403410
Si Si2 0.673858 0.890062 0.655381
Si Si3 0.790353 0.931646 0.839164
Si Si4 0.071441 0.360985 0.257382
Si Si5 0.386234 0.721347 0.322303
Si Si6 0.041132 0.251826 0.009472
Si Si7 0.426220 0.396676 0.534104
Si Si8 0.740024 0.067067 0.425723
O O1 0.540740 0.173763 0.323790
O O2 0.445977 0.136053 0.479586
O O3 0.731521 0.892055 0.748841
O O4 0.630110 0.652044 0.627007
O O5 0.621919 0.076987 0.707690
O O6 0.707835 0.996110 0.544224
O O7 0.858904 0.000138 0.775644
O O8 0.787517 0.663524 0.897450
O O9 0.774351 0.165422 0.918653
O O10 0.078581 0.236708 0.132551
O O11 0.069465 0.225813 0.380577
O O12 0.000000 0.500000 0.254780
O O13 0.390404 0.547544 0.433796
O O14 0.323475 0.898281 0.342207
O O15 0.000000 0.500000 0.020503
O O16 0.000000 0.000000 0.007072
O O17 0.500000 0.500000 0.561739
#
# Coordination Sequence:
#
# PCOD9342143 Si02
#       8
#     2   4   4   4   4   4   4   4
#     4  10  20  44  62  96 136 172 238 318 354 452
#     4  11  23  46  71  99 142 198 238 307 374 459
#     4  11  28  46  73 110 142 201 246 311 371 457
#     4  10  24  49  75 116 155 201 256 319 383 454
#     4  10  23  43  66  98 134 185 235 310 368 444
#     4  10  22  42  73 107 152 198 243 308 380 447
#     4  10  22  45  66  98 139 178 249 312 377 440
#     4  11  25  48  70  99 148 185 250 295 374 445
#
# _framework density 23.106933000000001
#
# number of rings (size 3 to 8) (size 9 to 14) (size 15 to 20)
#    0.000    1.600    1.333    2.000    1.867    8.533 
#    9.600    0.000    0.000    0.000    0.000    0.000 
#    0.000    0.000    0.000    0.000    0.000    0.000 
#
# Total GULP energy -167181.370073 kJ/mol
# GULP energy per Si atom -5572.712336 kJ/mol
# Density = 2.305434 g / cm^3
# Si number density = 23.106933 Si / 1000 Ang^3
#
#
#
# Elastic Constant Matrix: (Units=GPa)
#
#
# Indices 1 2 3 4 5 6 
#
# 1 68.5566 23.9189 -1.1227 0.0000 0.0000 0.0000
# 2 23.9189 98.8557 20.5618 0.0000 0.0000 0.0000
# 3 -1.1227 20.5618 109.8746 0.0000 0.0000 0.0000
# 4 0.0000 0.0000 0.0000 4276.5807 0.0000 0.0000
# 5 0.0000 0.0000 0.0000 0.0000 -195.7937 0.0000
# 6 0.0000 0.0000 0.0000 0.0000 0.0000 14.1789
#
#
#
# Elastic Compliance Matrix: (Units=1/GPa)
#
#
# Indices 1 2 3 4 5 6 
#
# 1 0.016021 -0.004069 0.000925 0.000000 0.000000 0.000000
# 2 -0.004069 0.011559 -0.002205 0.000000 0.000000 0.000000
# 3 0.000925 -0.002205 0.009523 0.000000 0.000000 0.000000
# 4 0.000000 0.000000 0.000000 0.000234 0.000000 0.000000
# 5 0.000000 0.000000 0.000000 0.000000 -0.005107 0.000000
# 6 0.000000 0.000000 0.000000 0.000000 0.000000 0.070527
#
#
# Mechanical properties :
#
#
# Convention : Reuss Voigt Hill
#
# Bulk Modulus (GPa) = 37.86940 40.44476 39.15708
# Shear Modulus (GPa) = 40.89773 834.58843 437.74308
#
# Velocity S-wave (km/s) = 4.21162 19.02549 13.77874
# Velocity P-wave (km/s) = 6.33046 22.36442 16.43536
#
# Compressibility (1/GPa) = 0.02640655
#
# Stress axis : x y z
#
# Youngs Moduli (GPa) = 62.41713 86.51396 105.00539
#
# Poissons Ratio (x) = 0.35202 -0.09715
# Poissons Ratio (y) = 0.25397 0.23150
# Poissons Ratio (z) = -0.05775 0.19074
#
# Static dielectric constant tensor:
#      x y z
#    x 1.893890 0.000000 0.000000 
#    y 0.000000 0.085820 0.000000 
#    z 0.000000 0.000000 1.892200 
# 
# From -- ./inp_files/4485.got.cif
#   From: 2010.05.17/outbox.cif.g08.bks.cpg/sg30_3_cif.got.tgz:4485.got - 2010.06.03 17:03:02.
