data_PCOD9342529
_publ_section_title
;
Structure prediction by ZEFSAII (Michael W. Deem and Ramdas Pophale) SiO2 
 PCOD9342529
Probable space group: P N C 2
;
_chemical_formula_sum "Si O2"
_cell_formula_units_Z 18
_cell_length_a 9.225477
_cell_length_b 7.704365
_cell_length_c 10.906551
_cell_angle_alpha 90.000000
_cell_angle_beta 90.000000
_cell_angle_gamma 90.000000
_cell_volume 775.198841
_symmetry_space_group_name_H-M "P N C 2"
_symmetry_group_IT_number 30
_symmetry_cell_setting 'orthorhombic'
loop_
_space_group_symop_operation_xyz
x,y,z
-x,-y,z
-x,1/2+y,1/2+z
x,1/2-y,1/2+z
loop_
_atom_site_type_symbol
_atom_site_label
_atom_site_fract_x
_atom_site_fract_y
_atom_site_fract_z
Si Si1 0.830813 0.295655 0.844530
Si Si2 0.500000 0.500000 0.575051
Si Si3 0.499412 0.292203 0.886992
Si Si4 0.746200 0.883688 0.221212
Si Si5 0.990000 0.204761 0.593112
O O1 0.663795 0.239186 0.856914
O O2 0.827005 0.506989 0.827569
O O3 0.897623 0.234004 0.716844
O O4 0.916848 0.234217 0.965716
O O5 0.536893 0.670758 0.499958
O O6 0.356412 0.525008 0.654892
O O7 0.500000 0.500000 0.912805
O O8 0.375082 0.263220 0.784958
O O9 0.858219 0.795949 0.129219
O O10 0.000000 0.000000 0.579871
#
# Coordination Sequence:
#
# PCOD9342529 Si02
#       5
#     4   2   4   4   4
#     4  11  25  50  68 110 151 199 246 335 380 462
#     4  12  24  46  82 104 150 212 254 326 392 454
#     4  10  25  46  74 108 154 195 266 318 386 462
#     4  11  25  50  71 112 150 202 261 332 376 474
#     4  12  28  43  76 107 152 199 257 312 405 465
#
# _framework density 23.219850999999998
#
# number of rings (size 3 to 8) (size 9 to 14) (size 15 to 20)
#    0.000    0.889    3.333    3.333   12.444    1.778 
#    2.000    0.000    0.000    0.000    0.000    0.000 
#    0.000    0.000    0.000    0.000    0.000    0.000 
#
# Total GULP energy -100541.426620 kJ/mol
# GULP energy per Si atom -5585.634812 kJ/mol
# Density = 2.316700 g / cm^3
# Si number density = 23.219851 Si / 1000 Ang^3
#
#
#
# Elastic Constant Matrix: (Units=GPa)
#
#
# Indices 1 2 3 4 5 6 
#
# 1 169.2126 17.0200 86.4214 0.0000 0.0000 0.0000
# 2 17.0200 26.8216 29.7856 0.0000 0.0000 0.0000
# 3 86.4214 29.7856 171.3621 0.0000 0.0000 0.0000
# 4 0.0000 0.0000 0.0000 34.8531 0.0000 0.0000
# 5 0.0000 0.0000 0.0000 0.0000 61.1291 0.0000
# 6 0.0000 0.0000 0.0000 0.0000 0.0000 30.5758
#
#
#
# Elastic Compliance Matrix: (Units=1/GPa)
#
#
# Indices 1 2 3 4 5 6 
#
# 1 0.007972 -0.000736 -0.003892 0.000000 0.000000 0.000000
# 2 -0.000736 0.046269 -0.007671 0.000000 0.000000 0.000000
# 3 -0.003892 -0.007671 0.009132 0.000000 0.000000 0.000000
# 4 0.000000 0.000000 0.000000 0.028692 0.000000 0.000000
# 5 0.000000 0.000000 0.000000 0.000000 0.016359 0.000000
# 6 0.000000 0.000000 0.000000 0.000000 0.000000 0.032706
#
#
# Mechanical properties :
#
#
# Convention : Reuss Voigt Hill
#
# Bulk Modulus (GPa) = 25.79056 70.42783 48.10919
# Shear Modulus (GPa) = 27.98719 40.92288 34.45503
#
# Velocity S-wave (km/s) = 3.47553 4.20266 3.85627
# Velocity P-wave (km/s) = 5.21890 7.34483 6.37116
#
# Compressibility (1/GPa) = 0.03877387
#
# Stress axis : x y z
#
# Youngs Moduli (GPa) = 125.44393 21.61255 109.50551
#
# Poissons Ratio (x) = 0.01591 0.42623
# Poissons Ratio (y) = 0.09234 0.84004
# Poissons Ratio (z) = 0.48827 0.16579
#
# Static dielectric constant tensor:
#      x y z
#    x 1.332490 0.000000 0.000000 
#    y 0.000000 1.959970 0.000000 
#    z 0.000000 0.000000 1.937420 
# 
# From -- ./inp_files/3472.got.cif
#   From: 2010.05.17/outbox.cif.g08.bks.cpg/sg30_2_cif.got.tgz:3472.got - 2010.06.03 17:03:02.
