data_PCOD9342292
_publ_section_title
;
Structure prediction by ZEFSAII (Michael W. Deem and Ramdas Pophale) SiO2 
 PCOD9342292
Probable space group: P N C 2
;
_chemical_formula_sum "Si O2"
_cell_formula_units_Z 24
_cell_length_a 12.160652
_cell_length_b 10.815305
_cell_length_c 8.461330
_cell_angle_alpha 90.000000
_cell_angle_beta 90.000000
_cell_angle_gamma 90.000000
_cell_volume 1112.843940
_symmetry_space_group_name_H-M "P N C 2"
_symmetry_group_IT_number 30
_symmetry_cell_setting 'orthorhombic'
loop_
_space_group_symop_operation_xyz
x,y,z
-x,-y,z
-x,1/2+y,1/2+z
x,1/2-y,1/2+z
loop_
_atom_site_type_symbol
_atom_site_label
_atom_site_fract_x
_atom_site_fract_y
_atom_site_fract_z
Si Si1 0.210632 0.463500 0.483520
Si Si2 0.544067 0.172705 0.522129
Si Si3 0.975515 0.857179 0.184847
Si Si4 0.571619 0.886086 0.829940
Si Si5 0.306629 0.848195 0.244656
Si Si6 0.102444 0.696776 0.387512
O O1 0.134251 0.371468 0.583454
O O2 0.303123 0.403947 0.375865
O O3 0.269692 0.548180 0.618959
O O4 0.137909 0.553647 0.369866
O O5 0.456108 0.117235 0.644412
O O6 0.475870 0.267879 0.416586
O O7 0.615193 0.102677 0.387411
O O8 0.629381 0.245019 0.639172
O O9 0.990744 0.755803 0.318213
O O10 0.000000 0.000000 0.236095
O O11 0.072978 0.808789 0.071379
O O12 0.500000 0.000000 0.895467
O O13 0.205262 0.781376 0.336566
#
# Coordination Sequence:
#
# PCOD9342292 Si02
#       6
#     4   4   4   4   4   4
#     4  11  22  39  70  92 139 184 220 279 348 396
#     4  10  22  37  66 100 132 172 227 279 331 406
#     4  10  22  38  63  96 129 168 218 282 326 393
#     4  11  22  43  64  98 139 179 225 280 338 406
#     4  11  17  37  66  94 121 176 221 271 332 403
#     4  11  19  38  67  93 128 168 227 270 332 398
#
# _framework density 21.566368000000001
#
# number of rings (size 3 to 8) (size 9 to 14) (size 15 to 20)
#    0.000    1.333    6.667    1.000    0.000    1.333 
#    6.000    2.500    3.667    0.000    0.000    0.000 
#    0.000    0.000    0.000    0.000    0.000    0.000 
#
# Total GULP energy -133637.861865 kJ/mol
# GULP energy per Si atom -5568.244244 kJ/mol
# Density = 2.151728 g / cm^3
# Si number density = 21.566368 Si / 1000 Ang^3
#
#
#
# Elastic Constant Matrix: (Units=GPa)
#
#
# Indices 1 2 3 4 5 6 
#
# 1 96.4946 35.5853 52.8974 0.0000 0.0000 0.0000
# 2 35.5853 50.4485 45.7199 0.0000 0.0000 0.0000
# 3 52.8974 45.7199 96.7208 0.0000 0.0000 0.0000
# 4 0.0000 0.0000 0.0000 12.7460 0.0000 0.0000
# 5 0.0000 0.0000 0.0000 0.0000 42.3350 0.0000
# 6 0.0000 0.0000 0.0000 0.0000 0.0000 33.3759
#
#
#
# Elastic Compliance Matrix: (Units=1/GPa)
#
#
# Indices 1 2 3 4 5 6 
#
# 1 0.015703 -0.005762 -0.005865 0.000000 0.000000 0.000000
# 2 -0.005762 0.036792 -0.014240 0.000000 0.000000 0.000000
# 3 -0.005865 -0.014240 0.020278 0.000000 0.000000 0.000000
# 4 0.000000 0.000000 0.000000 0.078456 0.000000 0.000000
# 5 0.000000 0.000000 0.000000 0.000000 0.023621 0.000000
# 6 0.000000 0.000000 0.000000 0.000000 0.000000 0.029962
#
#
# Mechanical properties :
#
#
# Convention : Reuss Voigt Hill
#
# Bulk Modulus (GPa) = 47.52966 56.89656 52.21311
# Shear Modulus (GPa) = 18.97111 24.98878 21.97994
#
# Velocity S-wave (km/s) = 2.96913 3.40765 3.19592
# Velocity P-wave (km/s) = 5.81729 6.47473 6.15480
#
# Compressibility (1/GPa) = 0.02103949
#
# Stress axis : x y z
#
# Youngs Moduli (GPa) = 63.68223 27.17975 49.31483
#
# Poissons Ratio (x) = 0.15660 0.28921
# Poissons Ratio (y) = 0.36692 0.70227
# Poissons Ratio (z) = 0.37347 0.38705
#
# Static dielectric constant tensor:
#      x y z
#    x 1.830830 0.000000 0.000000 
#    y 0.000000 2.032090 0.000000 
#    z 0.000000 0.000000 1.853670 
# 
# From -- ./inp_files/2349.got.cif
#   From: 2010.05.17/outbox.cif.g08.bks.cpg/sg30_2_cif.got.tgz:2349.got - 2010.06.03 17:03:02.
