data_PCOD9342938
_publ_section_title
;
Structure prediction by ZEFSAII (Michael W. Deem and Ramdas Pophale) SiO2 
 PCOD9342938
Probable space group: P M N 21
;
_chemical_formula_sum "Si O2"
_cell_formula_units_Z 32
_cell_length_a 8.742740
_cell_length_b 14.993361
_cell_length_c 12.530974
_cell_angle_alpha 90.000000
_cell_angle_beta 90.000000
_cell_angle_gamma 90.000000
_cell_volume 1642.598378
_symmetry_space_group_name_H-M "P M N 21"
_symmetry_group_IT_number 31
_symmetry_cell_setting 'orthorhombic'
loop_
_space_group_symop_operation_xyz
x,y,z
1/2-x,-y,1/2+z
-x,y,z
1/2+x,-y,1/2+z
loop_
_atom_site_type_symbol
_atom_site_label
_atom_site_fract_x
_atom_site_fract_y
_atom_site_fract_z
Si Si1 0.817657 0.814076 0.295860
Si Si2 0.182931 0.953855 0.469461
Si Si3 0.684737 0.854671 0.901551
Si Si4 0.818140 0.728750 0.071773
Si Si5 0.321463 0.362465 0.116315
Si Si6 0.817218 0.168773 0.157490
Si Si7 0.679619 0.554325 0.175184
Si Si8 0.824944 0.354211 0.901483
O O1 0.790257 0.908011 0.353394
O O2 0.780165 0.794552 0.172372
O O3 0.718124 0.744556 0.363172
O O4 0.000000 0.794320 0.307903
O O5 0.252226 0.894928 0.564608
O O6 0.000000 0.953997 0.485230
O O7 0.238053 0.055413 0.461530
O O8 0.500000 0.853620 0.903409
O O9 0.732034 0.857383 0.777586
O O10 0.744763 0.769427 0.965834
O O11 0.760898 0.630259 0.104711
O O12 0.000000 0.726792 0.060429
O O13 0.500000 0.350571 0.141821
O O14 0.236034 0.270606 0.140644
O O15 0.261544 0.453398 0.168870
O O16 0.294276 0.379946 0.991407
O O17 0.000000 0.164193 0.152182
O O18 0.500000 0.552923 0.144489
O O19 0.689133 0.586194 0.296800
O O20 0.000000 0.358051 0.940913
#
# Coordination Sequence:
#
# PCOD9342938 Si02
#       8
#     4   4   4   4   4   4   4   4
#     4   9  18  34  58  84 112 149 192 245 299 347
#     4  10  21  39  62  86 117 157 198 244 300 356
#     4  10  24  42  60  86 125 167 200 244 303 360
#     4  10  21  37  61  90 120 156 200 250 299 355
#     4  11  22  38  60  86 120 159 197 245 304 360
#     4  11  24  41  62  90 122 156 201 252 300 356
#     4   9  21  39  59  84 118 160 203 248 300 359
#     4  10  19  34  56  84 114 148 195 248 297 349
#
# _framework density 19.48133
#
# number of rings (size 3 to 8) (size 9 to 14) (size 15 to 20)
#    0.000    2.000    1.250    1.500    1.750    4.500 
#    0.000    2.500    0.000    0.000    0.000    0.000 
#    0.000    0.000    0.000    0.000    0.000    0.000 
#
# Total GULP energy -178536.370412 kJ/mol
# GULP energy per Si atom -5579.261575 kJ/mol
# Density = 1.943699 g / cm^3
# Si number density = 19.481330 Si / 1000 Ang^3
#
#
#
# Elastic Constant Matrix: (Units=GPa)
#
#
# Indices 1 2 3 4 5 6 
#
# 1 19.8304 20.7737 18.8535 0.0000 0.0000 0.0000
# 2 20.7737 108.6450 38.9678 0.0000 0.0000 0.0000
# 3 18.8535 38.9678 66.8360 0.0000 0.0000 0.0000
# 4 0.0000 0.0000 0.0000 17.7855 0.0000 0.0000
# 5 0.0000 0.0000 0.0000 0.0000 26.2285 0.0000
# 6 0.0000 0.0000 0.0000 0.0000 0.0000 13.4240
#
#
#
# Elastic Compliance Matrix: (Units=1/GPa)
#
#
# Indices 1 2 3 4 5 6 
#
# 1 0.074635 -0.008496 -0.016100 0.000000 0.000000 0.000000
# 2 -0.008496 0.012605 -0.004953 0.000000 0.000000 0.000000
# 3 -0.016100 -0.004953 0.022391 0.000000 0.000000 0.000000
# 4 0.000000 0.000000 0.000000 0.056225 0.000000 0.000000
# 5 0.000000 0.000000 0.000000 0.000000 0.038126 0.000000
# 6 0.000000 0.000000 0.000000 0.000000 0.000000 0.074493
#
#
# Mechanical properties :
#
#
# Convention : Reuss Voigt Hill
#
# Bulk Modulus (GPa) = 19.78878 39.16683 29.47781
# Shear Modulus (GPa) = 14.10765 19.26870 16.68817
#
# Velocity S-wave (km/s) = 2.69395 3.14839 2.92999
# Velocity P-wave (km/s) = 4.45604 5.77623 5.15855
#
# Compressibility (1/GPa) = 0.05053369
#
# Stress axis : x y z
#
# Youngs Moduli (GPa) = 13.39862 79.33244 44.66065
#
# Poissons Ratio (x) = 0.67402 0.71903
# Poissons Ratio (y) = 0.11384 0.22119
# Poissons Ratio (z) = 0.21571 0.39290
#
# Static dielectric constant tensor:
#      x y z
#    x 1.658180 0.000000 0.000000 
#    y 0.000000 1.687170 0.000000 
#    z 0.000000 0.000000 1.696180 
# 
# From -- ./inp_files/3700.got.cif
#   From: 2010.05.17/outbox.cif.g08.bks.cpg/sg31_2_cif.got.tgz:3700.got - 2010.06.03 17:08:30.
