data_PCOD9342928
_publ_section_title
;
Structure prediction by ZEFSAII (Michael W. Deem and Ramdas Pophale) SiO2 
 PCOD9342928
Probable space group: P M N 21
;
_chemical_formula_sum "Si O2"
_cell_formula_units_Z 32
_cell_length_a 8.797605
_cell_length_b 20.521692
_cell_length_c 10.293068
_cell_angle_alpha 90.000000
_cell_angle_beta 90.000000
_cell_angle_gamma 90.000000
_cell_volume 1858.328408
_symmetry_space_group_name_H-M "P M N 21"
_symmetry_group_IT_number 31
_symmetry_cell_setting 'orthorhombic'
loop_
_space_group_symop_operation_xyz
x,y,z
1/2-x,-y,1/2+z
-x,y,z
1/2+x,-y,1/2+z
loop_
_atom_site_type_symbol
_atom_site_label
_atom_site_fract_x
_atom_site_fract_y
_atom_site_fract_z
Si Si1 0.681805 0.300554 0.897130
Si Si2 0.818398 0.553154 0.110107
Si Si3 0.682064 0.451534 0.909793
Si Si4 0.315192 0.800441 0.902247
Si Si5 0.182770 0.304833 0.614181
Si Si6 0.683450 0.949051 0.903646
Si Si7 0.816438 0.201599 0.104438
Si Si8 0.682895 0.949083 0.605316
O O1 0.500000 0.296759 0.885497
O O2 0.720340 0.375529 0.932902
O O3 0.754909 0.287276 0.756610
O O4 0.741904 0.250803 0.004068
O O5 0.778077 0.534691 0.259060
O O6 0.742832 0.623006 0.082155
O O7 0.000000 0.560753 0.105626
O O8 0.763902 0.499297 0.008947
O O9 0.500000 0.459041 0.923730
O O10 0.500000 0.800693 0.902924
O O11 0.267701 0.874587 0.933108
O O12 0.270565 0.784814 0.753945
O O13 0.265163 0.747551 0.007071
O O14 0.000000 0.305526 0.617109
O O15 0.500000 0.950560 0.908430
O O16 0.728920 0.963304 0.754438
O O17 0.748033 0.000643 0.004235
O O18 0.775769 0.126165 0.076669
O O19 0.000000 0.206882 0.096608
O O20 0.500000 0.952856 0.600060
#
# Coordination Sequence:
#
# PCOD9342928 Si02
#       8
#     4   4   4   4   4   4   4   4
#     4  10  21  36  52  76 108 135 168 213 254 298
#     4  10  21  36  54  78 106 134 169 213 255 298
#     4   9  20  37  53  73 103 136 168 204 249 303
#     4   8  17  34  54  75  99 131 172 212 249 301
#     4  10  19  34  56  78 102 135 172 208 253 306
#     4   9  18  34  53  73 101 134 168 209 255 301
#     4   9  18  35  55  73  99 135 172 209 253 305
#     4   9  19  34  51  74 102 132 169 210 252 304
#
# _framework density 17.219777000000001
#
# number of rings (size 3 to 8) (size 9 to 14) (size 15 to 20)
#    0.000    2.750    0.000    3.375    0.000    6.000 
#    0.000   11.875    0.000    0.000    0.000    0.000 
#    0.000    0.000    0.000    0.000    0.000    0.000 
#
# Total GULP energy -178463.511827 kJ/mol
# GULP energy per Si atom -5576.984745 kJ/mol
# Density = 1.718058 g / cm^3
# Si number density = 17.219777 Si / 1000 Ang^3
#
#
#
# Elastic Constant Matrix: (Units=GPa)
#
#
# Indices 1 2 3 4 5 6 
#
# 1 35.8244 52.0865 51.8777 0.0000 0.0000 0.0000
# 2 52.0865 146.5516 139.5304 0.0000 0.0000 0.0000
# 3 51.8777 139.5304 155.0620 0.0000 0.0000 0.0000
# 4 0.0000 0.0000 0.0000 42.9161 0.0000 0.0000
# 5 0.0000 0.0000 0.0000 0.0000 28.0527 0.0000
# 6 0.0000 0.0000 0.0000 0.0000 0.0000 31.3160
#
#
#
# Elastic Compliance Matrix: (Units=1/GPa)
#
#
# Indices 1 2 3 4 5 6 
#
# 1 0.058559 -0.015074 -0.006027 0.000000 0.000000 0.000000
# 2 -0.015074 0.051506 -0.041304 0.000000 0.000000 0.000000
# 3 -0.006027 -0.041304 0.045632 0.000000 0.000000 0.000000
# 4 0.000000 0.000000 0.000000 0.023301 0.000000 0.000000
# 5 0.000000 0.000000 0.000000 0.000000 0.035647 0.000000
# 6 0.000000 0.000000 0.000000 0.000000 0.000000 0.031933
#
#
# Mechanical properties :
#
#
# Convention : Reuss Voigt Hill
#
# Bulk Modulus (GPa) = 32.37629 91.60303 61.98966
# Shear Modulus (GPa) = 13.09983 26.71984 19.90984
#
# Velocity S-wave (km/s) = 2.76115 3.94343 3.40401
# Velocity P-wave (km/s) = 5.38590 8.60500 7.17823
#
# Compressibility (1/GPa) = 0.03088680
#
# Stress axis : x y z
#
# Youngs Moduli (GPa) = 17.07675 19.41519 21.91444
#
# Poissons Ratio (x) = 0.29267 0.13208
# Poissons Ratio (y) = 0.25742 0.90515
# Poissons Ratio (z) = 0.10292 0.80192
#
# Static dielectric constant tensor:
#      x y z
#    x 1.586040 0.000000 0.000000 
#    y 0.000000 1.564700 0.000000 
#    z 0.000000 0.000000 1.565860 
# 
# From -- ./inp_files/1869.got.cif
#   From: 2010.05.17/outbox.cif.g08.bks.cpg/sg31_1_cif.got.tgz:1869.got - 2010.06.03 17:08:30.
