data_PCOD9342534
_publ_section_title
;
Structure prediction by ZEFSAII (Michael W. Deem and Ramdas Pophale) SiO2 
 PCOD9342534
Probable space group: P N C 2
;
_chemical_formula_sum "Si O2"
_cell_formula_units_Z 20
_cell_length_a 15.044298
_cell_length_b 5.093358
_cell_length_c 10.841822
_cell_angle_alpha 90.000000
_cell_angle_beta 90.000000
_cell_angle_gamma 90.000000
_cell_volume 830.765405
_symmetry_space_group_name_H-M "P N C 2"
_symmetry_group_IT_number 30
_symmetry_cell_setting 'orthorhombic'
loop_
_space_group_symop_operation_xyz
x,y,z
-x,-y,z
-x,1/2+y,1/2+z
x,1/2-y,1/2+z
loop_
_atom_site_type_symbol
_atom_site_label
_atom_site_fract_x
_atom_site_fract_y
_atom_site_fract_z
Si Si1 0.788049 0.943345 0.527940
Si Si2 0.059114 0.761030 0.946260
Si Si3 0.641397 0.221786 0.925694
Si Si4 0.500000 0.000000 0.746750
Si Si5 0.500000 0.500000 0.611373
Si Si6 0.810574 0.936663 0.805516
O O1 0.854871 0.192496 0.529276
O O2 0.689625 0.024802 0.483024
O O3 0.794220 0.835692 0.666853
O O4 0.823897 0.776790 0.412821
O O5 0.000000 0.500000 0.933851
O O6 0.104569 0.871107 0.820478
O O7 0.000000 0.000000 0.996879
O O8 0.564328 0.190584 0.825035
O O9 0.722341 0.081872 0.854513
O O10 0.586735 0.100733 0.038331
O O11 0.458179 0.233681 0.669318
#
# Coordination Sequence:
#
# PCOD9342534 Si02
#       6
#     4   4   4   2   2   4
#     4  11  26  48  75 115 151 206 249 315 382 459
#     4  11  24  51  74 114 148 195 252 319 380 454
#     4  10  26  45  71 108 152 198 258 309 383 448
#     4  11  26  45  76 106 152 199 257 318 378 449
#     4  11  26  45  74 108 148 201 255 318 380 445
#     4  11  26  46  79 109 157 199 254 311 384 461
#
# _framework density 24.074183999999999
#
# number of rings (size 3 to 8) (size 9 to 14) (size 15 to 20)
#    0.000    1.200    2.000    1.200    8.400    9.600 
#    0.000    0.000    0.000    0.000    0.000    0.000 
#    0.000    0.000    0.000    0.000    0.000    0.000 
#
# Total GULP energy -111347.262616 kJ/mol
# GULP energy per Si atom -5567.363131 kJ/mol
# Density = 2.401939 g / cm^3
# Si number density = 24.074184 Si / 1000 Ang^3
#
#
#
# Elastic Constant Matrix: (Units=GPa)
#
#
# Indices 1 2 3 4 5 6 
#
# 1 100.5290 26.0810 10.3200 0.0000 0.0000 0.0000
# 2 26.0810 105.6150 43.5339 0.0000 0.0000 0.0000
# 3 10.3200 43.5339 130.9245 0.0000 0.0000 0.0000
# 4 0.0000 0.0000 0.0000 22.9964 0.0000 0.0000
# 5 0.0000 0.0000 0.0000 0.0000 30.7186 0.0000
# 6 0.0000 0.0000 0.0000 0.0000 0.0000 46.7788
#
#
#
# Elastic Compliance Matrix: (Units=1/GPa)
#
#
# Indices 1 2 3 4 5 6 
#
# 1 0.010628 -0.002641 0.000040 0.000000 0.000000 0.000000
# 2 -0.002641 0.011629 -0.003658 0.000000 0.000000 0.000000
# 3 0.000040 -0.003658 0.008851 0.000000 0.000000 0.000000
# 4 0.000000 0.000000 0.000000 0.043485 0.000000 0.000000
# 5 0.000000 0.000000 0.000000 0.000000 0.032554 0.000000
# 6 0.000000 0.000000 0.000000 0.000000 0.000000 0.021377
#
#
# Mechanical properties :
#
#
# Convention : Reuss Voigt Hill
#
# Bulk Modulus (GPa) = 53.79295 55.21536 54.50416
# Shear Modulus (GPa) = 33.95832 37.24100 35.59966
#
# Velocity S-wave (km/s) = 3.75983 3.93737 3.84962
# Velocity P-wave (km/s) = 6.42196 6.60725 6.51527
#
# Compressibility (1/GPa) = 0.01858980
#
# Stress axis : x y z
#
# Youngs Moduli (GPa) = 94.08681 85.99484 112.97815
#
# Poissons Ratio (x) = 0.22714 -0.00457
# Poissons Ratio (y) = 0.24851 0.41332
# Poissons Ratio (z) = -0.00381 0.31461
#
# Static dielectric constant tensor:
#      x y z
#    x 1.625550 0.000000 0.000000 
#    y 0.000000 1.993540 0.000000 
#    z 0.000000 0.000000 2.045560 
# 
# From -- ./inp_files/4219.got.cif
#   From: 2010.05.17/outbox.cif.g08.bks.cpg/sg30_3_cif.got.tgz:4219.got - 2010.06.03 17:03:02.
