data_PCOD9342987
_publ_section_title
;
Structure prediction by ZEFSAII (Michael W. Deem and Ramdas Pophale) SiO2 
 PCOD9342987
Probable space group: P M N 21
;
_chemical_formula_sum "Si O2"
_cell_formula_units_Z 32
_cell_length_a 14.236626
_cell_length_b 12.107732
_cell_length_c 9.246397
_cell_angle_alpha 90.000000
_cell_angle_beta 90.000000
_cell_angle_gamma 90.000000
_cell_volume 1593.831522
_symmetry_space_group_name_H-M "P M N 21"
_symmetry_group_IT_number 31
_symmetry_cell_setting 'orthorhombic'
loop_
_space_group_symop_operation_xyz
x,y,z
1/2-x,-y,1/2+z
-x,y,z
1/2+x,-y,1/2+z
loop_
_atom_site_type_symbol
_atom_site_label
_atom_site_fract_x
_atom_site_fract_y
_atom_site_fract_z
Si Si1 0.223876 0.377959 0.905240
Si Si2 0.598677 0.902321 0.997910
Si Si3 0.741389 0.239292 0.162816
Si Si4 0.767326 0.599470 0.071741
Si Si5 0.602941 0.820498 0.317435
Si Si6 0.107757 0.327183 0.360453
Si Si7 0.387350 0.202661 0.441391
Si Si8 0.291585 0.977627 0.507588
O O1 0.263013 0.406429 0.745546
O O2 0.136275 0.297775 0.871385
O O3 0.287213 0.301031 0.013002
O O4 0.199995 0.489503 0.989391
O O5 0.500000 0.964393 0.991181
O O6 0.600465 0.833422 0.146803
O O7 0.601016 0.804524 0.884159
O O8 0.686787 0.979515 0.990756
O O9 0.817716 0.325146 0.229599
O O10 0.661167 0.214538 0.281761
O O11 0.788671 0.121130 0.124156
O O12 0.664599 0.621927 0.996963
O O13 0.835682 0.700306 0.029902
O O14 0.500000 0.846300 0.377515
O O15 0.674740 0.913353 0.366441
O O16 0.000000 0.368265 0.342553
O O17 0.500000 0.211444 0.434825
O O18 0.356242 0.086443 0.515030
#
# Coordination Sequence:
#
# PCOD9342987 Si02
#       8
#     4   4   4   4   4   4   4   4
#     4  11  23  42  67  89 128 163 215 266 320 378
#     4  10  19  35  60  87 120 160 206 254 304 362
#     4  10  23  40  63  92 129 168 211 261 314 374
#     4  11  22  42  66  95 123 167 207 268 329 376
#     4  10  21  37  62  92 121 166 214 252 301 371
#     4  10  20  39  63  92 125 160 212 260 308 373
#     4  11  23  42  65  92 130 171 211 258 322 386
#     4  11  20  35  61  91 130 165 209 259 309 370
#
# _framework density 20.077404999999999
#
# number of rings (size 3 to 8) (size 9 to 14) (size 15 to 20)
#    0.000    1.500    3.750    2.625    0.000    5.500 
#    0.000    4.375    0.000    0.750    0.000    0.000 
#    0.000    0.000    0.000    0.000    0.000    0.000 
#
# Total GULP energy -178279.122444 kJ/mol
# GULP energy per Si atom -5571.222576 kJ/mol
# Density = 2.003171 g / cm^3
# Si number density = 20.077405 Si / 1000 Ang^3
#
#
#
# Elastic Constant Matrix: (Units=GPa)
#
#
# Indices 1 2 3 4 5 6 
#
# 1 112.1472 27.1239 33.2619 0.0000 0.0000 0.0000
# 2 27.1239 115.9565 46.4036 0.0000 0.0000 0.0000
# 3 33.2619 46.4036 110.1462 0.0000 0.0000 0.0000
# 4 0.0000 0.0000 0.0000 30.0010 0.0000 0.0000
# 5 0.0000 0.0000 0.0000 0.0000 -7.1476 0.0000
# 6 0.0000 0.0000 0.0000 0.0000 0.0000 -1.4214
#
#
#
# Elastic Compliance Matrix: (Units=1/GPa)
#
#
# Indices 1 2 3 4 5 6 
#
# 1 0.009968 -0.001356 -0.002439 0.000000 0.000000 0.000000
# 2 -0.001356 0.010557 -0.004038 0.000000 0.000000 0.000000
# 3 -0.002439 -0.004038 0.011517 0.000000 0.000000 0.000000
# 4 0.000000 0.000000 0.000000 0.033332 0.000000 0.000000
# 5 0.000000 0.000000 0.000000 0.000000 -0.139907 0.000000
# 6 0.000000 0.000000 0.000000 0.000000 0.000000 -0.703512
#
#
# Mechanical properties :
#
#
# Convention : Reuss Voigt Hill
#
# Bulk Modulus (GPa) = 61.06487 61.31429 61.18958
# Shear Modulus (GPa) = -6.60571 19.71710 6.55569
#
# Velocity S-wave (km/s) = -1.81584 3.13717 1.80895
# Velocity P-wave (km/s) = 5.10729 6.61269 5.90814
#
# Compressibility (1/GPa) = 0.01637603
#
# Stress axis : x y z
#
# Youngs Moduli (GPa) = 100.31980 94.72354 86.83081
#
# Poissons Ratio (x) = 0.12841 0.21179
# Poissons Ratio (y) = 0.13600 0.35064
# Poissons Ratio (z) = 0.24469 0.38251
#
# Static dielectric constant tensor:
#      x y z
#    x 1.750740 0.000000 0.000000 
#    y 0.000000 1.705770 0.000000 
#    z 0.000000 0.000000 1.777260 
# 
# From -- ./inp_files/2598.got.cif
#   From: 2010.05.17/outbox.cif.g08.bks.cpg/sg31_2_cif.got.tgz:2598.got - 2010.06.03 17:08:30.
