data_PCOD9342873
_publ_section_title
;
Structure prediction by ZEFSAII (Michael W. Deem and Ramdas Pophale) SiO2 
 PCOD9342873
Probable space group: P M N 21
;
_chemical_formula_sum "Si O2"
_cell_formula_units_Z 28
_cell_length_a 22.300189
_cell_length_b 11.758938
_cell_length_c 5.598782
_cell_angle_alpha 90.000000
_cell_angle_beta 90.000000
_cell_angle_gamma 90.000000
_cell_volume 1468.149231
_symmetry_space_group_name_H-M "P M N 21"
_symmetry_group_IT_number 31
_symmetry_cell_setting 'orthorhombic'
loop_
_space_group_symop_operation_xyz
x,y,z
1/2-x,-y,1/2+z
-x,y,z
1/2+x,-y,1/2+z
loop_
_atom_site_type_symbol
_atom_site_label
_atom_site_fract_x
_atom_site_fract_y
_atom_site_fract_z
Si Si1 0.709593 0.875158 0.397020
Si Si2 0.756506 0.334463 0.151805
Si Si3 0.844578 0.712971 0.983750
Si Si4 0.168966 0.024017 0.400185
Si Si5 0.330243 0.482383 0.867200
Si Si6 0.570079 0.144127 0.787436
Si Si7 0.067228 0.623651 0.599003
O O1 0.721898 0.742030 0.434638
O O2 0.675537 0.913199 0.642339
O O3 0.774870 0.935944 0.398326
O O4 0.678701 0.904778 0.144807
O O5 0.713103 0.259138 0.321597
O O6 0.811302 0.394905 0.280472
O O7 0.714606 0.439986 0.073965
O O8 0.893962 0.647637 0.829781
O O9 0.824200 0.620532 0.177201
O O10 0.881721 0.819685 0.083572
O O11 0.105159 0.958907 0.412512
O O12 0.398205 0.472016 0.952384
O O13 0.500000 0.122420 0.719822
O O14 0.568856 0.257752 0.951007
O O15 0.000000 0.594327 0.655764
#
# Coordination Sequence:
#
# PCOD9342873 Si02
#       7
#     4   4   4   4   4   4   4
#     4  10  23  36  60  81 120 154 201 240 302 357
#     4  11  21  34  55  88 117 158 191 250 302 373
#     4  10  19  32  56  84 118 150 189 245 300 369
#     4  10  22  39  55  87 115 156 194 251 296 358
#     4  10  20  33  54  82 119 147 192 239 306 353
#     4  10  21  36  59  86 117 152 197 249 309 363
#     4   9  19  34  53  82 113 149 192 240 299 367
#
# _framework density 19.071629999999999
#
# number of rings (size 3 to 8) (size 9 to 14) (size 15 to 20)
#    0.000    2.000    1.429    3.000   10.000    0.571 
#    0.000    0.000    0.000    1.714    0.000    0.000 
#    0.000    0.000    0.000    0.000    0.000    0.000 
#
# Total GULP energy -156094.617113 kJ/mol
# GULP energy per Si atom -5574.807754 kJ/mol
# Density = 1.902822 g / cm^3
# Si number density = 19.071630 Si / 1000 Ang^3
#
#
#
# Elastic Constant Matrix: (Units=GPa)
#
#
# Indices 1 2 3 4 5 6 
#
# 1 117.1945 45.6349 38.9683 0.0000 0.0000 0.0000
# 2 45.6349 55.4913 22.9279 0.0000 0.0000 0.0000
# 3 38.9683 22.9279 74.4792 0.0000 0.0000 0.0000
# 4 0.0000 0.0000 0.0000 23.9619 0.0000 0.0000
# 5 0.0000 0.0000 0.0000 0.0000 19.0238 0.0000
# 6 0.0000 0.0000 0.0000 0.0000 0.0000 20.2932
#
#
#
# Elastic Compliance Matrix: (Units=1/GPa)
#
#
# Indices 1 2 3 4 5 6 
#
# 1 0.013616 -0.009457 -0.004213 0.000000 0.000000 0.000000
# 2 -0.009457 0.027215 -0.003430 0.000000 0.000000 0.000000
# 3 -0.004213 -0.003430 0.016687 0.000000 0.000000 0.000000
# 4 0.000000 0.000000 0.000000 0.041733 0.000000 0.000000
# 5 0.000000 0.000000 0.000000 0.000000 0.052566 0.000000
# 6 0.000000 0.000000 0.000000 0.000000 0.000000 0.049278
#
#
# Mechanical properties :
#
#
# Convention : Reuss Voigt Hill
#
# Bulk Modulus (GPa) = 42.88458 51.35855 47.12156
# Shear Modulus (GPa) = 20.57046 21.96470 21.26758
#
# Velocity S-wave (km/s) = 3.28775 3.39734 3.34300
# Velocity P-wave (km/s) = 6.07843 6.50976 6.29779
#
# Compressibility (1/GPa) = 0.02331840
#
# Stress axis : x y z
#
# Youngs Moduli (GPa) = 73.44239 36.74406 59.92806
#
# Poissons Ratio (x) = 0.34749 0.25247
# Poissons Ratio (y) = 0.69454 0.20556
# Poissons Ratio (z) = 0.30940 0.12603
#
# Static dielectric constant tensor:
#      x y z
#    x 1.646780 0.000000 0.000000 
#    y 0.000000 1.678810 0.000000 
#    z 0.000000 0.000000 1.772290 
# 
# From -- ./inp_files/984.got.cif
#   From: 2010.05.17/outbox.cif.g08.bks.cpg/sg31_1_cif.got.tgz:984.got - 2010.06.03 17:08:30.
