data_PCOD9342174
_publ_section_title
;
Structure prediction by ZEFSAII (Michael W. Deem and Ramdas Pophale) SiO2 
 PCOD9342174
Probable space group: P N C 2
;
_chemical_formula_sum "Si O2"
_cell_formula_units_Z 24
_cell_length_a 17.727625
_cell_length_b 5.268980
_cell_length_c 11.509424
_cell_angle_alpha 90.000000
_cell_angle_beta 90.000000
_cell_angle_gamma 90.000000
_cell_volume 1075.055031
_symmetry_space_group_name_H-M "P N C 2"
_symmetry_group_IT_number 30
_symmetry_cell_setting 'orthorhombic'
loop_
_space_group_symop_operation_xyz
x,y,z
-x,-y,z
-x,1/2+y,1/2+z
x,1/2-y,1/2+z
loop_
_atom_site_type_symbol
_atom_site_label
_atom_site_fract_x
_atom_site_fract_y
_atom_site_fract_z
Si Si1 0.579486 0.907226 0.652660
Si Si2 0.284233 0.381660 0.967262
Si Si3 0.773228 0.373263 0.561112
Si Si4 0.084720 0.113214 0.158323
Si Si5 0.051325 0.252309 0.905890
Si Si6 0.635753 0.092519 0.240797
O O1 0.600201 0.126307 0.747319
O O2 0.500000 0.000000 0.600801
O O3 0.647540 0.892479 0.560719
O O4 0.577186 0.624587 0.702763
O O5 0.322907 0.470943 0.849963
O O6 0.244865 0.107243 0.973671
O O7 0.226002 0.604312 0.998808
O O8 0.848331 0.414979 0.635855
O O9 0.701411 0.379529 0.645510
O O10 0.097471 0.244899 0.283753
O O11 0.086484 0.261024 0.035201
O O12 0.000000 0.000000 0.162183
O O13 0.000000 0.500000 0.901155
O O14 0.000000 0.000000 0.901257
#
# Coordination Sequence:
#
# PCOD9342174 Si02
#       6
#     4   4   4   4   4   4
#     4  10  21  37  60  92 122 154 202 249 298 366
#     4  10  22  41  61  87 124 160 205 243 312 368
#     4  10  23  39  61  89 118 166 204 261 304 377
#     4  10  23  43  63  95 126 166 217 270 323 370
#     4  10  22  40  62  88 126 158 204 264 324 378
#     4  10  21  40  60  87 124 162 202 247 306 369
#
# _framework density 22.324439000000002
#
# number of rings (size 3 to 8) (size 9 to 14) (size 15 to 20)
#    0.000    2.000    0.000    2.000    2.333    6.667 
#    6.000    0.000    0.000    0.000    0.000    0.000 
#    0.000    0.000    0.000    0.000    0.000    0.000 
#
# Total GULP energy -133835.353542 kJ/mol
# GULP energy per Si atom -5576.473064 kJ/mol
# Density = 2.227363 g / cm^3
# Si number density = 22.324439 Si / 1000 Ang^3
#
#
#
# Elastic Constant Matrix: (Units=GPa)
#
#
# Indices 1 2 3 4 5 6 
#
# 1 61.8151 35.9443 -17.1148 0.0000 0.0000 0.0000
# 2 35.9443 111.3930 15.9889 0.0000 0.0000 0.0000
# 3 -17.1148 15.9889 111.4346 0.0000 0.0000 0.0000
# 4 0.0000 0.0000 0.0000 14.1132 0.0000 0.0000
# 5 0.0000 0.0000 0.0000 0.0000 -7.8469 0.0000
# 6 0.0000 0.0000 0.0000 0.0000 0.0000 54.7111
#
#
#
# Elastic Compliance Matrix: (Units=1/GPa)
#
#
# Indices 1 2 3 4 5 6 
#
# 1 0.021896 -0.007707 0.004469 0.000000 0.000000 0.000000
# 2 -0.007707 0.011879 -0.002888 0.000000 0.000000 0.000000
# 3 0.004469 -0.002888 0.010075 0.000000 0.000000 0.000000
# 4 0.000000 0.000000 0.000000 0.070855 0.000000 0.000000
# 5 0.000000 0.000000 0.000000 0.000000 -0.127440 0.000000
# 6 0.000000 0.000000 0.000000 0.000000 0.000000 0.018278
#
#
# Mechanical properties :
#
#
# Convention : Reuss Voigt Hill
#
# Bulk Modulus (GPa) = 31.64878 39.36439 35.50658
# Shear Modulus (GPa) = 176.50911 28.85045 102.67978
#
# Velocity S-wave (km/s) = 8.90152 3.59879 6.78927
# Velocity P-wave (km/s) = 10.94792 5.91097 8.79763
#
# Compressibility (1/GPa) = 0.03159680
#
# Stress axis : x y z
#
# Youngs Moduli (GPa) = 45.67079 84.18524 99.25975
#
# Poissons Ratio (x) = 0.64879 -0.44356
# Poissons Ratio (y) = 0.35197 0.28666
# Poissons Ratio (z) = -0.20409 0.24313
#
# Static dielectric constant tensor:
#      x y z
#    x 1.829920 0.000000 0.000000 
#    y 0.000000 1.782900 0.000000 
#    z 0.000000 0.000000 1.857880 
# 
# From -- ./inp_files/4400.got.cif
#   From: 2010.05.17/outbox.cif.g08.bks.cpg/sg30_3_cif.got.tgz:4400.got - 2010.06.03 17:03:02.
