data_PCOD9342699
_publ_section_title
;
Structure prediction by ZEFSAII (Michael W. Deem and Ramdas Pophale) SiO2 
 PCOD9342699
Probable space group: P M N 21
;
_chemical_formula_sum "Si O2"
_cell_formula_units_Z 28
_cell_length_a 17.543650
_cell_length_b 12.239821
_cell_length_c 5.608592
_cell_angle_alpha 90.000000
_cell_angle_beta 90.000000
_cell_angle_gamma 90.000000
_cell_volume 1204.339330
_symmetry_space_group_name_H-M "P M N 21"
_symmetry_group_IT_number 31
_symmetry_cell_setting 'orthorhombic'
loop_
_space_group_symop_operation_xyz
x,y,z
1/2-x,-y,1/2+z
-x,y,z
1/2+x,-y,1/2+z
loop_
_atom_site_type_symbol
_atom_site_label
_atom_site_fract_x
_atom_site_fract_y
_atom_site_fract_z
Si Si1 0.661200 0.289645 0.252230
Si Si2 0.192474 0.447610 0.252230
Si Si3 0.684590 0.887394 0.252229
Si Si4 0.500000 0.416905 0.252230
Si Si5 0.849092 0.012287 0.252229
Si Si6 0.811672 0.374029 0.752230
Si Si7 0.126275 0.787163 0.252230
Si Si8 0.500000 0.401752 0.752230
O O1 0.731087 0.373200 0.252230
O O2 0.577629 0.344753 0.252230
O O3 0.666820 0.221541 0.494611
O O4 0.666820 0.221541 0.009849
O O5 0.154200 0.419432 0.503732
O O6 0.226628 0.569950 0.252230
O O7 0.154200 0.419432 0.000728
O O8 0.646059 0.921898 0.504286
O O9 0.688678 0.755690 0.252230
O O10 0.765476 0.952439 0.252229
O O11 0.646060 0.921897 0.000172
O O12 0.500000 0.469970 0.511102
O O13 0.500000 0.469970 0.993358
O O14 0.906437 0.909411 0.252230
O O15 0.069929 0.683579 0.252230
#
# Coordination Sequence:
#
# PCOD9342699 Si02
#       8
#     4   4   4   2   4   4   4   2
#     4  10  17  28  45  65  90 113 138 173 213 256
#     4  10  19  30  47  65  83 116 147 171 216 259
#     4  10  19  30  41  60  88 112 141 177 204 243
#     4   8  16  26  40  64  88 110 134 168 214 258
#     4  10  19  28  43  62  82 115 145 166 209 250
#     4  10  20  32  44  63  89 113 145 181 209 249
#     4  10  18  29  45  66  90 114 141 174 211 257
#     4   8  16  28  42  62  88 112 136 172 214 250
#
# _framework density 23.249261000000001
#
# number of rings (size 3 to 8) (size 9 to 14) (size 15 to 20)
#    0.000    2.286    0.000    4.286    0.000    2.286 
#    0.000    0.000    0.000    0.000    0.000    2.000 
#    0.000    0.000    0.000    0.000    0.000    0.000 
#
# Total GULP energy -156164.496916 kJ/mol
# GULP energy per Si atom -5577.303461 kJ/mol
# Density = 2.319634 g / cm^3
# Si number density = 23.249261 Si / 1000 Ang^3
#
#
#
# Elastic Constant Matrix: (Units=GPa)
#
#
# Indices 1 2 3 4 5 6 
#
# 1 61.6897 20.0213 19.8628 0.0000 0.0000 0.0000
# 2 20.0213 135.3337 74.3539 0.0000 0.0000 0.0000
# 3 19.8628 74.3539 313.8914 0.0000 0.0000 0.0000
# 4 0.0000 0.0000 0.0000 35.2952 0.0000 0.0000
# 5 0.0000 0.0000 0.0000 0.0000 4.8210 0.0000
# 6 0.0000 0.0000 0.0000 0.0000 0.0000 10.8236
#
#
#
# Elastic Compliance Matrix: (Units=1/GPa)
#
#
# Indices 1 2 3 4 5 6 
#
# 1 0.017112 -0.002226 -0.000555 0.000000 0.000000 0.000000
# 2 -0.002226 0.008784 -0.001940 0.000000 0.000000 0.000000
# 3 -0.000555 -0.001940 0.003680 0.000000 0.000000 0.000000
# 4 0.000000 0.000000 0.000000 0.028332 0.000000 0.000000
# 5 0.000000 0.000000 0.000000 0.000000 0.207428 0.000000
# 6 0.000000 0.000000 0.000000 0.000000 0.000000 0.092391
#
#
# Mechanical properties :
#
#
# Convention : Reuss Voigt Hill
#
# Bulk Modulus (GPa) = 49.66975 82.15455 65.91215
# Shear Modulus (GPa) = 13.37321 36.63308 25.00314
#
# Velocity S-wave (km/s) = 2.40096 3.97377 3.28295
# Velocity P-wave (km/s) = 5.39412 7.51449 6.54080
#
# Compressibility (1/GPa) = 0.02013298
#
# Stress axis : x y z
#
# Youngs Moduli (GPa) = 58.44006 113.83911 271.70298
#
# Poissons Ratio (x) = 0.25344 0.15091
# Poissons Ratio (y) = 0.13011 0.52709
# Poissons Ratio (z) = 0.03246 0.22084
#
# Static dielectric constant tensor:
#      x y z
#    x 1.938150 0.000000 0.000000 
#    y 0.000000 1.875120 0.000000 
#    z 0.000000 0.000000 1.984640 
# 
# From -- ./inp_files/990.got.cif
#   From: 2010.05.17/outbox.cif.g08.bks.cpg/sg31_1_cif.got.tgz:990.got - 2010.06.03 17:08:30.
