data_PCOD9342911
_publ_section_title
;
Structure prediction by ZEFSAII (Michael W. Deem and Ramdas Pophale) SiO2 
 PCOD9342911
Probable space group: P M N 21
;
_chemical_formula_sum "Si O2"
_cell_formula_units_Z 32
_cell_length_a 7.870631
_cell_length_b 10.734707
_cell_length_c 14.429300
_cell_angle_alpha 90.000000
_cell_angle_beta 90.000000
_cell_angle_gamma 90.000000
_cell_volume 1219.115940
_symmetry_space_group_name_H-M "P M N 21"
_symmetry_group_IT_number 31
_symmetry_cell_setting 'orthorhombic'
loop_
_space_group_symop_operation_xyz
x,y,z
1/2-x,-y,1/2+z
-x,y,z
1/2+x,-y,1/2+z
loop_
_atom_site_type_symbol
_atom_site_label
_atom_site_fract_x
_atom_site_fract_y
_atom_site_fract_z
Si Si1 0.801937 0.523649 0.132870
Si Si2 0.701535 0.783993 0.133177
Si Si3 0.693192 0.854933 0.577468
Si Si4 0.696169 0.914920 0.961292
Si Si5 0.203941 0.692578 0.415547
Si Si6 0.799352 0.576337 0.926767
Si Si7 0.295006 0.065131 0.797391
Si Si8 0.197623 0.711326 0.750575
O O1 0.789815 0.662669 0.174857
O O2 0.712904 0.417847 0.192229
O O3 0.000000 0.488049 0.125835
O O4 0.727054 0.551814 0.029953
O O5 0.500000 0.763462 0.129068
O O6 0.733009 0.905973 0.195201
O O7 0.773764 0.814008 0.030557
O O8 0.500000 0.896695 0.566778
O O9 0.802776 0.958496 0.524001
O O10 0.725443 0.730229 0.516803
O O11 0.722091 0.815664 0.683809
O O12 0.500000 0.881703 0.947030
O O13 0.772531 0.954475 0.862811
O O14 0.275468 0.561142 0.383476
O O15 0.254448 0.808441 0.351634
O O16 0.000000 0.686324 0.419245
O O17 0.729167 0.675822 0.852239
O O18 0.000000 0.600199 0.936330
O O19 0.500000 0.056552 0.796136
O O20 0.000000 0.740968 0.759874
#
# Coordination Sequence:
#
# PCOD9342911 Si02
#       8
#     4   4   4   4   4   4   4   4
#     4  11  23  40  60  87 123 161 199 245 294 351
#     4  11  23  40  62  89 120 157 198 246 299 355
#     4  11  21  35  58  86 114 146 191 244 295 347
#     4   9  21  42  63  84 116 155 198 247 296 350
#     4  10  19  33  57  84 115 154 193 239 291 344
#     4  10  22  37  55  83 120 157 196 240 289 350
#     4   9  19  37  61  88 116 153 198 245 296 351
#     4  11  22  38  60  87 120 159 197 240 296 354
#
# _framework density 26.248529000000001
#
# number of rings (size 3 to 8) (size 9 to 14) (size 15 to 20)
#    0.000    1.750    1.250    4.125    0.000    7.000 
#    2.250    0.000    0.000    0.000    0.000    0.000 
#    0.000    0.000    0.000    0.000    0.000    0.000 
#
# Total GULP energy -179092.582865 kJ/mol
# GULP energy per Si atom -5596.643215 kJ/mol
# Density = 2.618879 g / cm^3
# Si number density = 26.248529 Si / 1000 Ang^3
#
#
#
# Elastic Constant Matrix: (Units=GPa)
#
#
# Indices 1 2 3 4 5 6 
#
# 1 77.9532 9.3941 8.7013 0.0000 0.0000 0.0000
# 2 9.3941 97.1817 8.5540 0.0000 0.0000 0.0000
# 3 8.7013 8.5540 153.2294 0.0000 0.0000 0.0000
# 4 0.0000 0.0000 0.0000 51.4715 0.0000 0.0000
# 5 0.0000 0.0000 0.0000 0.0000 19.9643 0.0000
# 6 0.0000 0.0000 0.0000 0.0000 0.0000 13.0913
#
#
#
# Elastic Compliance Matrix: (Units=1/GPa)
#
#
# Indices 1 2 3 4 5 6 
#
# 1 0.013048 -0.001202 -0.000674 0.000000 0.000000 0.000000
# 2 -0.001202 0.010452 -0.000515 0.000000 0.000000 0.000000
# 3 -0.000674 -0.000515 0.006593 0.000000 0.000000 0.000000
# 4 0.000000 0.000000 0.000000 0.019428 0.000000 0.000000
# 5 0.000000 0.000000 0.000000 0.000000 0.050089 0.000000
# 6 0.000000 0.000000 0.000000 0.000000 0.000000 0.076387
#
#
# Mechanical properties :
#
#
# Convention : Reuss Voigt Hill
#
# Bulk Modulus (GPa) = 39.50870 42.40702 40.95786
# Shear Modulus (GPa) = 26.42479 37.01976 31.72228
#
# Velocity S-wave (km/s) = 3.17632 3.75954 3.48017
# Velocity P-wave (km/s) = 5.34195 5.91917 5.63795
#
# Compressibility (1/GPa) = 0.02531088
#
# Stress axis : x y z
#
# Youngs Moduli (GPa) = 76.63846 95.67966 151.67170
#
# Poissons Ratio (x) = 0.11501 0.10221
# Poissons Ratio (y) = 0.09212 0.07814
# Poissons Ratio (z) = 0.05164 0.04929
#
# Static dielectric constant tensor:
#      x y z
#    x 1.921250 0.000000 0.000000 
#    y 0.000000 2.121740 0.000000 
#    z 0.000000 0.000000 2.172600 
# 
# From -- ./inp_files/5098.got.cif
#   From: 2010.05.17/outbox.cif.g08.bks.cpg/sg31_3_cif.got.tgz:5098.got - 2010.06.03 17:08:30.
