data_PCOD9342666
_publ_section_title
;
Structure prediction by ZEFSAII (Michael W. Deem and Ramdas Pophale) SiO2 
 PCOD9342666
Probable space group: P N C 2
;
_chemical_formula_sum "Si O2"
_cell_formula_units_Z 20
_cell_length_a 11.506406
_cell_length_b 7.706407
_cell_length_c 9.008512
_cell_angle_alpha 90.000000
_cell_angle_beta 90.000000
_cell_angle_gamma 90.000000
_cell_volume 798.812215
_symmetry_space_group_name_H-M "P N C 2"
_symmetry_group_IT_number 30
_symmetry_cell_setting 'orthorhombic'
loop_
_space_group_symop_operation_xyz
x,y,z
-x,-y,z
-x,1/2+y,1/2+z
x,1/2-y,1/2+z
loop_
_atom_site_type_symbol
_atom_site_label
_atom_site_fract_x
_atom_site_fract_y
_atom_site_fract_z
Si Si1 0.498758 0.821680 0.550580
Si Si2 0.001242 0.821680 0.050581
Si Si3 0.750000 0.750001 0.628027
Si Si4 0.847083 0.103241 0.759665
Si Si5 0.652917 0.103241 0.259665
O O1 0.633985 0.779368 0.531388
O O2 0.421811 0.873650 0.409014
O O3 0.433962 0.665311 0.630336
O O4 0.500000 0.000000 0.647769
O O5 0.866015 0.779369 0.031388
O O6 0.066037 0.665311 0.130338
O O7 0.000000 0.000000 0.147770
O O8 0.078190 0.873650 0.909016
O O9 0.785927 0.920357 0.723215
O O10 0.714072 0.920355 0.223216
O O11 0.750001 0.250001 0.765628
#
# Coordination Sequence:
#
# PCOD9342666 Si02
#       5
#     4   4   4   4   4
#     4  12  27  51  84 121 166 221 278 349 416 499
#     4  12  27  51  84 121 166 221 278 349 416 499
#     4  12  28  56  84 122 172 228 276 350 428 502
#     4  12  28  56  82 125 170 218 286 346 419 506
#     4  12  28  56  82 125 170 218 286 346 419 506
#
# _framework density 25.037172999999999
#
# number of rings (size 3 to 8) (size 9 to 14) (size 15 to 20)
#    0.000    0.000    4.000    4.800    0.000    9.600 
#    7.200    0.000    0.000    0.000    0.000    0.000 
#    0.000    0.000    0.000    0.000    0.000    0.000 
#
# Total GULP energy -111931.216086 kJ/mol
# GULP energy per Si atom -5596.560804 kJ/mol
# Density = 2.498019 g / cm^3
# Si number density = 25.037173 Si / 1000 Ang^3
#
#
#
# Elastic Constant Matrix: (Units=GPa)
#
#
# Indices 1 2 3 4 5 6 
#
# 1 266.5047 108.8008 63.9109 0.0000 0.0000 0.0000
# 2 108.8008 242.4419 76.9768 0.0000 0.0000 0.0000
# 3 63.9109 76.9768 99.8912 0.0000 0.0000 0.0000
# 4 0.0000 0.0000 0.0000 17.9952 0.0000 0.0000
# 5 0.0000 0.0000 0.0000 0.0000 30.8261 0.0000
# 6 0.0000 0.0000 0.0000 0.0000 0.0000 71.5524
#
#
#
# Elastic Compliance Matrix: (Units=1/GPa)
#
#
# Indices 1 2 3 4 5 6 
#
# 1 0.004849 -0.001577 -0.001887 0.000000 0.000000 0.000000
# 2 -0.001577 0.005974 -0.003594 0.000000 0.000000 0.000000
# 3 -0.001887 -0.003594 0.013988 0.000000 0.000000 0.000000
# 4 0.000000 0.000000 0.000000 0.055570 0.000000 0.000000
# 5 0.000000 0.000000 0.000000 0.000000 0.032440 0.000000
# 6 0.000000 0.000000 0.000000 0.000000 0.000000 0.013976
#
#
# Mechanical properties :
#
#
# Convention : Reuss Voigt Hill
#
# Bulk Modulus (GPa) = 93.51283 123.13498 108.32391
# Shear Modulus (GPa) = 34.60744 48.01801 41.31273
#
# Velocity S-wave (km/s) = 3.72189 4.38410 4.06649
# Velocity P-wave (km/s) = 7.47667 8.65533 8.08750
#
# Compressibility (1/GPa) = 0.01069372
#
# Stress axis : x y z
#
# Youngs Moduli (GPa) = 206.24861 167.40467 71.48898
#
# Poissons Ratio (x) = 0.26395 0.13491
# Poissons Ratio (y) = 0.32520 0.25696
# Poissons Ratio (z) = 0.38921 0.60173
#
# Static dielectric constant tensor:
#      x y z
#    x 1.956830 0.000000 0.000000 
#    y 0.000000 2.118750 0.000000 
#    z 0.000000 0.000000 2.027600 
# 
# From -- ./inp_files/2285.got.cif
#   From: 2010.05.17/outbox.cif.g08.bks.cpg/sg30_2_cif.got.tgz:2285.got - 2010.06.03 17:03:02.
