data_PCOD9342967
_publ_section_title
;
Structure prediction by ZEFSAII (Michael W. Deem and Ramdas Pophale) SiO2 
 PCOD9342967
Probable space group: P M N 21
;
_chemical_formula_sum "Si O2"
_cell_formula_units_Z 32
_cell_length_a 8.474489
_cell_length_b 14.954576
_cell_length_c 12.456179
_cell_angle_alpha 90.000000
_cell_angle_beta 90.000000
_cell_angle_gamma 90.000000
_cell_volume 1578.601333
_symmetry_space_group_name_H-M "P M N 21"
_symmetry_group_IT_number 31
_symmetry_cell_setting 'orthorhombic'
loop_
_space_group_symop_operation_xyz
x,y,z
1/2-x,-y,1/2+z
-x,y,z
1/2+x,-y,1/2+z
loop_
_atom_site_type_symbol
_atom_site_label
_atom_site_fract_x
_atom_site_fract_y
_atom_site_fract_z
Si Si1 0.812441 0.819577 0.297520
Si Si2 0.311868 0.949915 0.459609
Si Si3 0.687975 0.864764 0.905930
Si Si4 0.812630 0.732890 0.071350
Si Si5 0.318083 0.363101 0.126215
Si Si6 0.810849 0.166345 0.164382
Si Si7 0.687152 0.556512 0.178527
Si Si8 0.818867 0.351508 0.905924
O O1 0.768530 0.913626 0.350222
O O2 0.771205 0.795714 0.174690
O O3 0.716092 0.749324 0.369542
O O4 0.000000 0.804202 0.308461
O O5 0.500000 0.938967 0.451285
O O6 0.253808 0.893038 0.563232
O O7 0.269411 0.053719 0.468365
O O8 0.500000 0.877648 0.906909
O O9 0.744748 0.863548 0.782350
O O10 0.729273 0.773233 0.967326
O O11 0.764994 0.632037 0.103683
O O12 0.000000 0.736947 0.056385
O O13 0.500000 0.354063 0.159334
O O14 0.232990 0.270220 0.150936
O O15 0.250698 0.455618 0.172090
O O16 0.300741 0.375873 0.998781
O O17 0.000000 0.158418 0.163983
O O18 0.500000 0.554324 0.152746
O O19 0.703511 0.590494 0.299846
O O20 0.000000 0.359600 0.943377
#
# Coordination Sequence:
#
# PCOD9342967 Si02
#       8
#     4   4   4   4   4   4   4   4
#     4  10  20  36  60  88 117 151 197 253 305 358
#     4  11  23  40  63  91 121 157 203 253 308 367
#     4  11  25  43  63  90 127 168 207 252 310 371
#     4  10  22  40  62  90 124 161 205 255 307 365
#     4  11  22  37  61  91 123 159 205 257 308 368
#     4  10  24  44  63  88 125 163 203 255 310 366
#     4   9  21  39  59  87 122 163 209 255 306 368
#     4  10  19  35  57  83 117 156 201 252 306 361
#
# _framework density 20.271108999999999
#
# number of rings (size 3 to 8) (size 9 to 14) (size 15 to 20)
#    0.000    1.750    1.250    2.250    1.750    5.500 
#    0.000    2.500    0.000    0.000    0.000    0.000 
#    0.000    0.000    0.000    0.000    0.000    0.000 
#
# Total GULP energy -178664.908075 kJ/mol
# GULP energy per Si atom -5583.278377 kJ/mol
# Density = 2.022497 g / cm^3
# Si number density = 20.271109 Si / 1000 Ang^3
#
#
#
# Elastic Constant Matrix: (Units=GPa)
#
#
# Indices 1 2 3 4 5 6 
#
# 1 21.0545 3.2922 15.5196 0.0000 0.0000 0.0000
# 2 3.2922 100.2461 32.5685 0.0000 0.0000 0.0000
# 3 15.5196 32.5685 65.4642 0.0000 0.0000 0.0000
# 4 0.0000 0.0000 0.0000 19.8569 0.0000 0.0000
# 5 0.0000 0.0000 0.0000 0.0000 23.6412 0.0000
# 6 0.0000 0.0000 0.0000 0.0000 0.0000 24.5913
#
#
#
# Elastic Compliance Matrix: (Units=1/GPa)
#
#
# Indices 1 2 3 4 5 6 
#
# 1 0.058337 0.003074 -0.015359 0.000000 0.000000 0.000000
# 2 0.003074 0.012061 -0.006729 0.000000 0.000000 0.000000
# 3 -0.015359 -0.006729 0.022264 0.000000 0.000000 0.000000
# 4 0.000000 0.000000 0.000000 0.050360 0.000000 0.000000
# 5 0.000000 0.000000 0.000000 0.000000 0.042299 0.000000
# 6 0.000000 0.000000 0.000000 0.000000 0.000000 0.040665
#
#
# Mechanical properties :
#
#
# Convention : Reuss Voigt Hill
#
# Bulk Modulus (GPa) = 18.30374 32.16950 25.23662
# Shear Modulus (GPa) = 17.71633 22.64352 20.17993
#
# Velocity S-wave (km/s) = 2.95950 3.34583 3.15858
# Velocity P-wave (km/s) = 4.55272 5.55250 5.07728
#
# Compressibility (1/GPa) = 0.05463364
#
# Stress axis : x y z
#
# Youngs Moduli (GPa) = 17.14183 82.91438 44.91467
#
# Poissons Ratio (x) = -0.25489 0.68986
# Poissons Ratio (y) = -0.05270 0.30223
# Poissons Ratio (z) = 0.26329 0.55793
#
# Static dielectric constant tensor:
#      x y z
#    x 1.688860 0.000000 0.000000 
#    y 0.000000 1.731490 0.000000 
#    z 0.000000 0.000000 1.727830 
# 
# From -- ./inp_files/3726.got.cif
#   From: 2010.05.17/outbox.cif.g08.bks.cpg/sg31_2_cif.got.tgz:3726.got - 2010.06.03 17:08:30.
