data_PCOD9342023
_publ_section_title
;
Structure prediction by ZEFSAII (Michael W. Deem and Ramdas Pophale) SiO2 
 PCOD9342023
Probable space group: P N C 2
;
_chemical_formula_sum "Si O2"
_cell_formula_units_Z 32
_cell_length_a 8.434688
_cell_length_b 30.978588
_cell_length_c 5.486023
_cell_angle_alpha 90.000000
_cell_angle_beta 90.000000
_cell_angle_gamma 90.000000
_cell_volume 1433.468868
_symmetry_space_group_name_H-M "P N C 2"
_symmetry_group_IT_number 30
_symmetry_cell_setting 'orthorhombic'
loop_
_space_group_symop_operation_xyz
x,y,z
-x,-y,z
-x,1/2+y,1/2+z
x,1/2-y,1/2+z
loop_
_atom_site_type_symbol
_atom_site_label
_atom_site_fract_x
_atom_site_fract_y
_atom_site_fract_z
Si Si1 0.370630 0.123930 0.154360
Si Si2 0.108762 0.725999 0.816223
Si Si3 0.002773 0.632312 0.683056
Si Si4 0.462938 0.757608 0.786261
Si Si5 0.468838 0.852245 0.640735
Si Si6 0.572118 0.043957 0.171723
Si Si7 0.202139 0.906082 0.802875
Si Si8 0.893497 0.459160 0.919373
O O1 0.184771 0.131390 0.159293
O O2 0.447337 0.151610 0.377605
O O3 0.427791 0.075883 0.235594
O O4 0.426817 0.131490 0.873615
O O5 0.056194 0.749398 0.563363
O O6 0.301362 0.729998 0.802362
O O7 0.056993 0.676086 0.814884
O O8 0.095532 0.630150 0.426919
O O9 0.051131 0.585606 0.794210
O O10 0.553120 0.744952 0.540835
O O11 0.412106 0.806639 0.743476
O O12 0.317609 0.883211 0.609067
O O13 0.707035 0.031708 0.369170
O O14 0.500000 0.000000 0.070190
O O15 0.675884 0.071900 0.986410
O O16 0.096414 0.944727 0.700075
O O17 0.000000 0.500000 0.856442
#
# Coordination Sequence:
#
# PCOD9342023 Si02
#       8
#     4   4   4   4   4   4   4   4
#     4  11  25  44  68 101 138 191 228 284 362 423
#     4  10  23  40  68 103 135 179 235 288 353 417
#     4  11  26  44  71  99 148 183 236 302 359 428
#     4  10  20  35  64  96 124 167 225 276 333 405
#     4  11  23  44  67  96 136 176 233 278 346 426
#     4  10  22  43  64  95 143 181 235 291 356 427
#     4  10  23  41  68  99 133 186 235 295 353 423
#     4  11  24  41  69 103 136 183 244 297 355 431
#
# _framework density 22.323471999999999
#
# number of rings (size 3 to 8) (size 9 to 14) (size 15 to 20)
#    0.000    1.500    1.250    3.000    7.000    3.500 
#    2.250    3.750    0.000    0.000    0.000    0.000 
#    0.000    0.000    0.000    0.000    0.000    0.000 
#
# Total GULP energy -178424.501341 kJ/mol
# GULP energy per Si atom -5575.765667 kJ/mol
# Density = 2.227266 g / cm^3
# Si number density = 22.323472 Si / 1000 Ang^3
#
#
#
# Elastic Constant Matrix: (Units=GPa)
#
#
# Indices 1 2 3 4 5 6 
#
# 1 97.6938 40.8501 19.5736 0.0000 0.0000 0.0000
# 2 40.8501 100.3673 11.0583 0.0000 0.0000 0.0000
# 3 19.5736 11.0583 104.6176 0.0000 0.0000 0.0000
# 4 0.0000 0.0000 0.0000 25.0777 0.0000 0.0000
# 5 0.0000 0.0000 0.0000 0.0000 0.0096 0.0000
# 6 0.0000 0.0000 0.0000 0.0000 0.0000 19.1775
#
#
#
# Elastic Compliance Matrix: (Units=1/GPa)
#
#
# Indices 1 2 3 4 5 6 
#
# 1 0.012679 -0.004957 -0.001848 0.000000 0.000000 0.000000
# 2 -0.004957 0.012019 -0.000343 0.000000 0.000000 0.000000
# 3 -0.001848 -0.000343 0.009941 0.000000 0.000000 0.000000
# 4 0.000000 0.000000 0.000000 0.039876 0.000000 0.000000
# 5 0.000000 0.000000 0.000000 0.000000103.654783 0.000000
# 6 0.000000 0.000000 0.000000 0.000000 0.000000 0.052144
#
#
# Mechanical properties :
#
#
# Convention : Reuss Voigt Hill
#
# Bulk Modulus (GPa) = 49.15880 49.51586 49.33733
# Shear Modulus (GPa) = 0.04817 24.26608 12.15713
#
# Velocity S-wave (km/s) = 0.14705 3.30058 2.33618
# Velocity P-wave (km/s) = 4.70083 6.06253 5.42458
#
# Compressibility (1/GPa) = 0.02034224
#
# Stress axis : x y z
#
# Youngs Moduli (GPa) = 78.87034 83.20403 100.59673
#
# Poissons Ratio (x) = 0.41243 0.18593
# Poissons Ratio (y) = 0.39095 0.03450
# Poissons Ratio (z) = 0.14577 0.02854
#
# Static dielectric constant tensor:
#      x y z
#    x 1.783810 0.000000 0.000000 
#    y 0.000000 1.844640 0.000000 
#    z 0.000000 0.000000 1.991060 
# 
# From -- ./inp_files/582.got.cif
#   From: 2010.05.17/outbox.cif.g08.bks.cpg/sg30_1_cif.got.tgz:582.got - 2010.06.03 17:03:02.
