data_PCOD9342802
_publ_section_title
;
Structure prediction by ZEFSAII (Michael W. Deem and Ramdas Pophale) SiO2 
 PCOD9342802
Probable space group: P M N 21
;
_chemical_formula_sum "Si O2"
_cell_formula_units_Z 20
_cell_length_a 8.709389
_cell_length_b 7.220013
_cell_length_c 14.861773
_cell_angle_alpha 90.000000
_cell_angle_beta 90.000000
_cell_angle_gamma 90.000000
_cell_volume 934.536550
_symmetry_space_group_name_H-M "P M N 21"
_symmetry_group_IT_number 31
_symmetry_cell_setting 'orthorhombic'
loop_
_space_group_symop_operation_xyz
x,y,z
1/2-x,-y,1/2+z
-x,y,z
1/2+x,-y,1/2+z
loop_
_atom_site_type_symbol
_atom_site_label
_atom_site_fract_x
_atom_site_fract_y
_atom_site_fract_z
Si Si1 0.500000 0.278138 0.024920
Si Si2 0.831933 0.818274 0.851957
Si Si3 0.500000 0.666016 0.098342
Si Si4 0.500000 0.219418 0.834962
Si Si5 0.500000 0.779007 0.890062
Si Si6 0.666634 0.920915 0.529398
Si Si7 0.250042 0.881233 0.206057
O O1 0.500000 0.446919 0.092555
O O2 0.665655 0.177158 0.032021
O O3 0.500000 0.345957 0.921613
O O4 0.666249 0.715563 0.851159
O O5 0.000000 0.721514 0.849765
O O6 0.827299 0.962630 0.768868
O O7 0.827612 0.935593 0.945708
O O8 0.359020 0.745920 0.152636
O O9 0.500000 0.745491 0.996882
O O10 0.353438 0.236079 0.773185
O O11 0.500000 0.002446 0.868482
O O12 0.500000 0.818820 0.517575
O O13 0.660114 0.016692 0.626513
#
# Coordination Sequence:
#
# PCOD9342802 Si02
#       7
#     2   4   2   2   2   4   4
#     4  12  24  44  58  89 143 177 193 253 333 391
#     4  10  19  32  63  92 116 148 209 276 305 345
#     4  12  24  38  63  91 138 172 200 252 323 406
#     4  10  20  40  69  88 118 161 223 274 310 351
#     4  10  18  38  58  90 115 156 212 263 304 350
#     4  11  21  38  66  94 118 160 222 270 302 360
#     4  11  19  38  66  93 119 160 226 264 309 361
#
# _framework density 21.400983
#
# number of rings (size 3 to 8) (size 9 to 14) (size 15 to 20)
#    0.000    1.200    8.000    0.600    0.000    0.000 
#    1.800    4.000    0.000    0.000    0.000    0.000 
#    0.000    0.000    0.000    0.000    0.000    0.000 
#
# Total GULP energy -111429.294640 kJ/mol
# GULP energy per Si atom -5571.464732 kJ/mol
# Density = 2.135227 g / cm^3
# Si number density = 21.400983 Si / 1000 Ang^3
#
#
#
# Elastic Constant Matrix: (Units=GPa)
#
#
# Indices 1 2 3 4 5 6 
#
# 1 232.1853 32.6728 24.3496 0.0000 0.0000 0.0000
# 2 32.6728 22.9156 7.9974 0.0000 0.0000 0.0000
# 3 24.3496 7.9974 105.9624 0.0000 0.0000 0.0000
# 4 0.0000 0.0000 0.0000 22.3689 0.0000 0.0000
# 5 0.0000 0.0000 0.0000 0.0000 62.2439 0.0000
# 6 0.0000 0.0000 0.0000 0.0000 0.0000 18.8800
#
#
#
# Elastic Compliance Matrix: (Units=1/GPa)
#
#
# Indices 1 2 3 4 5 6 
#
# 1 0.005435 -0.007512 -0.000682 0.000000 0.000000 0.000000
# 2 -0.007512 0.055200 -0.002440 0.000000 0.000000 0.000000
# 3 -0.000682 -0.002440 0.009778 0.000000 0.000000 0.000000
# 4 0.000000 0.000000 0.000000 0.044705 0.000000 0.000000
# 5 0.000000 0.000000 0.000000 0.000000 0.016066 0.000000
# 6 0.000000 0.000000 0.000000 0.000000 0.000000 0.052966
#
#
# Mechanical properties :
#
#
# Convention : Reuss Voigt Hill
#
# Bulk Modulus (GPa) = 20.34751 54.56700 37.45726
# Shear Modulus (GPa) = 22.54278 40.43479 31.48878
#
# Velocity S-wave (km/s) = 3.24906 4.35143 3.84001
# Velocity P-wave (km/s) = 4.85835 7.12736 6.09930
#
# Compressibility (1/GPa) = 0.04914606
#
# Stress axis : x y z
#
# Youngs Moduli (GPa) = 183.97609 18.11587 102.26819
#
# Poissons Ratio (x) = 0.13608 0.06976
# Poissons Ratio (y) = 1.38199 0.24954
# Poissons Ratio (z) = 0.12549 0.04420
#
# Static dielectric constant tensor:
#      x y z
#    x 1.843930 0.000000 0.000000 
#    y 0.000000 1.775590 0.000000 
#    z 0.000000 0.000000 1.749320 
# 
# From -- ./inp_files/4685.got.cif
#   From: 2010.05.17/outbox.cif.g08.bks.cpg/sg31_3_cif.got.tgz:4685.got - 2010.06.03 17:08:30.
