data_PCOD9342845
_publ_section_title
;
Structure prediction by ZEFSAII (Michael W. Deem and Ramdas Pophale) SiO2 
 PCOD9342845
Probable space group: P M N 21
;
_chemical_formula_sum "Si O2"
_cell_formula_units_Z 32
_cell_length_a 8.036713
_cell_length_b 11.789317
_cell_length_c 17.017228
_cell_angle_alpha 90.000000
_cell_angle_beta 90.000000
_cell_angle_gamma 90.000000
_cell_volume 1612.337380
_symmetry_space_group_name_H-M "P M N 21"
_symmetry_group_IT_number 31
_symmetry_cell_setting 'orthorhombic'
loop_
_space_group_symop_operation_xyz
x,y,z
1/2-x,-y,1/2+z
-x,y,z
1/2+x,-y,1/2+z
loop_
_atom_site_type_symbol
_atom_site_label
_atom_site_fract_x
_atom_site_fract_y
_atom_site_fract_z
Si Si1 0.202561 0.940989 0.808700
Si Si2 0.199885 0.724927 0.189051
Si Si3 0.304760 0.570133 0.045939
Si Si4 0.705364 0.316316 0.016484
Si Si5 0.299611 0.196829 0.855380
Si Si6 0.809682 0.854052 0.641643
Si Si7 0.808358 0.766930 0.935516
Si Si8 0.692758 0.069963 0.583986
O O1 0.261264 0.909238 0.720921
O O2 0.261952 0.835473 0.861975
O O3 0.000000 0.942603 0.811089
O O4 0.255748 0.064934 0.839292
O O5 0.240247 0.625150 0.127544
O O6 0.257914 0.729433 0.279205
O O7 0.259889 0.841963 0.148736
O O8 0.000000 0.731847 0.189780
O O9 0.500000 0.558100 0.057451
O O10 0.238920 0.446452 0.022704
O O11 0.274454 0.657955 0.974760
O O12 0.500000 0.313239 0.016023
O O13 0.764282 0.251290 0.095021
O O14 0.760451 0.250654 0.937492
O O15 0.500000 0.202756 0.857055
O O16 0.000000 0.824445 0.660469
O O17 0.799936 0.957716 0.580600
O O18 0.000000 0.735953 0.918583
O O19 0.807398 0.860840 0.003964
O O20 0.500000 0.040169 0.601042
#
# Coordination Sequence:
#
# PCOD9342845 Si02
#       8
#     4   4   4   4   4   4   4   4
#     4  10  20  33  52  81 113 138 169 217 266 319
#     4   9  18  33  54  78 105 139 173 214 268 318
#     4  10  20  36  56  76 102 136 183 229 259 307
#     4   9  20  37  54  76 106 142 180 220 266 310
#     4  10  19  35  58  79 107 143 178 217 266 325
#     4  10  19  32  51  75 107 139 168 209 265 317
#     4   9  19  35  52  74 105 140 172 211 266 317
#     4   9  16  29  49  73 101 131 167 209 256 309
#
# _framework density 19.846964
#
# number of rings (size 3 to 8) (size 9 to 14) (size 15 to 20)
#    0.000    2.500    1.250    1.875    0.000    3.000 
#    2.250    2.500    0.000    0.000    0.000    0.000 
#    0.000    0.000    0.000    0.000    0.000    0.000 
#
# Total GULP energy -178266.143315 kJ/mol
# GULP energy per Si atom -5570.816979 kJ/mol
# Density = 1.980179 g / cm^3
# Si number density = 19.846964 Si / 1000 Ang^3
#
#
#
# Elastic Constant Matrix: (Units=GPa)
#
#
# Indices 1 2 3 4 5 6 
#
# 1 9.7848 1.5389 6.0054 0.0000 0.0000 0.0000
# 2 1.5389 140.5061 74.0218 0.0000 0.0000 0.0000
# 3 6.0054 74.0218 97.4057 0.0000 0.0000 0.0000
# 4 0.0000 0.0000 0.0000 24.4602 0.0000 0.0000
# 5 0.0000 0.0000 0.0000 0.0000 12.6928 0.0000
# 6 0.0000 0.0000 0.0000 0.0000 0.0000 16.4482
#
#
#
# Elastic Compliance Matrix: (Units=1/GPa)
#
#
# Indices 1 2 3 4 5 6 
#
# 1 0.107458 0.003858 -0.009557 0.000000 0.000000 0.000000
# 2 0.003858 0.012007 -0.009363 0.000000 0.000000 0.000000
# 3 -0.009557 -0.009363 0.017971 0.000000 0.000000 0.000000
# 4 0.000000 0.000000 0.000000 0.040883 0.000000 0.000000
# 5 0.000000 0.000000 0.000000 0.000000 0.078785 0.000000
# 6 0.000000 0.000000 0.000000 0.000000 0.000000 0.060797
#
#
# Mechanical properties :
#
#
# Convention : Reuss Voigt Hill
#
# Bulk Modulus (GPa) = 9.31855 45.64766 27.48311
# Shear Modulus (GPa) = 13.02780 21.79561 17.41170
#
# Velocity S-wave (km/s) = 2.56483 3.31748 2.96514
# Velocity P-wave (km/s) = 3.67104 6.14199 5.05967
#
# Compressibility (1/GPa) = 0.10731280
#
# Stress axis : x y z
#
# Youngs Moduli (GPa) = 9.30593 83.28256 55.64662
#
# Poissons Ratio (x) = -0.32130 0.53181
# Poissons Ratio (y) = -0.03590 0.52100
# Poissons Ratio (z) = 0.08894 0.77974
#
# Static dielectric constant tensor:
#      x y z
#    x 1.727340 0.000000 0.000000 
#    y 0.000000 1.691940 0.000000 
#    z 0.000000 0.000000 1.758870 
# 
# From -- ./inp_files/5875.got.cif
#   From: 2010.05.17/outbox.cif.g08.bks.cpg/sg31_3_cif.got.tgz:5875.got - 2010.06.03 17:08:30.
