data_PCOD9342074
_publ_section_title
;
Structure prediction by ZEFSAII (Michael W. Deem and Ramdas Pophale) SiO2 
 PCOD9342074
Probable space group: P N C 2
;
_chemical_formula_sum "Si O2"
_cell_formula_units_Z 28
_cell_length_a 8.778297
_cell_length_b 16.120545
_cell_length_c 8.307916
_cell_angle_alpha 90.000000
_cell_angle_beta 90.000000
_cell_angle_gamma 90.000000
_cell_volume 1175.660935
_symmetry_space_group_name_H-M "P N C 2"
_symmetry_group_IT_number 30
_symmetry_cell_setting 'orthorhombic'
loop_
_space_group_symop_operation_xyz
x,y,z
-x,-y,z
-x,1/2+y,1/2+z
x,1/2-y,1/2+z
loop_
_atom_site_type_symbol
_atom_site_label
_atom_site_fract_x
_atom_site_fract_y
_atom_site_fract_z
Si Si1 0.000000 0.000000 0.233860
Si Si2 0.747850 0.547600 0.964080
Si Si3 0.595663 0.828791 0.242106
Si Si4 0.967190 0.842898 0.682238
Si Si5 0.596234 0.238420 0.985663
Si Si6 0.707655 0.366848 0.235573
Si Si7 0.087594 0.330089 0.556299
Si Si8 0.500000 0.000000 0.719780
O O1 0.855433 0.008411 0.353207
O O2 0.975180 0.917038 0.128199
O O3 0.629164 0.589960 0.842936
O O4 0.645322 0.512798 0.106075
O O5 0.855420 0.615363 0.052381
O O6 0.547992 0.759410 0.371915
O O7 0.748871 0.814362 0.141315
O O8 0.454674 0.825915 0.121567
O O9 0.122140 0.896453 0.699899
O O10 0.004734 0.751066 0.614805
O O11 0.901133 0.836257 0.863198
O O12 0.726768 0.203669 0.871862
O O13 0.641312 0.322536 0.077306
O O14 0.570869 0.422387 0.310619
#
# Coordination Sequence:
#
# PCOD9342074 Si02
#       8
#     2   4   4   4   4   4   4   2
#     4  10  24  46  68 106 146 176 226 292 354 412
#     4  11  24  45  69  97 139 184 230 283 349 414
#     4  10  20  38  66 100 130 177 224 282 327 404
#     4  12  25  45  72 104 140 189 235 280 343 429
#     4  10  21  41  68  98 136 175 232 279 334 414
#     4  11  25  43  68 100 136 179 228 285 343 411
#     4  11  24  41  74 106 140 182 232 283 352 415
#     4  12  26  44  68 102 134 182 232 286 360 392
#
# _framework density 23.816389000000001
#
# number of rings (size 3 to 8) (size 9 to 14) (size 15 to 20)
#    0.000    1.143    1.429    5.143    4.000    2.857 
#    5.143    0.000    0.000    0.000    0.000    0.000 
#    0.000    0.000    0.000    0.000    0.000    0.000 
#
# Total GULP energy -156399.245657 kJ/mol
# GULP energy per Si atom -5585.687345 kJ/mol
# Density = 2.376218 g / cm^3
# Si number density = 23.816389 Si / 1000 Ang^3
#
#
#
# Elastic Constant Matrix: (Units=GPa)
#
#
# Indices 1 2 3 4 5 6 
#
# 1 52.7400 13.3224 2.3966 0.0000 0.0000 0.0000
# 2 13.3224 60.1731 21.6876 0.0000 0.0000 0.0000
# 3 2.3966 21.6876 113.4042 0.0000 0.0000 0.0000
# 4 0.0000 0.0000 0.0000 24.2839 0.0000 0.0000
# 5 0.0000 0.0000 0.0000 0.0000 21.1381 0.0000
# 6 0.0000 0.0000 0.0000 0.0000 0.0000 21.9029
#
#
#
# Elastic Compliance Matrix: (Units=1/GPa)
#
#
# Indices 1 2 3 4 5 6 
#
# 1 0.020106 -0.004617 0.000458 0.000000 0.000000 0.000000
# 2 -0.004617 0.018909 -0.003519 0.000000 0.000000 0.000000
# 3 0.000458 -0.003519 0.009481 0.000000 0.000000 0.000000
# 4 0.000000 0.000000 0.000000 0.041180 0.000000 0.000000
# 5 0.000000 0.000000 0.000000 0.000000 0.047308 0.000000
# 6 0.000000 0.000000 0.000000 0.000000 0.000000 0.045656
#
#
# Mechanical properties :
#
#
# Convention : Reuss Voigt Hill
#
# Bulk Modulus (GPa) = 30.17316 33.45894 31.81605
# Shear Modulus (GPa) = 23.91862 26.05901 24.98882
#
# Velocity S-wave (km/s) = 3.17250 3.31140 3.24269
# Velocity P-wave (km/s) = 5.11040 5.35721 5.23526
#
# Compressibility (1/GPa) = 0.03314204
#
# Stress axis : x y z
#
# Youngs Moduli (GPa) = 49.73559 52.88477 105.47137
#
# Poissons Ratio (x) = 0.24415 -0.04830
# Poissons Ratio (y) = 0.22961 0.37111
# Poissons Ratio (z) = -0.02278 0.18608
#
# Static dielectric constant tensor:
#      x y z
#    x 1.917120 0.000000 0.000000 
#    y 0.000000 2.211000 0.000000 
#    z 0.000000 0.000000 1.898020 
# 
# From -- ./inp_files/2019.got.cif
#   From: 2010.05.17/outbox.cif.g08.bks.cpg/sg30_2_cif.got.tgz:2019.got - 2010.06.03 17:03:02.
