data_PCOD9342921
_publ_section_title
;
Structure prediction by ZEFSAII (Michael W. Deem and Ramdas Pophale) SiO2 
 PCOD9342921
Probable space group: P M N 21
;
_chemical_formula_sum "Si O2"
_cell_formula_units_Z 32
_cell_length_a 8.454529
_cell_length_b 10.375907
_cell_length_c 20.424034
_cell_angle_alpha 90.000000
_cell_angle_beta 90.000000
_cell_angle_gamma 90.000000
_cell_volume 1791.665840
_symmetry_space_group_name_H-M "P M N 21"
_symmetry_group_IT_number 31
_symmetry_cell_setting 'orthorhombic'
loop_
_space_group_symop_operation_xyz
x,y,z
1/2-x,-y,1/2+z
-x,y,z
1/2+x,-y,1/2+z
loop_
_atom_site_type_symbol
_atom_site_label
_atom_site_fract_x
_atom_site_fract_y
_atom_site_fract_z
Si Si1 0.310537 0.849323 0.648680
Si Si2 0.189242 0.852751 0.502063
Si Si3 0.692279 0.853791 0.005268
Si Si4 0.311058 0.345529 0.753757
Si Si5 0.692403 0.639071 0.753893
Si Si6 0.812738 0.353200 0.899284
Si Si7 0.691837 0.637871 0.903645
Si Si8 0.811091 0.132329 0.654760
O O1 0.500000 0.840392 0.642949
O O2 0.235947 0.827103 0.577301
O O3 0.254390 0.744081 0.701412
O O4 0.265058 0.993854 0.670080
O O5 0.265871 0.751408 0.453161
O O6 0.000000 0.845842 0.495800
O O7 0.240231 0.000348 0.487520
O O8 0.500000 0.851792 0.003813
O O9 0.747439 0.745519 0.954778
O O10 0.739794 0.830627 0.080649
O O11 0.500000 0.339776 0.747152
O O12 0.258375 0.492402 0.738325
O O13 0.266403 0.321962 0.829349
O O14 0.235803 0.241185 0.706026
O O15 0.500000 0.640147 0.753356
O O16 0.740446 0.668058 0.828738
O O17 0.753378 0.495319 0.919478
O O18 0.000000 0.356190 0.890492
O O19 0.500000 0.634014 0.904962
O O20 0.000000 0.115741 0.653931
#
# Coordination Sequence:
#
# PCOD9342921 Si02
#       8
#     4   4   4   4   4   4   4   4
#     4  10  19  34  54  79 108 141 178 221 266 313
#     4  10  20  36  55  78 106 141 179 218 262 314
#     4   8  17  33  55  78 104 137 177 217 257 305
#     4  10  20  37  57  77 101 137 178 219 263 313
#     4   8  17  32  53  78 104 132 173 221 265 312
#     4  11  22  36  53  79 109 137 169 214 264 317
#     4   9  17  35  57  77 101 135 174 215 259 310
#     4  10  20  35  52  78 111 142 176 219 264 314
#
# _framework density 17.860475000000001
#
# number of rings (size 3 to 8) (size 9 to 14) (size 15 to 20)
#    0.000    2.500    0.000    4.125    0.000    2.000 
#    0.000   15.000    0.000    0.000    0.000    0.000 
#    0.000    0.000    0.000    0.000    0.000    0.000 
#
# Total GULP energy -178527.806637 kJ/mol
# GULP energy per Si atom -5578.993957 kJ/mol
# Density = 1.781982 g / cm^3
# Si number density = 17.860475 Si / 1000 Ang^3
#
#
#
# Elastic Constant Matrix: (Units=GPa)
#
#
# Indices 1 2 3 4 5 6 
#
# 1 20.3295 -5.5707 -11.3938 0.0000 0.0000 0.0000
# 2 -5.5707 119.3490 85.7094 0.0000 0.0000 0.0000
# 3 -11.3938 85.7094 76.6967 0.0000 0.0000 0.0000
# 4 0.0000 0.0000 0.0000 43.3161 0.0000 0.0000
# 5 0.0000 0.0000 0.0000 0.0000 25.2164 0.0000
# 6 0.0000 0.0000 0.0000 0.0000 0.0000 20.6522
#
#
#
# Elastic Compliance Matrix: (Units=1/GPa)
#
#
# Indices 1 2 3 4 5 6 
#
# 1 0.060752 -0.018462 0.029656 0.000000 0.000000 0.000000
# 2 -0.018462 0.048041 -0.056429 0.000000 0.000000 0.000000
# 3 0.029656 -0.056429 0.080504 0.000000 0.000000 0.000000
# 4 0.000000 0.000000 0.000000 0.023086 0.000000 0.000000
# 5 0.000000 0.000000 0.000000 0.000000 0.039657 0.000000
# 6 0.000000 0.000000 0.000000 0.000000 0.000000 0.048421
#
#
# Mechanical properties :
#
#
# Convention : Reuss Voigt Hill
#
# Bulk Modulus (GPa) = 10.11859 39.31834 24.71846
# Shear Modulus (GPa) = 11.79598 27.67894 19.73746
#
# Velocity S-wave (km/s) = 2.57271 3.94093 3.32790
# Velocity P-wave (km/s) = 3.80825 6.53987 5.35129
#
# Compressibility (1/GPa) = 0.09882796
#
# Stress axis : x y z
#
# Youngs Moduli (GPa) = 16.46043 20.81545 12.42169
#
# Poissons Ratio (x) = 0.38429 -0.36838
# Poissons Ratio (y) = 0.30389 0.70095
# Poissons Ratio (z) = -0.48816 1.17460
#
# Static dielectric constant tensor:
#      x y z
#    x 1.607240 0.000000 0.000000 
#    y 0.000000 1.593320 0.000000 
#    z 0.000000 0.000000 1.589960 
# 
# From -- ./inp_files/5917.got.cif
#   From: 2010.05.17/outbox.cif.g08.bks.cpg/sg31_3_cif.got.tgz:5917.got - 2010.06.03 17:08:30.
