data_PCOD9342425
_publ_section_title
;
Structure prediction by ZEFSAII (Michael W. Deem and Ramdas Pophale) SiO2 
 PCOD9342425
Probable space group: P N C 2
;
_chemical_formula_sum "Si O2"
_cell_formula_units_Z 30
_cell_length_a 19.299773
_cell_length_b 6.084911
_cell_length_c 10.989727
_cell_angle_alpha 90.000000
_cell_angle_beta 90.000000
_cell_angle_gamma 90.000000
_cell_volume 1290.604977
_symmetry_space_group_name_H-M "P N C 2"
_symmetry_group_IT_number 30
_symmetry_cell_setting 'orthorhombic'
loop_
_space_group_symop_operation_xyz
x,y,z
-x,-y,z
-x,1/2+y,1/2+z
x,1/2-y,1/2+z
loop_
_atom_site_type_symbol
_atom_site_label
_atom_site_fract_x
_atom_site_fract_y
_atom_site_fract_z
Si Si1 0.756332 0.690687 0.859510
Si Si2 0.000000 0.000000 0.822941
Si Si3 0.135049 0.489587 0.439546
Si Si4 0.066179 0.382026 0.102010
Si Si5 0.389349 0.075203 0.832944
Si Si6 0.681230 0.315684 0.722814
Si Si7 0.570769 0.877349 0.105118
Si Si8 0.796599 0.117175 0.572463
O O1 0.821603 0.848363 0.840566
O O2 0.685840 0.823157 0.857598
O O3 0.737807 0.483208 0.777136
O O4 0.773792 0.582883 0.987835
O O5 0.934393 0.101675 0.889919
O O6 0.033466 0.178066 0.731977
O O7 0.099915 0.320098 0.533599
O O8 0.189335 0.658460 0.497620
O O9 0.127192 0.559040 0.120289
O O10 0.000000 0.500000 0.038723
O O11 0.418426 0.178668 0.704620
O O12 0.371719 0.816340 0.811546
O O13 0.429798 0.148636 0.956730
O O14 0.634233 0.457437 0.632259
O O15 0.730904 0.143680 0.658100
O O16 0.500000 0.000000 0.138030
#
# Coordination Sequence:
#
# PCOD9342425 Si02
#       8
#     4   2   4   4   4   4   4   4
#     4  10  23  39  66  99 129 175 229 287 354 425
#     4  10  24  40  60  86 124 178 222 286 356 424
#     4  11  22  41  64  89 132 175 227 298 354 430
#     4   9  23  40  57  89 125 167 234 281 351 436
#     4  11  25  49  73 109 151 187 243 302 357 441
#     4  11  24  41  72 105 136 184 235 294 361 435
#     4  11  27  47  74 109 146 195 239 294 366 437
#     4  11  23  40  64  94 130 178 228 295 362 429
#
# _framework density 23.244910999999998
#
# number of rings (size 3 to 8) (size 9 to 14) (size 15 to 20)
#    0.400    1.067    0.000    4.000    7.467    3.200 
#    0.000    2.667    0.000    0.000    0.000    0.000 
#    0.000    0.000    0.000    0.000    0.000    0.000 
#
# Total GULP energy -167210.727107 kJ/mol
# GULP energy per Si atom -5573.690904 kJ/mol
# Density = 2.319200 g / cm^3
# Si number density = 23.244911 Si / 1000 Ang^3
#
#
#
# Elastic Constant Matrix: (Units=GPa)
#
#
# Indices 1 2 3 4 5 6 
#
# 1 100.1852 8.6995 27.7173 0.0000 0.0000 0.0000
# 2 8.6995 60.6814 24.2985 0.0000 0.0000 0.0000
# 3 27.7173 24.2985 82.4140 0.0000 0.0000 0.0000
# 4 0.0000 0.0000 0.0000 -106.4867 0.0000 0.0000
# 5 0.0000 0.0000 0.0000 0.0000 37.3822 0.0000
# 6 0.0000 0.0000 0.0000 0.0000 0.0000 22.7621
#
#
#
# Elastic Compliance Matrix: (Units=1/GPa)
#
#
# Indices 1 2 3 4 5 6 
#
# 1 0.011006 -0.000108 -0.003670 0.000000 0.000000 0.000000
# 2 -0.000108 0.018687 -0.005473 0.000000 0.000000 0.000000
# 3 -0.003670 -0.005473 0.014982 0.000000 0.000000 0.000000
# 4 0.000000 0.000000 0.000000 -0.009391 0.000000 0.000000
# 5 0.000000 0.000000 0.000000 0.000000 0.026751 0.000000
# 6 0.000000 0.000000 0.000000 0.000000 0.000000 0.043933
#
#
# Mechanical properties :
#
#
# Convention : Reuss Voigt Hill
#
# Bulk Modulus (GPa) = 38.20830 40.52346 39.36588
# Shear Modulus (GPa) = 37.53949 2.90254 20.22102
#
# Velocity S-wave (km/s) = 4.02301 1.11866 2.95263
# Velocity P-wave (km/s) = 6.16867 4.37489 5.34753
#
# Compressibility (1/GPa) = 0.02617232
#
# Stress axis : x y z
#
# Youngs Moduli (GPa) = 90.85817 53.51434 66.74846
#
# Poissons Ratio (x) = 0.00580 0.24494
# Poissons Ratio (y) = 0.00986 0.36531
# Poissons Ratio (z) = 0.33341 0.29288
#
# Static dielectric constant tensor:
#      x y z
#    x 1.838430 0.000000 0.000000 
#    y 0.000000 1.938870 0.000000 
#    z 0.000000 0.000000 1.983900 
# 
# From -- ./inp_files/4483.got.cif
#   From: 2010.05.17/outbox.cif.g08.bks.cpg/sg30_3_cif.got.tgz:4483.got - 2010.06.03 17:03:02.
