data_PCOD9342618
_publ_section_title
;
Structure prediction by ZEFSAII (Michael W. Deem and Ramdas Pophale) SiO2 
 PCOD9342618
Probable space group: P N C 2
;
_chemical_formula_sum "Si O2"
_cell_formula_units_Z 24
_cell_length_a 8.695138
_cell_length_b 11.574413
_cell_length_c 7.991963
_cell_angle_alpha 90.000000
_cell_angle_beta 90.000000
_cell_angle_gamma 90.000000
_cell_volume 804.320094
_symmetry_space_group_name_H-M "P N C 2"
_symmetry_group_IT_number 30
_symmetry_cell_setting 'orthorhombic'
loop_
_space_group_symop_operation_xyz
x,y,z
-x,-y,z
-x,1/2+y,1/2+z
x,1/2-y,1/2+z
loop_
_atom_site_type_symbol
_atom_site_label
_atom_site_fract_x
_atom_site_fract_y
_atom_site_fract_z
Si Si1 0.211602 0.054762 0.711140
Si Si2 0.668695 0.962246 0.385937
Si Si3 0.466807 0.253364 0.707712
Si Si4 0.003993 0.202505 0.505129
Si Si5 0.883475 0.586896 0.653736
Si Si6 0.303450 0.647683 0.451626
O O1 0.230011 0.986650 0.534469
O O2 0.251630 0.001325 0.213333
O O3 0.947273 0.876338 0.667848
O O4 0.251689 0.975107 0.867605
O O5 0.643605 0.857131 0.679340
O O6 0.640400 0.829923 0.328736
O O7 0.500000 0.000000 0.416110
O O8 0.540220 0.336690 0.565590
O O9 0.623138 0.211277 0.790367
O O10 0.844200 0.273014 0.504301
O O11 0.131180 0.306109 0.531321
O O12 0.044324 0.136305 0.331303
O O13 0.000000 0.500000 0.573645
#
# Coordination Sequence:
#
# PCOD9342618 Si02
#       6
#     4   4   4   4   4   4
#     4  11  26  55  84 123 180 239 292 380 468 548
#     4  11  25  47  82 116 171 225 284 370 460 539
#     4  12  25  51  84 129 176 231 309 381 461 564
#     4  11  27  52  78 120 169 224 293 365 437 551
#     4  11  27  49  78 112 160 218 278 349 446 523
#     4  12  28  48  91 127 176 241 309 372 468 558
#
# _framework density 29.838868000000002
#
# number of rings (size 3 to 8) (size 9 to 14) (size 15 to 20)
#    0.000    0.667    3.333    2.500    4.667    6.667 
#    0.000    1.667    0.000    0.000    0.000    0.000 
#    0.000    0.000    0.000    0.000    0.000    0.000 
#
# Total GULP energy -134010.183475 kJ/mol
# GULP energy per Si atom -5583.757645 kJ/mol
# Density = 2.977095 g / cm^3
# Si number density = 29.838868 Si / 1000 Ang^3
#
#
#
# Elastic Constant Matrix: (Units=GPa)
#
#
# Indices 1 2 3 4 5 6 
#
# 1 186.3818 42.3284 54.5651 0.0000 0.0000 0.0000
# 2 42.3284 136.1543 48.4979 0.0000 0.0000 0.0000
# 3 54.5651 48.4979 169.4411 0.0000 0.0000 0.0000
# 4 0.0000 0.0000 0.0000 30.1458 0.0000 0.0000
# 5 0.0000 0.0000 0.0000 0.0000 64.6193 0.0000
# 6 0.0000 0.0000 0.0000 0.0000 0.0000 65.7880
#
#
#
# Elastic Compliance Matrix: (Units=1/GPa)
#
#
# Indices 1 2 3 4 5 6 
#
# 1 0.006136 -0.001340 -0.001592 0.000000 0.000000 0.000000
# 2 -0.001340 0.008471 -0.001993 0.000000 0.000000 0.000000
# 3 -0.001592 -0.001993 0.006985 0.000000 0.000000 0.000000
# 4 0.000000 0.000000 0.000000 0.033172 0.000000 0.000000
# 5 0.000000 0.000000 0.000000 0.000000 0.015475 0.000000
# 6 0.000000 0.000000 0.000000 0.000000 0.000000 0.015200
#
#
# Mechanical properties :
#
#
# Convention : Reuss Voigt Hill
#
# Bulk Modulus (GPa) = 85.17380 86.97335 86.07358
# Shear Modulus (GPa) = 50.40083 55.21634 52.80858
#
# Velocity S-wave (km/s) = 4.11432 4.30639 4.21145
# Velocity P-wave (km/s) = 7.15379 7.34422 7.24963
#
# Compressibility (1/GPa) = 0.01174070
#
# Stress axis : x y z
#
# Youngs Moduli (GPa) = 162.97528 118.04665 143.16455
#
# Poissons Ratio (x) = 0.15823 0.22796
# Poissons Ratio (y) = 0.21845 0.28533
# Poissons Ratio (z) = 0.25950 0.23527
#
# Static dielectric constant tensor:
#      x y z
#    x 2.709970 0.000000 0.000000 
#    y 0.000000 3.410230 0.000000 
#    z 0.000000 0.000000 2.481180 
# 
# From -- ./inp_files/2357.got.cif
#   From: 2010.05.17/outbox.cif.g08.bks.cpg/sg30_2_cif.got.tgz:2357.got - 2010.06.03 17:03:02.
