data_PCOD9342564
_publ_section_title
;
Structure prediction by ZEFSAII (Michael W. Deem and Ramdas Pophale) SiO2 
 PCOD9342564
Probable space group: P N C 2
;
_chemical_formula_sum "Si O2"
_cell_formula_units_Z 26
_cell_length_a 14.389734
_cell_length_b 9.530341
_cell_length_c 8.777919
_cell_angle_alpha 90.000000
_cell_angle_beta 90.000000
_cell_angle_gamma 90.000000
_cell_volume 1203.795665
_symmetry_space_group_name_H-M "P N C 2"
_symmetry_group_IT_number 30
_symmetry_cell_setting 'orthorhombic'
loop_
_space_group_symop_operation_xyz
x,y,z
-x,-y,z
-x,1/2+y,1/2+z
x,1/2-y,1/2+z
loop_
_atom_site_type_symbol
_atom_site_label
_atom_site_fract_x
_atom_site_fract_y
_atom_site_fract_z
Si Si1 0.283319 0.311211 0.559250
Si Si2 0.816586 0.053709 0.936579
Si Si3 0.135911 0.687173 0.737635
Si Si4 0.495239 0.158156 0.119625
Si Si5 0.240928 0.451622 0.881904
Si Si6 0.431653 0.891493 0.452010
Si Si7 0.000000 0.500000 0.586386
O O1 0.262618 0.435926 0.436814
O O2 0.393274 0.286566 0.577764
O O3 0.248056 0.370708 0.720387
O O4 0.234276 0.168241 0.508318
O O5 0.803505 0.152154 0.086777
O O6 0.910932 0.970476 0.982002
O O7 0.840419 0.159619 0.800307
O O8 0.163335 0.570274 0.863261
O O9 0.033249 0.636017 0.683333
O O10 0.575537 0.253050 0.050332
O O11 0.500000 0.000000 0.061181
O O12 0.512616 0.150912 0.299435
O O13 0.336570 0.535609 0.907936
O O14 0.500000 0.000000 0.536397
#
# Coordination Sequence:
#
# PCOD9342564 Si02
#       7
#     4   4   4   4   4   4   2
#     4  11  21  40  58  86 121 157 196 247 301 352
#     4   9  21  40  63  88 121 152 196 246 294 361
#     4   9  21  40  63  89 119 154 195 246 296 360
#     4  11  22  38  59  83 118 158 201 249 293 349
#     4  11  23  40  59  85 124 155 199 248 301 355
#     4  11  22  39  58  84 118 157 201 250 290 353
#     4   8  20  40  62  88 124 144 194 248 304 348
#
# _framework density 21.59835
#
# number of rings (size 3 to 8) (size 9 to 14) (size 15 to 20)
#    0.923    0.923    4.615    0.000    2.154    3.077 
#    2.769    0.769    0.000    0.000    0.000    0.000 
#    0.000    0.000    0.000    0.000    0.000    0.000 
#
# Total GULP energy -144884.210161 kJ/mol
# GULP energy per Si atom -5572.469622 kJ/mol
# Density = 2.154919 g / cm^3
# Si number density = 21.598350 Si / 1000 Ang^3
#
#
#
# Elastic Constant Matrix: (Units=GPa)
#
#
# Indices 1 2 3 4 5 6 
#
# 1 47.3729 5.4182 -3.1330 0.0000 0.0000 0.0000
# 2 5.4182 73.1262 14.4167 0.0000 0.0000 0.0000
# 3 -3.1330 14.4167 13.0723 0.0000 0.0000 0.0000
# 4 0.0000 0.0000 0.0000 31.7091 0.0000 0.0000
# 5 0.0000 0.0000 0.0000 0.0000 18.6782 0.0000
# 6 0.0000 0.0000 0.0000 0.0000 0.0000 25.0978
#
#
#
# Elastic Compliance Matrix: (Units=1/GPa)
#
#
# Indices 1 2 3 4 5 6 
#
# 1 0.022101 -0.003427 0.009076 0.000000 0.000000 0.000000
# 2 -0.003427 0.018006 -0.020679 0.000000 0.000000 0.000000
# 3 0.009076 -0.020679 0.101478 0.000000 0.000000 0.000000
# 4 0.000000 0.000000 0.000000 0.031537 0.000000 0.000000
# 5 0.000000 0.000000 0.000000 0.000000 0.053538 0.000000
# 6 0.000000 0.000000 0.000000 0.000000 0.000000 0.039844
#
#
# Mechanical properties :
#
#
# Convention : Reuss Voigt Hill
#
# Bulk Modulus (GPa) = 8.96648 18.55281 13.75965
# Shear Modulus (GPa) = 14.98179 22.88831 18.93505
#
# Velocity S-wave (km/s) = 2.63659 3.25887 2.96411
# Velocity P-wave (km/s) = 3.66460 4.77168 4.25430
#
# Compressibility (1/GPa) = 0.11152643
#
# Stress axis : x y z
#
# Youngs Moduli (GPa) = 45.24617 55.53803 9.85435
#
# Poissons Ratio (x) = 0.19033 -0.08944
# Poissons Ratio (y) = 0.15506 0.20378
# Poissons Ratio (z) = -0.41067 1.14846
#
# Static dielectric constant tensor:
#      x y z
#    x 1.801870 0.000000 0.000000 
#    y 0.000000 1.818980 0.000000 
#    z 0.000000 0.000000 1.818960 
# 
# From -- ./inp_files/2768.got.cif
#   From: 2010.05.17/outbox.cif.g08.bks.cpg/sg30_2_cif.got.tgz:2768.got - 2010.06.03 17:03:02.
