data_PCOD9342930
_publ_section_title
;
Structure prediction by ZEFSAII (Michael W. Deem and Ramdas Pophale) SiO2 
 PCOD9342930
Probable space group: P M N 21
;
_chemical_formula_sum "Si O2"
_cell_formula_units_Z 24
_cell_length_a 8.290313
_cell_length_b 27.458429
_cell_length_c 5.278971
_cell_angle_alpha 90.000000
_cell_angle_beta 90.000000
_cell_angle_gamma 90.000000
_cell_volume 1201.699526
_symmetry_space_group_name_H-M "P M N 21"
_symmetry_group_IT_number 31
_symmetry_cell_setting 'orthorhombic'
loop_
_space_group_symop_operation_xyz
x,y,z
1/2-x,-y,1/2+z
-x,y,z
1/2+x,-y,1/2+z
loop_
_atom_site_type_symbol
_atom_site_label
_atom_site_fract_x
_atom_site_fract_y
_atom_site_fract_z
Si Si1 0.802877 0.139286 0.204380
Si Si2 0.195521 0.635266 0.725018
Si Si3 0.305315 0.307389 0.724399
Si Si4 0.807968 0.027226 0.164924
Si Si5 0.694837 0.803609 0.203607
Si Si6 0.188654 0.473989 0.128122
O O1 0.751637 0.083152 0.191255
O O2 0.748705 0.166689 0.457692
O O3 0.000000 0.139108 0.207114
O O4 0.750245 0.169199 0.957945
O O5 0.247775 0.668282 0.487489
O O6 0.258208 0.580828 0.690699
O O7 0.000000 0.633442 0.726213
O O8 0.249257 0.660097 0.986562
O O9 0.500000 0.307407 0.723055
O O10 0.248597 0.252128 0.698914
O O11 0.000000 0.027877 0.123272
O O12 0.770362 0.998798 0.423446
O O13 0.500000 0.804473 0.202824
O O14 0.223518 0.506153 0.377432
O O15 0.000000 0.475617 0.072045
#
# Coordination Sequence:
#
# PCOD9342930 Si02
#       6
#     4   4   4   4   4   4
#     4   9  19  35  55  78 108 147 186 231 288 346
#     4  10  21  38  58  81 114 154 192 232 288 351
#     4  10  21  36  55  81 114 149 184 233 294 343
#     4  11  22  39  61  86 118 155 198 245 298 356
#     4  10  19  34  56  79 104 142 190 232 278 343
#     4  12  25  42  65  93 124 159 202 249 298 351
#
# _framework density 19.971717000000002
#
# number of rings (size 3 to 8) (size 9 to 14) (size 15 to 20)
#    0.000    1.667    0.000    5.000    0.000    5.333 
#    0.000    5.000    0.000    0.000    0.000    0.000 
#    0.000    0.000    0.000    0.000    0.000    0.000 
#
# Total GULP energy -134197.308552 kJ/mol
# GULP energy per Si atom -5591.554523 kJ/mol
# Density = 1.992626 g / cm^3
# Si number density = 19.971717 Si / 1000 Ang^3
#
#
#
# Elastic Constant Matrix: (Units=GPa)
#
#
# Indices 1 2 3 4 5 6 
#
# 1 13.1692 1.5170 -2.8648 0.0000 0.0000 0.0000
# 2 1.5170 84.7293 -4.5584 0.0000 0.0000 0.0000
# 3 -2.8648 -4.5584 85.3744 0.0000 0.0000 0.0000
# 4 0.0000 0.0000 0.0000 44.7859 0.0000 0.0000
# 5 0.0000 0.0000 0.0000 0.0000 13.6664 0.0000
# 6 0.0000 0.0000 0.0000 0.0000 0.0000 58.1004
#
#
#
# Elastic Compliance Matrix: (Units=1/GPa)
#
#
# Indices 1 2 3 4 5 6 
#
# 1 0.076622 -0.001237 0.002505 0.000000 0.000000 0.000000
# 2 -0.001237 0.011856 0.000592 0.000000 0.000000 0.000000
# 3 0.002505 0.000592 0.011829 0.000000 0.000000 0.000000
# 4 0.000000 0.000000 0.000000 0.022328 0.000000 0.000000
# 5 0.000000 0.000000 0.000000 0.000000 0.073172 0.000000
# 6 0.000000 0.000000 0.000000 0.000000 0.000000 0.017212
#
#
# Mechanical properties :
#
#
# Convention : Reuss Voigt Hill
#
# Bulk Modulus (GPa) = 9.61296 19.05116 14.33206
# Shear Modulus (GPa) = 20.49384 35.92247 28.20816
#
# Velocity S-wave (km/s) = 3.20682 4.24567 3.76228
# Velocity P-wave (km/s) = 4.30527 5.79604 5.10536
#
# Compressibility (1/GPa) = 0.10402621
#
# Stress axis : x y z
#
# Youngs Moduli (GPa) = 13.05107 84.34357 84.53977
#
# Poissons Ratio (x) = 0.10434 -0.21178
# Poissons Ratio (y) = 0.01614 -0.05001
# Poissons Ratio (z) = -0.03269 -0.04989
#
# Static dielectric constant tensor:
#      x y z
#    x 1.694620 0.000000 0.000000 
#    y 0.000000 1.655360 0.000000 
#    z 0.000000 0.000000 1.677250 
# 
# From -- ./inp_files/150.got.cif
#   From: 2010.05.17/outbox.cif.g08.bks.cpg/sg31_1_cif.got.tgz:150.got - 2010.06.03 17:08:30.
