data_PCOD9342418
_publ_section_title
;
Structure prediction by ZEFSAII (Michael W. Deem and Ramdas Pophale) SiO2 
 PCOD9342418
Probable space group: P N C 2
;
_chemical_formula_sum "Si O2"
_cell_formula_units_Z 22
_cell_length_a 8.777922
_cell_length_b 8.912193
_cell_length_c 11.791585
_cell_angle_alpha 90.000000
_cell_angle_beta 90.000000
_cell_angle_gamma 90.000000
_cell_volume 922.462003
_symmetry_space_group_name_H-M "P N C 2"
_symmetry_group_IT_number 30
_symmetry_cell_setting 'orthorhombic'
loop_
_space_group_symop_operation_xyz
x,y,z
-x,-y,z
-x,1/2+y,1/2+z
x,1/2-y,1/2+z
loop_
_atom_site_type_symbol
_atom_site_label
_atom_site_fract_x
_atom_site_fract_y
_atom_site_fract_z
Si Si1 0.310018 0.305942 0.233070
Si Si2 0.667075 0.544371 0.475395
Si Si3 0.901957 0.804302 0.545119
Si Si4 0.500000 0.500000 0.068650
Si Si5 0.835273 0.519558 0.806824
Si Si6 0.237772 0.793756 0.463005
O O1 0.353220 0.378241 0.352564
O O2 0.153346 0.357420 0.169576
O O3 0.429435 0.368062 0.144014
O O4 0.287641 0.128455 0.252139
O O5 0.500000 0.500000 0.526626
O O6 0.797633 0.654022 0.528217
O O7 0.731043 0.379872 0.460022
O O8 0.863465 0.901216 0.431065
O O9 0.083449 0.801348 0.537223
O O10 0.628527 0.406314 0.002736
O O11 0.787317 0.352286 0.835149
O O12 0.000000 0.500000 0.748454
#
# Coordination Sequence:
#
# PCOD9342418 Si02
#       6
#     4   4   4   2   4   4
#     4  11  23  44  69  99 141 175 233 285 349 424
#     4  11  24  45  70 102 143 179 230 291 352 424
#     4  10  22  47  67  96 139 182 227 287 346 417
#     4  12  24  42  72 102 136 192 232 286 362 416
#     4   9  21  43  66  96 131 175 228 285 340 404
#     4  11  24  45  71  95 138 188 232 290 355 410
#
# _framework density 23.849222999999999
#
# number of rings (size 3 to 8) (size 9 to 14) (size 15 to 20)
#    0.000    1.455    2.727    1.636    2.545    1.455 
#   22.909    1.818    0.000    0.000    0.000    0.000 
#    0.000    0.000    0.000    0.000    0.000    0.000 
#
# Total GULP energy -122564.435029 kJ/mol
# GULP energy per Si atom -5571.110683 kJ/mol
# Density = 2.379494 g / cm^3
# Si number density = 23.849223 Si / 1000 Ang^3
#
#
#
# Elastic Constant Matrix: (Units=GPa)
#
#
# Indices 1 2 3 4 5 6 
#
# 1 126.9430 65.4182 7.9992 0.0000 0.0000 0.0000
# 2 65.4182 127.7236 7.1730 0.0000 0.0000 0.0000
# 3 7.9992 7.1730 23.8012 0.0000 0.0000 0.0000
# 4 0.0000 0.0000 0.0000 7.3155 0.0000 0.0000
# 5 0.0000 0.0000 0.0000 0.0000 17.1718 0.0000
# 6 0.0000 0.0000 0.0000 0.0000 0.0000 34.3822
#
#
#
# Elastic Compliance Matrix: (Units=1/GPa)
#
#
# Indices 1 2 3 4 5 6 
#
# 1 0.010795 -0.005417 -0.001995 0.000000 0.000000 0.000000
# 2 -0.005417 0.010682 -0.001399 0.000000 0.000000 0.000000
# 3 -0.001995 -0.001399 0.043107 0.000000 0.000000 0.000000
# 4 0.000000 0.000000 0.000000 0.136696 0.000000 0.000000
# 5 0.000000 0.000000 0.000000 0.000000 0.058235 0.000000
# 6 0.000000 0.000000 0.000000 0.000000 0.000000 0.029085
#
#
# Mechanical properties :
#
#
# Convention : Reuss Voigt Hill
#
# Bulk Modulus (GPa) = 21.29395 48.84984 35.07189
# Shear Modulus (GPa) = 15.53393 24.96573 20.24983
#
# Velocity S-wave (km/s) = 2.55490 3.23896 2.91705
# Velocity P-wave (km/s) = 4.20135 5.87495 5.10717
#
# Compressibility (1/GPa) = 0.04696170
#
# Stress axis : x y z
#
# Youngs Moduli (GPa) = 92.63713 93.61174 23.19816
#
# Poissons Ratio (x) = 0.50708 0.04629
# Poissons Ratio (y) = 0.50180 0.03245
# Poissons Ratio (z) = 0.18485 0.13095
#
# Static dielectric constant tensor:
#      x y z
#    x 2.015370 0.000000 0.000000 
#    y 0.000000 1.943780 0.000000 
#    z 0.000000 0.000000 1.977410 
# 
# From -- ./inp_files/5012.got.cif
#   From: 2010.05.17/outbox.cif.g08.bks.cpg/sg30_3_cif.got.tgz:5012.got - 2010.06.03 17:03:02.
