data_PCOD9342122
_publ_section_title
;
Structure prediction by ZEFSAII (Michael W. Deem and Ramdas Pophale) SiO2 
 PCOD9342122
Probable space group: P N C 2
;
_chemical_formula_sum "Si O2"
_cell_formula_units_Z 32
_cell_length_a 13.063119
_cell_length_b 18.551204
_cell_length_c 5.452005
_cell_angle_alpha 90.000000
_cell_angle_beta 90.000000
_cell_angle_gamma 90.000000
_cell_volume 1321.220276
_symmetry_space_group_name_H-M "P N C 2"
_symmetry_group_IT_number 30
_symmetry_cell_setting 'orthorhombic'
loop_
_space_group_symop_operation_xyz
x,y,z
-x,-y,z
-x,1/2+y,1/2+z
x,1/2-y,1/2+z
loop_
_atom_site_type_symbol
_atom_site_label
_atom_site_fract_x
_atom_site_fract_y
_atom_site_fract_z
Si Si1 0.581513 0.567083 0.381810
Si Si2 0.620333 0.521464 0.875346
Si Si3 0.237850 0.899326 0.423180
Si Si4 0.918802 0.932045 0.207534
Si Si5 0.877447 0.513812 0.207777
Si Si6 0.932307 0.201687 0.202960
Si Si7 0.379945 0.719228 0.896562
Si Si8 0.603158 0.769423 0.836290
O O1 0.500000 0.500000 0.403282
O O2 0.623926 0.576635 0.655027
O O3 0.556719 0.649763 0.318502
O O4 0.649854 0.543013 0.150941
O O5 0.500000 0.500000 0.900593
O O6 0.696086 0.459218 0.785590
O O7 0.162985 0.852134 0.256853
O O8 0.329250 0.849922 0.518613
O O9 0.173955 0.937727 0.637879
O O10 0.862034 0.937424 0.466701
O O11 0.974687 0.855446 0.191047
O O12 0.853684 0.949137 0.965381
O O13 0.000000 0.000000 0.220360
O O14 0.000000 0.500000 0.223093
O O15 0.930735 0.253484 0.446714
O O16 0.348095 0.724296 0.609785
O O17 0.501440 0.720480 0.869324
O O18 0.660420 0.746468 0.590198
#
# Coordination Sequence:
#
# PCOD9342122 Si02
#       8
#     4   4   4   4   4   4   4   4
#     4  10  22  39  61  85 129 177 242 280 324 408
#     4  10  25  39  63  88 138 183 237 289 332 403
#     4  12  25  43  67 105 145 184 228 293 361 432
#     4  10  20  42  67  92 137 186 231 264 334 436
#     4  10  21  39  68  92 129 184 231 276 328 428
#     4  12  26  42  66 110 154 179 221 291 370 453
#     4  10  24  36  57  90 140 178 208 256 361 441
#     4  10  21  36  63  88 122 177 224 269 356 417
#
# _framework density 24.220034999999999
#
# number of rings (size 3 to 8) (size 9 to 14) (size 15 to 20)
#    0.000    1.500    2.500    2.250   15.750    3.000 
#    0.000    0.000    0.000    0.000    0.000   17.500 
#    0.000    0.000    0.000    0.000    0.000    0.000 
#
# Total GULP energy -178311.721438 kJ/mol
# GULP energy per Si atom -5572.241295 kJ/mol
# Density = 2.416491 g / cm^3
# Si number density = 24.220035 Si / 1000 Ang^3
#
#
#
# Elastic Constant Matrix: (Units=GPa)
#
#
# Indices 1 2 3 4 5 6 
#
# 1 40.2965 17.9432 11.2618 0.0000 0.0000 0.0000
# 2 17.9432 99.4385 26.8261 0.0000 0.0000 0.0000
# 3 11.2618 26.8261 189.9543 0.0000 0.0000 0.0000
# 4 0.0000 0.0000 0.0000 22.7391 0.0000 0.0000
# 5 0.0000 0.0000 0.0000 0.0000 1.2192 0.0000
# 6 0.0000 0.0000 0.0000 0.0000 0.0000 4.1730
#
#
#
# Elastic Compliance Matrix: (Units=1/GPa)
#
#
# Indices 1 2 3 4 5 6 
#
# 1 0.027149 -0.004642 -0.000954 0.000000 0.000000 0.000000
# 2 -0.004642 0.011248 -0.001313 0.000000 0.000000 0.000000
# 3 -0.000954 -0.001313 0.005506 0.000000 0.000000 0.000000
# 4 0.000000 0.000000 0.000000 0.043977 0.000000 0.000000
# 5 0.000000 0.000000 0.000000 0.000000 0.820201 0.000000
# 6 0.000000 0.000000 0.000000 0.000000 0.000000 0.239636
#
#
# Mechanical properties :
#
#
# Convention : Reuss Voigt Hill
#
# Bulk Modulus (GPa) = 33.23786 49.08351 41.16068
# Shear Modulus (GPa) = 4.26780 23.87014 14.06897
#
# Velocity S-wave (km/s) = 1.32888 3.14276 2.41276
# Velocity P-wave (km/s) = 4.01343 5.78610 4.97928
#
# Compressibility (1/GPa) = 0.03008617
#
# Stress axis : x y z
#
# Youngs Moduli (GPa) = 36.83310 88.90207 181.60465
#
# Poissons Ratio (x) = 0.41265 0.17327
# Poissons Ratio (y) = 0.17096 0.23851
# Poissons Ratio (z) = 0.03514 0.11676
#
# Static dielectric constant tensor:
#      x y z
#    x 1.995820 0.000000 0.000000 
#    y 0.000000 2.237720 0.000000 
#    z 0.000000 0.000000 2.074350 
# 
# From -- ./inp_files/962.got.cif
#   From: 2010.05.17/outbox.cif.g08.bks.cpg/sg30_1_cif.got.tgz:962.got - 2010.06.03 17:03:02.
