data_PCOD9342838
_publ_section_title
;
Structure prediction by ZEFSAII (Michael W. Deem and Ramdas Pophale) SiO2 
 PCOD9342838
Probable space group: P M N 21
;
_chemical_formula_sum "Si O2"
_cell_formula_units_Z 32
_cell_length_a 9.276598
_cell_length_b 7.671291
_cell_length_c 18.879350
_cell_angle_alpha 90.000000
_cell_angle_beta 90.000000
_cell_angle_gamma 90.000000
_cell_volume 1343.520298
_symmetry_space_group_name_H-M "P M N 21"
_symmetry_group_IT_number 31
_symmetry_cell_setting 'orthorhombic'
loop_
_space_group_symop_operation_xyz
x,y,z
1/2-x,-y,1/2+z
-x,y,z
1/2+x,-y,1/2+z
loop_
_atom_site_type_symbol
_atom_site_label
_atom_site_fract_x
_atom_site_fract_y
_atom_site_fract_z
Si Si1 0.162682 0.335835 0.629860
Si Si2 0.335996 0.035058 0.213878
Si Si3 0.663949 0.165915 0.510020
Si Si4 0.830065 0.637937 0.463971
Si Si5 0.666325 0.794921 0.589652
Si Si6 0.669749 0.341622 0.374859
Si Si7 0.835987 0.493685 0.250036
Si Si8 0.661577 0.132426 0.833006
O O1 0.159762 0.151218 0.672430
O O2 0.226559 0.283733 0.554332
O O3 0.262859 0.462309 0.675585
O O4 0.000000 0.401676 0.626052
O O5 0.500000 0.101668 0.217339
O O6 0.232952 0.154249 0.165585
O O7 0.274510 0.984732 0.290691
O O8 0.500000 0.234590 0.519198
O O9 0.665352 0.976915 0.545279
O O10 0.695194 0.177639 0.426553
O O11 0.732882 0.496691 0.423868
O O12 0.816728 0.809778 0.413984
O O13 0.000000 0.591152 0.463750
O O14 0.769191 0.675676 0.541672
O O15 0.500000 0.735417 0.593056
O O16 0.500000 0.362835 0.363381
O O17 0.748544 0.364088 0.300447
O O18 0.837490 0.680273 0.291658
O O19 0.000000 0.437057 0.242912
O O20 0.500000 0.057782 0.825250
#
# Coordination Sequence:
#
# PCOD9342838 Si02
#       8
#     4   4   4   4   4   4   4   4
#     4   9  16  26  44  69  94 122 158 199 239 280
#     4   9  16  26  43  68  94 119 153 197 238 278
#     4   9  19  33  49  71  99 129 160 197 240 285
#     4  10  20  33  49  72 100 128 160 198 240 286
#     4  10  19  32  50  71  97 129 161 195 238 285
#     4  10  19  32  50  72  98 128 162 199 240 287
#     4   9  16  27  44  67  95 124 156 198 242 281
#     4   8  15  27  43  64  91 121 152 191 237 280
#
# _framework density 23.818024000000001
#
# number of rings (size 3 to 8) (size 9 to 14) (size 15 to 20)
#    0.000    2.750    0.000    3.000    0.000    8.000 
#    0.000    0.000    0.000    1.500    0.000    3.500 
#    0.000    0.000    0.000    0.000    0.000    0.000 
#
# Total GULP energy -179055.242383 kJ/mol
# GULP energy per Si atom -5595.476324 kJ/mol
# Density = 2.376381 g / cm^3
# Si number density = 23.818024 Si / 1000 Ang^3
#
#
#
# Elastic Constant Matrix: (Units=GPa)
#
#
# Indices 1 2 3 4 5 6 
#
# 1 129.6160 28.0425 63.6760 0.0000 0.0000 0.0000
# 2 28.0425 65.3060 12.5386 0.0000 0.0000 0.0000
# 3 63.6760 12.5386 168.8274 0.0000 0.0000 0.0000
# 4 0.0000 0.0000 0.0000 45.4819 0.0000 0.0000
# 5 0.0000 0.0000 0.0000 0.0000 32.3117 0.0000
# 6 0.0000 0.0000 0.0000 0.0000 0.0000 4.6197
#
#
#
# Elastic Compliance Matrix: (Units=1/GPa)
#
#
# Indices 1 2 3 4 5 6 
#
# 1 0.010293 -0.003727 -0.003605 0.000000 0.000000 0.000000
# 2 -0.003727 0.016884 0.000152 0.000000 0.000000 0.000000
# 3 -0.003605 0.000152 0.007272 0.000000 0.000000 0.000000
# 4 0.000000 0.000000 0.000000 0.021987 0.000000 0.000000
# 5 0.000000 0.000000 0.000000 0.000000 0.030949 0.000000
# 6 0.000000 0.000000 0.000000 0.000000 0.000000 0.216464
#
#
# Mechanical properties :
#
#
# Convention : Reuss Voigt Hill
#
# Bulk Modulus (GPa) = 49.78405 63.58485 56.68445
# Shear Modulus (GPa) = 15.38910 33.78215 24.58563
#
# Velocity S-wave (km/s) = 2.54463 3.77018 3.21632
# Velocity P-wave (km/s) = 5.43882 6.76065 6.13543
#
# Compressibility (1/GPa) = 0.02008676
#
# Stress axis : x y z
#
# Youngs Moduli (GPa) = 97.15673 59.22792 137.51969
#
# Poissons Ratio (x) = 0.22077 0.49579
# Poissons Ratio (y) = 0.36215 -0.02089
# Poissons Ratio (z) = 0.35027 -0.00900
#
# Static dielectric constant tensor:
#      x y z
#    x 1.821840 0.000000 0.000000 
#    y 0.000000 1.952240 0.000000 
#    z 0.000000 0.000000 1.887190 
# 
# From -- ./inp_files/5849.got.cif
#   From: 2010.05.17/outbox.cif.g08.bks.cpg/sg31_3_cif.got.tgz:5849.got - 2010.06.03 17:08:30.
