data_PCOD9342901
_publ_section_title
;
Structure prediction by ZEFSAII (Michael W. Deem and Ramdas Pophale) SiO2 
 PCOD9342901
Probable space group: P M N 21
;
_chemical_formula_sum "Si O2"
_cell_formula_units_Z 24
_cell_length_a 8.074911
_cell_length_b 10.030943
_cell_length_c 11.879509
_cell_angle_alpha 90.000000
_cell_angle_beta 90.000000
_cell_angle_gamma 90.000000
_cell_volume 962.228017
_symmetry_space_group_name_H-M "P M N 21"
_symmetry_group_IT_number 31
_symmetry_cell_setting 'orthorhombic'
loop_
_space_group_symop_operation_xyz
x,y,z
1/2-x,-y,1/2+z
-x,y,z
1/2+x,-y,1/2+z
loop_
_atom_site_type_symbol
_atom_site_label
_atom_site_fract_x
_atom_site_fract_y
_atom_site_fract_z
Si Si1 0.300119 0.280599 0.099010
Si Si2 0.314633 0.367064 0.405584
Si Si3 0.310086 0.580313 0.134848
Si Si4 0.697055 0.929114 0.917886
Si Si5 0.199998 0.001544 0.678257
Si Si6 0.309224 0.344969 0.856292
O O1 0.500000 0.269726 0.091701
O O2 0.268817 0.424026 0.153722
O O3 0.239583 0.150783 0.159692
O O4 0.239530 0.284367 0.970542
O O5 0.500000 0.388299 0.359704
O O6 0.314151 0.373406 0.540505
O O7 0.253360 0.219350 0.382854
O O8 0.202865 0.494765 0.376831
O O9 0.500000 0.587590 0.095051
O O10 0.291482 0.672217 0.242997
O O11 0.500000 0.939631 0.922884
O O12 0.748669 0.024784 0.810884
O O13 0.751227 0.943317 0.051635
O O14 0.000000 0.011933 0.679479
O O15 0.500000 0.307267 0.840471
#
# Coordination Sequence:
#
# PCOD9342901 Si02
#       6
#     4   4   4   4   4   4
#     4   8  17  34  55  79 110 149 190 236 292 358
#     4  11  22  37  57  81 115 160 205 248 300 357
#     4  10  19  33  55  85 119 152 192 242 298 365
#     4  11  24  41  63  92 124 159 205 259 309 366
#     4  10  22  42  65  88 119 160 204 251 309 373
#     4  10  19  33  55  85 119 152 192 244 304 367
#
# _framework density 24.942112999999999
#
# number of rings (size 3 to 8) (size 9 to 14) (size 15 to 20)
#    0.000    2.000    0.000    5.000    0.000    4.000 
#    0.000    5.833    0.000    0.000    0.000    0.000 
#    0.000    0.000    0.000    0.000    0.000    0.000 
#
# Total GULP energy -133825.889332 kJ/mol
# GULP energy per Si atom -5576.078722 kJ/mol
# Density = 2.488534 g / cm^3
# Si number density = 24.942113 Si / 1000 Ang^3
#
#
#
# Elastic Constant Matrix: (Units=GPa)
#
#
# Indices 1 2 3 4 5 6 
#
# 1 53.4427 -3.5824 11.9192 0.0000 0.0000 0.0000
# 2 -3.5824 40.0674 -27.0575 0.0000 0.0000 0.0000
# 3 11.9192 -27.0575 73.9527 0.0000 0.0000 0.0000
# 4 0.0000 0.0000 0.0000 19.0208 0.0000 0.0000
# 5 0.0000 0.0000 0.0000 0.0000 38.9043 0.0000
# 6 0.0000 0.0000 0.0000 0.0000 0.0000 12.1419
#
#
#
# Elastic Compliance Matrix: (Units=1/GPa)
#
#
# Indices 1 2 3 4 5 6 
#
# 1 0.019417 -0.000501 -0.003313 0.000000 0.000000 0.000000
# 2 -0.000501 0.033161 0.012214 0.000000 0.000000 0.000000
# 3 -0.003313 0.012214 0.018525 0.000000 0.000000 0.000000
# 4 0.000000 0.000000 0.000000 0.052574 0.000000 0.000000
# 5 0.000000 0.000000 0.000000 0.000000 0.025704 0.000000
# 6 0.000000 0.000000 0.000000 0.000000 0.000000 0.082360
#
#
# Mechanical properties :
#
#
# Convention : Reuss Voigt Hill
#
# Bulk Modulus (GPa) = 11.37634 14.44684 12.91159
# Shear Modulus (GPa) = 20.47151 26.42561 23.44856
#
# Velocity S-wave (km/s) = 2.86800 3.25849 3.06946
# Velocity P-wave (km/s) = 3.94186 4.46786 4.21307
#
# Compressibility (1/GPa) = 0.08790177
#
# Stress axis : x y z
#
# Youngs Moduli (GPa) = 51.50158 30.15593 53.98192
#
# Poissons Ratio (x) = 0.01511 0.17883
# Poissons Ratio (y) = 0.02581 -0.65931
# Poissons Ratio (z) = 0.17062 -0.36831
#
# Static dielectric constant tensor:
#      x y z
#    x 1.855960 0.000000 0.000000 
#    y 0.000000 2.025730 0.000000 
#    z 0.000000 0.000000 2.131650 
# 
# From -- ./inp_files/3473.got.cif
#   From: 2010.05.17/outbox.cif.g08.bks.cpg/sg31_2_cif.got.tgz:3473.got - 2010.06.03 17:08:30.
