data_PCOD9342460
_publ_section_title
;
Structure prediction by ZEFSAII (Michael W. Deem and Ramdas Pophale) SiO2 
 PCOD9342460
Probable space group: P N C 2
;
_chemical_formula_sum "Si O2"
_cell_formula_units_Z 20
_cell_length_a 12.549849
_cell_length_b 7.605394
_cell_length_c 9.126717
_cell_angle_alpha 90.000000
_cell_angle_beta 90.000000
_cell_angle_gamma 90.000000
_cell_volume 871.113617
_symmetry_space_group_name_H-M "P N C 2"
_symmetry_group_IT_number 30
_symmetry_cell_setting 'orthorhombic'
loop_
_space_group_symop_operation_xyz
x,y,z
-x,-y,z
-x,1/2+y,1/2+z
x,1/2-y,1/2+z
loop_
_atom_site_type_symbol
_atom_site_label
_atom_site_fract_x
_atom_site_fract_y
_atom_site_fract_z
Si Si1 0.319913 0.800927 0.052300
Si Si2 0.784133 0.764938 0.400393
Si Si3 0.653108 0.903796 0.658793
Si Si4 0.539116 0.178106 0.296068
Si Si5 0.875529 0.528279 0.636567
O O1 0.335353 0.605153 0.113869
O O2 0.392087 0.910081 0.165256
O O3 0.200850 0.875658 0.068429
O O4 0.381739 0.789049 0.899544
O O5 0.686233 0.807155 0.508147
O O6 0.743330 0.627424 0.281205
O O7 0.866597 0.683415 0.515262
O O8 0.826769 0.920173 0.296007
O O9 0.549390 0.808250 0.727221
O O10 0.500000 0.000000 0.377871
O O11 0.000000 0.500000 0.656764
#
# Coordination Sequence:
#
# PCOD9342460 Si02
#       5
#     4   4   4   4   4
#     4  12  25  41  65  98 135 183 239 287 348 426
#     4  10  23  44  69  97 138 184 233 292 360 432
#     4  11  22  42  68 102 144 188 236 292 352 428
#     4  12  24  40  65 101 146 190 228 280 354 430
#     4  11  26  47  72 102 137 183 240 305 363 420
#
# _framework density 22.959118
#
# number of rings (size 3 to 8) (size 9 to 14) (size 15 to 20)
#    0.000    0.800    0.000    9.000    0.000    6.400 
#    0.000    4.000    0.000    0.000    0.000    0.000 
#    0.000    0.000    0.000    0.000    0.000    0.000 
#
# Total GULP energy -111639.684187 kJ/mol
# GULP energy per Si atom -5581.984209 kJ/mol
# Density = 2.290686 g / cm^3
# Si number density = 22.959118 Si / 1000 Ang^3
#
#
#
# Elastic Constant Matrix: (Units=GPa)
#
#
# Indices 1 2 3 4 5 6 
#
# 1 159.2050 55.1791 61.0887 0.0000 0.0000 0.0000
# 2 55.1791 98.8118 33.1260 0.0000 0.0000 0.0000
# 3 61.0887 33.1260 169.3610 0.0000 0.0000 0.0000
# 4 0.0000 0.0000 0.0000 28.5295 0.0000 0.0000
# 5 0.0000 0.0000 0.0000 0.0000 28.7717 0.0000
# 6 0.0000 0.0000 0.0000 0.0000 0.0000 29.2033
#
#
#
# Elastic Compliance Matrix: (Units=1/GPa)
#
#
# Indices 1 2 3 4 5 6 
#
# 1 0.008552 -0.004004 -0.002302 0.000000 0.000000 0.000000
# 2 -0.004004 0.012705 -0.001041 0.000000 0.000000 0.000000
# 3 -0.002302 -0.001041 0.006938 0.000000 0.000000 0.000000
# 4 0.000000 0.000000 0.000000 0.035051 0.000000 0.000000
# 5 0.000000 0.000000 0.000000 0.000000 0.034756 0.000000
# 6 0.000000 0.000000 0.000000 0.000000 0.000000 0.034243
#
#
# Mechanical properties :
#
#
# Convention : Reuss Voigt Hill
#
# Bulk Modulus (GPa) = 74.05958 80.68504 77.37231
# Shear Modulus (GPa) = 33.01639 35.83318 34.42478
#
# Velocity S-wave (km/s) = 3.79628 3.95490 3.87640
# Velocity P-wave (km/s) = 7.17933 7.48827 7.33543
#
# Compressibility (1/GPa) = 0.01350264
#
# Stress axis : x y z
#
# Youngs Moduli (GPa) = 116.92954 78.70806 144.12765
#
# Poissons Ratio (x) = 0.31516 0.33172
# Poissons Ratio (y) = 0.46820 0.15000
# Poissons Ratio (z) = 0.26912 0.08192
#
# Static dielectric constant tensor:
#      x y z
#    x 1.935000 0.000000 0.000000 
#    y 0.000000 1.977990 0.000000 
#    z 0.000000 0.000000 1.955500 
# 
# From -- ./inp_files/2273.got.cif
#   From: 2010.05.17/outbox.cif.g08.bks.cpg/sg30_2_cif.got.tgz:2273.got - 2010.06.03 17:03:02.
