data_PCOD9342391
_publ_section_title
;
Structure prediction by ZEFSAII (Michael W. Deem and Ramdas Pophale) SiO2 
 PCOD9342391
Probable space group: P N C 2
;
_chemical_formula_sum "Si O2"
_cell_formula_units_Z 26
_cell_length_a 5.652404
_cell_length_b 21.525989
_cell_length_c 8.212984
_cell_angle_alpha 90.000000
_cell_angle_beta 90.000000
_cell_angle_gamma 90.000000
_cell_volume 999.303218
_symmetry_space_group_name_H-M "P N C 2"
_symmetry_group_IT_number 30
_symmetry_cell_setting 'orthorhombic'
loop_
_space_group_symop_operation_xyz
x,y,z
-x,-y,z
-x,1/2+y,1/2+z
x,1/2-y,1/2+z
loop_
_atom_site_type_symbol
_atom_site_label
_atom_site_fract_x
_atom_site_fract_y
_atom_site_fract_z
Si Si1 0.362433 0.933613 0.431290
Si Si2 0.657949 0.899147 0.120815
Si Si3 0.499171 0.073903 0.776926
Si Si4 0.949814 0.294457 0.675931
Si Si5 0.608809 0.241399 0.418040
Si Si6 0.000000 0.500000 0.724156
Si Si7 0.714683 0.684633 0.170233
O O1 0.518885 0.901367 0.290449
O O2 0.339579 0.909639 0.617437
O O3 0.118968 0.949808 0.342674
O O4 0.500000 0.000000 0.450473
O O5 0.842319 0.841408 0.124675
O O6 0.812432 0.962470 0.117710
O O7 0.487483 0.903324 0.963891
O O8 0.267368 0.112369 0.713412
O O9 0.500000 0.000000 0.787189
O O10 0.057839 0.225773 0.698039
O O11 0.748357 0.285379 0.541963
O O12 0.806639 0.304511 0.842721
O O13 0.486019 0.285568 0.286812
O O14 0.393607 0.203245 0.496907
#
# Coordination Sequence:
#
# PCOD9342391 Si02
#       7
#     4   4   4   4   4   2   4
#     4   9  22  43  65  99 137 183 232 284 358 418
#     4  11  24  43  71 101 143 184 236 298 358 432
#     4  11  24  44  69  99 137 186 238 290 362 434
#     4  11  24  43  69 103 139 184 237 295 360 431
#     4  10  24  42  67 103 137 182 242 280 363 450
#     4  10  22  44  70 100 142 184 236 298 356 424
#     4  11  24  44  69  99 144 187 228 309 364 419
#
# _framework density 26.018128000000001
#
# number of rings (size 3 to 8) (size 9 to 14) (size 15 to 20)
#    0.000    1.538    0.000    4.154    6.462    3.692 
#    0.000   13.846    0.000    0.000    0.000    0.000 
#    0.000    0.000    0.000    0.000    0.000    0.000 
#
# Total GULP energy -145307.590788 kJ/mol
# GULP energy per Si atom -5588.753492 kJ/mol
# Density = 2.595891 g / cm^3
# Si number density = 26.018128 Si / 1000 Ang^3
#
#
#
# Elastic Constant Matrix: (Units=GPa)
#
#
# Indices 1 2 3 4 5 6 
#
# 1 72.7110 20.2192 24.5085 0.0000 0.0000 0.0000
# 2 20.2192 132.4444 34.7440 0.0000 0.0000 0.0000
# 3 24.5085 34.7440 156.6760 0.0000 0.0000 0.0000
# 4 0.0000 0.0000 0.0000 34.9336 0.0000 0.0000
# 5 0.0000 0.0000 0.0000 0.0000 23.1680 0.0000
# 6 0.0000 0.0000 0.0000 0.0000 0.0000 53.2288
#
#
#
# Elastic Compliance Matrix: (Units=1/GPa)
#
#
# Indices 1 2 3 4 5 6 
#
# 1 0.014898 -0.001766 -0.001939 0.000000 0.000000 0.000000
# 2 -0.001766 0.008226 -0.001548 0.000000 0.000000 0.000000
# 3 -0.001939 -0.001548 0.007029 0.000000 0.000000 0.000000
# 4 0.000000 0.000000 0.000000 0.028626 0.000000 0.000000
# 5 0.000000 0.000000 0.000000 0.000000 0.043163 0.000000
# 6 0.000000 0.000000 0.000000 0.000000 0.000000 0.018787
#
#
# Mechanical properties :
#
#
# Convention : Reuss Voigt Hill
#
# Bulk Modulus (GPa) = 50.89643 57.86387 54.38015
# Shear Modulus (GPa) = 36.28910 41.09006 38.68958
#
# Velocity S-wave (km/s) = 3.73870 3.97833 3.86038
# Velocity P-wave (km/s) = 6.18398 6.58718 6.38876
#
# Compressibility (1/GPa) = 0.01964774
#
# Stress axis : x y z
#
# Youngs Moduli (GPa) = 67.12492 121.56627 142.26451
#
# Poissons Ratio (x) = 0.21465 0.27583
# Poissons Ratio (y) = 0.11852 0.22022
# Poissons Ratio (z) = 0.13015 0.18818
#
# Static dielectric constant tensor:
#      x y z
#    x 1.981830 0.000000 0.000000 
#    y 0.000000 2.127670 0.000000 
#    z 0.000000 0.000000 2.087470 
# 
# From -- ./inp_files/1415.got.cif
#   From: 2010.05.17/outbox.cif.g08.bks.cpg/sg30_1_cif.got.tgz:1415.got - 2010.06.03 17:03:02.
