data_PCOD9342059
_publ_section_title
;
Structure prediction by ZEFSAII (Michael W. Deem and Ramdas Pophale) SiO2 
 PCOD9342059
Probable space group: P N C 2
;
_chemical_formula_sum "Si O2"
_cell_formula_units_Z 22
_cell_length_a 7.269831
_cell_length_b 24.091348
_cell_length_c 5.274761
_cell_angle_alpha 90.000000
_cell_angle_beta 90.000000
_cell_angle_gamma 90.000000
_cell_volume 923.821792
_symmetry_space_group_name_H-M "P N C 2"
_symmetry_group_IT_number 30
_symmetry_cell_setting 'orthorhombic'
loop_
_space_group_symop_operation_xyz
x,y,z
-x,-y,z
-x,1/2+y,1/2+z
x,1/2-y,1/2+z
loop_
_atom_site_type_symbol
_atom_site_label
_atom_site_fract_x
_atom_site_fract_y
_atom_site_fract_z
Si Si1 0.409777 0.876769 0.841370
Si Si2 0.721768 0.935206 0.042520
Si Si3 0.000000 0.500000 0.785340
Si Si4 0.011445 0.891499 0.632726
Si Si5 0.393602 0.780741 0.192114
Si Si6 0.304283 0.164300 0.433404
O O1 0.221574 0.883556 0.698031
O O2 0.555664 0.840876 0.672269
O O3 0.529569 0.931551 0.895691
O O4 0.354216 0.842933 0.095519
O O5 0.684135 0.893945 0.278392
O O6 0.813169 0.992689 0.124498
O O7 0.883105 0.907677 0.872274
O O8 0.992616 0.444893 0.950692
O O9 0.907020 0.837793 0.517779
O O10 0.327118 0.756147 0.456735
O O11 0.614344 0.788039 0.252601
#
# Coordination Sequence:
#
# PCOD9342059 Si02
#       6
#     4   4   2   4   4   4
#     4  10  21  40  66  92 129 176 212 273 337 390
#     4   9  20  38  59  87 123 168 211 267 329 383
#     4  10  20  38  58  84 128 164 220 274 318 398
#     4  10  21  40  63  90 124 171 219 273 328 397
#     4  11  21  39  67  96 136 172 218 273 329 399
#     4   9  20  39  63  89 124 168 208 261 336 380
#
# _framework density 23.814118000000001
#
# number of rings (size 3 to 8) (size 9 to 14) (size 15 to 20)
#    0.000    2.182    1.818    0.545    0.000    5.818 
#    0.000   23.636    0.000    0.000    0.000    0.000 
#    0.000    0.000    0.000    0.000    0.000    0.000 
#
# Total GULP energy -122599.741250 kJ/mol
# GULP energy per Si atom -5572.715511 kJ/mol
# Density = 2.375992 g / cm^3
# Si number density = 23.814118 Si / 1000 Ang^3
#
#
#
# Elastic Constant Matrix: (Units=GPa)
#
#
# Indices 1 2 3 4 5 6 
#
# 1 155.7470 22.1838 28.1106 0.0000 0.0000 0.0000
# 2 22.1838 43.4864 17.5317 0.0000 0.0000 0.0000
# 3 28.1106 17.5317 97.5610 0.0000 0.0000 0.0000
# 4 0.0000 0.0000 0.0000 20.0936 0.0000 0.0000
# 5 0.0000 0.0000 0.0000 0.0000 16.1833 0.0000
# 6 0.0000 0.0000 0.0000 0.0000 0.0000 16.1605
#
#
#
# Elastic Compliance Matrix: (Units=1/GPa)
#
#
# Indices 1 2 3 4 5 6 
#
# 1 0.007124 -0.003026 -0.001509 0.000000 0.000000 0.000000
# 2 -0.003026 0.026077 -0.003814 0.000000 0.000000 0.000000
# 3 -0.001509 -0.003814 0.011370 0.000000 0.000000 0.000000
# 4 0.000000 0.000000 0.000000 0.049767 0.000000 0.000000
# 5 0.000000 0.000000 0.000000 0.000000 0.061792 0.000000
# 6 0.000000 0.000000 0.000000 0.000000 0.000000 0.061879
#
#
# Mechanical properties :
#
#
# Convention : Reuss Voigt Hill
#
# Bulk Modulus (GPa) = 35.87667 48.04962 41.96315
# Shear Modulus (GPa) = 20.49194 25.75204 23.12199
#
# Velocity S-wave (km/s) = 2.93660 3.29200 3.11937
# Velocity P-wave (km/s) = 5.15715 5.88816 5.53474
#
# Compressibility (1/GPa) = 0.02787326
#
# Stress axis : x y z
#
# Youngs Moduli (GPa) = 140.37060 38.34795 87.94935
#
# Poissons Ratio (x) = 0.11604 0.13271
# Poissons Ratio (y) = 0.42474 0.33546
# Poissons Ratio (z) = 0.21181 0.14627
#
# Static dielectric constant tensor:
#      x y z
#    x 1.947900 0.000000 0.000000 
#    y 0.000000 1.993350 0.000000 
#    z 0.000000 0.000000 2.033280 
# 
# From -- ./inp_files/237.got.cif
#   From: 2010.05.17/outbox.cif.g08.bks.cpg/sg30_1_cif.got.tgz:237.got - 2010.06.03 17:03:02.
