data_PCOD9342711
_publ_section_title
;
Structure prediction by ZEFSAII (Michael W. Deem and Ramdas Pophale) SiO2 
 PCOD9342711
Probable space group: P M N 21
;
_chemical_formula_sum "Si O2"
_cell_formula_units_Z 32
_cell_length_a 7.651423
_cell_length_b 11.778941
_cell_length_c 17.160569
_cell_angle_alpha 90.000000
_cell_angle_beta 90.000000
_cell_angle_gamma 90.000000
_cell_volume 1546.607609
_symmetry_space_group_name_H-M "P M N 21"
_symmetry_group_IT_number 31
_symmetry_cell_setting 'orthorhombic'
loop_
_space_group_symop_operation_xyz
x,y,z
1/2-x,-y,1/2+z
-x,y,z
1/2+x,-y,1/2+z
loop_
_atom_site_type_symbol
_atom_site_label
_atom_site_fract_x
_atom_site_fract_y
_atom_site_fract_z
Si Si1 0.215400 0.936372 0.819930
Si Si2 0.297711 0.701535 0.202449
Si Si3 0.294541 0.561052 0.055134
Si Si4 0.712122 0.309280 0.022775
Si Si5 0.209642 0.193583 0.857681
Si Si6 0.800881 0.855678 0.652051
Si Si7 0.797908 0.763970 0.948002
Si Si8 0.703474 0.087908 0.602095
O O1 0.273360 0.900448 0.733563
O O2 0.275817 0.834870 0.876231
O O3 0.000000 0.938841 0.822363
O O4 0.272322 0.063244 0.845233
O O5 0.500000 0.667575 0.212461
O O6 0.220353 0.618745 0.135031
O O7 0.221310 0.723443 0.288474
O O8 0.289662 0.826225 0.163159
O O9 0.500000 0.546202 0.070430
O O10 0.224457 0.438835 0.029960
O O11 0.279571 0.649836 0.984143
O O12 0.500000 0.308500 0.025435
O O13 0.779133 0.241822 0.098864
O O14 0.757890 0.245551 0.942679
O O15 0.000000 0.188617 0.847201
O O16 0.000000 0.821049 0.669500
O O17 0.796551 0.968214 0.599686
O O18 0.000000 0.737828 0.930362
O O19 0.790299 0.852016 0.019254
O O20 0.500000 0.072711 0.622696
#
# Coordination Sequence:
#
# PCOD9342711 Si02
#       8
#     4   4   4   4   4   4   4   4
#     4   9  17  32  53  79 107 131 168 217 260 308
#     4   9  17  33  57  79 101 137 180 217 257 311
#     4   9  19  37  55  74 104 138 178 219 257 309
#     4  10  22  37  53  76 108 144 178 219 267 313
#     4  10  19  34  57  82 107 135 174 224 268 315
#     4  10  19  34  53  73 104 143 176 209 257 317
#     4   9  18  32  52  78 102 132 170 213 261 306
#     4  10  18  29  50  79 109 134 164 212 267 313
#
# _framework density 20.690446000000001
#
# number of rings (size 3 to 8) (size 9 to 14) (size 15 to 20)
#    0.000    2.500    1.250    1.125    0.000    3.000 
#    2.250    1.250    0.000    0.000    0.000    0.000 
#    0.000    0.000    0.000    0.000    0.000    0.000 
#
# Total GULP energy -178321.969651 kJ/mol
# GULP energy per Si atom -5572.561552 kJ/mol
# Density = 2.064335 g / cm^3
# Si number density = 20.690446 Si / 1000 Ang^3
#
#
#
# Elastic Constant Matrix: (Units=GPa)
#
#
# Indices 1 2 3 4 5 6 
#
# 1 38.0435 1.8475 11.9741 0.0000 0.0000 0.0000
# 2 1.8475 153.5378 98.6363 0.0000 0.0000 0.0000
# 3 11.9741 98.6363 112.8283 0.0000 0.0000 0.0000
# 4 0.0000 0.0000 0.0000 21.4655 0.0000 0.0000
# 5 0.0000 0.0000 0.0000 0.0000 17.5995 0.0000
# 6 0.0000 0.0000 0.0000 0.0000 0.0000 12.5316
#
#
#
# Elastic Compliance Matrix: (Units=1/GPa)
#
#
# Indices 1 2 3 4 5 6 
#
# 1 0.028036 0.003591 -0.006114 0.000000 0.000000 0.000000
# 2 0.003591 0.015317 -0.013771 0.000000 0.000000 0.000000
# 3 -0.006114 -0.013771 0.021551 0.000000 0.000000 0.000000
# 4 0.000000 0.000000 0.000000 0.046586 0.000000 0.000000
# 5 0.000000 0.000000 0.000000 0.000000 0.056820 0.000000
# 6 0.000000 0.000000 0.000000 0.000000 0.000000 0.079799
#
#
# Mechanical properties :
#
#
# Convention : Reuss Voigt Hill
#
# Bulk Modulus (GPa) = 30.94663 58.81393 44.88028
# Shear Modulus (GPa) = 17.15444 23.11608 20.13526
#
# Velocity S-wave (km/s) = 2.88253 3.34613 3.12295
# Velocity P-wave (km/s) = 5.10569 6.58909 5.89425
#
# Compressibility (1/GPa) = 0.03231369
#
# Stress axis : x y z
#
# Youngs Moduli (GPa) = 35.66863 65.28755 46.40153
#
# Poissons Ratio (x) = -0.23442 0.28372
# Poissons Ratio (y) = -0.12807 0.63901
# Poissons Ratio (z) = 0.21809 0.89909
#
# Static dielectric constant tensor:
#      x y z
#    x 1.809860 0.000000 0.000000 
#    y 0.000000 1.732270 0.000000 
#    z 0.000000 0.000000 1.769260 
# 
# From -- ./inp_files/5874.got.cif
#   From: 2010.05.17/outbox.cif.g08.bks.cpg/sg31_3_cif.got.tgz:5874.got - 2010.06.03 17:08:30.
