data_PCOD9342339
_publ_section_title
;
Structure prediction by ZEFSAII (Michael W. Deem and Ramdas Pophale) SiO2 
 PCOD9342339
Probable space group: P N C 2
;
_chemical_formula_sum "Si O2"
_cell_formula_units_Z 18
_cell_length_a 6.766811
_cell_length_b 17.155287
_cell_length_c 6.395335
_cell_angle_alpha 90.000000
_cell_angle_beta 90.000000
_cell_angle_gamma 90.000000
_cell_volume 742.412599
_symmetry_space_group_name_H-M "P N C 2"
_symmetry_group_IT_number 30
_symmetry_cell_setting 'orthorhombic'
loop_
_space_group_symop_operation_xyz
x,y,z
-x,-y,z
-x,1/2+y,1/2+z
x,1/2-y,1/2+z
loop_
_atom_site_type_symbol
_atom_site_label
_atom_site_fract_x
_atom_site_fract_y
_atom_site_fract_z
Si Si1 0.907720 0.650898 0.790700
Si Si2 0.799328 0.425493 0.045772
Si Si3 0.861814 0.307559 0.416790
Si Si4 0.472757 0.635385 0.670887
Si Si5 0.500000 0.500000 0.334026
O O1 0.995194 0.638705 0.559041
O O2 0.015876 0.730105 0.865910
O O3 0.675730 0.662311 0.773704
O O4 0.983532 0.581538 0.939267
O O5 0.807455 0.354695 0.211611
O O6 0.691092 0.490648 0.185048
O O7 0.656313 0.405576 0.851225
O O8 0.663478 0.299908 0.557363
O O9 0.518092 0.573354 0.488549
#
# Coordination Sequence:
#
# PCOD9342339 Si02
#       5
#     4   4   4   4   2
#     4  11  22  42  65 105 135 178 228 279 356 420
#     4  10  22  44  68  94 136 180 224 290 335 413
#     4  10  22  42  61 101 145 166 224 287 342 424
#     4  10  24  43  70  97 135 189 227 288 352 408
#     4  10  22  48  66  92 136 180 236 282 344 404
#
# _framework density 24.245277000000002
#
# number of rings (size 3 to 8) (size 9 to 14) (size 15 to 20)
#    0.000    1.778    2.222    0.667    0.000    7.111 
#    0.000   26.667    0.000    0.000    0.000    0.000 
#    0.000    0.000    0.000    0.000    0.000    0.000 
#
# Total GULP energy -100577.022453 kJ/mol
# GULP energy per Si atom -5587.612358 kJ/mol
# Density = 2.419009 g / cm^3
# Si number density = 24.245277 Si / 1000 Ang^3
#
#
#
# Elastic Constant Matrix: (Units=GPa)
#
#
# Indices 1 2 3 4 5 6 
#
# 1 167.4067 14.6946 41.2627 0.0000 0.0000 0.0000
# 2 14.6946 46.7467 11.8269 0.0000 0.0000 0.0000
# 3 41.2627 11.8269 135.2989 0.0000 0.0000 0.0000
# 4 0.0000 0.0000 0.0000 45.1423 0.0000 0.0000
# 5 0.0000 0.0000 0.0000 0.0000 36.9634 0.0000
# 6 0.0000 0.0000 0.0000 0.0000 0.0000 22.2214
#
#
#
# Elastic Compliance Matrix: (Units=1/GPa)
#
#
# Indices 1 2 3 4 5 6 
#
# 1 0.006573 -0.001594 -0.001865 0.000000 0.000000 0.000000
# 2 -0.001594 0.022262 -0.001460 0.000000 0.000000 0.000000
# 3 -0.001865 -0.001460 0.008088 0.000000 0.000000 0.000000
# 4 0.000000 0.000000 0.000000 0.022152 0.000000 0.000000
# 5 0.000000 0.000000 0.000000 0.000000 0.027054 0.000000
# 6 0.000000 0.000000 0.000000 0.000000 0.000000 0.045002
#
#
# Mechanical properties :
#
#
# Convention : Reuss Voigt Hill
#
# Bulk Modulus (GPa) = 36.92182 53.89118 45.40650
# Shear Modulus (GPa) = 33.33384 39.64327 36.48855
#
# Velocity S-wave (km/s) = 3.71193 4.04801 3.88361
# Velocity P-wave (km/s) = 5.79938 6.64261 6.23527
#
# Compressibility (1/GPa) = 0.02708426
#
# Stress axis : x y z
#
# Youngs Moduli (GPa) = 152.13337 44.91880 123.64737
#
# Poissons Ratio (x) = 0.07162 0.23064
# Poissons Ratio (y) = 0.24255 0.18050
# Poissons Ratio (z) = 0.28377 0.06557
#
# Static dielectric constant tensor:
#      x y z
#    x 1.954170 0.000000 0.000000 
#    y 0.000000 1.991900 0.000000 
#    z 0.000000 0.000000 1.931510 
# 
# From -- ./inp_files/156.got.cif
#   From: 2010.05.17/outbox.cif.g08.bks.cpg/sg30_1_cif.got.tgz:156.got - 2010.06.03 17:03:02.
