data_PCOD9342394
_publ_section_title
;
Structure prediction by ZEFSAII (Michael W. Deem and Ramdas Pophale) SiO2 
 PCOD9342394
Probable space group: P N C 2
;
_chemical_formula_sum "Si O2"
_cell_formula_units_Z 20
_cell_length_a 5.067015
_cell_length_b 5.960105
_cell_length_c 28.214050
_cell_angle_alpha 90.000000
_cell_angle_beta 90.000000
_cell_angle_gamma 90.000000
_cell_volume 852.062658
_symmetry_space_group_name_H-M "P N C 2"
_symmetry_group_IT_number 30
_symmetry_cell_setting 'orthorhombic'
loop_
_space_group_symop_operation_xyz
x,y,z
-x,-y,z
-x,1/2+y,1/2+z
x,1/2-y,1/2+z
loop_
_atom_site_type_symbol
_atom_site_label
_atom_site_fract_x
_atom_site_fract_y
_atom_site_fract_z
Si Si1 0.247033 0.154801 0.244360
Si Si2 0.242432 0.349426 0.948326
Si Si3 0.500000 0.000000 0.019266
Si Si4 0.353203 0.245896 0.846984
Si Si5 0.000000 0.000000 0.076727
Si Si6 0.741190 0.642938 0.143414
O O1 0.207609 0.263079 0.296092
O O2 0.302050 0.303914 0.198643
O O3 0.500000 0.000000 0.248531
O O4 0.000000 0.000000 0.232758
O O5 0.500000 0.500000 0.942759
O O6 0.184387 0.256135 0.895388
O O7 0.000000 0.500000 0.964543
O O8 0.335825 0.167382 0.985843
O O9 0.245577 0.891011 0.046918
O O10 0.500000 0.500000 0.845985
O O11 0.500000 0.000000 0.849857
O O12 0.182336 0.149211 0.111080
O O13 0.500000 0.500000 0.124364
O O14 0.000000 0.500000 0.141744
#
# Coordination Sequence:
#
# PCOD9342394 Si02
#       6
#     4   4   2   4   2   4
#     4  11  23  43  72 107 151 199 248 311 383 471
#     4  11  24  46  74 108 149 194 255 323 389 475
#     4  12  26  48  76 102 146 204 252 330 406 472
#     4  10  22  44  71 115 156 206 260 317 392 480
#     4  12  28  48  74 108 148 194 262 328 400 474
#     4  12  26  46  75 107 148 197 252 320 388 469
#
# _framework density 23.472452000000001
#
# number of rings (size 3 to 8) (size 9 to 14) (size 15 to 20)
#    0.000    0.800    2.000    4.800    1.400    4.800 
#    0.000    6.000    0.000    0.000    0.000    0.000 
#    0.000    0.000    0.000    0.000    0.000    0.000 
#
# Total GULP energy -111538.972676 kJ/mol
# GULP energy per Si atom -5576.948634 kJ/mol
# Density = 2.341903 g / cm^3
# Si number density = 23.472452 Si / 1000 Ang^3
#
#
#
# Elastic Constant Matrix: (Units=GPa)
#
#
# Indices 1 2 3 4 5 6 
#
# 1 148.4860 51.3772 54.9266 0.0000 0.0000 0.0000
# 2 51.3772 111.1211 46.7029 0.0000 0.0000 0.0000
# 3 54.9266 46.7029 109.4673 0.0000 0.0000 0.0000
# 4 0.0000 0.0000 0.0000 28.2069 0.0000 0.0000
# 5 0.0000 0.0000 0.0000 0.0000 12.4660 0.0000
# 6 0.0000 0.0000 0.0000 0.0000 0.0000 45.9871
#
#
#
# Elastic Compliance Matrix: (Units=1/GPa)
#
#
# Indices 1 2 3 4 5 6 
#
# 1 0.008900 -0.002727 -0.003302 0.000000 0.000000 0.000000
# 2 -0.002727 0.011801 -0.003666 0.000000 0.000000 0.000000
# 3 -0.003302 -0.003666 0.012356 0.000000 0.000000 0.000000
# 4 0.000000 0.000000 0.000000 0.035452 0.000000 0.000000
# 5 0.000000 0.000000 0.000000 0.000000 0.080218 0.000000
# 6 0.000000 0.000000 0.000000 0.000000 0.000000 0.021745
#
#
# Mechanical properties :
#
#
# Convention : Reuss Voigt Hill
#
# Bulk Modulus (GPa) = 73.17491 75.00976 74.09234
# Shear Modulus (GPa) = 25.71766 31.73651 28.72708
#
# Velocity S-wave (km/s) = 3.31366 3.68105 3.50217
# Velocity P-wave (km/s) = 6.77369 7.07762 6.92732
#
# Compressibility (1/GPa) = 0.01366589
#
# Stress axis : x y z
#
# Youngs Moduli (GPa) = 112.36365 84.73868 80.93065
#
# Poissons Ratio (x) = 0.23108 0.26724
# Poissons Ratio (y) = 0.30641 0.29673
# Poissons Ratio (z) = 0.37104 0.31069
#
# Static dielectric constant tensor:
#      x y z
#    x 1.829420 0.000000 0.000000 
#    y 0.000000 1.967300 0.000000 
#    z 0.000000 0.000000 2.408780 
# 
# From -- ./inp_files/7470.got.cif
#   From: 2010.05.17/outbox.cif.g08.bks.cpg/sg30_4_cif.got.tgz:7470.got - 2010.06.03 17:03:02.
