data_PCOD9342710
_publ_section_title
;
Structure prediction by ZEFSAII (Michael W. Deem and Ramdas Pophale) SiO2 
 PCOD9342710
Probable space group: P M N 21
;
_chemical_formula_sum "Si O2"
_cell_formula_units_Z 24
_cell_length_a 14.155735
_cell_length_b 5.636491
_cell_length_c 12.386165
_cell_angle_alpha 90.000000
_cell_angle_beta 90.000000
_cell_angle_gamma 90.000000
_cell_volume 988.275668
_symmetry_space_group_name_H-M "P M N 21"
_symmetry_group_IT_number 31
_symmetry_cell_setting 'orthorhombic'
loop_
_space_group_symop_operation_xyz
x,y,z
1/2-x,-y,1/2+z
-x,y,z
1/2+x,-y,1/2+z
loop_
_atom_site_type_symbol
_atom_site_label
_atom_site_fract_x
_atom_site_fract_y
_atom_site_fract_z
Si Si1 0.612827 0.974907 0.916600
Si Si2 0.310513 0.602748 0.213414
Si Si3 0.606922 0.474596 0.003990
Si Si4 0.886131 0.866619 0.950118
Si Si5 0.613039 0.633547 0.458084
Si Si6 0.752720 0.103613 0.242221
O O1 0.500000 0.970849 0.930176
O O2 0.648900 0.219107 0.971815
O O3 0.649231 0.717494 0.956703
O O4 0.649315 0.980383 0.795050
O O5 0.343989 0.626092 0.337179
O O6 0.240235 0.376459 0.204476
O O7 0.281783 0.869536 0.179065
O O8 0.390822 0.513081 0.131759
O O9 0.500000 0.465529 0.963160
O O10 0.862437 0.620055 0.008411
O O11 0.827170 0.875237 0.838493
O O12 0.000000 0.865753 0.928467
O O13 0.862741 0.113122 0.009393
O O14 0.500000 0.634919 0.447666
#
# Coordination Sequence:
#
# PCOD9342710 Si02
#       6
#     4   4   4   4   4   4
#     4  10  21  36  52  74 108 147 180 212 260 320
#     4  10  18  29  48  74 100 127 168 215 260 309
#     4  10  20  34  53  78 110 142 170 214 276 331
#     4   8  14  23  37  60  88 116 147 190 243 289
#     4   8  13  21  34  56  88 117 140 177 230 288
#     4  10  19  31  49  74 102 135 175 216 257 307
#
# _framework density 24.284721999999999
#
# number of rings (size 3 to 8) (size 9 to 14) (size 15 to 20)
#    0.000    2.667    0.000    2.500    0.000    1.333 
#    0.000    5.000    0.000    0.000    0.000    7.000 
#    0.000    0.000    0.000    0.000    0.000    0.000 
#
# Total GULP energy -133660.985034 kJ/mol
# GULP energy per Si atom -5569.207710 kJ/mol
# Density = 2.422945 g / cm^3
# Si number density = 24.284722 Si / 1000 Ang^3
#
#
#
# Elastic Constant Matrix: (Units=GPa)
#
#
# Indices 1 2 3 4 5 6 
#
# 1 60.6463 29.0833 16.5508 0.0000 0.0000 0.0000
# 2 29.0833 312.6305 26.6116 0.0000 0.0000 0.0000
# 3 16.5508 26.6116 15.3054 0.0000 0.0000 0.0000
# 4 0.0000 0.0000 0.0000 37.4006 0.0000 0.0000
# 5 0.0000 0.0000 0.0000 0.0000 21.4410 0.0000
# 6 0.0000 0.0000 0.0000 0.0000 0.0000 13.0679
#
#
#
# Elastic Compliance Matrix: (Units=1/GPa)
#
#
# Indices 1 2 3 4 5 6 
#
# 1 0.023393 -0.000027 -0.025249 0.000000 0.000000 0.000000
# 2 -0.000027 0.003754 -0.006499 0.000000 0.000000 0.000000
# 3 -0.025249 -0.006499 0.103939 0.000000 0.000000 0.000000
# 4 0.000000 0.000000 0.000000 0.026738 0.000000 0.000000
# 5 0.000000 0.000000 0.000000 0.000000 0.046640 0.000000
# 6 0.000000 0.000000 0.000000 0.000000 0.000000 0.076524
#
#
# Mechanical properties :
#
#
# Convention : Reuss Voigt Hill
#
# Bulk Modulus (GPa) = 14.80676 59.23040 37.01858
# Shear Modulus (GPa) = 13.62218 35.47101 24.54659
#
# Velocity S-wave (km/s) = 2.37098 3.82597 3.18273
# Velocity P-wave (km/s) = 3.68860 6.63026 5.36498
#
# Compressibility (1/GPa) = 0.06753672
#
# Stress axis : x y z
#
# Youngs Moduli (GPa) = 42.74852 266.35869 9.62101
#
# Poissons Ratio (x) = 0.00717 0.24292
# Poissons Ratio (y) = 0.00115 0.06252
# Poissons Ratio (z) = 1.07937 1.73095
#
# Static dielectric constant tensor:
#      x y z
#    x 1.902580 0.000000 0.000000 
#    y 0.000000 2.053640 0.000000 
#    z 0.000000 0.000000 1.905180 
# 
# From -- ./inp_files/4338.got.cif
#   From: 2010.05.17/outbox.cif.g08.bks.cpg/sg31_3_cif.got.tgz:4338.got - 2010.06.03 17:08:30.
