data_PCOD9342364
_publ_section_title
;
Structure prediction by ZEFSAII (Michael W. Deem and Ramdas Pophale) SiO2 
 PCOD9342364
Probable space group: P N C 2
;
_chemical_formula_sum "Si O2"
_cell_formula_units_Z 24
_cell_length_a 8.490605
_cell_length_b 9.768151
_cell_length_c 11.531529
_cell_angle_alpha 90.000000
_cell_angle_beta 90.000000
_cell_angle_gamma 90.000000
_cell_volume 956.396322
_symmetry_space_group_name_H-M "P N C 2"
_symmetry_group_IT_number 30
_symmetry_cell_setting 'orthorhombic'
loop_
_space_group_symop_operation_xyz
x,y,z
-x,-y,z
-x,1/2+y,1/2+z
x,1/2-y,1/2+z
loop_
_atom_site_type_symbol
_atom_site_label
_atom_site_fract_x
_atom_site_fract_y
_atom_site_fract_z
Si Si1 0.823222 0.162296 0.033450
Si Si2 0.704208 0.739692 0.336092
Si Si3 0.327260 0.526171 0.727144
Si Si4 0.651928 0.331544 0.322570
Si Si5 0.665836 0.064568 0.569507
Si Si6 0.147670 0.305867 0.075897
O O1 0.795208 0.040386 0.122934
O O2 0.683811 0.277731 0.031840
O O3 0.970666 0.250660 0.073962
O O4 0.793077 0.113175 0.903716
O O5 0.533696 0.670294 0.351676
O O6 0.780762 0.708039 0.207473
O O7 0.784427 0.725888 0.462062
O O8 0.689944 0.903646 0.315611
O O9 0.500000 0.500000 0.673878
O O10 0.314797 0.672669 0.788672
O O11 0.661006 0.418676 0.206711
O O12 0.500000 0.000000 0.530355
O O13 0.810250 0.963176 0.544987
#
# Coordination Sequence:
#
# PCOD9342364 Si02
#       6
#     4   4   4   4   4   4
#     4  11  25  43  72 103 147 185 242 308 373 434
#     4  11  25  46  73 102 145 191 244 293 359 449
#     4   9  22  43  69 102 132 184 242 289 355 426
#     4  10  22  42  73 101 136 192 249 296 349 441
#     4  11  22  44  71 103 138 190 250 298 359 441
#     4  12  27  45  71 108 148 188 237 305 379 434
#
# _framework density 25.094199
#
# number of rings (size 3 to 8) (size 9 to 14) (size 15 to 20)
#    0.000    1.333    1.667    2.500    9.333    4.000 
#    0.000    0.000    0.000    0.000    0.000    0.000 
#    0.000    0.000    0.000    0.000    0.000    0.000 
#
# Total GULP energy -133897.796742 kJ/mol
# GULP energy per Si atom -5579.074864 kJ/mol
# Density = 2.503708 g / cm^3
# Si number density = 25.094199 Si / 1000 Ang^3
#
#
#
# Elastic Constant Matrix: (Units=GPa)
#
#
# Indices 1 2 3 4 5 6 
#
# 1 90.5543 17.0857 33.7639 0.0000 0.0000 0.0000
# 2 17.0857 77.3830 10.0271 0.0000 0.0000 0.0000
# 3 33.7639 10.0271 108.9789 0.0000 0.0000 0.0000
# 4 0.0000 0.0000 0.0000 4.0749 0.0000 0.0000
# 5 0.0000 0.0000 0.0000 0.0000 30.6789 0.0000
# 6 0.0000 0.0000 0.0000 0.0000 0.0000 31.2336
#
#
#
# Elastic Compliance Matrix: (Units=1/GPa)
#
#
# Indices 1 2 3 4 5 6 
#
# 1 0.012897 -0.002358 -0.003779 0.000000 0.000000 0.000000
# 2 -0.002358 0.013510 -0.000512 0.000000 0.000000 0.000000
# 3 -0.003779 -0.000512 0.010394 0.000000 0.000000 0.000000
# 4 0.000000 0.000000 0.000000 0.245405 0.000000 0.000000
# 5 0.000000 0.000000 0.000000 0.000000 0.032596 0.000000
# 6 0.000000 0.000000 0.000000 0.000000 0.000000 0.032017
#
#
# Mechanical properties :
#
#
# Convention : Reuss Voigt Hill
#
# Bulk Modulus (GPa) = 42.54906 44.29663 43.42284
# Shear Modulus (GPa) = 13.58878 27.60012 20.59445
#
# Velocity S-wave (km/s) = 2.32956 3.32001 2.86787
# Velocity P-wave (km/s) = 4.92223 5.69097 5.32050
#
# Compressibility (1/GPa) = 0.02350228
#
# Stress axis : x y z
#
# Youngs Moduli (GPa) = 77.53778 74.02058 96.20948
#
# Poissons Ratio (x) = 0.17453 0.36356
# Poissons Ratio (y) = 0.18283 0.04931
# Poissons Ratio (z) = 0.29300 0.03793
#
# Static dielectric constant tensor:
#      x y z
#    x 2.035310 0.000000 0.000000 
#    y 0.000000 2.042080 0.000000 
#    z 0.000000 0.000000 2.144880 
# 
# From -- ./inp_files/3646.got.cif
#   From: 2010.05.17/outbox.cif.g08.bks.cpg/sg30_2_cif.got.tgz:3646.got - 2010.06.03 17:03:02.
