data_PCOD9342006
_publ_section_title
;
Structure prediction by ZEFSAII (Michael W. Deem and Ramdas Pophale) SiO2 
 PCOD9342006
Probable space group: P N C 2
;
_chemical_formula_sum "Si O2"
_cell_formula_units_Z 20
_cell_length_a 5.515260
_cell_length_b 8.029072
_cell_length_c 19.444829
_cell_angle_alpha 90.000000
_cell_angle_beta 90.000000
_cell_angle_gamma 90.000000
_cell_volume 861.064078
_symmetry_space_group_name_H-M "P N C 2"
_symmetry_group_IT_number 30
_symmetry_cell_setting 'orthorhombic'
loop_
_space_group_symop_operation_xyz
x,y,z
-x,-y,z
-x,1/2+y,1/2+z
x,1/2-y,1/2+z
loop_
_atom_site_type_symbol
_atom_site_label
_atom_site_fract_x
_atom_site_fract_y
_atom_site_fract_z
Si Si1 0.000000 0.000000 0.635421
Si Si2 0.365259 0.735602 0.461077
Si Si3 0.820208 0.841519 0.187727
Si Si4 0.500000 0.000000 0.551892
Si Si5 0.500000 0.000000 0.069280
Si Si6 0.616424 0.818987 0.332221
Si Si7 0.000000 0.500000 0.910596
O O1 0.968544 0.826851 0.675831
O O2 0.257396 0.974875 0.596311
O O3 0.318928 0.588403 0.514312
O O4 0.469327 0.701073 0.384757
O O5 0.161536 0.875869 0.455230
O O6 0.563333 0.842726 0.503053
O O7 0.641978 0.797636 0.251416
O O8 0.657936 0.888385 0.121457
O O9 0.000000 0.000000 0.201383
O O10 0.880166 0.859564 0.361631
O O11 0.500000 0.000000 0.343285
#
# Coordination Sequence:
#
# PCOD9342006 Si02
#       7
#     2   4   4   2   2   4   2
#     4  12  29  46  74 112 151 202 256 324 395 470
#     4  11  23  41  74 104 147 197 251 321 383 475
#     4  12  26  47  74 106 152 206 260 329 398 478
#     4  12  22  45  73 104 142 196 254 302 388 465
#     4  12  26  47  71 118 156 190 264 336 398 467
#     4  10  21  41  72 102 141 201 256 306 393 474
#     4  10  19  42  70 100 141 196 252 300 387 464
#
# _framework density 23.227074000000002
#
# number of rings (size 3 to 8) (size 9 to 14) (size 15 to 20)
#    0.000    0.800    7.000    1.800    0.000    1.600 
#    3.600    0.000    0.000    0.000    0.000    0.000 
#    0.000    0.000    0.000    0.000    0.000    0.000 
#
# Total GULP energy -111413.831484 kJ/mol
# GULP energy per Si atom -5570.691574 kJ/mol
# Density = 2.317421 g / cm^3
# Si number density = 23.227074 Si / 1000 Ang^3
#
#
#
# Elastic Constant Matrix: (Units=GPa)
#
#
# Indices 1 2 3 4 5 6 
#
# 1 61.0930 17.3623 40.2883 0.0000 0.0000 0.0000
# 2 17.3623 99.5781 55.3949 0.0000 0.0000 0.0000
# 3 40.2883 55.3949 181.7916 0.0000 0.0000 0.0000
# 4 0.0000 0.0000 0.0000 13.8947 0.0000 0.0000
# 5 0.0000 0.0000 0.0000 0.0000 20.9916 0.0000
# 6 0.0000 0.0000 0.0000 0.0000 0.0000 19.0228
#
#
#
# Elastic Compliance Matrix: (Units=1/GPa)
#
#
# Indices 1 2 3 4 5 6 
#
# 1 0.019286 -0.001186 -0.003913 0.000000 0.000000 0.000000
# 2 -0.001186 0.012165 -0.003444 0.000000 0.000000 0.000000
# 3 -0.003913 -0.003444 0.007417 0.000000 0.000000 0.000000
# 4 0.000000 0.000000 0.000000 0.071970 0.000000 0.000000
# 5 0.000000 0.000000 0.000000 0.000000 0.047638 0.000000
# 6 0.000000 0.000000 0.000000 0.000000 0.000000 0.052569
#
#
# Mechanical properties :
#
#
# Convention : Reuss Voigt Hill
#
# Bulk Modulus (GPa) = 45.90794 63.17264 54.54029
# Shear Modulus (GPa) = 21.24120 26.07628 23.65874
#
# Velocity S-wave (km/s) = 3.02735 3.35426 3.19499
# Velocity P-wave (km/s) = 5.65929 6.50064 6.09450
#
# Compressibility (1/GPa) = 0.02178272
#
# Stress axis : x y z
#
# Youngs Moduli (GPa) = 51.85163 82.20249 134.81844
#
# Poissons Ratio (x) = 0.09750 0.52750
# Poissons Ratio (y) = 0.06150 0.46432
# Poissons Ratio (z) = 0.20288 0.28311
#
# Static dielectric constant tensor:
#      x y z
#    x 2.460830 0.000000 0.000000 
#    y 0.000000 1.965570 0.000000 
#    z 0.000000 0.000000 1.945050 
# 
# From -- ./inp_files/5868.got.cif
#   From: 2010.05.17/outbox.cif.g08.bks.cpg/sg30_3_cif.got.tgz:5868.got - 2010.06.03 17:03:02.
