data_PCOD9342041
_publ_section_title
;
Structure prediction by ZEFSAII (Michael W. Deem and Ramdas Pophale) SiO2 
 PCOD9342041
Probable space group: P N C 2
;
_chemical_formula_sum "Si O2"
_cell_formula_units_Z 32
_cell_length_a 15.463829
_cell_length_b 11.299858
_cell_length_c 9.050273
_cell_angle_alpha 90.000000
_cell_angle_beta 90.000000
_cell_angle_gamma 90.000000
_cell_volume 1581.436304
_symmetry_space_group_name_H-M "P N C 2"
_symmetry_group_IT_number 30
_symmetry_cell_setting 'orthorhombic'
loop_
_space_group_symop_operation_xyz
x,y,z
-x,-y,z
-x,1/2+y,1/2+z
x,1/2-y,1/2+z
loop_
_atom_site_type_symbol
_atom_site_label
_atom_site_fract_x
_atom_site_fract_y
_atom_site_fract_z
Si Si1 0.614571 0.297499 0.333540
Si Si2 0.796001 0.201061 0.438549
Si Si3 0.240337 0.342762 0.934603
Si Si4 0.186381 0.526399 0.486085
Si Si5 0.100750 0.495222 0.781306
Si Si6 0.505846 0.136263 0.116580
Si Si7 0.256893 0.531876 0.181074
Si Si8 0.309741 0.363879 0.613267
O O1 0.697075 0.217273 0.382160
O O2 0.548516 0.220472 0.238005
O O3 0.564724 0.348538 0.473232
O O4 0.657496 0.406221 0.244319
O O5 0.827874 0.334134 0.462105
O O6 0.850864 0.116447 0.331302
O O7 0.793906 0.135364 0.595800
O O8 0.148800 0.392106 0.874438
O O9 0.297205 0.343576 0.786739
O O10 0.273876 0.434777 0.057237
O O11 0.245855 0.218909 0.018083
O O12 0.117995 0.479769 0.605752
O O13 0.201135 0.482348 0.318273
O O14 0.277138 0.495036 0.569601
O O15 0.000000 0.500000 0.813241
O O16 0.407320 0.166886 0.075157
O O17 0.500000 0.000000 0.167592
#
# Coordination Sequence:
#
# PCOD9342041 Si02
#       8
#     4   4   4   4   4   4   4   4
#     4  11  23  40  60  98 132 173 230 282 333 395
#     4  10  20  39  67  93 127 171 215 271 341 395
#     4  10  23  43  68  92 131 182 216 271 342 405
#     4  10  20  38  68  95 126 172 214 267 338 401
#     4  10  23  43  68 100 132 165 221 279 337 416
#     4  12  26  38  62  96 136 178 235 288 324 398
#     4  10  20  36  67  91 123 172 221 266 332 400
#     4  11  23  41  63  91 138 182 225 266 340 393
#
# _framework density 20.234770999999999
#
# number of rings (size 3 to 8) (size 9 to 14) (size 15 to 20)
#    0.000    1.500    1.250    4.500    7.000    1.000 
#    4.500    3.125    0.000    0.000    0.000    0.000 
#    0.000    0.000    0.000    0.000    0.000    0.000 
#
# Total GULP energy -178594.875065 kJ/mol
# GULP energy per Si atom -5581.089846 kJ/mol
# Density = 2.018872 g / cm^3
# Si number density = 20.234771 Si / 1000 Ang^3
#
#
#
# Elastic Constant Matrix: (Units=GPa)
#
#
# Indices 1 2 3 4 5 6 
#
# 1 120.9581 27.9022 19.2672 0.0000 0.0000 0.0000
# 2 27.9022 72.1350 30.8046 0.0000 0.0000 0.0000
# 3 19.2672 30.8046 103.7537 0.0000 0.0000 0.0000
# 4 0.0000 0.0000 0.0000 32.9793 0.0000 0.0000
# 5 0.0000 0.0000 0.0000 0.0000 18.4216 0.0000
# 6 0.0000 0.0000 0.0000 0.0000 0.0000 15.5994
#
#
#
# Elastic Compliance Matrix: (Units=1/GPa)
#
#
# Indices 1 2 3 4 5 6 
#
# 1 0.009127 -0.003214 -0.000741 0.000000 0.000000 0.000000
# 2 -0.003214 0.017008 -0.004453 0.000000 0.000000 0.000000
# 3 -0.000741 -0.004453 0.011098 0.000000 0.000000 0.000000
# 4 0.000000 0.000000 0.000000 0.030322 0.000000 0.000000
# 5 0.000000 0.000000 0.000000 0.000000 0.054284 0.000000
# 6 0.000000 0.000000 0.000000 0.000000 0.000000 0.064105
#
#
# Mechanical properties :
#
#
# Convention : Reuss Voigt Hill
#
# Bulk Modulus (GPa) = 48.97786 50.31055 49.64421
# Shear Modulus (GPa) = 23.85910 27.99158 25.92534
#
# Velocity S-wave (km/s) = 3.43755 3.72336 3.58331
# Velocity P-wave (km/s) = 6.32558 6.58802 6.45813
#
# Compressibility (1/GPa) = 0.02041739
#
# Stress axis : x y z
#
# Youngs Moduli (GPa) = 109.56886 58.79731 90.10826
#
# Poissons Ratio (x) = 0.18897 0.06673
# Poissons Ratio (y) = 0.35215 0.40123
# Poissons Ratio (z) = 0.08115 0.26181
#
# Static dielectric constant tensor:
#      x y z
#    x 1.702730 0.000000 0.000000 
#    y 0.000000 1.795930 0.000000 
#    z 0.000000 0.000000 1.731890 
# 
# From -- ./inp_files/2687.got.cif
#   From: 2010.05.17/outbox.cif.g08.bks.cpg/sg30_2_cif.got.tgz:2687.got - 2010.06.03 17:03:02.
