data_PCOD9342694
_publ_section_title
;
Structure prediction by ZEFSAII (Michael W. Deem and Ramdas Pophale) SiO2 
 PCOD9342694
Probable space group: P M N 21
;
_chemical_formula_sum "Si O2"
_cell_formula_units_Z 32
_cell_length_a 8.784198
_cell_length_b 11.905675
_cell_length_c 18.056021
_cell_angle_alpha 90.000000
_cell_angle_beta 90.000000
_cell_angle_gamma 90.000000
_cell_volume 1888.331295
_symmetry_space_group_name_H-M "P M N 21"
_symmetry_group_IT_number 31
_symmetry_cell_setting 'orthorhombic'
loop_
_space_group_symop_operation_xyz
x,y,z
1/2-x,-y,1/2+z
-x,y,z
1/2+x,-y,1/2+z
loop_
_atom_site_type_symbol
_atom_site_label
_atom_site_fract_x
_atom_site_fract_y
_atom_site_fract_z
Si Si1 0.817849 0.626340 0.879580
Si Si2 0.682123 0.275787 0.218673
Si Si3 0.817958 0.951796 0.790891
Si Si4 0.818205 0.845323 0.351430
Si Si5 0.181654 0.613767 0.416827
Si Si6 0.818739 0.158667 0.440466
Si Si7 0.181210 0.279260 0.065273
Si Si8 0.319004 0.952573 0.500930
O O1 0.774064 0.662796 0.795507
O O2 0.763026 0.501461 0.896359
O O3 0.744073 0.715139 0.936825
O O4 0.000000 0.636003 0.884527
O O5 0.500000 0.287046 0.210327
O O6 0.763917 0.319143 0.145411
O O7 0.716137 0.142983 0.230231
O O8 0.745428 0.075528 0.786215
O O9 0.000000 0.960881 0.798155
O O10 0.749928 0.895808 0.865399
O O11 0.785892 0.712848 0.356856
O O12 0.737814 0.894909 0.424709
O O13 0.000000 0.860719 0.357118
O O14 0.237981 0.658585 0.496791
O O15 0.000000 0.598226 0.419275
O O16 0.000000 0.157947 0.437892
O O17 0.761034 0.073646 0.504122
O O18 0.217303 0.145557 0.059050
O O19 0.000000 0.291640 0.056652
O O20 0.500000 0.969247 0.498277
#
# Coordination Sequence:
#
# PCOD9342694 Si02
#       8
#     4   4   4   4   4   4   4   4
#     4  10  20  34  51  72  99 132 171 212 252 296
#     4   9  19  33  49  71  99 129 161 205 256 303
#     4   9  16  27  44  67  94 123 153 188 235 286
#     4   9  16  26  43  68  94 120 151 190 235 280
#     4  10  20  33  50  73 101 132 169 212 252 297
#     4  10  17  26  44  69  94 121 153 192 238 283
#     4  10  20  32  50  74  99 130 165 205 252 302
#     4   9  16  27  43  66  94 121 151 188 234 285
#
# _framework density 16.946179000000001
#
# number of rings (size 3 to 8) (size 9 to 14) (size 15 to 20)
#    0.000    2.500    0.000    5.625    0.000    6.000 
#    0.000    0.000    0.000    1.500    0.000    3.500 
#    0.000    0.000    0.000    0.000    0.000    0.000 
#
# Total GULP energy -178154.519015 kJ/mol
# GULP energy per Si atom -5567.328719 kJ/mol
# Density = 1.690761 g / cm^3
# Si number density = 16.946179 Si / 1000 Ang^3
#
#
#
# Elastic Constant Matrix: (Units=GPa)
#
#
# Indices 1 2 3 4 5 6 
#
# 1 41.1134 33.9794 22.1389 0.0000 0.0000 0.0000
# 2 33.9794 119.6891 28.3949 0.0000 0.0000 0.0000
# 3 22.1389 28.3949 46.9392 0.0000 0.0000 0.0000
# 4 0.0000 0.0000 0.0000 14.5298 0.0000 0.0000
# 5 0.0000 0.0000 0.0000 0.0000 168.6127 0.0000
# 6 0.0000 0.0000 0.0000 0.0000 0.0000 31.3637
#
#
#
# Elastic Compliance Matrix: (Units=1/GPa)
#
#
# Indices 1 2 3 4 5 6 
#
# 1 0.037683 -0.007568 -0.013195 0.000000 0.000000 0.000000
# 2 -0.007568 0.011275 -0.003251 0.000000 0.000000 0.000000
# 3 -0.013195 -0.003251 0.029494 0.000000 0.000000 0.000000
# 4 0.000000 0.000000 0.000000 0.068824 0.000000 0.000000
# 5 0.000000 0.000000 0.000000 0.000000 0.005931 0.000000
# 6 0.000000 0.000000 0.000000 0.000000 0.000000 0.031884
#
#
# Mechanical properties :
#
#
# Convention : Reuss Voigt Hill
#
# Bulk Modulus (GPa) = 32.86883 41.86312 37.36597
# Shear Modulus (GPa) = 20.55409 51.11645 35.83527
#
# Velocity S-wave (km/s) = 3.48646 5.49813 4.60352
# Velocity P-wave (km/s) = 5.97037 8.06618 7.09607
#
# Compressibility (1/GPa) = 0.03042396
#
# Stress axis : x y z
#
# Youngs Moduli (GPa) = 26.53722 88.69409 33.90469
#
# Poissons Ratio (x) = 0.67120 0.44738
# Poissons Ratio (y) = 0.20082 0.11023
# Poissons Ratio (z) = 0.35017 0.28836
#
# Static dielectric constant tensor:
#      x y z
#    x 1.113490 0.000000 0.000000 
#    y 0.000000 1.622970 0.000000 
#    z 0.000000 0.000000 1.592730 
# 
# From -- ./inp_files/5927.got.cif
#   From: 2010.05.17/outbox.cif.g08.bks.cpg/sg31_3_cif.got.tgz:5927.got - 2010.06.03 17:08:30.
