data_PCOD9342960
_publ_section_title
;
Structure prediction by ZEFSAII (Michael W. Deem and Ramdas Pophale) SiO2 
 PCOD9342960
Probable space group: P M N 21
;
_chemical_formula_sum "Si O2"
_cell_formula_units_Z 24
_cell_length_a 15.147882
_cell_length_b 9.476918
_cell_length_c 8.513912
_cell_angle_alpha 90.000000
_cell_angle_beta 90.000000
_cell_angle_gamma 90.000000
_cell_volume 1222.216643
_symmetry_space_group_name_H-M "P M N 21"
_symmetry_group_IT_number 31
_symmetry_cell_setting 'orthorhombic'
loop_
_space_group_symop_operation_xyz
x,y,z
1/2-x,-y,1/2+z
-x,y,z
1/2+x,-y,1/2+z
loop_
_atom_site_type_symbol
_atom_site_label
_atom_site_fract_x
_atom_site_fract_y
_atom_site_fract_z
Si Si1 0.807708 0.173818 0.840570
Si Si2 0.500000 0.026996 0.076441
Si Si3 0.000000 0.451669 0.653936
Si Si4 0.193938 0.316631 0.291402
Si Si5 0.000000 0.192591 0.864570
Si Si6 0.000000 0.233108 0.359550
Si Si7 0.803697 0.452870 0.635319
Si Si8 0.809643 0.905782 0.631629
O O1 0.798748 0.328543 0.765293
O O2 0.902871 0.162421 0.928461
O O3 0.803303 0.066035 0.693901
O O4 0.737164 0.129290 0.968495
O O5 0.587188 0.117350 0.101412
O O6 0.500000 0.908591 0.212108
O O7 0.500000 0.928888 0.920555
O O8 0.000000 0.339300 0.509571
O O9 0.902856 0.520501 0.645981
O O10 0.000000 0.354404 0.809052
O O11 0.204477 0.381979 0.464918
O O12 0.227523 0.434888 0.169613
O O13 0.260853 0.188109 0.261980
O O14 0.092268 0.268440 0.275093
#
# Coordination Sequence:
#
# PCOD9342960 Si02
#       8
#     4   2   2   4   2   2   4   4
#     4  10  19  35  56  81 111 146 189 238 287 343
#     4   9  18  35  55  80 113 151 188 224 285 362
#     4   7  14  31  56  74 103 149 184 216 274 348
#     4  11  22  37  59  85 113 150 194 239 285 340
#     4   7  14  29  52  77 103 138 180 222 276 338
#     4   9  18  37  59  81 113 156 192 226 283 356
#     4  10  20  37  57  83 114 150 192 237 287 343
#     4  11  21  35  58  84 110 148 191 236 285 342
#
# _framework density 19.636452999999999
#
# number of rings (size 3 to 8) (size 9 to 14) (size 15 to 20)
#    0.000    2.333    0.000    6.000    0.000    1.333 
#    0.000    6.667    0.000    0.000    0.000    0.000 
#    0.000    0.000    0.000    0.000    0.000    0.000 
#
# Total GULP energy -133727.288458 kJ/mol
# GULP energy per Si atom -5571.970352 kJ/mol
# Density = 1.959176 g / cm^3
# Si number density = 19.636453 Si / 1000 Ang^3
#
#
#
# Elastic Constant Matrix: (Units=GPa)
#
#
# Indices 1 2 3 4 5 6 
#
# 1 196.0335 45.5091 38.3360 0.0000 0.0000 0.0000
# 2 45.5091 69.8063 7.6406 0.0000 0.0000 0.0000
# 3 38.3360 7.6406 66.0116 0.0000 0.0000 0.0000
# 4 0.0000 0.0000 0.0000 34.0233 0.0000 0.0000
# 5 0.0000 0.0000 0.0000 0.0000 25.5041 0.0000
# 6 0.0000 0.0000 0.0000 0.0000 0.0000 32.7469
#
#
#
# Elastic Compliance Matrix: (Units=1/GPa)
#
#
# Indices 1 2 3 4 5 6 
#
# 1 0.006698 -0.003992 -0.003428 0.000000 0.000000 0.000000
# 2 -0.003992 0.016888 0.000363 0.000000 0.000000 0.000000
# 3 -0.003428 0.000363 0.017098 0.000000 0.000000 0.000000
# 4 0.000000 0.000000 0.000000 0.029392 0.000000 0.000000
# 5 0.000000 0.000000 0.000000 0.000000 0.039209 0.000000
# 6 0.000000 0.000000 0.000000 0.000000 0.000000 0.030537
#
#
# Mechanical properties :
#
#
# Convention : Reuss Voigt Hill
#
# Bulk Modulus (GPa) = 37.63456 57.20253 47.41854
# Shear Modulus (GPa) = 30.71419 34.47923 32.59671
#
# Velocity S-wave (km/s) = 3.95921 4.19487 4.07874
# Velocity P-wave (km/s) = 6.33307 7.25648 6.81045
#
# Compressibility (1/GPa) = 0.02657132
#
# Stress axis : x y z
#
# Youngs Moduli (GPa) = 149.29460 59.21428 58.48790
#
# Poissons Ratio (x) = 0.23636 0.20049
# Poissons Ratio (y) = 0.59592 -0.02125
# Poissons Ratio (z) = 0.51177 -0.02152
#
# Static dielectric constant tensor:
#      x y z
#    x 1.736260 0.000000 0.000000 
#    y 0.000000 1.702500 0.000000 
#    z 0.000000 0.000000 1.701660 
# 
# From -- ./inp_files/2471.got.cif
#   From: 2010.05.17/outbox.cif.g08.bks.cpg/sg31_2_cif.got.tgz:2471.got - 2010.06.03 17:08:30.
