data_PCOD9342706
_publ_section_title
;
Structure prediction by ZEFSAII (Michael W. Deem and Ramdas Pophale) SiO2 
 PCOD9342706
Probable space group: P M N 21
;
_chemical_formula_sum "Si O2"
_cell_formula_units_Z 28
_cell_length_a 20.307656
_cell_length_b 5.642897
_cell_length_c 10.115514
_cell_angle_alpha 90.000000
_cell_angle_beta 90.000000
_cell_angle_gamma 90.000000
_cell_volume 1159.177324
_symmetry_space_group_name_H-M "P M N 21"
_symmetry_group_IT_number 31
_symmetry_cell_setting 'orthorhombic'
loop_
_space_group_symop_operation_xyz
x,y,z
1/2-x,-y,1/2+z
-x,y,z
1/2+x,-y,1/2+z
loop_
_atom_site_type_symbol
_atom_site_label
_atom_site_fract_x
_atom_site_fract_y
_atom_site_fract_z
Si Si1 0.218538 0.885723 0.790830
Si Si2 0.335073 0.874748 0.588034
Si Si3 0.570264 0.102493 0.193784
Si Si4 0.075481 0.351515 0.295232
Si Si5 0.861617 0.618787 0.090401
Si Si6 0.235820 0.386255 0.781591
Si Si7 0.608935 0.602387 0.085899
O O1 0.262386 0.882733 0.654554
O O2 0.141790 0.894601 0.759601
O O3 0.235606 0.635990 0.857254
O O4 0.236854 0.135429 0.857689
O O5 0.383353 0.847552 0.716805
O O6 0.354448 0.630621 0.511841
O O7 0.357177 0.124173 0.527576
O O8 0.500000 0.096779 0.269524
O O9 0.571997 0.357258 0.120817
O O10 0.573521 0.854279 0.114053
O O11 0.078212 0.568124 0.189651
O O12 0.114861 0.407445 0.428341
O O13 0.000000 0.291724 0.324101
O O14 0.799908 0.612880 0.190045
O O15 0.174279 0.391863 0.678423
#
# Coordination Sequence:
#
# PCOD9342706 Si02
#       7
#     4   4   4   4   4   4   4
#     4   8  14  26  42  54  69 101 138 170 194 224
#     4   8  16  28  40  53  73 105 138 167 195 231
#     4  10  18  28  40  58  83 110 136 163 197 239
#     4  10  20  28  40  61  89 114 134 162 206 251
#     4   8  16  28  42  54  74 107 144 168 193 228
#     4   8  14  28  42  54  70 105 143 171 192 221
#     4  10  20  28  40  58  86 114 137 161 199 246
#
# _framework density 24.155062999999998
#
# number of rings (size 3 to 8) (size 9 to 14) (size 15 to 20)
#    0.857    2.286    0.000    1.286    2.000    0.571 
#    0.000    0.000    0.000    0.000    0.000    0.000 
#    0.000    1.143    0.000   21.857    0.000    0.857 
#
# Total GULP energy -155875.850296 kJ/mol
# GULP energy per Si atom -5566.994653 kJ/mol
# Density = 2.410008 g / cm^3
# Si number density = 24.155063 Si / 1000 Ang^3
#
#
#
# Elastic Constant Matrix: (Units=GPa)
#
#
# Indices 1 2 3 4 5 6 
#
# 1 141.7893 11.7232 22.1513 0.0000 0.0000 0.0000
# 2 11.7232 229.4239 35.8999 0.0000 0.0000 0.0000
# 3 22.1513 35.8999 68.5650 0.0000 0.0000 0.0000
# 4 0.0000 0.0000 0.0000 27.5307 0.0000 0.0000
# 5 0.0000 0.0000 0.0000 0.0000 14.0206 0.0000
# 6 0.0000 0.0000 0.0000 0.0000 0.0000 43.7462
#
#
#
# Elastic Compliance Matrix: (Units=1/GPa)
#
#
# Indices 1 2 3 4 5 6 
#
# 1 0.007428 -0.000004 -0.002397 0.000000 0.000000 0.000000
# 2 -0.000004 0.004748 -0.002484 0.000000 0.000000 0.000000
# 3 -0.002397 -0.002484 0.016660 0.000000 0.000000 0.000000
# 4 0.000000 0.000000 0.000000 0.036323 0.000000 0.000000
# 5 0.000000 0.000000 0.000000 0.000000 0.071324 0.000000
# 6 0.000000 0.000000 0.000000 0.000000 0.000000 0.022859
#
#
# Mechanical properties :
#
#
# Convention : Reuss Voigt Hill
#
# Bulk Modulus (GPa) = 52.45759 64.36968 58.41364
# Shear Modulus (GPa) = 28.49521 41.72640 35.11080
#
# Velocity S-wave (km/s) = 3.43837 4.16076 3.81669
# Velocity P-wave (km/s) = 6.12596 7.05612 6.60743
#
# Compressibility (1/GPa) = 0.01906302
#
# Stress axis : x y z
#
# Youngs Moduli (GPa) = 134.63274 210.62700 60.02388
#
# Poissons Ratio (x) = 0.00093 0.14390
# Poissons Ratio (y) = 0.00059 0.14913
# Poissons Ratio (z) = 0.32276 0.52329
#
# Static dielectric constant tensor:
#      x y z
#    x 1.917640 0.000000 0.000000 
#    y 0.000000 2.076130 0.000000 
#    z 0.000000 0.000000 1.910420 
# 
# From -- ./inp_files/6156.got.cif
#   From: 2010.05.17/outbox.cif.g08.bks.cpg/sg31_4_cif.got.tgz:6156.got - 2010.06.03 17:08:30.
