data_PCOD9342959
_publ_section_title
;
Structure prediction by ZEFSAII (Michael W. Deem and Ramdas Pophale) SiO2 
 PCOD9342959
Probable space group: P M N 21
;
_chemical_formula_sum "Si O2"
_cell_formula_units_Z 24
_cell_length_a 7.801970
_cell_length_b 10.444432
_cell_length_c 14.501499
_cell_angle_alpha 90.000000
_cell_angle_beta 90.000000
_cell_angle_gamma 90.000000
_cell_volume 1181.685754
_symmetry_space_group_name_H-M "P M N 21"
_symmetry_group_IT_number 31
_symmetry_cell_setting 'orthorhombic'
loop_
_space_group_symop_operation_xyz
x,y,z
1/2-x,-y,1/2+z
-x,y,z
1/2+x,-y,1/2+z
loop_
_atom_site_type_symbol
_atom_site_label
_atom_site_fract_x
_atom_site_fract_y
_atom_site_fract_z
Si Si1 0.207571 0.606746 0.026690
Si Si2 0.709022 0.632758 0.648531
Si Si3 0.798856 0.493653 0.335755
Si Si4 0.200393 0.210793 0.847446
Si Si5 0.289208 0.886099 0.546113
Si Si6 0.795791 0.852033 0.139942
O O1 0.258773 0.474685 0.075046
O O2 0.270254 0.725754 0.087350
O O3 0.000000 0.610071 0.024617
O O4 0.272680 0.596849 0.923266
O O5 0.500000 0.636856 0.651827
O O6 0.770318 0.580119 0.746476
O O7 0.765509 0.770433 0.613006
O O8 0.722193 0.634948 0.351150
O O9 0.000000 0.517519 0.320329
O O10 0.268321 0.160151 0.749502
O O11 0.000000 0.182942 0.846527
O O12 0.269527 0.146573 0.941738
O O13 0.500000 0.886016 0.544361
O O14 0.230815 0.019784 0.590143
O O15 0.000000 0.852342 0.126651
#
# Coordination Sequence:
#
# PCOD9342959 Si02
#       6
#     4   4   4   4   4   4
#     4  10  19  35  56  80 111 145 182 227 280 333
#     4   9  17  33  55  79 108 144 185 226 275 332
#     4  11  21  34  57  87 113 145 192 236 275 330
#     4  11  21  36  59  84 112 149 189 233 286 337
#     4   9  19  36  58  80 108 150 187 221 278 344
#     4  10  21  38  59  82 112 151 189 227 282 346
#
# _framework density 20.309968000000001
#
# number of rings (size 3 to 8) (size 9 to 14) (size 15 to 20)
#    0.000    2.000    3.333    1.000    0.000    2.000 
#    0.000    1.667    0.000    0.000    0.000    0.000 
#    0.000    0.000    0.000    0.000    0.000    0.000 
#
# Total GULP energy -133959.219111 kJ/mol
# GULP energy per Si atom -5581.634130 kJ/mol
# Density = 2.026374 g / cm^3
# Si number density = 20.309968 Si / 1000 Ang^3
#
#
#
# Elastic Constant Matrix: (Units=GPa)
#
#
# Indices 1 2 3 4 5 6 
#
# 1 17.3038 -0.5934 -9.8158 0.0000 0.0000 0.0000
# 2 -0.5934 117.2230 36.1109 0.0000 0.0000 0.0000
# 3 -9.8158 36.1109 130.2127 0.0000 0.0000 0.0000
# 4 0.0000 0.0000 0.0000 33.6348 0.0000 0.0000
# 5 0.0000 0.0000 0.0000 0.0000 23.1152 0.0000
# 6 0.0000 0.0000 0.0000 0.0000 0.0000 8.1056
#
#
#
# Elastic Compliance Matrix: (Units=1/GPa)
#
#
# Indices 1 2 3 4 5 6 
#
# 1 0.060527 -0.001202 0.004896 0.000000 0.000000 0.000000
# 2 -0.001202 0.009351 -0.002684 0.000000 0.000000 0.000000
# 3 0.004896 -0.002684 0.008793 0.000000 0.000000 0.000000
# 4 0.000000 0.000000 0.000000 0.029731 0.000000 0.000000
# 5 0.000000 0.000000 0.000000 0.000000 0.043262 0.000000
# 6 0.000000 0.000000 0.000000 0.000000 0.000000 0.123372
#
#
# Mechanical properties :
#
#
# Convention : Reuss Voigt Hill
#
# Bulk Modulus (GPa) = 12.39279 35.12696 23.75987
# Shear Modulus (GPa) = 16.67148 28.90696 22.78922
#
# Velocity S-wave (km/s) = 2.86816 3.77674 3.35337
# Velocity P-wave (km/s) = 4.13322 6.02921 5.16889
#
# Compressibility (1/GPa) = 0.08069211
#
# Stress axis : x y z
#
# Youngs Moduli (GPa) = 16.52153 106.93504 113.72498
#
# Poissons Ratio (x) = 0.12852 -0.55680
# Poissons Ratio (y) = 0.01986 0.30523
# Poissons Ratio (z) = -0.08089 0.28701
#
# Static dielectric constant tensor:
#      x y z
#    x 1.757100 0.000000 0.000000 
#    y 0.000000 1.689970 0.000000 
#    z 0.000000 0.000000 1.717570 
# 
# From -- ./inp_files/3459.got.cif
#   From: 2010.05.17/outbox.cif.g08.bks.cpg/sg31_2_cif.got.tgz:3459.got - 2010.06.03 17:08:30.
