data_PCOD9342855
_publ_section_title
;
Structure prediction by ZEFSAII (Michael W. Deem and Ramdas Pophale) SiO2 
 PCOD9342855
Probable space group: P M N 21
;
_chemical_formula_sum "Si O2"
_cell_formula_units_Z 32
_cell_length_a 7.440683
_cell_length_b 10.969193
_cell_length_c 14.618885
_cell_angle_alpha 90.000000
_cell_angle_beta 90.000000
_cell_angle_gamma 90.000000
_cell_volume 1193.168364
_symmetry_space_group_name_H-M "P M N 21"
_symmetry_group_IT_number 31
_symmetry_cell_setting 'orthorhombic'
loop_
_space_group_symop_operation_xyz
x,y,z
1/2-x,-y,1/2+z
-x,y,z
1/2+x,-y,1/2+z
loop_
_atom_site_type_symbol
_atom_site_label
_atom_site_fract_x
_atom_site_fract_y
_atom_site_fract_z
Si Si1 0.282334 0.155937 0.571860
Si Si2 0.785223 0.696963 0.236408
Si Si3 0.715278 0.926669 0.453288
Si Si4 0.712339 0.206454 0.124181
Si Si5 0.781980 0.943083 0.783412
Si Si6 0.216661 0.700853 0.896746
Si Si7 0.708416 0.529789 0.618589
Si Si8 0.215448 0.437050 0.913604
O O1 0.500000 0.145932 0.573739
O O2 0.217705 0.190168 0.673703
O O3 0.215048 0.038099 0.517021
O O4 0.239597 0.267313 0.502421
O O5 0.715871 0.575800 0.182783
O O6 0.749653 0.672002 0.342749
O O7 0.000000 0.702208 0.229800
O O8 0.500000 0.936435 0.447224
O O9 0.784266 0.949845 0.350562
O O10 0.750396 0.811945 0.517176
O O11 0.500000 0.210742 0.136689
O O12 0.784406 0.090955 0.182394
O O13 0.784211 0.334611 0.159751
O O14 0.733004 0.818432 0.837908
O O15 0.000000 0.953370 0.779141
O O16 0.279288 0.566342 0.870528
O O17 0.000000 0.698498 0.890722
O O18 0.500000 0.495619 0.605949
O O19 0.787353 0.551968 0.517199
O O20 0.000000 0.437995 0.921616
#
# Coordination Sequence:
#
# PCOD9342855 Si02
#       8
#     4   4   4   4   4   4   4   4
#     4   8  14  29  54  77  97 129 175 220 261 312
#     4  10  19  33  54  82 112 142 179 224 271 323
#     4   9  18  36  60  80 102 140 184 224 271 334
#     4  11  22  37  56  82 113 143 181 234 282 318
#     4   8  16  31  55  82 103 134 181 226 270 320
#     4   8  12  25  51  76  97 129 177 218 248 303
#     4  10  21  37  56  80 114 154 188 218 264 333
#     4  10  19  32  52  79 110 147 183 216 263 327
#
# _framework density 26.819347
#
# number of rings (size 3 to 8) (size 9 to 14) (size 15 to 20)
#    0.000    2.750    1.250    2.625    0.000    2.000 
#    2.250    1.875    0.000    3.000    0.000    0.000 
#    0.000    0.000    0.000    0.000    0.000    0.000 
#
# Total GULP energy -178758.803623 kJ/mol
# GULP energy per Si atom -5586.212613 kJ/mol
# Density = 2.675831 g / cm^3
# Si number density = 26.819347 Si / 1000 Ang^3
#
#
#
# Elastic Constant Matrix: (Units=GPa)
#
#
# Indices 1 2 3 4 5 6 
#
# 1 88.7876 -9.2185 -2.5921 0.0000 0.0000 0.0000
# 2 -9.2185 75.0714 14.0722 0.0000 0.0000 0.0000
# 3 -2.5921 14.0722 155.9720 0.0000 0.0000 0.0000
# 4 0.0000 0.0000 0.0000 49.3189 0.0000 0.0000
# 5 0.0000 0.0000 0.0000 0.0000 -31.2388 0.0000
# 6 0.0000 0.0000 0.0000 0.0000 0.0000 6.2672
#
#
#
# Elastic Compliance Matrix: (Units=1/GPa)
#
#
# Indices 1 2 3 4 5 6 
#
# 1 0.011409 0.001389 0.000064 0.000000 0.000000 0.000000
# 2 0.001389 0.013719 -0.001215 0.000000 0.000000 0.000000
# 3 0.000064 -0.001215 0.006522 0.000000 0.000000 0.000000
# 4 0.000000 0.000000 0.000000 0.020276 0.000000 0.000000
# 5 0.000000 0.000000 0.000000 0.000000 -0.032012 0.000000
# 6 0.000000 0.000000 0.000000 0.000000 0.000000 0.159562
#
#
# Mechanical properties :
#
#
# Convention : Reuss Voigt Hill
#
# Bulk Modulus (GPa) = 31.12650 36.03936 33.58293
# Shear Modulus (GPa) = 26.35629 26.04075 26.19852
#
# Velocity S-wave (km/s) = 3.13826 3.11942 3.12885
# Velocity P-wave (km/s) = 4.97622 5.14212 5.05985
#
# Compressibility (1/GPa) = 0.03212696
#
# Stress axis : x y z
#
# Youngs Moduli (GPa) = 87.65077 72.89212 153.32564
#
# Poissons Ratio (x) = -0.10124 -0.00986
# Poissons Ratio (y) = -0.12174 0.18624
# Poissons Ratio (z) = -0.00564 0.08854
#
# Static dielectric constant tensor:
#      x y z
#    x 2.017080 0.000000 0.000000 
#    y 0.000000 2.128570 0.000000 
#    z 0.000000 0.000000 2.160010 
# 
# From -- ./inp_files/4995.got.cif
#   From: 2010.05.17/outbox.cif.g08.bks.cpg/sg31_3_cif.got.tgz:4995.got - 2010.06.03 17:08:30.
