data_PCOD9342467
_publ_section_title
;
Structure prediction by ZEFSAII (Michael W. Deem and Ramdas Pophale) SiO2 
 PCOD9342467
Probable space group: P N C 2
;
_chemical_formula_sum "Si O2"
_cell_formula_units_Z 24
_cell_length_a 8.217243
_cell_length_b 11.080327
_cell_length_c 12.172154
_cell_angle_alpha 90.000000
_cell_angle_beta 90.000000
_cell_angle_gamma 90.000000
_cell_volume 1108.271451
_symmetry_space_group_name_H-M "P N C 2"
_symmetry_group_IT_number 30
_symmetry_cell_setting 'orthorhombic'
loop_
_space_group_symop_operation_xyz
x,y,z
-x,-y,z
-x,1/2+y,1/2+z
x,1/2-y,1/2+z
loop_
_atom_site_type_symbol
_atom_site_label
_atom_site_fract_x
_atom_site_fract_y
_atom_site_fract_z
Si Si1 0.177720 0.042185 0.237140
Si Si2 0.299887 0.824295 0.363602
Si Si3 0.694671 0.485289 0.063011
Si Si4 0.318404 0.294287 0.900546
Si Si5 0.317289 0.034906 0.004042
Si Si6 0.162442 0.580021 0.299537
O O1 0.297390 0.945478 0.291830
O O2 0.223552 0.170827 0.289383
O O3 0.201324 0.029713 0.108375
O O4 0.000000 0.000000 0.271458
O O5 0.257806 0.870405 0.486785
O O6 0.489882 0.791110 0.371239
O O7 0.178721 0.726357 0.308457
O O8 0.500000 0.500000 0.076157
O O9 0.770770 0.465935 0.182341
O O10 0.733941 0.604157 0.990393
O O11 0.290577 0.166431 0.954002
O O12 0.500000 0.000000 0.039934
O O13 0.276223 0.948959 0.903267
O O14 0.000000 0.500000 0.317941
#
# Coordination Sequence:
#
# PCOD9342467 Si02
#       6
#     4   4   4   4   4   4
#     4  11  26  45  70 103 139 185 222 288 362 413
#     4  10  23  46  70  96 138 183 234 278 344 422
#     4   9  22  43  69  96 128 183 231 277 341 412
#     4  10  23  45  72  99 133 181 238 278 335 423
#     4  12  25  44  71 101 134 181 239 284 338 413
#     4  12  27  42  66 104 138 176 228 288 352 401
#
# _framework density 21.655343999999999
#
# number of rings (size 3 to 8) (size 9 to 14) (size 15 to 20)
#    0.000    1.333    1.667    3.500    7.000    4.000 
#    0.000    0.000    0.000    0.000    0.000    0.000 
#    0.000    0.000    0.000    0.000    0.000    0.000 
#
# Total GULP energy -133907.623228 kJ/mol
# GULP energy per Si atom -5579.484301 kJ/mol
# Density = 2.160606 g / cm^3
# Si number density = 21.655344 Si / 1000 Ang^3
#
#
#
# Elastic Constant Matrix: (Units=GPa)
#
#
# Indices 1 2 3 4 5 6 
#
# 1 45.4333 11.3372 19.0697 0.0000 0.0000 0.0000
# 2 11.3372 75.0856 8.7969 0.0000 0.0000 0.0000
# 3 19.0697 8.7969 101.4192 0.0000 0.0000 0.0000
# 4 0.0000 0.0000 0.0000 16.4496 0.0000 0.0000
# 5 0.0000 0.0000 0.0000 0.0000 7.7716 0.0000
# 6 0.0000 0.0000 0.0000 0.0000 0.0000 30.3561
#
#
#
# Elastic Compliance Matrix: (Units=1/GPa)
#
#
# Indices 1 2 3 4 5 6 
#
# 1 0.024639 -0.003210 -0.004354 0.000000 0.000000 0.000000
# 2 -0.003210 0.013873 -0.000600 0.000000 0.000000 0.000000
# 3 -0.004354 -0.000600 0.010731 0.000000 0.000000 0.000000
# 4 0.000000 0.000000 0.000000 0.060792 0.000000 0.000000
# 5 0.000000 0.000000 0.000000 0.000000 0.128674 0.000000
# 6 0.000000 0.000000 0.000000 0.000000 0.000000 0.032942
#
#
# Mechanical properties :
#
#
# Convention : Reuss Voigt Hill
#
# Bulk Modulus (GPa) = 30.38181 33.37177 31.87679
# Shear Modulus (GPa) = 16.72516 23.09774 19.91145
#
# Velocity S-wave (km/s) = 2.78211 3.26944 3.03557
# Velocity P-wave (km/s) = 4.93764 5.44942 5.19983
#
# Compressibility (1/GPa) = 0.03291443
#
# Stress axis : x y z
#
# Youngs Moduli (GPa) = 40.58611 72.08193 93.18939
#
# Poissons Ratio (x) = 0.23139 0.40578
# Poissons Ratio (y) = 0.13029 0.05589
# Poissons Ratio (z) = 0.17673 0.04323
#
# Static dielectric constant tensor:
#      x y z
#    x 1.780260 0.000000 0.000000 
#    y 0.000000 1.801520 0.000000 
#    z 0.000000 0.000000 1.782240 
# 
# From -- ./inp_files/3623.got.cif
#   From: 2010.05.17/outbox.cif.g08.bks.cpg/sg30_2_cif.got.tgz:3623.got - 2010.06.03 17:03:02.
