data_PCOD9342009
_publ_section_title
;
Structure prediction by ZEFSAII (Michael W. Deem and Ramdas Pophale) SiO2 
 PCOD9342009
Probable space group: P N C 2
;
_chemical_formula_sum "Si O2"
_cell_formula_units_Z 28
_cell_length_a 10.525788
_cell_length_b 22.706729
_cell_length_c 5.226684
_cell_angle_alpha 90.000000
_cell_angle_beta 90.000000
_cell_angle_gamma 90.000000
_cell_volume 1249.209963
_symmetry_space_group_name_H-M "P N C 2"
_symmetry_group_IT_number 30
_symmetry_cell_setting 'orthorhombic'
loop_
_space_group_symop_operation_xyz
x,y,z
-x,-y,z
-x,1/2+y,1/2+z
x,1/2-y,1/2+z
loop_
_atom_site_type_symbol
_atom_site_label
_atom_site_fract_x
_atom_site_fract_y
_atom_site_fract_z
Si Si1 0.172592 0.714279 0.454340
Si Si2 0.000000 0.000000 0.697613
Si Si3 0.314869 0.558534 0.944712
Si Si4 0.665899 0.898909 0.939773
Si Si5 0.815425 0.410445 0.438019
Si Si6 0.500000 0.000000 0.128562
Si Si7 0.802582 0.927804 0.440112
Si Si8 0.479932 0.711713 0.449416
O O1 0.140822 0.740809 0.728773
O O2 0.113000 0.650744 0.398420
O O3 0.326331 0.703875 0.451905
O O4 0.102274 0.968244 0.878337
O O5 0.943903 0.948047 0.519310
O O6 0.234661 0.591059 0.726265
O O7 0.451979 0.551163 0.820742
O O8 0.264020 0.492031 0.938614
O O9 0.295219 0.585239 0.222061
O O10 0.739274 0.893289 0.673547
O O11 0.559713 0.848454 0.962506
O O12 0.599944 0.964184 0.956823
O O13 0.767643 0.898593 0.171870
O O14 0.510649 0.752726 0.691706
#
# Coordination Sequence:
#
# PCOD9342009 Si02
#       8
#     4   2   4   4   4   2   4   4
#     4  10  21  37  57  84 114 149 195 241 289 345
#     4  10  22  40  62  86 116 154 194 242 306 352
#     4  10  21  33  51  83 114 145 180 219 284 354
#     4  11  22  36  56  84 118 151 193 236 286 352
#     4  11  22  37  58  82 113 151 194 242 289 350
#     4  10  20  32  52  82 120 150 172 228 296 358
#     4  10  22  36  54  83 113 146 187 232 279 344
#     4  10  21  37  59  83 114 158 196 232 284 344
#
# _framework density 22.414165000000001
#
# number of rings (size 3 to 8) (size 9 to 14) (size 15 to 20)
#    0.000    1.714    0.000    6.000    0.000   14.857 
#    0.000    0.000    0.000    5.143    0.000    0.000 
#    0.000    0.000    0.000    0.000    0.000    0.000 
#
# Total GULP energy -156448.147212 kJ/mol
# GULP energy per Si atom -5587.433829 kJ/mol
# Density = 2.236315 g / cm^3
# Si number density = 22.414165 Si / 1000 Ang^3
#
#
#
# Elastic Constant Matrix: (Units=GPa)
#
#
# Indices 1 2 3 4 5 6 
#
# 1 30.2940 2.1100 10.9151 0.0000 0.0000 0.0000
# 2 2.1100 77.5834 35.3586 0.0000 0.0000 0.0000
# 3 10.9151 35.3586 118.8422 0.0000 0.0000 0.0000
# 4 0.0000 0.0000 0.0000 31.3176 0.0000 0.0000
# 5 0.0000 0.0000 0.0000 0.0000 12.5432 0.0000
# 6 0.0000 0.0000 0.0000 0.0000 0.0000 25.2478
#
#
#
# Elastic Compliance Matrix: (Units=1/GPa)
#
#
# Indices 1 2 3 4 5 6 
#
# 1 0.034162 0.000579 -0.003310 0.000000 0.000000 0.000000
# 2 0.000579 0.014921 -0.004493 0.000000 0.000000 0.000000
# 3 -0.003310 -0.004493 0.010055 0.000000 0.000000 0.000000
# 4 0.000000 0.000000 0.000000 0.031931 0.000000 0.000000
# 5 0.000000 0.000000 0.000000 0.000000 0.079725 0.000000
# 6 0.000000 0.000000 0.000000 0.000000 0.000000 0.039607
#
#
# Mechanical properties :
#
#
# Convention : Reuss Voigt Hill
#
# Bulk Modulus (GPa) = 22.37537 35.94301 29.15919
# Shear Modulus (GPa) = 20.85546 25.71076 23.28311
#
# Velocity S-wave (km/s) = 3.05365 3.39053 3.22649
# Velocity P-wave (km/s) = 4.73682 5.60341 5.18824
#
# Compressibility (1/GPa) = 0.04469199
#
# Stress axis : x y z
#
# Youngs Moduli (GPa) = 29.27221 67.01911 99.45097
#
# Poissons Ratio (x) = -0.03884 0.32919
# Poissons Ratio (y) = -0.01696 0.44680
# Poissons Ratio (z) = 0.09689 0.30109
#
# Static dielectric constant tensor:
#      x y z
#    x 1.988790 0.000000 0.000000 
#    y 0.000000 1.838040 0.000000 
#    z 0.000000 0.000000 1.850900 
# 
# From -- ./inp_files/778.got.cif
#   From: 2010.05.17/outbox.cif.g08.bks.cpg/sg30_1_cif.got.tgz:778.got - 2010.06.03 17:03:02.
