data_PCOD9342837
_publ_section_title
;
Structure prediction by ZEFSAII (Michael W. Deem and Ramdas Pophale) SiO2 
 PCOD9342837
Probable space group: P M N 21
;
_chemical_formula_sum "Si O2"
_cell_formula_units_Z 32
_cell_length_a 7.927603
_cell_length_b 6.810207
_cell_length_c 22.387354
_cell_angle_alpha 90.000000
_cell_angle_beta 90.000000
_cell_angle_gamma 90.000000
_cell_volume 1208.662291
_symmetry_space_group_name_H-M "P M N 21"
_symmetry_group_IT_number 31
_symmetry_cell_setting 'orthorhombic'
loop_
_space_group_symop_operation_xyz
x,y,z
1/2-x,-y,1/2+z
-x,y,z
1/2+x,-y,1/2+z
loop_
_atom_site_type_symbol
_atom_site_label
_atom_site_fract_x
_atom_site_fract_y
_atom_site_fract_z
Si Si1 0.192540 0.665519 0.719190
Si Si2 0.703283 0.968323 0.061887
Si Si3 0.702988 0.422480 0.094858
Si Si4 0.808252 0.926298 0.186131
Si Si5 0.796942 0.494894 0.966884
Si Si6 0.302648 0.048350 0.935243
Si Si7 0.805610 0.627974 0.847302
Si Si8 0.810965 0.174574 0.810839
O O1 0.269387 0.549718 0.662826
O O2 0.188184 0.887411 0.696324
O O3 0.276336 0.686348 0.784218
O O4 0.000000 0.590957 0.728714
O O5 0.500000 0.951534 0.058934
O O6 0.747330 0.195911 0.078048
O O7 0.761460 0.848513 0.120362
O O8 0.774133 0.945079 0.994557
O O9 0.500000 0.435689 0.099314
O O10 0.754305 0.539523 0.035525
O O11 0.000000 0.995427 0.181922
O O12 0.791196 0.814895 0.249145
O O13 0.720506 0.279889 0.952700
O O14 0.731631 0.638903 0.913972
O O15 0.000000 0.483292 0.961303
O O16 0.500000 0.008518 0.932971
O O17 0.239153 0.034954 0.866607
O O18 0.811536 0.392071 0.837488
O O19 0.000000 0.698850 0.849191
O O20 0.000000 0.122023 0.793643
#
# Coordination Sequence:
#
# PCOD9342837 Si02
#       8
#     4   4   4   4   4   4   4   4
#     4   9  17  32  50  67  91 122 156 192 230 274
#     4   8  15  28  45  65  90 121 154 189 231 276
#     4   8  14  24  41  64  88 115 147 186 231 272
#     4  11  21  31  46  71  99 125 157 195 233 275
#     4   9  15  24  41  65  91 117 148 187 229 273
#     4   9  16  27  44  67  93 118 150 193 235 274
#     4   8  16  30  49  70  89 117 157 192 225 274
#     4  10  19  32  50  71  95 125 159 192 234 284
#
# _framework density 26.475553000000001
#
# number of rings (size 3 to 8) (size 9 to 14) (size 15 to 20)
#    0.000    3.000    0.000    4.500    0.000    5.000 
#    0.000    3.750    0.000    1.500    0.000    5.250 
#    0.000    0.000    0.000    0.000    0.000    0.000 
#
# Total GULP energy -178567.096928 kJ/mol
# GULP energy per Si atom -5580.221779 kJ/mol
# Density = 2.641529 g / cm^3
# Si number density = 26.475553 Si / 1000 Ang^3
#
#
#
# Elastic Constant Matrix: (Units=GPa)
#
#
# Indices 1 2 3 4 5 6 
#
# 1 77.2264 -5.3402 31.0174 0.0000 0.0000 0.0000
# 2 -5.3402 51.6144 50.9344 0.0000 0.0000 0.0000
# 3 31.0174 50.9344 326.9471 0.0000 0.0000 0.0000
# 4 0.0000 0.0000 0.0000 66.5197 0.0000 0.0000
# 5 0.0000 0.0000 0.0000 0.0000 30.7504 0.0000
# 6 0.0000 0.0000 0.0000 0.0000 0.0000 85.5005
#
#
#
# Elastic Compliance Matrix: (Units=1/GPa)
#
#
# Indices 1 2 3 4 5 6 
#
# 1 0.013905 0.003238 -0.001824 0.000000 0.000000 0.000000
# 2 0.003238 0.023648 -0.003991 0.000000 0.000000 0.000000
# 3 -0.001824 -0.003991 0.003853 0.000000 0.000000 0.000000
# 4 0.000000 0.000000 0.000000 0.015033 0.000000 0.000000
# 5 0.000000 0.000000 0.000000 0.000000 0.032520 0.000000
# 6 0.000000 0.000000 0.000000 0.000000 0.000000 0.011696
#
#
# Mechanical properties :
#
#
# Convention : Reuss Voigt Hill
#
# Bulk Modulus (GPa) = 27.58345 67.66791 47.62568
# Shear Modulus (GPa) = 42.41107 61.83254 52.12181
#
# Velocity S-wave (km/s) = 4.00671 4.83790 4.44179
# Velocity P-wave (km/s) = 5.64323 7.53798 6.65835
#
# Compressibility (1/GPa) = 0.03625363
#
# Stress axis : x y z
#
# Youngs Moduli (GPa) = 71.91478 42.28650 259.51028
#
# Poissons Ratio (x) = -0.13694 0.47327
# Poissons Ratio (y) = -0.23289 1.03579
# Poissons Ratio (z) = 0.13115 0.16878
#
# Static dielectric constant tensor:
#      x y z
#    x 1.938620 0.000000 0.000000 
#    y 0.000000 2.198600 0.000000 
#    z 0.000000 0.000000 2.233390 
# 
# From -- ./inp_files/6277.got.cif
#   From: 2010.05.17/outbox.cif.g08.bks.cpg/sg31_4_cif.got.tgz:6277.got - 2010.06.03 17:08:30.
