data_PCOD9342778
_publ_section_title
;
Structure prediction by ZEFSAII (Michael W. Deem and Ramdas Pophale) SiO2 
 PCOD9342778
Probable space group: P M N 21
;
_chemical_formula_sum "Si O2"
_cell_formula_units_Z 32
_cell_length_a 7.924713
_cell_length_b 11.076653
_cell_length_c 14.398957
_cell_angle_alpha 90.000000
_cell_angle_beta 90.000000
_cell_angle_gamma 90.000000
_cell_volume 1263.930309
_symmetry_space_group_name_H-M "P M N 21"
_symmetry_group_IT_number 31
_symmetry_cell_setting 'orthorhombic'
loop_
_space_group_symop_operation_xyz
x,y,z
1/2-x,-y,1/2+z
-x,y,z
1/2+x,-y,1/2+z
loop_
_atom_site_type_symbol
_atom_site_label
_atom_site_fract_x
_atom_site_fract_y
_atom_site_fract_z
Si Si1 0.194429 0.561048 0.036350
Si Si2 0.804368 0.286641 0.375169
Si Si3 0.803635 0.203540 0.641313
Si Si4 0.293563 0.567337 0.711886
Si Si5 0.796855 0.938684 0.664869
Si Si6 0.700930 0.808344 0.489297
Si Si7 0.699576 0.322613 0.817887
Si Si8 0.801564 0.963646 0.874374
O O1 0.203730 0.685307 0.096951
O O2 0.263643 0.460389 0.107428
O O3 0.000000 0.533699 0.014582
O O4 0.288081 0.599408 0.943466
O O5 0.730479 0.323009 0.274847
O O6 0.719879 0.168879 0.417918
O O7 0.000000 0.259038 0.364777
O O8 0.791681 0.223959 0.752902
O O9 0.000000 0.214986 0.612605
O O10 0.742472 0.068317 0.622159
O O11 0.500000 0.573946 0.708170
O O12 0.248929 0.449787 0.773426
O O13 0.745382 0.831385 0.596302
O O14 0.730931 0.943690 0.770363
O O15 0.000000 0.939879 0.668518
O O16 0.500000 0.805202 0.486039
O O17 0.761353 0.697776 0.425787
O O18 0.771131 0.926667 0.433910
O O19 0.500000 0.309275 0.804524
O O20 0.000000 0.988203 0.866008
#
# Coordination Sequence:
#
# PCOD9342778 Si02
#       8
#     4   4   4   4   4   4   4   4
#     4  10  20  37  60  87 115 153 196 240 294 351
#     4  11  22  39  61  87 117 152 196 245 290 344
#     4  10  18  33  57  85 114 146 190 242 283 332
#     4   8  19  39  60  82 114 149 189 240 292 342
#     4  10  21  37  55  80 117 156 190 231 288 348
#     4  11  22  37  57  85 118 152 193 240 286 346
#     4  10  19  35  59  82 110 148 187 234 292 345
#     4  10  22  41  59  82 121 160 191 236 293 350
#
# _framework density 25.317852999999999
#
# number of rings (size 3 to 8) (size 9 to 14) (size 15 to 20)
#    0.000    2.000    1.250    3.375    0.000    4.500 
#    2.250    7.500    0.000    0.000    0.000    0.000 
#    0.000    0.000    0.000    0.000    0.000    0.000 
#
# Total GULP energy -178950.691275 kJ/mol
# GULP energy per Si atom -5592.209102 kJ/mol
# Density = 2.526023 g / cm^3
# Si number density = 25.317853 Si / 1000 Ang^3
#
#
#
# Elastic Constant Matrix: (Units=GPa)
#
#
# Indices 1 2 3 4 5 6 
#
# 1 46.8916 -2.6478 -4.8705 0.0000 0.0000 0.0000
# 2 -2.6478 64.2553 17.4207 0.0000 0.0000 0.0000
# 3 -4.8705 17.4207 128.6142 0.0000 0.0000 0.0000
# 4 0.0000 0.0000 0.0000 49.4855 0.0000 0.0000
# 5 0.0000 0.0000 0.0000 0.0000 36.3789 0.0000
# 6 0.0000 0.0000 0.0000 0.0000 0.0000 3.7084
#
#
#
# Elastic Compliance Matrix: (Units=1/GPa)
#
#
# Indices 1 2 3 4 5 6 
#
# 1 0.021439 0.000689 0.000719 0.000000 0.000000 0.000000
# 2 0.000689 0.016178 -0.002165 0.000000 0.000000 0.000000
# 3 0.000719 -0.002165 0.008096 0.000000 0.000000 0.000000
# 4 0.000000 0.000000 0.000000 0.020208 0.000000 0.000000
# 5 0.000000 0.000000 0.000000 0.000000 0.027488 0.000000
# 6 0.000000 0.000000 0.000000 0.000000 0.000000 0.269661
#
#
# Mechanical properties :
#
#
# Convention : Reuss Voigt Hill
#
# Bulk Modulus (GPa) = 22.62583 28.84066 25.73325
# Shear Modulus (GPa) = 13.18150 33.23846 23.20998
#
# Velocity S-wave (km/s) = 2.28423 3.62725 3.03106
# Velocity P-wave (km/s) = 3.98912 5.38134 4.73666
#
# Compressibility (1/GPa) = 0.04419726
#
# Stress axis : x y z
#
# Youngs Moduli (GPa) = 46.64329 61.81107 123.52256
#
# Poissons Ratio (x) = -0.04256 -0.08877
# Poissons Ratio (y) = -0.03212 0.26746
# Poissons Ratio (z) = -0.03352 0.13384
#
# Static dielectric constant tensor:
#      x y z
#    x 1.868220 0.000000 0.000000 
#    y 0.000000 2.032170 0.000000 
#    z 0.000000 0.000000 2.075360 
# 
# From -- ./inp_files/5102.got.cif
#   From: 2010.05.17/outbox.cif.g08.bks.cpg/sg31_3_cif.got.tgz:5102.got - 2010.06.03 17:08:30.
