data_PCOD9342279
_publ_section_title
;
Structure prediction by ZEFSAII (Michael W. Deem and Ramdas Pophale) SiO2 
 PCOD9342279
Probable space group: P N C 2
;
_chemical_formula_sum "Si O2"
_cell_formula_units_Z 16
_cell_length_a 5.092054
_cell_length_b 16.493479
_cell_length_c 8.609379
_cell_angle_alpha 90.000000
_cell_angle_beta 90.000000
_cell_angle_gamma 90.000000
_cell_volume 723.064599
_symmetry_space_group_name_H-M "P N C 2"
_symmetry_group_IT_number 30
_symmetry_cell_setting 'orthorhombic'
loop_
_space_group_symop_operation_xyz
x,y,z
-x,-y,z
-x,1/2+y,1/2+z
x,1/2-y,1/2+z
loop_
_atom_site_type_symbol
_atom_site_label
_atom_site_fract_x
_atom_site_fract_y
_atom_site_fract_z
Si Si1 0.743186 0.664564 0.880980
Si Si2 0.761033 0.053322 0.880208
Si Si3 0.505061 0.302986 0.199027
Si Si4 0.745126 0.363451 0.699671
O O1 0.681719 0.757043 0.823478
O O2 0.530669 0.613686 0.780110
O O3 0.031669 0.640324 0.829873
O O4 0.666872 0.661548 0.059830
O O5 0.684876 0.129975 0.776568
O O6 0.500000 0.000000 0.889804
O O7 0.826297 0.084228 0.053310
O O8 0.000000 0.000000 0.818500
O O9 0.687342 0.228535 0.140399
#
# Coordination Sequence:
#
# PCOD9342279 Si02
#       4
#     4   4   4   4
#     4  10  22  35  73  92 135 166 256 278 333 402
#     4  12  27  44  69 103 149 187 230 305 381 420
#     4  10  23  41  69 103 133 182 244 286 345 426
#     4  10  22  42  65 101 127 191 230 285 337 444
#
# _framework density 22.128036000000002
#
# number of rings (size 3 to 8) (size 9 to 14) (size 15 to 20)
#    1.500    0.000    2.500    1.500   10.500    0.000 
#    0.000    5.000    0.000    0.000    0.000    0.000 
#    0.000    0.000    0.000    0.000    0.000    0.000 
#
# Total GULP energy -89403.484897 kJ/mol
# GULP energy per Si atom -5587.717806 kJ/mol
# Density = 2.207767 g / cm^3
# Si number density = 22.128036 Si / 1000 Ang^3
#
#
#
# Elastic Constant Matrix: (Units=GPa)
#
#
# Indices 1 2 3 4 5 6 
#
# 1 99.1303 7.4582 2.2830 0.0000 0.0000 0.0000
# 2 7.4582 48.5882 -5.0952 0.0000 0.0000 0.0000
# 3 2.2830 -5.0952 66.9934 0.0000 0.0000 0.0000
# 4 0.0000 0.0000 0.0000 112.7848 0.0000 0.0000
# 5 0.0000 0.0000 0.0000 0.0000 21.8904 0.0000
# 6 0.0000 0.0000 0.0000 0.0000 0.0000 3.9130
#
#
#
# Elastic Compliance Matrix: (Units=1/GPa)
#
#
# Indices 1 2 3 4 5 6 
#
# 1 0.010220 -0.001618 -0.000471 0.000000 0.000000 0.000000
# 2 -0.001618 0.021003 0.001653 0.000000 0.000000 0.000000
# 3 -0.000471 0.001653 0.015069 0.000000 0.000000 0.000000
# 4 0.000000 0.000000 0.000000 0.008866 0.000000 0.000000
# 5 0.000000 0.000000 0.000000 0.000000 0.045682 0.000000
# 6 0.000000 0.000000 0.000000 0.000000 0.000000 0.255555
#
#
# Mechanical properties :
#
#
# Convention : Reuss Voigt Hill
#
# Bulk Modulus (GPa) = 22.01791 24.88933 23.45362
# Shear Modulus (GPa) = 13.42610 41.72206 27.57408
#
# Velocity S-wave (km/s) = 2.46589 4.34693 3.53387
# Velocity P-wave (km/s) = 4.25198 6.03876 5.22236
#
# Compressibility (1/GPa) = 0.04541757
#
# Stress axis : x y z
#
# Youngs Moduli (GPa) = 97.84415 47.61269 66.36321
#
# Poissons Ratio (x) = 0.07705 0.03128
# Poissons Ratio (y) = 0.15833 -0.10967
# Poissons Ratio (z) = 0.04612 -0.07868
#
# Static dielectric constant tensor:
#      x y z
#    x 1.789240 0.000000 0.000000 
#    y 0.000000 1.813000 0.000000 
#    z 0.000000 0.000000 1.781780 
# 
# From -- ./inp_files/1259.got.cif
#   From: 2010.05.17/outbox.cif.g08.bks.cpg/sg30_1_cif.got.tgz:1259.got - 2010.06.03 17:03:02.
