data_PCOD9342344
_publ_section_title
;
Structure prediction by ZEFSAII (Michael W. Deem and Ramdas Pophale) SiO2 
 PCOD9342344
Probable space group: P N C 2
;
_chemical_formula_sum "Si O2"
_cell_formula_units_Z 28
_cell_length_a 7.574073
_cell_length_b 27.812672
_cell_length_c 5.665742
_cell_angle_alpha 90.000000
_cell_angle_beta 90.000000
_cell_angle_gamma 90.000000
_cell_volume 1193.518060
_symmetry_space_group_name_H-M "P N C 2"
_symmetry_group_IT_number 30
_symmetry_cell_setting 'orthorhombic'
loop_
_space_group_symop_operation_xyz
x,y,z
-x,-y,z
-x,1/2+y,1/2+z
x,1/2-y,1/2+z
loop_
_atom_site_type_symbol
_atom_site_label
_atom_site_fract_x
_atom_site_fract_y
_atom_site_fract_z
Si Si1 0.849237 0.464234 0.120220
Si Si2 0.824392 0.234595 0.554006
Si Si3 0.684703 0.625574 0.106721
Si Si4 0.363244 0.466314 0.843426
Si Si5 0.937143 0.364960 0.880657
Si Si6 0.579670 0.731995 0.127513
Si Si7 0.922547 0.578481 0.502360
O O1 0.000000 0.500000 0.031291
O O2 0.921192 0.451193 0.378213
O O3 0.684518 0.496859 0.057073
O O4 0.857242 0.414177 0.983042
O O5 0.903696 0.260918 0.319933
O O6 0.622062 0.250578 0.598701
O O7 0.827620 0.179886 0.465453
O O8 0.582338 0.674318 0.160483
O O9 0.771821 0.597433 0.325467
O O10 0.583416 0.585538 0.951244
O O11 0.863567 0.641597 0.974150
O O12 0.500000 0.500000 0.701638
O O13 0.192469 0.451562 0.688904
O O14 0.973688 0.375724 0.608234
O O15 0.658496 0.754707 0.368605
#
# Coordination Sequence:
#
# PCOD9342344 Si02
#       7
#     4   4   4   4   4   4   4
#     4  11  21  41  64  92 133 178 214 266 337 410
#     4  10  24  45  66  96 133 171 226 288 344 413
#     4  10  23  41  66  94 132 169 224 278 336 412
#     4  11  25  42  64 103 137 174 229 284 338 409
#     4  10  23  39  67  96 124 169 226 271 333 405
#     4  10  24  45  67  93 132 179 221 278 358 412
#     4  10  22  42  65  94 134 177 223 272 341 410
#
# _framework density 23.460056999999999
#
# number of rings (size 3 to 8) (size 9 to 14) (size 15 to 20)
#    0.000    1.714    4.286    0.000   12.000    1.714 
#    0.000    0.000    0.000    0.000    0.000    0.000 
#    0.000    0.000    0.000    0.000    0.000    0.000 
#
# Total GULP energy -155923.929334 kJ/mol
# GULP energy per Si atom -5568.711762 kJ/mol
# Density = 2.340666 g / cm^3
# Si number density = 23.460057 Si / 1000 Ang^3
#
#
#
# Elastic Constant Matrix: (Units=GPa)
#
#
# Indices 1 2 3 4 5 6 
#
# 1 53.4093 -5.1815 -1.6322 0.0000 0.0000 0.0000
# 2 -5.1815 88.7629 0.4732 0.0000 0.0000 0.0000
# 3 -1.6322 0.4732 85.6587 0.0000 0.0000 0.0000
# 4 0.0000 0.0000 0.0000 30.5800 0.0000 0.0000
# 5 0.0000 0.0000 0.0000 0.0000 0.9598 0.0000
# 6 0.0000 0.0000 0.0000 0.0000 0.0000 33.5574
#
#
#
# Elastic Compliance Matrix: (Units=1/GPa)
#
#
# Indices 1 2 3 4 5 6 
#
# 1 0.018841 0.001098 0.000353 0.000000 0.000000 0.000000
# 2 0.001098 0.011330 -0.000042 0.000000 0.000000 0.000000
# 3 0.000353 -0.000042 0.011681 0.000000 0.000000 0.000000
# 4 0.000000 0.000000 0.000000 0.032701 0.000000 0.000000
# 5 0.000000 0.000000 0.000000 0.000000 1.041876 0.000000
# 6 0.000000 0.000000 0.000000 0.000000 0.000000 0.029800
#
#
# Mechanical properties :
#
#
# Convention : Reuss Voigt Hill
#
# Bulk Modulus (GPa) = 22.38615 23.90556 23.14586
# Shear Modulus (GPa) = 4.31667 28.63087 16.47377
#
# Velocity S-wave (km/s) = 1.35794 3.49723 2.65279
# Velocity P-wave (km/s) = 3.46722 5.14971 4.38982
#
# Compressibility (1/GPa) = 0.04467047
#
# Stress axis : x y z
#
# Youngs Moduli (GPa) = 53.07680 88.25907 85.60771
#
# Poissons Ratio (x) = -0.09690 -0.03021
# Poissons Ratio (y) = -0.05827 0.00357
# Poissons Ratio (z) = -0.01873 0.00368
#
# Static dielectric constant tensor:
#      x y z
#    x 1.982490 0.000000 0.000000 
#    y 0.000000 1.870160 0.000000 
#    z 0.000000 0.000000 2.006650 
# 
# From -- ./inp_files/509.got.cif
#   From: 2010.05.17/outbox.cif.g08.bks.cpg/sg30_1_cif.got.tgz:509.got - 2010.06.03 17:03:02.
