data_PCOD9342374
_publ_section_title
;
Structure prediction by ZEFSAII (Michael W. Deem and Ramdas Pophale) SiO2 
 PCOD9342374
Probable space group: P N C 2
;
_chemical_formula_sum "Si O2"
_cell_formula_units_Z 20
_cell_length_a 14.222265
_cell_length_b 11.570440
_cell_length_c 4.877985
_cell_angle_alpha 90.000000
_cell_angle_beta 90.000000
_cell_angle_gamma 90.000000
_cell_volume 802.710791
_symmetry_space_group_name_H-M "P N C 2"
_symmetry_group_IT_number 30
_symmetry_cell_setting 'orthorhombic'
loop_
_space_group_symop_operation_xyz
x,y,z
-x,-y,z
-x,1/2+y,1/2+z
x,1/2-y,1/2+z
loop_
_atom_site_type_symbol
_atom_site_label
_atom_site_fract_x
_atom_site_fract_y
_atom_site_fract_z
Si Si1 0.349841 0.660097 0.651810
Si Si2 0.361906 0.170738 0.745582
Si Si3 0.500000 0.000000 0.430175
Si Si4 0.794374 0.998982 0.856277
Si Si5 0.110167 0.673450 0.986745
Si Si6 0.000000 0.000000 0.789112
O O1 0.345336 0.744899 0.391785
O O2 0.440083 0.585504 0.739176
O O3 0.273414 0.561714 0.571815
O O4 0.374789 0.281308 0.550226
O O5 0.431791 0.073893 0.628493
O O6 0.258557 0.113444 0.745774
O O7 0.902648 0.978685 0.949068
O O8 0.810763 0.088048 0.603890
O O9 0.115592 0.787454 0.176512
O O10 0.017160 0.608404 0.087742
#
# Coordination Sequence:
#
# PCOD9342374 Si02
#       6
#     4   4   2   4   4   2
#     4  12  26  46  78 112 148 200 254 319 391 458
#     4  12  28  49  76 111 154 202 253 321 398 461
#     4  12  28  52  78 114 158 198 262 328 390 494
#     4  10  24  49  72 117 150 204 255 323 364 479
#     4  10  22  43  69 102 145 195 249 307 370 438
#     4   8  24  46  72 114 150 204 254 320 366 458
#
# _framework density 24.915576000000001
#
# number of rings (size 3 to 8) (size 9 to 14) (size 15 to 20)
#    1.200    0.000    0.000    4.800    0.000   11.200 
#    0.000    0.000    0.000    0.000    0.000    0.000 
#    0.000    0.000    0.000    0.000    0.000    0.000 
#
# Total GULP energy -111838.418949 kJ/mol
# GULP energy per Si atom -5591.920947 kJ/mol
# Density = 2.485887 g / cm^3
# Si number density = 24.915576 Si / 1000 Ang^3
#
#
#
# Elastic Constant Matrix: (Units=GPa)
#
#
# Indices 1 2 3 4 5 6 
#
# 1 171.6503 48.8201 36.8664 0.0000 0.0000 0.0000
# 2 48.8201 84.4605 21.4824 0.0000 0.0000 0.0000
# 3 36.8664 21.4824 118.2333 0.0000 0.0000 0.0000
# 4 0.0000 0.0000 0.0000 21.8918 0.0000 0.0000
# 5 0.0000 0.0000 0.0000 0.0000 6.8749 0.0000
# 6 0.0000 0.0000 0.0000 0.0000 0.0000 64.1401
#
#
#
# Elastic Compliance Matrix: (Units=1/GPa)
#
#
# Indices 1 2 3 4 5 6 
#
# 1 0.007240 -0.003785 -0.001570 0.000000 0.000000 0.000000
# 2 -0.003785 0.014393 -0.001435 0.000000 0.000000 0.000000
# 3 -0.001570 -0.001435 0.009208 0.000000 0.000000 0.000000
# 4 0.000000 0.000000 0.000000 0.045679 0.000000 0.000000
# 5 0.000000 0.000000 0.000000 0.000000 0.145457 0.000000
# 6 0.000000 0.000000 0.000000 0.000000 0.000000 0.015591
#
#
# Mechanical properties :
#
#
# Convention : Reuss Voigt Hill
#
# Bulk Modulus (GPa) = 57.93467 65.40911 61.67189
# Shear Modulus (GPa) = 19.46282 36.39304 27.92793
#
# Velocity S-wave (km/s) = 2.79794 3.82600 3.35162
# Velocity P-wave (km/s) = 5.80868 6.76956 6.30745
#
# Compressibility (1/GPa) = 0.01726082
#
# Stress axis : x y z
#
# Youngs Moduli (GPa) = 138.13041 69.47896 108.60171
#
# Poissons Ratio (x) = 0.26301 0.17046
# Poissons Ratio (y) = 0.52288 0.15582
# Poissons Ratio (z) = 0.21681 0.09969
#
# Static dielectric constant tensor:
#      x y z
#    x 2.157760 0.000000 0.000000 
#    y 0.000000 1.974240 0.000000 
#    z 0.000000 0.000000 1.938180 
# 
# From -- ./inp_files/876.got.cif
#   From: 2010.05.17/outbox.cif.g08.bks.cpg/sg30_1_cif.got.tgz:876.got - 2010.06.03 17:03:02.
