data_PCOD9342727
_publ_section_title
;
Structure prediction by ZEFSAII (Michael W. Deem and Ramdas Pophale) SiO2 
 PCOD9342727
Probable space group: P M N 21
;
_chemical_formula_sum "Si O2"
_cell_formula_units_Z 32
_cell_length_a 8.031160
_cell_length_b 10.883489
_cell_length_c 17.673074
_cell_angle_alpha 90.000000
_cell_angle_beta 90.000000
_cell_angle_gamma 90.000000
_cell_volume 1544.751113
_symmetry_space_group_name_H-M "P M N 21"
_symmetry_group_IT_number 31
_symmetry_cell_setting 'orthorhombic'
loop_
_space_group_symop_operation_xyz
x,y,z
1/2-x,-y,1/2+z
-x,y,z
1/2+x,-y,1/2+z
loop_
_atom_site_type_symbol
_atom_site_label
_atom_site_fract_x
_atom_site_fract_y
_atom_site_fract_z
Si Si1 0.194318 0.279501 0.543960
Si Si2 0.295870 0.459114 0.102338
Si Si3 0.186357 0.122161 0.158032
Si Si4 0.808289 0.840616 0.195917
Si Si5 0.188656 0.662968 0.750941
Si Si6 0.200774 0.784131 0.511533
Si Si7 0.696691 0.175386 0.384871
Si Si8 0.298891 0.106935 0.855155
O O1 0.261218 0.415204 0.564000
O O2 0.214478 0.208271 0.622992
O O3 0.273919 0.212545 0.471903
O O4 0.000000 0.290493 0.525295
O O5 0.500000 0.460903 0.105664
O O6 0.239137 0.434169 0.189464
O O7 0.247323 0.345179 0.048620
O O8 0.310902 0.213707 0.199365
O O9 0.231986 0.115977 0.070348
O O10 0.000000 0.173450 0.167594
O O11 0.188421 0.987823 0.190930
O O12 0.735023 0.825163 0.279616
O O13 0.000000 0.795690 0.191457
O O14 0.266366 0.716973 0.828533
O O15 0.000000 0.622143 0.767845
O O16 0.259584 0.819212 0.428697
O O17 0.000000 0.786944 0.511400
O O18 0.500000 0.171827 0.370480
O O19 0.760679 0.038333 0.365404
O O20 0.500000 0.114376 0.850682
#
# Coordination Sequence:
#
# PCOD9342727 Si02
#       8
#     4   4   4   4   4   4   4   4
#     4  11  23  38  57  79 110 152 193 231 276 332
#     4   8  17  37  58  77 103 141 192 232 264 323
#     4  10  18  30  52  80 111 138 169 220 274 321
#     4  10  21  36  53  79 117 147 177 228 281 330
#     4   9  18  35  59  81 105 143 185 225 273 330
#     4   9  18  34  57  79 104 142 183 221 269 328
#     4  11  22  36  58  86 116 145 182 234 286 337
#     4  10  20  36  58  85 114 144 181 227 279 339
#
# _framework density 20.715311
#
# number of rings (size 3 to 8) (size 9 to 14) (size 15 to 20)
#    0.000    2.250    1.250    2.625    0.000    4.500 
#    2.250    5.000    0.000    0.000    0.000    0.000 
#    0.000    0.000    0.000    0.000    0.000    0.000 
#
# Total GULP energy -178307.061060 kJ/mol
# GULP energy per Si atom -5572.095658 kJ/mol
# Density = 2.066816 g / cm^3
# Si number density = 20.715311 Si / 1000 Ang^3
#
#
#
# Elastic Constant Matrix: (Units=GPa)
#
#
# Indices 1 2 3 4 5 6 
#
# 1 21.6337 0.6363 0.2184 0.0000 0.0000 0.0000
# 2 0.6363 41.3882 24.2702 0.0000 0.0000 0.0000
# 3 0.2184 24.2702 158.6849 0.0000 0.0000 0.0000
# 4 0.0000 0.0000 0.0000 24.1717 0.0000 0.0000
# 5 0.0000 0.0000 0.0000 0.0000 0.3406 0.0000
# 6 0.0000 0.0000 0.0000 0.0000 0.0000 14.0269
#
#
#
# Elastic Compliance Matrix: (Units=1/GPa)
#
#
# Indices 1 2 3 4 5 6 
#
# 1 0.046245 -0.000740 0.000050 0.000000 0.000000 0.000000
# 2 -0.000740 0.026554 -0.004060 0.000000 0.000000 0.000000
# 3 0.000050 -0.004060 0.006923 0.000000 0.000000 0.000000
# 4 0.000000 0.000000 0.000000 0.041371 0.000000 0.000000
# 5 0.000000 0.000000 0.000000 0.000000 2.936280 0.000000
# 6 0.000000 0.000000 0.000000 0.000000 0.000000 0.071291
#
#
# Mechanical properties :
#
#
# Convention : Reuss Voigt Hill
#
# Bulk Modulus (GPa) = 14.24085 30.21737 22.22911
# Shear Modulus (GPa) = 1.58149 20.81331 11.19740
#
# Velocity S-wave (km/s) = 0.87470 3.17319 2.32747
# Velocity P-wave (km/s) = 2.81240 5.29567 4.23991
#
# Compressibility (1/GPa) = 0.07022055
#
# Stress axis : x y z
#
# Youngs Moduli (GPa) = 21.62377 37.65936 144.45169
#
# Poissons Ratio (x) = 0.02787 -0.00716
# Poissons Ratio (y) = 0.01600 0.58651
# Poissons Ratio (z) = -0.00107 0.15291
#
# Static dielectric constant tensor:
#      x y z
#    x 1.768990 0.000000 0.000000 
#    y 0.000000 1.734870 0.000000 
#    z 0.000000 0.000000 1.790310 
# 
# From -- ./inp_files/5934.got.cif
#   From: 2010.05.17/outbox.cif.g08.bks.cpg/sg31_3_cif.got.tgz:5934.got - 2010.06.03 17:08:30.
