data_PCOD9342298
_publ_section_title
;
Structure prediction by ZEFSAII (Michael W. Deem and Ramdas Pophale) SiO2 
 PCOD9342298
Probable space group: P N C 2
;
_chemical_formula_sum "Si O2"
_cell_formula_units_Z 26
_cell_length_a 11.735608
_cell_length_b 11.208210
_cell_length_c 8.845893
_cell_angle_alpha 90.000000
_cell_angle_beta 90.000000
_cell_angle_gamma 90.000000
_cell_volume 1163.545942
_symmetry_space_group_name_H-M "P N C 2"
_symmetry_group_IT_number 30
_symmetry_cell_setting 'orthorhombic'
loop_
_space_group_symop_operation_xyz
x,y,z
-x,-y,z
-x,1/2+y,1/2+z
x,1/2-y,1/2+z
loop_
_atom_site_type_symbol
_atom_site_label
_atom_site_fract_x
_atom_site_fract_y
_atom_site_fract_z
Si Si1 0.852092 0.637771 0.189970
Si Si2 0.524411 0.236429 0.317597
Si Si3 0.763039 0.254144 0.483403
Si Si4 0.113409 0.873664 0.720645
Si Si5 0.720013 0.840742 0.376237
Si Si6 0.652999 0.457724 0.635661
Si Si7 0.500000 0.000000 0.858781
O O1 0.861828 0.508888 0.270593
O O2 0.791644 0.738169 0.290223
O O3 0.986953 0.658998 0.166063
O O4 0.784223 0.630861 0.031870
O O5 0.637486 0.235263 0.418446
O O6 0.408468 0.206208 0.403967
O O7 0.552436 0.130481 0.199288
O O8 0.512333 0.375857 0.268064
O O9 0.803185 0.144523 0.580278
O O10 0.849693 0.286634 0.353021
O O11 0.753583 0.367326 0.593765
O O12 0.697740 0.949503 0.259157
O O13 0.606474 0.508803 0.476142
#
# Coordination Sequence:
#
# PCOD9342298 Si02
#       7
#     4   4   4   4   4   4   2
#     4  11  28  44  73 100 141 185 238 300 351 431
#     4  11  23  40  70 104 141 183 233 289 359 438
#     4  11  24  43  75  96 136 187 235 295 353 422
#     4  11  25  50  69 101 138 182 252 288 355 431
#     4  12  25  45  69 106 147 183 232 294 369 427
#     4  11  22  42  65 105 143 189 232 291 357 434
#     4  10  22  38  62 100 144 186 234 278 352 436
#
# _framework density 22.345486000000001
#
# number of rings (size 3 to 8) (size 9 to 14) (size 15 to 20)
#    0.000    0.923    3.077    2.769    8.615    0.000 
#    0.000    1.538    0.000    0.000    0.000    0.000 
#    0.000    0.000    0.000    0.000    0.000    0.000 
#
# Total GULP energy -145240.168115 kJ/mol
# GULP energy per Si atom -5586.160312 kJ/mol
# Density = 2.229463 g / cm^3
# Si number density = 22.345486 Si / 1000 Ang^3
#
#
#
# Elastic Constant Matrix: (Units=GPa)
#
#
# Indices 1 2 3 4 5 6 
#
# 1 100.9981 21.9056 4.3713 0.0000 0.0000 0.0000
# 2 21.9056 95.1637 18.9732 0.0000 0.0000 0.0000
# 3 4.3713 18.9732 37.0342 0.0000 0.0000 0.0000
# 4 0.0000 0.0000 0.0000 39.2209 0.0000 0.0000
# 5 0.0000 0.0000 0.0000 0.0000 26.9927 0.0000
# 6 0.0000 0.0000 0.0000 0.0000 0.0000 30.2310
#
#
#
# Elastic Compliance Matrix: (Units=1/GPa)
#
#
# Indices 1 2 3 4 5 6 
#
# 1 0.010421 -0.002399 -0.000001 0.000000 0.000000 0.000000
# 2 -0.002399 0.012256 -0.005996 0.000000 0.000000 0.000000
# 3 -0.000001 -0.005996 0.030074 0.000000 0.000000 0.000000
# 4 0.000000 0.000000 0.000000 0.025497 0.000000 0.000000
# 5 0.000000 0.000000 0.000000 0.000000 0.037047 0.000000
# 6 0.000000 0.000000 0.000000 0.000000 0.000000 0.033079
#
#
# Mechanical properties :
#
#
# Convention : Reuss Voigt Hill
#
# Bulk Modulus (GPa) = 27.80868 35.96624 31.88746
# Shear Modulus (GPa) = 28.22449 31.81865 30.02157
#
# Velocity S-wave (km/s) = 3.55786 3.77761 3.66938
# Velocity P-wave (km/s) = 5.41754 5.92938 5.67923
#
# Compressibility (1/GPa) = 0.03595999
#
# Stress axis : x y z
#
# Youngs Moduli (GPa) = 95.95562 81.59447 33.25144
#
# Poissons Ratio (x) = 0.19572 0.00004
# Poissons Ratio (y) = 0.23017 0.19936
# Poissons Ratio (z) = 0.00012 0.48921
#
# Static dielectric constant tensor:
#      x y z
#    x 1.821390 0.000000 0.000000 
#    y 0.000000 1.883730 0.000000 
#    z 0.000000 0.000000 1.835230 
# 
# From -- ./inp_files/2374.got.cif
#   From: 2010.05.17/outbox.cif.g08.bks.cpg/sg30_2_cif.got.tgz:2374.got - 2010.06.03 17:03:02.
