data_PCOD9342720
_publ_section_title
;
Structure prediction by ZEFSAII (Michael W. Deem and Ramdas Pophale) SiO2 
 PCOD9342720
Probable space group: P M N 21
;
_chemical_formula_sum "Si O2"
_cell_formula_units_Z 24
_cell_length_a 8.388525
_cell_length_b 14.383772
_cell_length_c 7.967991
_cell_angle_alpha 90.000000
_cell_angle_beta 90.000000
_cell_angle_gamma 90.000000
_cell_volume 961.406886
_symmetry_space_group_name_H-M "P M N 21"
_symmetry_group_IT_number 31
_symmetry_cell_setting 'orthorhombic'
loop_
_space_group_symop_operation_xyz
x,y,z
1/2-x,-y,1/2+z
-x,y,z
1/2+x,-y,1/2+z
loop_
_atom_site_type_symbol
_atom_site_label
_atom_site_fract_x
_atom_site_fract_y
_atom_site_fract_z
Si Si1 0.816857 0.814448 0.075370
Si Si2 0.686983 0.647802 0.889701
Si Si3 0.812815 0.854119 0.598760
Si Si4 0.311201 0.699389 0.388026
Si Si5 0.810234 0.480523 0.711601
Si Si6 0.311965 0.969384 0.286793
O O1 0.775021 0.744933 0.923235
O O2 0.786089 0.750785 0.240619
O O3 0.000000 0.842368 0.063518
O O4 0.715166 0.905041 0.122185
O O5 0.500000 0.667642 0.895623
O O6 0.728649 0.580868 0.048631
O O7 0.725774 0.578549 0.738003
O O8 0.782775 0.918134 0.433474
O O9 0.000000 0.835254 0.615673
O O10 0.723782 0.758366 0.554996
O O11 0.762292 0.925265 0.745030
O O12 0.500000 0.708344 0.351001
O O13 0.270768 0.591422 0.363753
O O14 0.000000 0.497599 0.712036
O O15 0.500000 0.968282 0.327458
#
# Coordination Sequence:
#
# PCOD9342720 Si02
#       6
#     4   4   4   4   4   4
#     4  10  18  30  51  74  98 131 169 205 244 296
#     4  10  20  34  53  76 102 132 166 206 250 295
#     4  10  20  33  52  77 101 130 169 207 247 297
#     4   9  17  31  51  73 100 132 166 204 245 294
#     4   9  19  34  51  75 102 130 167 205 245 295
#     4  10  20  34  52  75 103 133 167 207 249 295
#
# _framework density 24.963417
#
# number of rings (size 3 to 8) (size 9 to 14) (size 15 to 20)
#    0.000    2.333    0.000    6.500    0.000    6.667 
#    0.000    1.667    0.000    4.000    0.000    0.000 
#    0.000    0.000    0.000    0.000    0.000    0.000 
#
# Total GULP energy -134220.310744 kJ/mol
# GULP energy per Si atom -5592.512948 kJ/mol
# Density = 2.490660 g / cm^3
# Si number density = 24.963417 Si / 1000 Ang^3
#
#
#
# Elastic Constant Matrix: (Units=GPa)
#
#
# Indices 1 2 3 4 5 6 
#
# 1 42.8132 31.1171 2.4071 0.0000 0.0000 0.0000
# 2 31.1171 162.0125 4.7474 0.0000 0.0000 0.0000
# 3 2.4071 4.7474 73.9287 0.0000 0.0000 0.0000
# 4 0.0000 0.0000 0.0000 49.4039 0.0000 0.0000
# 5 0.0000 0.0000 0.0000 0.0000 29.9783 0.0000
# 6 0.0000 0.0000 0.0000 0.0000 0.0000 19.1236
#
#
#
# Elastic Compliance Matrix: (Units=1/GPa)
#
#
# Indices 1 2 3 4 5 6 
#
# 1 0.027169 -0.005202 -0.000551 0.000000 0.000000 0.000000
# 2 -0.005202 0.007180 -0.000292 0.000000 0.000000 0.000000
# 3 -0.000551 -0.000292 0.013563 0.000000 0.000000 0.000000
# 4 0.000000 0.000000 0.000000 0.020241 0.000000 0.000000
# 5 0.000000 0.000000 0.000000 0.000000 0.033357 0.000000
# 6 0.000000 0.000000 0.000000 0.000000 0.000000 0.052291
#
#
# Mechanical properties :
#
#
# Convention : Reuss Voigt Hill
#
# Bulk Modulus (GPa) = 27.91452 39.47752 33.69602
# Shear Modulus (GPa) = 28.11629 35.73333 31.92481
#
# Velocity S-wave (km/s) = 3.35968 3.78753 3.58000
# Velocity P-wave (km/s) = 5.12410 5.91402 5.53317
#
# Compressibility (1/GPa) = 0.03582364
#
# Stress axis : x y z
#
# Youngs Moduli (GPa) = 36.80637 139.27446 73.72887
#
# Poissons Ratio (x) = 0.72453 0.04059
# Poissons Ratio (y) = 0.19147 0.02151
# Poissons Ratio (z) = 0.02026 0.04062
#
# Static dielectric constant tensor:
#      x y z
#    x 1.808450 0.000000 0.000000 
#    y 0.000000 1.966670 0.000000 
#    z 0.000000 0.000000 2.160090 
# 
# From -- ./inp_files/3472.got.cif
#   From: 2010.05.17/outbox.cif.g08.bks.cpg/sg31_2_cif.got.tgz:3472.got - 2010.06.03 17:08:30.
