data_PCOD9342648
_publ_section_title
;
Structure prediction by ZEFSAII (Michael W. Deem and Ramdas Pophale) SiO2 
 PCOD9342648
Probable space group: P N C 2
;
_chemical_formula_sum "Si O2"
_cell_formula_units_Z 20
_cell_length_a 4.980739
_cell_length_b 15.512120
_cell_length_c 10.655904
_cell_angle_alpha 90.000000
_cell_angle_beta 90.000000
_cell_angle_gamma 90.000000
_cell_volume 823.294548
_symmetry_space_group_name_H-M "P N C 2"
_symmetry_group_IT_number 30
_symmetry_cell_setting 'orthorhombic'
loop_
_space_group_symop_operation_xyz
x,y,z
-x,-y,z
-x,1/2+y,1/2+z
x,1/2-y,1/2+z
loop_
_atom_site_type_symbol
_atom_site_label
_atom_site_fract_x
_atom_site_fract_y
_atom_site_fract_z
Si Si1 0.091012 0.087717 0.079570
Si Si2 0.392919 0.654892 0.202701
Si Si3 0.091012 0.087717 0.579570
Si Si4 0.392920 0.654892 0.702701
Si Si5 0.500000 0.500000 0.884737
Si Si6 0.500000 0.000000 0.884738
O O1 0.306023 0.145025 0.151769
O O2 0.812452 0.139442 0.086300
O O3 0.000000 0.000000 0.148316
O O4 0.264452 0.046438 0.965814
O O5 0.693975 0.645025 0.151769
O O6 0.345532 0.750000 0.255331
O O7 0.377862 0.577964 0.303127
O O8 0.187546 0.639442 0.086300
O O9 0.264452 0.046437 0.465814
O O10 0.000000 0.000000 0.648316
O O11 0.377862 0.577964 0.803127
#
# Coordination Sequence:
#
# PCOD9342648 Si02
#       6
#     4   4   4   4   2   2
#     4  12  24  49  75 105 153 196 247 309 378 440
#     4  12  28  48  76 114 152 196 256 313 369 450
#     4  12  24  49  75 105 153 196 247 309 378 440
#     4  12  28  48  76 114 152 196 256 313 369 450
#     4  12  26  48  84 106 152 208 248 308 384 450
#     4  12  26  48  84 106 152 208 248 308 384 450
#
# _framework density 24.292639999999999
#
# number of rings (size 3 to 8) (size 9 to 14) (size 15 to 20)
#    0.000    0.000    8.000    1.200    5.600    3.200 
#    0.000    0.000    0.000    0.000    0.000    0.000 
#    0.000    0.000    0.000    0.000    0.000    0.000 
#
# Total GULP energy -111458.361431 kJ/mol
# GULP energy per Si atom -5572.918072 kJ/mol
# Density = 2.423735 g / cm^3
# Si number density = 24.292640 Si / 1000 Ang^3
#
#
#
# Elastic Constant Matrix: (Units=GPa)
#
#
# Indices 1 2 3 4 5 6 
#
# 1 158.5666 28.0097 42.0999 0.0000 0.0000 0.0000
# 2 28.0097 192.8868 69.9776 0.0000 0.0000 0.0000
# 3 42.0999 69.9776 87.7165 0.0000 0.0000 0.0000
# 4 0.0000 0.0000 0.0000 27.4342 0.0000 0.0000
# 5 0.0000 0.0000 0.0000 0.0000 6.2561 0.0000
# 6 0.0000 0.0000 0.0000 0.0000 0.0000 28.8616
#
#
#
# Elastic Compliance Matrix: (Units=1/GPa)
#
#
# Indices 1 2 3 4 5 6 
#
# 1 0.007239 0.000295 -0.003710 0.000000 0.000000 0.000000
# 2 0.000295 0.007308 -0.005971 0.000000 0.000000 0.000000
# 3 -0.003710 -0.005971 0.017945 0.000000 0.000000 0.000000
# 4 0.000000 0.000000 0.000000 0.036451 0.000000 0.000000
# 5 0.000000 0.000000 0.000000 0.000000 0.159844 0.000000
# 6 0.000000 0.000000 0.000000 0.000000 0.000000 0.034648
#
#
# Mechanical properties :
#
#
# Convention : Reuss Voigt Hill
#
# Bulk Modulus (GPa) = 72.89131 79.92715 76.40923
# Shear Modulus (GPa) = 17.43492 32.44923 24.94207
#
# Velocity S-wave (km/s) = 2.68191 3.65878 3.20774
# Velocity P-wave (km/s) = 6.29768 7.12896 6.72618
#
# Compressibility (1/GPa) = 0.01371906
#
# Stress axis : x y z
#
# Youngs Moduli (GPa) = 138.13372 136.83606 55.72696
#
# Poissons Ratio (x) = -0.04030 0.20672
# Poissons Ratio (y) = -0.04069 0.33277
# Poissons Ratio (z) = 0.51241 0.81711
#
# Static dielectric constant tensor:
#      x y z
#    x 1.982580 0.000000 0.000000 
#    y 0.000000 1.929450 0.000000 
#    z 0.000000 0.000000 2.010740 
# 
# From -- ./inp_files/3072.got.cif
#   From: 2010.05.17/outbox.cif.g08.bks.cpg/sg30_2_cif.got.tgz:3072.got - 2010.06.03 17:03:02.
