data_PCOD9342730
_publ_section_title
;
Structure prediction by ZEFSAII (Michael W. Deem and Ramdas Pophale) SiO2 
 PCOD9342730
Probable space group: P M N 21
;
_chemical_formula_sum "Si O2"
_cell_formula_units_Z 32
_cell_length_a 7.543344
_cell_length_b 12.368565
_cell_length_c 15.039032
_cell_angle_alpha 90.000000
_cell_angle_beta 90.000000
_cell_angle_gamma 90.000000
_cell_volume 1403.146808
_symmetry_space_group_name_H-M "P M N 21"
_symmetry_group_IT_number 31
_symmetry_cell_setting 'orthorhombic'
loop_
_space_group_symop_operation_xyz
x,y,z
1/2-x,-y,1/2+z
-x,y,z
1/2+x,-y,1/2+z
loop_
_atom_site_type_symbol
_atom_site_label
_atom_site_fract_x
_atom_site_fract_y
_atom_site_fract_z
Si Si1 0.291071 0.993987 0.778010
Si Si2 0.783710 0.491451 0.093711
Si Si3 0.797874 0.235925 0.781155
Si Si4 0.295184 0.734635 0.087661
Si Si5 0.286426 0.707148 0.470344
Si Si6 0.718302 0.793535 0.899804
Si Si7 0.799618 0.364675 0.256663
Si Si8 0.793077 0.834090 0.634973
O O1 0.500000 0.009542 0.791585
O O2 0.229473 0.899096 0.844300
O O3 0.261709 0.947013 0.678636
O O4 0.199451 0.107157 0.794135
O O5 0.712948 0.607451 0.067600
O O6 0.721208 0.456657 0.193081
O O7 0.000000 0.493457 0.095024
O O8 0.727552 0.398394 0.024853
O O9 0.711427 0.252803 0.684894
O O10 0.716969 0.285991 0.870233
O O11 0.000000 0.277952 0.774974
O O12 0.500000 0.771262 0.095266
O O13 0.220312 0.793406 0.001121
O O14 0.500000 0.704277 0.466118
O O15 0.239345 0.810323 0.531688
O O16 0.500000 0.789843 0.898582
O O17 0.780410 0.686747 0.845609
O O18 0.805267 0.260455 0.190170
O O19 0.000000 0.398526 0.278051
O O20 0.000000 0.819048 0.652506
#
# Coordination Sequence:
#
# PCOD9342730 Si02
#       8
#     4   4   4   4   4   4   4   4
#     4  10  20  36  57  79 107 144 181 220 272 327
#     4   9  18  33  53  76 104 141 182 222 268 322
#     4  10  22  38  54  77 111 146 179 221 274 325
#     4  10  21  36  53  77 110 141 172 218 270 318
#     4   9  19  37  56  75 107 148 184 221 271 326
#     4   8  16  33  55  76 100 136 178 215 258 314
#     4   8  15  31  53  75 103 138 174 216 266 314
#     4  10  18  30  53  83 108 132 174 227 269 314
#
# _framework density 22.805882
#
# number of rings (size 3 to 8) (size 9 to 14) (size 15 to 20)
#    0.000    2.750    0.000    3.000    0.000    5.000 
#    0.000    4.375    0.000    0.000    0.000    0.000 
#    0.000    0.000    0.000    0.000    0.000    0.000 
#
# Total GULP energy -178546.582883 kJ/mol
# GULP energy per Si atom -5579.580715 kJ/mol
# Density = 2.275397 g / cm^3
# Si number density = 22.805882 Si / 1000 Ang^3
#
#
#
# Elastic Constant Matrix: (Units=GPa)
#
#
# Indices 1 2 3 4 5 6 
#
# 1 73.3258 -7.7078 2.8199 0.0000 0.0000 0.0000
# 2 -7.7078 44.8445 23.0657 0.0000 0.0000 0.0000
# 3 2.8199 23.0657 181.2120 0.0000 0.0000 0.0000
# 4 0.0000 0.0000 0.0000 24.2130 0.0000 0.0000
# 5 0.0000 0.0000 0.0000 0.0000 -10.0988 0.0000
# 6 0.0000 0.0000 0.0000 0.0000 0.0000 17.1329
#
#
#
# Elastic Compliance Matrix: (Units=1/GPa)
#
#
# Indices 1 2 3 4 5 6 
#
# 1 0.013941 0.002683 -0.000559 0.000000 0.000000 0.000000
# 2 0.002683 0.024378 -0.003145 0.000000 0.000000 0.000000
# 3 -0.000559 -0.003145 0.005927 0.000000 0.000000 0.000000
# 4 0.000000 0.000000 0.000000 0.041300 0.000000 0.000000
# 5 0.000000 0.000000 0.000000 0.000000 -0.099022 0.000000
# 6 0.000000 0.000000 0.000000 0.000000 0.000000 0.058367
#
#
# Mechanical properties :
#
#
# Convention : Reuss Voigt Hill
#
# Bulk Modulus (GPa) = 23.69268 37.30422 30.49845
# Shear Modulus (GPa) = 81.96640 24.99639 53.48140
#
# Velocity S-wave (km/s) = 6.00158 3.31426 4.84785
# Velocity P-wave (km/s) = 7.64439 5.57122 6.68862
#
# Compressibility (1/GPa) = 0.04220713
#
# Stress axis : x y z
#
# Youngs Moduli (GPa) = 71.72922 41.02064 168.70892
#
# Poissons Ratio (x) = -0.11008 0.09423
# Poissons Ratio (y) = -0.19248 0.53054
# Poissons Ratio (z) = 0.04006 0.12900
#
# Static dielectric constant tensor:
#      x y z
#    x 1.842430 0.000000 0.000000 
#    y 0.000000 1.834160 0.000000 
#    z 0.000000 0.000000 1.900510 
# 
# From -- ./inp_files/5015.got.cif
#   From: 2010.05.17/outbox.cif.g08.bks.cpg/sg31_3_cif.got.tgz:5015.got - 2010.06.03 17:08:30.
