data_PCOD9342010
_publ_section_title
;
Structure prediction by ZEFSAII (Michael W. Deem and Ramdas Pophale) SiO2 
 PCOD9342010
Probable space group: P N C 2
;
_chemical_formula_sum "Si O2"
_cell_formula_units_Z 30
_cell_length_a 9.725845
_cell_length_b 7.808327
_cell_length_c 21.618879
_cell_angle_alpha 90.000000
_cell_angle_beta 90.000000
_cell_angle_gamma 90.000000
_cell_volume 1641.793407
_symmetry_space_group_name_H-M "P N C 2"
_symmetry_group_IT_number 30
_symmetry_cell_setting 'orthorhombic'
loop_
_space_group_symop_operation_xyz
x,y,z
-x,-y,z
-x,1/2+y,1/2+z
x,1/2-y,1/2+z
loop_
_atom_site_type_symbol
_atom_site_label
_atom_site_fract_x
_atom_site_fract_y
_atom_site_fract_z
Si Si1 0.500000 0.000000 0.861030
Si Si2 0.845838 0.560590 0.149543
Si Si3 0.154241 0.936976 0.328244
Si Si4 0.401923 0.844698 0.176966
Si Si5 0.844949 0.563965 0.697794
Si Si6 0.625496 0.374602 0.062950
Si Si7 0.390104 0.653093 0.924851
Si Si8 0.276403 0.895719 0.770687
O O1 0.536610 0.173884 0.898763
O O2 0.638470 0.989532 0.818782
O O3 0.832209 0.763868 0.158737
O O4 0.745579 0.475660 0.099105
O O5 0.802170 0.493857 0.217187
O O6 0.000000 0.500000 0.136591
O O7 0.263460 0.917657 0.383331
O O8 0.170726 0.744011 0.299461
O O9 0.196701 0.062451 0.270896
O O10 0.000000 0.000000 0.345537
O O11 0.434922 0.760805 0.111848
O O12 0.393214 0.712508 0.233360
O O13 0.500000 0.000000 0.192706
O O14 0.249713 0.919002 0.168741
O O15 0.000000 0.500000 0.698107
O O16 0.500000 0.500000 0.052273
O O17 0.662340 0.309926 0.994665
O O18 0.500000 0.500000 0.923318
#
# Coordination Sequence:
#
# PCOD9342010 Si02
#       8
#     2   4   4   4   4   4   4   4
#     4  10  22  38  60  88 122 158 198 254 294 360
#     4  11  21  35  59  86 118 152 186 242 302 359
#     4   9  18  36  56  82 115 150 190 241 298 358
#     4  10  20  32  55  83 111 151 185 238 295 343
#     4  10  20  34  54  84 116 145 184 232 298 360
#     4  10  22  39  55  82 115 152 201 241 286 347
#     4  10  23  40  60  85 114 160 210 244 292 347
#     4   9  21  33  54  88 120 147 193 240 306 362
#
# _framework density 18.272701999999999
#
# number of rings (size 3 to 8) (size 9 to 14) (size 15 to 20)
#    0.000    2.133    0.000    4.000    8.400    4.267 
#    0.000    0.000    0.000    0.000    0.000    0.000 
#    0.000    0.000    0.000    0.000    0.000    0.000 
#
# Total GULP energy -167057.930699 kJ/mol
# GULP energy per Si atom -5568.597690 kJ/mol
# Density = 1.823111 g / cm^3
# Si number density = 18.272702 Si / 1000 Ang^3
#
#
#
# Elastic Constant Matrix: (Units=GPa)
#
#
# Indices 1 2 3 4 5 6 
#
# 1 72.2469 18.5662 33.4688 0.0000 0.0000 0.0000
# 2 18.5662 60.0734 28.1403 0.0000 0.0000 0.0000
# 3 33.4688 28.1403 81.2566 0.0000 0.0000 0.0000
# 4 0.0000 0.0000 0.0000 11.5052 0.0000 0.0000
# 5 0.0000 0.0000 0.0000 0.0000 13.1348 0.0000
# 6 0.0000 0.0000 0.0000 0.0000 0.0000 32.4528
#
#
#
# Elastic Compliance Matrix: (Units=1/GPa)
#
#
# Indices 1 2 3 4 5 6 
#
# 1 0.017393 -0.002411 -0.006329 0.000000 0.000000 0.000000
# 2 -0.002411 0.020204 -0.006004 0.000000 0.000000 0.000000
# 3 -0.006329 -0.006004 0.016993 0.000000 0.000000 0.000000
# 4 0.000000 0.000000 0.000000 0.086917 0.000000 0.000000
# 5 0.000000 0.000000 0.000000 0.000000 0.076134 0.000000
# 6 0.000000 0.000000 0.000000 0.000000 0.000000 0.030814
#
#
# Mechanical properties :
#
#
# Convention : Reuss Voigt Hill
#
# Bulk Modulus (GPa) = 39.83730 41.54750 40.69240
# Shear Modulus (GPa) = 17.46366 20.31201 18.88783
#
# Velocity S-wave (km/s) = 3.09483 3.33769 3.21855
# Velocity P-wave (km/s) = 5.88384 6.13518 6.01082
#
# Compressibility (1/GPa) = 0.02510211
#
# Stress axis : x y z
#
# Youngs Moduli (GPa) = 57.49466 49.49570 58.84828
#
# Poissons Ratio (x) = 0.11932 0.37246
# Poissons Ratio (y) = 0.13860 0.35332
# Poissons Ratio (z) = 0.36389 0.29717
#
# Static dielectric constant tensor:
#      x y z
#    x 1.601870 0.000000 0.000000 
#    y 0.000000 1.650950 0.000000 
#    z 0.000000 0.000000 1.664050 
# 
# From -- ./inp_files/6943.got.cif
#   From: 2010.05.17/outbox.cif.g08.bks.cpg/sg30_4_cif.got.tgz:6943.got - 2010.06.03 17:03:02.
