data_PCOD9342110
_publ_section_title
;
Structure prediction by ZEFSAII (Michael W. Deem and Ramdas Pophale) SiO2 
 PCOD9342110
Probable space group: P N C 2
;
_chemical_formula_sum "Si O2"
_cell_formula_units_Z 32
_cell_length_a 5.547435
_cell_length_b 29.487271
_cell_length_c 8.458543
_cell_angle_alpha 90.000000
_cell_angle_beta 90.000000
_cell_angle_gamma 90.000000
_cell_volume 1383.637630
_symmetry_space_group_name_H-M "P N C 2"
_symmetry_group_IT_number 30
_symmetry_cell_setting 'orthorhombic'
loop_
_space_group_symop_operation_xyz
x,y,z
-x,-y,z
-x,1/2+y,1/2+z
x,1/2-y,1/2+z
loop_
_atom_site_type_symbol
_atom_site_label
_atom_site_fract_x
_atom_site_fract_y
_atom_site_fract_z
Si Si1 0.722118 0.629449 0.840970
Si Si2 0.645812 0.538729 0.341585
Si Si3 0.619988 0.238260 0.091117
Si Si4 0.097112 0.045938 0.533288
Si Si5 0.751235 0.109227 0.750397
Si Si6 0.117558 0.119882 0.981876
Si Si7 0.211190 0.817351 0.381147
Si Si8 0.426806 0.187941 0.789233
O O1 0.778566 0.630204 0.652772
O O2 0.458777 0.651616 0.875163
O O3 0.956215 0.657421 0.903486
O O4 0.748828 0.579171 0.918873
O O5 0.500000 0.500000 0.427331
O O6 0.462598 0.574897 0.273980
O O7 0.818295 0.567404 0.450207
O O8 0.768737 0.521994 0.181549
O O9 0.771908 0.208255 0.211883
O O10 0.410759 0.267205 0.181585
O O11 0.776729 0.275733 0.002246
O O12 0.512276 0.207283 0.955956
O O13 0.926761 0.082877 0.628390
O O14 0.000000 0.000000 0.447645
O O15 0.629679 0.156613 0.705845
O O16 0.841222 0.119200 0.930644
O O17 0.217127 0.153479 0.842511
#
# Coordination Sequence:
#
# PCOD9342110 Si02
#       8
#     4   4   4   4   4   4   4   4
#     4  12  27  46  69 101 147 184 226 284 361 417
#     4  10  21  41  70  96 129 171 233 285 339 412
#     4  10  22  43  66  98 135 176 237 284 337 410
#     4  11  24  42  67 102 132 177 230 291 343 418
#     4  10  21  40  68  91 129 176 227 278 344 406
#     4  10  23  40  64  94 133 182 221 279 344 419
#     4  11  26  46  69 101 139 187 230 288 348 412
#     4  10  20  41  61  93 127 177 219 282 335 402
#
# _framework density 23.127444000000001
#
# number of rings (size 3 to 8) (size 9 to 14) (size 15 to 20)
#    0.000    1.500    2.500    1.500    8.750    1.000 
#   11.250    0.625    0.000    0.000    0.000    0.000 
#    0.000    0.000    0.000    0.000    0.000    0.000 
#
# Total GULP energy -178223.802450 kJ/mol
# GULP energy per Si atom -5569.493827 kJ/mol
# Density = 2.307480 g / cm^3
# Si number density = 23.127444 Si / 1000 Ang^3
#
#
#
# Elastic Constant Matrix: (Units=GPa)
#
#
# Indices 1 2 3 4 5 6 
#
# 1 49.6047 16.4873 1.0772 0.0000 0.0000 0.0000
# 2 16.4873 120.8565 19.2683 0.0000 0.0000 0.0000
# 3 1.0772 19.2683 75.8997 0.0000 0.0000 0.0000
# 4 0.0000 0.0000 0.0000 -20.1375 0.0000 0.0000
# 5 0.0000 0.0000 0.0000 0.0000 101.5834 0.0000
# 6 0.0000 0.0000 0.0000 0.0000 0.0000 18.3000
#
#
#
# Elastic Compliance Matrix: (Units=1/GPa)
#
#
# Indices 1 2 3 4 5 6 
#
# 1 0.021132 -0.002955 0.000450 0.000000 0.000000 0.000000
# 2 -0.002955 0.009036 -0.002252 0.000000 0.000000 0.000000
# 3 0.000450 -0.002252 0.013741 0.000000 0.000000 0.000000
# 4 0.000000 0.000000 0.000000 -0.049659 0.000000 0.000000
# 5 0.000000 0.000000 0.000000 0.000000 0.009844 0.000000
# 6 0.000000 0.000000 0.000000 0.000000 0.000000 0.054645
#
#
# Mechanical properties :
#
#
# Convention : Reuss Voigt Hill
#
# Bulk Modulus (GPa) = 29.07346 35.55851 32.31598
# Shear Modulus (GPa) = 62.72178 33.91772 48.31975
#
# Velocity S-wave (km/s) = 5.21334 3.83372 4.57583
# Velocity P-wave (km/s) = 6.98834 5.91650 6.47464
#
# Compressibility (1/GPa) = 0.03439563
#
# Stress axis : x y z
#
# Youngs Moduli (GPa) = 47.32242 110.66367 72.77692
#
# Poissons Ratio (x) = 0.32696 -0.03276
# Poissons Ratio (y) = 0.13982 0.16390
# Poissons Ratio (z) = -0.02130 0.24923
#
# Static dielectric constant tensor:
#      x y z
#    x 1.951820 0.000000 0.000000 
#    y 0.000000 1.945540 0.000000 
#    z 0.000000 0.000000 1.890800 
# 
# From -- ./inp_files/1492.got.cif
#   From: 2010.05.17/outbox.cif.g08.bks.cpg/sg30_1_cif.got.tgz:1492.got - 2010.06.03 17:03:02.
