data_PCOD9342320
_publ_section_title
;
Structure prediction by ZEFSAII (Michael W. Deem and Ramdas Pophale) SiO2 
 PCOD9342320
Probable space group: P N C 2
;
_chemical_formula_sum "Si O2"
_cell_formula_units_Z 26
_cell_length_a 12.973769
_cell_length_b 5.570325
_cell_length_c 16.982651
_cell_angle_alpha 90.000000
_cell_angle_beta 90.000000
_cell_angle_gamma 90.000000
_cell_volume 1227.304087
_symmetry_space_group_name_H-M "P N C 2"
_symmetry_group_IT_number 30
_symmetry_cell_setting 'orthorhombic'
loop_
_space_group_symop_operation_xyz
x,y,z
-x,-y,z
-x,1/2+y,1/2+z
x,1/2-y,1/2+z
loop_
_atom_site_type_symbol
_atom_site_label
_atom_site_fract_x
_atom_site_fract_y
_atom_site_fract_z
Si Si1 0.212587 0.712913 0.149990
Si Si2 0.002881 0.750714 0.249920
Si Si3 0.500000 0.000000 0.437736
Si Si4 0.667313 0.341845 0.508999
Si Si5 0.348349 0.369096 0.354119
Si Si6 0.500000 0.500000 0.225067
Si Si7 0.772981 0.711249 0.715047
Si Si8 0.500000 0.000000 0.125609
O O1 0.233051 0.759427 0.057942
O O2 0.260114 0.451390 0.168424
O O3 0.098941 0.722527 0.189790
O O4 0.264015 0.947962 0.190492
O O5 0.895953 0.778903 0.203498
O O6 0.000000 0.500000 0.295756
O O7 0.000000 0.000000 0.297157
O O8 0.412164 0.871295 0.488781
O O9 0.564228 0.811955 0.385504
O O10 0.689003 0.475649 0.427505
O O11 0.597548 0.504994 0.566428
O O12 0.404824 0.519019 0.286016
O O13 0.256764 0.243437 0.306260
O O14 0.502972 0.750558 0.175847
#
# Coordination Sequence:
#
# PCOD9342320 Si02
#       8
#     4   4   2   4   4   2   4   2
#     4  10  22  40  67 100 123 168 222 276 326 391
#     4   8  16  36  64  94 122 152 204 276 326 372
#     4  12  24  44  60  84 146 186 218 258 326 396
#     4  12  25  41  61  92 135 183 215 272 331 395
#     4  12  25  41  61  92 135 183 215 272 331 395
#     4  12  24  40  61  87 124 172 226 268 310 374
#     4  10  22  40  67 100 123 168 222 276 326 391
#     4  12  24  40  61  87 124 172 226 268 310 374
#
# _framework density 21.184645
#
# number of rings (size 3 to 8) (size 9 to 14) (size 15 to 20)
#    0.000    1.231    3.077    2.769    4.308    0.000 
#    0.000    0.000    0.000    8.308    0.000    0.000 
#    0.000    0.000    0.000    0.000    0.000    0.000 
#
# Total GULP energy -144788.485012 kJ/mol
# GULP energy per Si atom -5568.787885 kJ/mol
# Density = 2.113643 g / cm^3
# Si number density = 21.184645 Si / 1000 Ang^3
#
#
#
# Elastic Constant Matrix: (Units=GPa)
#
#
# Indices 1 2 3 4 5 6 
#
# 1 57.3019 -2.3430 21.4964 0.0000 0.0000 0.0000
# 2 -2.3430 173.1361 36.8360 0.0000 0.0000 0.0000
# 3 21.4964 36.8360 104.3185 0.0000 0.0000 0.0000
# 4 0.0000 0.0000 0.0000 36.6395 0.0000 0.0000
# 5 0.0000 0.0000 0.0000 0.0000 5.6072 0.0000
# 6 0.0000 0.0000 0.0000 0.0000 0.0000 18.5607
#
#
#
# Elastic Compliance Matrix: (Units=1/GPa)
#
#
# Indices 1 2 3 4 5 6 
#
# 1 0.019137 0.001187 -0.004363 0.000000 0.000000 0.000000
# 2 0.001187 0.006319 -0.002476 0.000000 0.000000 0.000000
# 3 -0.004363 -0.002476 0.011359 0.000000 0.000000 0.000000
# 4 0.000000 0.000000 0.000000 0.027293 0.000000 0.000000
# 5 0.000000 0.000000 0.000000 0.000000 0.178342 0.000000
# 6 0.000000 0.000000 0.000000 0.000000 0.000000 0.053877
#
#
# Mechanical properties :
#
#
# Convention : Reuss Voigt Hill
#
# Bulk Modulus (GPa) = 39.19730 49.63722 44.41726
# Shear Modulus (GPa) = 15.81610 30.74595 23.28103
#
# Velocity S-wave (km/s) = 2.73533 3.81377 3.31865
# Velocity P-wave (km/s) = 5.34031 6.54788 5.97468
#
# Compressibility (1/GPa) = 0.02551196
#
# Stress axis : x y z
#
# Youngs Moduli (GPa) = 52.25601 158.26261 88.03412
#
# Poissons Ratio (x) = -0.18788 0.38405
# Poissons Ratio (y) = -0.06204 0.21795
# Poissons Ratio (z) = 0.22797 0.39183
#
# Static dielectric constant tensor:
#      x y z
#    x 1.865840 0.000000 0.000000 
#    y 0.000000 1.943720 0.000000 
#    z 0.000000 0.000000 1.741490 
# 
# From -- ./inp_files/5618.got.cif
#   From: 2010.05.17/outbox.cif.g08.bks.cpg/sg30_3_cif.got.tgz:5618.got - 2010.06.03 17:03:02.
