data_PCOD9342054
_publ_section_title
;
Structure prediction by ZEFSAII (Michael W. Deem and Ramdas Pophale) SiO2 
 PCOD9342054
Probable space group: P N C 2
;
_chemical_formula_sum "Si O2"
_cell_formula_units_Z 30
_cell_length_a 8.532690
_cell_length_b 9.142991
_cell_length_c 18.912112
_cell_angle_alpha 90.000000
_cell_angle_beta 90.000000
_cell_angle_gamma 90.000000
_cell_volume 1475.415328
_symmetry_space_group_name_H-M "P N C 2"
_symmetry_group_IT_number 30
_symmetry_cell_setting 'orthorhombic'
loop_
_space_group_symop_operation_xyz
x,y,z
-x,-y,z
-x,1/2+y,1/2+z
x,1/2-y,1/2+z
loop_
_atom_site_type_symbol
_atom_site_label
_atom_site_fract_x
_atom_site_fract_y
_atom_site_fract_z
Si Si1 0.838843 0.306298 0.882470
Si Si2 0.500000 0.500000 0.746254
Si Si3 0.330821 0.562729 0.470324
Si Si4 0.256075 0.575382 0.630933
Si Si5 0.848153 0.735069 0.473358
Si Si6 0.959341 0.838338 0.779546
Si Si7 0.926279 0.731194 0.630248
Si Si8 0.712087 0.632808 0.856681
O O1 0.716467 0.199553 0.921433
O O2 0.787655 0.472679 0.869869
O O3 0.994362 0.284710 0.931876
O O4 0.888585 0.252247 0.804328
O O5 0.378542 0.581450 0.694662
O O6 0.575229 0.612889 0.801270
O O7 0.500000 0.500000 0.448900
O O8 0.336571 0.595689 0.554470
O O9 0.192856 0.437798 0.467865
O O10 0.179011 0.414113 0.640521
O O11 0.107335 0.681871 0.629850
O O12 0.874464 0.784367 0.553451
O O13 0.697621 0.808449 0.436111
O O14 0.914419 0.834861 0.697551
O O15 0.821269 0.754186 0.819629
O O16 0.000000 0.000000 0.804120
#
# Coordination Sequence:
#
# PCOD9342054 Si02
#       8
#     4   2   4   4   4   4   4   4
#     4  11  22  41  63  93 127 172 229 281 332 415
#     4  12  22  40  64  96 140 178 232 272 358 434
#     4  11  22  38  63  98 133 177 219 281 352 409
#     4  10  20  37  65  93 128 173 226 278 330 421
#     4  10  21  40  66  92 132 168 231 276 337 409
#     4  11  22  38  63  94 126 166 227 283 339 395
#     4  10  20  38  64  96 123 172 229 277 339 397
#     4  11  25  40  66  96 132 181 219 287 350 408
#
# _framework density 20.333257
#
# number of rings (size 3 to 8) (size 9 to 14) (size 15 to 20)
#    0.000    1.333    3.333    4.400    3.733    1.067 
#    0.000    0.000    0.000    0.000    0.000    0.000 
#    0.000    0.000    0.000    0.000    0.000    0.000 
#
# Total GULP energy -167195.798637 kJ/mol
# GULP energy per Si atom -5573.193288 kJ/mol
# Density = 2.028698 g / cm^3
# Si number density = 20.333257 Si / 1000 Ang^3
#
#
#
# Elastic Constant Matrix: (Units=GPa)
#
#
# Indices 1 2 3 4 5 6 
#
# 1 65.8935 -0.5823 38.1846 0.0000 0.0000 0.0000
# 2 -0.5823 58.1488 16.4221 0.0000 0.0000 0.0000
# 3 38.1846 16.4221 146.6339 0.0000 0.0000 0.0000
# 4 0.0000 0.0000 0.0000 19.3906 0.0000 0.0000
# 5 0.0000 0.0000 0.0000 0.0000 45.7800 0.0000
# 6 0.0000 0.0000 0.0000 0.0000 0.0000 25.8271
#
#
#
# Elastic Compliance Matrix: (Units=1/GPa)
#
#
# Indices 1 2 3 4 5 6 
#
# 1 0.018008 0.001554 -0.004863 0.000000 0.000000 0.000000
# 2 0.001554 0.017893 -0.002409 0.000000 0.000000 0.000000
# 3 -0.004863 -0.002409 0.008356 0.000000 0.000000 0.000000
# 4 0.000000 0.000000 0.000000 0.051571 0.000000 0.000000
# 5 0.000000 0.000000 0.000000 0.000000 0.021844 0.000000
# 6 0.000000 0.000000 0.000000 0.000000 0.000000 0.038719
#
#
# Mechanical properties :
#
#
# Convention : Reuss Voigt Hill
#
# Bulk Modulus (GPa) = 30.46859 42.08056 36.27457
# Shear Modulus (GPa) = 27.96929 32.64301 30.30615
#
# Velocity S-wave (km/s) = 3.71286 4.01109 3.86485
# Velocity P-wave (km/s) = 5.77906 6.49555 6.14775
#
# Compressibility (1/GPa) = 0.03282069
#
# Stress axis : x y z
#
# Youngs Moduli (GPa) = 55.53072 55.88773 119.67546
#
# Poissons Ratio (x) = -0.08684 0.58204
# Poissons Ratio (y) = -0.08629 0.28824
# Poissons Ratio (z) = 0.27007 0.13461
#
# Static dielectric constant tensor:
#      x y z
#    x 1.809750 0.000000 0.000000 
#    y 0.000000 1.760400 0.000000 
#    z 0.000000 0.000000 1.768330 
# 
# From -- ./inp_files/6968.got.cif
#   From: 2010.05.17/outbox.cif.g08.bks.cpg/sg30_4_cif.got.tgz:6968.got - 2010.06.03 17:03:02.
