data_PCOD9342843
_publ_section_title
;
Structure prediction by ZEFSAII (Michael W. Deem and Ramdas Pophale) SiO2 
 PCOD9342843
Probable space group: P M N 21
;
_chemical_formula_sum "Si O2"
_cell_formula_units_Z 32
_cell_length_a 9.162031
_cell_length_b 11.790089
_cell_length_c 17.652911
_cell_angle_alpha 90.000000
_cell_angle_beta 90.000000
_cell_angle_gamma 90.000000
_cell_volume 1906.887940
_symmetry_space_group_name_H-M "P M N 21"
_symmetry_group_IT_number 31
_symmetry_cell_setting 'orthorhombic'
loop_
_space_group_symop_operation_xyz
x,y,z
1/2-x,-y,1/2+z
-x,y,z
1/2+x,-y,1/2+z
loop_
_atom_site_type_symbol
_atom_site_label
_atom_site_fract_x
_atom_site_fract_y
_atom_site_fract_z
Si Si1 0.173276 0.622226 0.563300
Si Si2 0.832958 0.166271 0.998605
Si Si3 0.326636 0.720902 0.878955
Si Si4 0.164953 0.062414 0.169635
Si Si5 0.326627 0.386920 0.525816
Si Si6 0.172349 0.847999 0.089318
Si Si7 0.328963 0.270283 0.228349
Si Si8 0.171655 0.043177 0.446572
O O1 0.241565 0.719366 0.509668
O O2 0.249874 0.502903 0.548669
O O3 0.198031 0.662837 0.650006
O O4 0.000000 0.614710 0.551330
O O5 0.834432 0.108329 0.082592
O O6 0.000000 0.189837 0.978006
O O7 0.760731 0.073465 0.943500
O O8 0.500000 0.702504 0.886037
O O9 0.264556 0.683821 0.798220
O O10 0.300196 0.856976 0.886585
O O11 0.242910 0.660205 0.947839
O O12 0.278359 0.141159 0.212375
O O13 0.000000 0.079745 0.199498
O O14 0.195536 0.928255 0.161979
O O15 0.500000 0.402906 0.516485
O O16 0.304853 0.286618 0.588135
O O17 0.000000 0.865561 0.067991
O O18 0.277390 0.897103 0.024639
O O19 0.500000 0.275008 0.245961
O O20 0.000000 0.018447 0.448484
#
# Coordination Sequence:
#
# PCOD9342843 Si02
#       8
#     4   4   4   4   4   4   4   4
#     4  10  20  33  49  72 101 132 170 213 252 294
#     4   9  16  27  45  68  93 122 154 191 235 282
#     4  10  20  33  50  72  99 130 163 204 254 305
#     4   8  14  26  44  66  92 119 148 185 233 287
#     4  10  19  32  51  74 100 131 170 212 251 297
#     4   8  15  27  44  67  93 121 152 188 231 281
#     4  10  20  32  48  71  98 128 163 206 253 301
#     4   9  16  26  43  68  94 119 148 187 237 287
#
# _framework density 16.781268000000001
#
# number of rings (size 3 to 8) (size 9 to 14) (size 15 to 20)
#    0.000    2.750    0.000    3.000    0.000    6.500 
#    0.000    0.000    0.000    1.500    0.000    1.750 
#    0.000    0.000    0.000    0.000    0.000    0.000 
#
# Total GULP energy -178181.120830 kJ/mol
# GULP energy per Si atom -5568.160026 kJ/mol
# Density = 1.674307 g / cm^3
# Si number density = 16.781268 Si / 1000 Ang^3
#
#
#
# Elastic Constant Matrix: (Units=GPa)
#
#
# Indices 1 2 3 4 5 6 
#
# 1 97.2634 71.7336 40.3773 0.0000 0.0000 0.0000
# 2 71.7336 134.9300 28.7196 0.0000 0.0000 0.0000
# 3 40.3773 28.7196 34.3803 0.0000 0.0000 0.0000
# 4 0.0000 0.0000 0.0000 10.0888 0.0000 0.0000
# 5 0.0000 0.0000 0.0000 0.0000 19.2738 0.0000
# 6 0.0000 0.0000 0.0000 0.0000 0.0000 29.4471
#
#
#
# Elastic Compliance Matrix: (Units=1/GPa)
#
#
# Indices 1 2 3 4 5 6 
#
# 1 0.027156 -0.009303 -0.024122 0.000000 0.000000 0.000000
# 2 -0.009303 0.012201 0.000734 0.000000 0.000000 0.000000
# 3 -0.024122 0.000734 0.056803 0.000000 0.000000 0.000000
# 4 0.000000 0.000000 0.000000 0.099120 0.000000 0.000000
# 5 0.000000 0.000000 0.000000 0.000000 0.051884 0.000000
# 6 0.000000 0.000000 0.000000 0.000000 0.000000 0.033959
#
#
# Mechanical properties :
#
#
# Convention : Reuss Voigt Hill
#
# Bulk Modulus (GPa) = 32.49092 60.91498 46.70295
# Shear Modulus (GPa) = 14.01482 20.14482 17.07982
#
# Velocity S-wave (km/s) = 2.89303 3.46849 3.19374
# Velocity P-wave (km/s) = 5.52837 7.24008 6.44134
#
# Compressibility (1/GPa) = 0.03077783
#
# Stress axis : x y z
#
# Youngs Moduli (GPa) = 36.82376 81.96139 17.60460
#
# Poissons Ratio (x) = 0.76248 0.42466
# Poissons Ratio (y) = 0.34257 -0.01292
# Poissons Ratio (z) = 0.88827 -0.06013
#
# Static dielectric constant tensor:
#      x y z
#    x 1.559610 0.000000 0.000000 
#    y 0.000000 1.584110 0.000000 
#    z 0.000000 0.000000 1.573940 
# 
# From -- ./inp_files/5919.got.cif
#   From: 2010.05.17/outbox.cif.g08.bks.cpg/sg31_3_cif.got.tgz:5919.got - 2010.06.03 17:08:30.
