data_PCOD9342299
_publ_section_title
;
Structure prediction by ZEFSAII (Michael W. Deem and Ramdas Pophale) SiO2 
 PCOD9342299
Probable space group: P N C 2
;
_chemical_formula_sum "Si O2"
_cell_formula_units_Z 32
_cell_length_a 15.692357
_cell_length_b 5.222371
_cell_length_c 19.784827
_cell_angle_alpha 90.000000
_cell_angle_beta 90.000000
_cell_angle_gamma 90.000000
_cell_volume 1621.392493
_symmetry_space_group_name_H-M "P N C 2"
_symmetry_group_IT_number 30
_symmetry_cell_setting 'orthorhombic'
loop_
_space_group_symop_operation_xyz
x,y,z
-x,-y,z
-x,1/2+y,1/2+z
x,1/2-y,1/2+z
loop_
_atom_site_type_symbol
_atom_site_label
_atom_site_fract_x
_atom_site_fract_y
_atom_site_fract_z
Si Si1 0.941790 0.251576 0.773890
Si Si2 0.793656 0.310985 0.667070
Si Si3 0.305429 0.191746 0.341350
Si Si4 0.308919 0.325145 0.197276
Si Si5 0.723447 0.229301 0.023031
Si Si6 0.578750 0.864013 0.087046
Si Si7 0.206948 0.675513 0.375867
Si Si8 0.582697 0.891482 0.457593
O O1 0.881270 0.275332 0.707551
O O2 0.882272 0.244069 0.840891
O O3 0.000000 0.500000 0.776771
O O4 0.000000 0.000000 0.770236
O O5 0.760041 0.602320 0.677746
O O6 0.785647 0.229277 0.587767
O O7 0.730912 0.105228 0.702029
O O8 0.345275 0.230716 0.268283
O O9 0.229700 0.396618 0.346545
O O10 0.367694 0.269735 0.402018
O O11 0.271367 0.903803 0.352524
O O12 0.378410 0.329244 0.138601
O O13 0.656281 0.028659 0.055500
O O14 0.780024 0.158590 0.957211
O O15 0.658367 0.444529 0.993513
O O16 0.500000 0.000000 0.122934
O O17 0.538476 0.745602 0.020273
O O18 0.500000 0.000000 0.419794
#
# Coordination Sequence:
#
# PCOD9342299 Si02
#       8
#     4   4   4   4   4   4   4   4
#     4  12  24  42  66  96 123 156 193 252 324 378
#     4  11  22  40  64  92 121 159 207 251 298 388
#     4  11  21  38  61  89 123 168 212 253 303 361
#     4  11  21  38  61  89 123 168 212 253 303 361
#     4  10  22  38  62  86 120 170 212 248 300 362
#     4  11  21  35  58  88 128 166 217 263 309 350
#     4  11  22  40  64  92 121 159 207 251 298 388
#     4  11  21  35  58  88 128 166 217 263 309 350
#
# _framework density 19.736122999999999
#
# number of rings (size 3 to 8) (size 9 to 14) (size 15 to 20)
#    0.000    1.000    6.250    1.500    0.000    0.500 
#    0.000    1.250    0.000    5.250    0.000    0.000 
#    0.000    0.000    0.000    0.000    0.000    0.000 
#
# Total GULP energy -178219.744129 kJ/mol
# GULP energy per Si atom -5569.367004 kJ/mol
# Density = 1.969120 g / cm^3
# Si number density = 19.736123 Si / 1000 Ang^3
#
#
#
# Elastic Constant Matrix: (Units=GPa)
#
#
# Indices 1 2 3 4 5 6 
#
# 1 87.3737 12.0441 29.3868 0.0000 0.0000 0.0000
# 2 12.0441 62.4616 -2.0927 0.0000 0.0000 0.0000
# 3 29.3868 -2.0927 120.2063 0.0000 0.0000 0.0000
# 4 0.0000 0.0000 0.0000 22.3543 0.0000 0.0000
# 5 0.0000 0.0000 0.0000 0.0000 67.4773 0.0000
# 6 0.0000 0.0000 0.0000 0.0000 0.0000 34.8186
#
#
#
# Elastic Compliance Matrix: (Units=1/GPa)
#
#
# Indices 1 2 3 4 5 6 
#
# 1 0.012876 -0.002590 -0.003193 0.000000 0.000000 0.000000
# 2 -0.002590 0.016540 0.000921 0.000000 0.000000 0.000000
# 3 -0.003193 0.000921 0.009116 0.000000 0.000000 0.000000
# 4 0.000000 0.000000 0.000000 0.044734 0.000000 0.000000
# 5 0.000000 0.000000 0.000000 0.000000 0.014820 0.000000
# 6 0.000000 0.000000 0.000000 0.000000 0.000000 0.028720
#
#
# Mechanical properties :
#
#
# Convention : Reuss Voigt Hill
#
# Bulk Modulus (GPa) = 34.71195 38.74643 36.72919
# Shear Modulus (GPa) = 34.21567 40.31025 37.26296
#
# Velocity S-wave (km/s) = 4.16824 4.52426 4.34989
# Velocity P-wave (km/s) = 6.38685 6.85323 6.62415
#
# Compressibility (1/GPa) = 0.02880852
#
# Stress axis : x y z
#
# Youngs Moduli (GPa) = 77.66413 60.45926 109.70172
#
# Poissons Ratio (x) = 0.15658 0.35026
# Poissons Ratio (y) = 0.20113 -0.10104
# Poissons Ratio (z) = 0.24797 -0.05569
#
# Static dielectric constant tensor:
#      x y z
#    x 1.655430 0.000000 0.000000 
#    y 0.000000 1.788480 0.000000 
#    z 0.000000 0.000000 1.729350 
# 
# From -- ./inp_files/6637.got.cif
#   From: 2010.05.17/outbox.cif.g08.bks.cpg/sg30_4_cif.got.tgz:6637.got - 2010.06.03 17:03:02.
