data_PCOD9342524
_publ_section_title
;
Structure prediction by ZEFSAII (Michael W. Deem and Ramdas Pophale) SiO2 
 PCOD9342524
Probable space group: P N C 2
;
_chemical_formula_sum "Si O2"
_cell_formula_units_Z 16
_cell_length_a 5.331688
_cell_length_b 18.773966
_cell_length_c 6.778994
_cell_angle_alpha 90.000000
_cell_angle_beta 90.000000
_cell_angle_gamma 90.000000
_cell_volume 678.556483
_symmetry_space_group_name_H-M "P N C 2"
_symmetry_group_IT_number 30
_symmetry_cell_setting 'orthorhombic'
loop_
_space_group_symop_operation_xyz
x,y,z
-x,-y,z
-x,1/2+y,1/2+z
x,1/2-y,1/2+z
loop_
_atom_site_type_symbol
_atom_site_label
_atom_site_fract_x
_atom_site_fract_y
_atom_site_fract_z
Si Si1 0.366696 0.851077 0.902810
Si Si2 0.500000 0.000000 0.064483
Si Si3 0.862390 0.797439 0.926921
Si Si4 0.032071 0.650434 0.042523
Si Si5 0.000000 0.000000 0.325716
O O1 0.582152 0.803560 0.004349
O O2 0.280725 0.837273 0.676717
O O3 0.099919 0.839399 0.015359
O O4 0.452329 0.931267 0.932708
O O5 0.748462 0.990668 0.196697
O O6 0.829983 0.837649 0.717408
O O7 0.964300 0.717374 0.904609
O O8 0.028787 0.572509 0.952286
#
# Coordination Sequence:
#
# PCOD9342524 Si02
#       5
#     4   2   4   4   2
#     4  10  26  44  72 101 143 189 237 293 357 427
#     4  12  28  44  74 102 156 182 246 288 378 414
#     4  10  25  42  74 100 140 186 241 295 351 427
#     4  10  28  44  76 101 148 183 251 286 370 413
#     4  12  30  44  74 110 146 190 240 304 354 440
#
# _framework density 23.579467000000001
#
# number of rings (size 3 to 8) (size 9 to 14) (size 15 to 20)
#    1.500    0.000    0.000    1.500   17.500    0.000 
#    0.000    0.000    0.000    0.000    0.000    0.000 
#    0.000    0.000    0.000    0.000    0.000    0.000 
#
# Total GULP energy -89135.216743 kJ/mol
# GULP energy per Si atom -5570.951046 kJ/mol
# Density = 2.352580 g / cm^3
# Si number density = 23.579467 Si / 1000 Ang^3
#
#
#
# Elastic Constant Matrix: (Units=GPa)
#
#
# Indices 1 2 3 4 5 6 
#
# 1 204.0792 66.7224 40.1664 0.0000 0.0000 0.0000
# 2 66.7224 179.5235 38.0178 0.0000 0.0000 0.0000
# 3 40.1664 38.0178 37.3768 0.0000 0.0000 0.0000
# 4 0.0000 0.0000 0.0000 19.6932 0.0000 0.0000
# 5 0.0000 0.0000 0.0000 0.0000 23.9732 0.0000
# 6 0.0000 0.0000 0.0000 0.0000 0.0000 34.9069
#
#
#
# Elastic Compliance Matrix: (Units=1/GPa)
#
#
# Indices 1 2 3 4 5 6 
#
# 1 0.006404 -0.001176 -0.005685 0.000000 0.000000 0.000000
# 2 -0.001176 0.007316 -0.006177 0.000000 0.000000 0.000000
# 3 -0.005685 -0.006177 0.039147 0.000000 0.000000 0.000000
# 4 0.000000 0.000000 0.000000 0.050779 0.000000 0.000000
# 5 0.000000 0.000000 0.000000 0.000000 0.041713 0.000000
# 6 0.000000 0.000000 0.000000 0.000000 0.000000 0.028648
#
#
# Mechanical properties :
#
#
# Convention : Reuss Voigt Hill
#
# Bulk Modulus (GPa) = 37.32822 78.97697 58.15260
# Shear Modulus (GPa) = 23.92196 34.11952 29.02074
#
# Velocity S-wave (km/s) = 3.18862 3.80807 3.51203
# Velocity P-wave (km/s) = 5.42416 7.27337 6.41574
#
# Compressibility (1/GPa) = 0.02678938
#
# Stress axis : x y z
#
# Youngs Moduli (GPa) = 156.16455 136.69553 25.54450
#
# Poissons Ratio (x) = 0.16075 0.14523
# Poissons Ratio (y) = 0.18365 0.15779
# Poissons Ratio (z) = 0.88784 0.84440
#
# Static dielectric constant tensor:
#      x y z
#    x 2.019510 0.000000 0.000000 
#    y 0.000000 1.856830 0.000000 
#    z 0.000000 0.000000 2.005140 
# 
# From -- ./inp_files/1261.got.cif
#   From: 2010.05.17/outbox.cif.g08.bks.cpg/sg30_1_cif.got.tgz:1261.got - 2010.06.03 17:03:02.
