data_PCOD9342582
_publ_section_title
;
Structure prediction by ZEFSAII (Michael W. Deem and Ramdas Pophale) SiO2 
 PCOD9342582
Probable space group: P N C 2
;
_chemical_formula_sum "Si O2"
_cell_formula_units_Z 24
_cell_length_a 8.612683
_cell_length_b 8.164938
_cell_length_c 14.130146
_cell_angle_alpha 90.000000
_cell_angle_beta 90.000000
_cell_angle_gamma 90.000000
_cell_volume 993.660448
_symmetry_space_group_name_H-M "P N C 2"
_symmetry_group_IT_number 30
_symmetry_cell_setting 'orthorhombic'
loop_
_space_group_symop_operation_xyz
x,y,z
-x,-y,z
-x,1/2+y,1/2+z
x,1/2-y,1/2+z
loop_
_atom_site_type_symbol
_atom_site_label
_atom_site_fract_x
_atom_site_fract_y
_atom_site_fract_z
Si Si1 0.373286 0.622059 0.674220
Si Si2 0.805741 0.336114 0.853326
Si Si3 0.829078 0.769754 0.353326
Si Si4 0.846110 0.596164 0.166596
Si Si5 0.373286 0.622060 0.032433
Si Si6 0.153890 0.096164 0.040056
O O1 0.500000 0.500000 0.715725
O O2 0.281042 0.712039 0.757422
O O3 0.452368 0.750000 0.603326
O O4 0.257299 0.517470 0.607953
O O5 0.796313 0.535870 0.853326
O O6 0.981794 0.274338 0.853326
O O7 0.718958 0.287961 0.949230
O O8 0.771503 0.674895 0.260386
O O9 0.771503 0.674895 0.446266
O O10 0.742701 0.482530 0.098700
O O11 0.897360 0.750000 0.103326
O O12 0.000000 0.500000 0.195391
O O13 0.500000 0.500000 0.990928
O O14 0.000000 0.000000 0.011261
#
# Coordination Sequence:
#
# PCOD9342582 Si02
#       6
#     4   4   4   4   4   4
#     4  12  27  47  70 100 139 185 232 284 345 411
#     4  11  23  46  70 102 139 185 223 285 348 406
#     4  11  23  40  72 105 135 176 233 281 346 402
#     4  12  23  41  68 103 139 178 230 287 338 407
#     4  12  27  47  70 100 139 185 232 284 345 411
#     4  12  23  41  68 103 139 178 230 287 338 407
#
# _framework density 24.153120000000001
#
# number of rings (size 3 to 8) (size 9 to 14) (size 15 to 20)
#    0.000    0.333    3.333    7.000    0.000    1.333 
#    0.000    1.667    0.000    0.000    0.000    0.000 
#    0.000    0.000    0.000    0.000    0.000    0.000 
#
# Total GULP energy -134473.951763 kJ/mol
# GULP energy per Si atom -5603.081323 kJ/mol
# Density = 2.409815 g / cm^3
# Si number density = 24.153120 Si / 1000 Ang^3
#
#
#
# Elastic Constant Matrix: (Units=GPa)
#
#
# Indices 1 2 3 4 5 6 
#
# 1 53.2307 -12.8531 1.3007 0.0000 0.0000 0.0000
# 2 -12.8531 49.7827 16.6373 0.0000 0.0000 0.0000
# 3 1.3007 16.6373 142.8501 0.0000 0.0000 0.0000
# 4 0.0000 0.0000 0.0000 46.3114 0.0000 0.0000
# 5 0.0000 0.0000 0.0000 0.0000 30.4909 0.0000
# 6 0.0000 0.0000 0.0000 0.0000 0.0000 34.2556
#
#
#
# Elastic Compliance Matrix: (Units=1/GPa)
#
#
# Indices 1 2 3 4 5 6 
#
# 1 0.020127 0.005471 -0.000820 0.000000 0.000000 0.000000
# 2 0.005471 0.022388 -0.002657 0.000000 0.000000 0.000000
# 3 -0.000820 -0.002657 0.007317 0.000000 0.000000 0.000000
# 4 0.000000 0.000000 0.000000 0.021593 0.000000 0.000000
# 5 0.000000 0.000000 0.000000 0.000000 0.032797 0.000000
# 6 0.000000 0.000000 0.000000 0.000000 0.000000 0.029192
#
#
# Mechanical properties :
#
#
# Convention : Reuss Voigt Hill
#
# Bulk Modulus (GPa) = 18.58104 28.44815 23.51460
# Shear Modulus (GPa) = 33.92875 38.26347 36.09611
#
# Velocity S-wave (km/s) = 3.75205 3.98452 3.87003
# Velocity P-wave (km/s) = 5.14589 5.74216 5.45218
#
# Compressibility (1/GPa) = 0.05381829
#
# Stress axis : x y z
#
# Youngs Moduli (GPa) = 49.68413 44.66715 136.66244
#
# Poissons Ratio (x) = -0.24436 0.11212
# Poissons Ratio (y) = -0.27181 0.36315
# Poissons Ratio (z) = 0.04076 0.11869
#
# Static dielectric constant tensor:
#      x y z
#    x 1.874730 0.000000 0.000000 
#    y 0.000000 1.923280 0.000000 
#    z 0.000000 0.000000 1.882570 
# 
# From -- ./inp_files/5029.got.cif
#   From: 2010.05.17/outbox.cif.g08.bks.cpg/sg30_3_cif.got.tgz:5029.got - 2010.06.03 17:03:02.
