data_PCOD9342803
_publ_section_title
;
Structure prediction by ZEFSAII (Michael W. Deem and Ramdas Pophale) SiO2 
 PCOD9342803
Probable space group: P M N 21
;
_chemical_formula_sum "Si O2"
_cell_formula_units_Z 28
_cell_length_a 12.384108
_cell_length_b 20.993552
_cell_length_c 5.053173
_cell_angle_alpha 90.000000
_cell_angle_beta 90.000000
_cell_angle_gamma 90.000000
_cell_volume 1313.756334
_symmetry_space_group_name_H-M "P M N 21"
_symmetry_group_IT_number 31
_symmetry_cell_setting 'orthorhombic'
loop_
_space_group_symop_operation_xyz
x,y,z
1/2-x,-y,1/2+z
-x,y,z
1/2+x,-y,1/2+z
loop_
_atom_site_type_symbol
_atom_site_label
_atom_site_fract_x
_atom_site_fract_y
_atom_site_fract_z
Si Si1 0.332190 0.373646 0.530890
Si Si2 0.734281 0.779113 0.424249
Si Si3 0.618549 0.234402 0.422951
Si Si4 0.193305 0.359875 0.030652
Si Si5 0.373030 0.049000 0.556800
Si Si6 0.823543 0.493423 0.893820
Si Si7 0.262679 0.914153 0.556752
O O1 0.392980 0.309967 0.462195
O O2 0.227203 0.367038 0.335968
O O3 0.383469 0.441293 0.462676
O O4 0.296725 0.369757 0.835899
O O5 0.788993 0.782527 0.136198
O O6 0.665541 0.713989 0.468133
O O7 0.681718 0.846636 0.496420
O O8 0.834008 0.775171 0.631465
O O9 0.500000 0.204825 0.462183
O O10 0.127710 0.423702 0.951248
O O11 0.500000 0.057535 0.521876
O O12 0.300448 0.083005 0.333937
O O13 0.343043 0.973949 0.542354
O O14 0.329282 0.073997 0.836218
O O15 0.778405 0.499592 0.597419
#
# Coordination Sequence:
#
# PCOD9342803 Si02
#       7
#     4   4   4   4   4   4   4
#     4   8  14  23  34  50  74 104 140 178 210 249
#     4  10  19  30  43  63  91 117 147 189 229 273
#     4  10  19  28  39  59  89 124 156 185 228 282
#     4   8  14  23  36  54  76 102 133 173 217 256
#     4  10  21  37  55  75 100 129 163 202 243 290
#     4   8  12  20  34  50  69  96 131 169 209 250
#     4  10  21  35  53  77 101 128 164 202 242 294
#
# _framework density 21.312932
#
# number of rings (size 3 to 8) (size 9 to 14) (size 15 to 20)
#    0.000    2.857    0.000    1.714    0.000    3.429 
#    0.000    0.000    0.000    0.000    0.000    1.000 
#    0.000    0.000    0.000   52.857    0.000    3.429 
#
# Total GULP energy -155891.301594 kJ/mol
# GULP energy per Si atom -5567.546485 kJ/mol
# Density = 2.126442 g / cm^3
# Si number density = 21.312932 Si / 1000 Ang^3
#
#
#
# Elastic Constant Matrix: (Units=GPa)
#
#
# Indices 1 2 3 4 5 6 
#
# 1 25.5577 6.1185 -1.8245 0.0000 0.0000 0.0000
# 2 6.1185 183.8852 -1.1214 0.0000 0.0000 0.0000
# 3 -1.8245 -1.1214 97.1522 0.0000 0.0000 0.0000
# 4 0.0000 0.0000 0.0000 32.1318 0.0000 0.0000
# 5 0.0000 0.0000 0.0000 0.0000 -5.0100 0.0000
# 6 0.0000 0.0000 0.0000 0.0000 0.0000 -6.3029
#
#
#
# Elastic Compliance Matrix: (Units=1/GPa)
#
#
# Indices 1 2 3 4 5 6 
#
# 1 0.039492 -0.001310 0.000727 0.000000 0.000000 0.000000
# 2 -0.001310 0.005482 0.000039 0.000000 0.000000 0.000000
# 3 0.000727 0.000039 0.010307 0.000000 0.000000 0.000000
# 4 0.000000 0.000000 0.000000 0.031122 0.000000 0.000000
# 5 0.000000 0.000000 0.000000 0.000000 -0.199602 0.000000
# 6 0.000000 0.000000 0.000000 0.000000 0.000000 -0.158657
#
#
# Mechanical properties :
#
#
# Convention : Reuss Voigt Hill
#
# Bulk Modulus (GPa) = 18.45261 34.77115 26.61188
# Shear Modulus (GPa) = -19.78616 24.39196 2.30290
#
# Velocity S-wave (km/s) = -3.05021 3.38667 1.04061
# Velocity P-wave (km/s) = 1.93089 5.62518 3.73593
#
# Compressibility (1/GPa) = 0.05419288
#
# Stress axis : x y z
#
# Youngs Moduli (GPa) = 25.32127 182.41562 97.01942
#
# Poissons Ratio (x) = 0.23889 -0.07049
# Poissons Ratio (y) = 0.03316 -0.00375
# Poissons Ratio (z) = -0.01840 -0.00706
#
# Static dielectric constant tensor:
#      x y z
#    x 1.693950 0.000000 0.000000 
#    y 0.000000 1.916480 0.000000 
#    z 0.000000 0.000000 1.724150 
# 
# From -- ./inp_files/417.got.cif
#   From: 2010.05.17/outbox.cif.g08.bks.cpg/sg31_1_cif.got.tgz:417.got - 2010.06.03 17:08:30.
