data_PCOD9342808
_publ_section_title
;
Structure prediction by ZEFSAII (Michael W. Deem and Ramdas Pophale) SiO2 
 PCOD9342808
Probable space group: P M N 21
;
_chemical_formula_sum "Si O2"
_cell_formula_units_Z 32
_cell_length_a 7.323355
_cell_length_b 11.818516
_cell_length_c 16.093308
_cell_angle_alpha 90.000000
_cell_angle_beta 90.000000
_cell_angle_gamma 90.000000
_cell_volume 1392.894930
_symmetry_space_group_name_H-M "P M N 21"
_symmetry_group_IT_number 31
_symmetry_cell_setting 'orthorhombic'
loop_
_space_group_symop_operation_xyz
x,y,z
1/2-x,-y,1/2+z
-x,y,z
1/2+x,-y,1/2+z
loop_
_atom_site_type_symbol
_atom_site_label
_atom_site_fract_x
_atom_site_fract_y
_atom_site_fract_z
Si Si1 0.722710 0.668560 0.261330
Si Si2 0.722605 0.920491 0.309077
Si Si3 0.211018 0.563674 0.814388
Si Si4 0.709406 0.338142 0.129177
Si Si5 0.210570 0.908994 0.664453
Si Si6 0.293844 0.260352 0.435960
Si Si7 0.778857 0.983462 0.987202
Si Si8 0.722384 0.572016 0.081725
O O1 0.500000 0.667751 0.264003
O O2 0.782180 0.794226 0.284146
O O3 0.785704 0.563415 0.318587
O O4 0.774566 0.631603 0.168354
O O5 0.500000 0.921366 0.306161
O O6 0.783649 0.014013 0.240487
O O7 0.774135 0.947536 0.404228
O O8 0.206115 0.601641 0.718979
O O9 0.296902 0.667886 0.863113
O O10 0.000000 0.556588 0.843278
O O11 0.500000 0.319454 0.100565
O O12 0.792661 0.214511 0.143309
O O13 0.785988 0.441439 0.074637
O O14 0.000000 0.885686 0.688748
O O15 0.213511 0.975106 0.576974
O O16 0.500000 0.229273 0.407905
O O17 0.214502 0.143747 0.468348
O O18 0.295165 0.349065 0.510169
O O19 0.000000 0.986367 0.992816
O O20 0.500000 0.570318 0.078756
#
# Coordination Sequence:
#
# PCOD9342808 Si02
#       8
#     4   4   4   4   4   4   4   4
#     4   8  14  26  46  70  90 115 159 201 229 270
#     4   9  17  30  49  71  97 131 166 199 238 288
#     4   8  14  26  45  67  90 118 154 196 235 275
#     4   8  15  29  49  71  93 120 158 199 235 276
#     4  10  19  33  54  75  97 131 171 203 236 289
#     4  10  19  30  46  69  95 123 156 193 237 285
#     4  10  21  34  48  72 104 132 162 204 249 290
#     4   9  17  30  49  71  94 120 152 195 241 281
#
# _framework density 22.973735999999999
#
# number of rings (size 3 to 8) (size 9 to 14) (size 15 to 20)
#    0.000    3.000    0.000    3.000    0.000    5.500 
#    0.000    2.500    0.000    6.000    0.000    0.000 
#    0.000    0.000    0.000    0.000    0.000    0.000 
#
# Total GULP energy -178424.198683 kJ/mol
# GULP energy per Si atom -5575.756209 kJ/mol
# Density = 2.292145 g / cm^3
# Si number density = 22.973736 Si / 1000 Ang^3
#
#
#
# Elastic Constant Matrix: (Units=GPa)
#
#
# Indices 1 2 3 4 5 6 
#
# 1 92.1725 -3.4928 -10.0698 0.0000 0.0000 0.0000
# 2 -3.4928 110.3230 -11.1537 0.0000 0.0000 0.0000
# 3 -10.0698 -11.1537 44.1234 0.0000 0.0000 0.0000
# 4 0.0000 0.0000 0.0000 39.8505 0.0000 0.0000
# 5 0.0000 0.0000 0.0000 0.0000 7.8436 0.0000
# 6 0.0000 0.0000 0.0000 0.0000 0.0000 -3.2656
#
#
#
# Elastic Compliance Matrix: (Units=1/GPa)
#
#
# Indices 1 2 3 4 5 6 
#
# 1 0.011169 0.000627 0.002708 0.000000 0.000000 0.000000
# 2 0.000627 0.009337 0.002503 0.000000 0.000000 0.000000
# 3 0.002708 0.002503 0.023914 0.000000 0.000000 0.000000
# 4 0.000000 0.000000 0.000000 0.025094 0.000000 0.000000
# 5 0.000000 0.000000 0.000000 0.000000 0.127492 0.000000
# 6 0.000000 0.000000 0.000000 0.000000 0.000000 -0.306227
#
#
# Mechanical properties :
#
#
# Convention : Reuss Voigt Hill
#
# Bulk Modulus (GPa) = 17.82621 21.90958 19.86790
# Shear Modulus (GPa) = -48.92450 26.97471 -10.97489
#
# Velocity S-wave (km/s) = -4.61975 3.43031 -2.18804
# Velocity P-wave (km/s) = 4.54751 5.02463 1.51113
#
# Compressibility (1/GPa) = 0.05609718
#
# Stress axis : x y z
#
# Youngs Moduli (GPa) = 89.53519 107.09781 41.81568
#
# Poissons Ratio (x) = -0.06719 -0.11322
# Poissons Ratio (y) = -0.05617 -0.10468
# Poissons Ratio (z) = -0.24242 -0.26812
#
# Static dielectric constant tensor:
#      x y z
#    x 1.937560 0.000000 0.000000 
#    y 0.000000 1.871780 0.000000 
#    z 0.000000 0.000000 1.824650 
# 
# From -- ./inp_files/4051.got.cif
#   From: 2010.05.17/outbox.cif.g08.bks.cpg/sg31_3_cif.got.tgz:4051.got - 2010.06.03 17:08:30.
