data_PCOD9342398
_publ_section_title
;
Structure prediction by ZEFSAII (Michael W. Deem and Ramdas Pophale) SiO2 
 PCOD9342398
Probable space group: P N C 2
;
_chemical_formula_sum "Si O2"
_cell_formula_units_Z 26
_cell_length_a 5.938995
_cell_length_b 20.607726
_cell_length_c 8.210841
_cell_angle_alpha 90.000000
_cell_angle_beta 90.000000
_cell_angle_gamma 90.000000
_cell_volume 1004.918111
_symmetry_space_group_name_H-M "P N C 2"
_symmetry_group_IT_number 30
_symmetry_cell_setting 'orthorhombic'
loop_
_space_group_symop_operation_xyz
x,y,z
-x,-y,z
-x,1/2+y,1/2+z
x,1/2-y,1/2+z
loop_
_atom_site_type_symbol
_atom_site_label
_atom_site_fract_x
_atom_site_fract_y
_atom_site_fract_z
Si Si1 0.000000 0.500000 0.053941
Si Si2 0.910246 0.663595 0.897742
Si Si3 0.264285 0.555662 0.797285
Si Si4 0.236665 0.720086 0.395459
Si Si5 0.513574 0.819212 0.197903
Si Si6 0.742458 0.522870 0.460097
Si Si7 0.129699 0.372119 0.236547
O O1 0.984386 0.565264 0.154727
O O2 0.770038 0.491677 0.949730
O O3 0.775005 0.687008 0.738916
O O4 0.042970 0.601032 0.827404
O O5 0.090974 0.717627 0.950596
O O6 0.765416 0.655789 0.066126
O O7 0.451914 0.611052 0.779356
O O8 0.268978 0.509138 0.640828
O O9 0.416901 0.754672 0.281610
O O10 0.375399 0.681861 0.531326
O O11 0.060994 0.673954 0.306946
O O12 0.500000 0.500000 0.385951
O O13 0.744543 0.597503 0.394453
O O14 0.000000 0.500000 0.423783
#
# Coordination Sequence:
#
# PCOD9342398 Si02
#       7
#     2   4   4   4   4   4   4
#     4  10  22  44  76 102 158 204 256 324 404 480
#     4  10  25  49  77 113 157 208 264 343 411 495
#     4  10  24  46  73 110 156 201 269 316 407 489
#     4  11  24  48  71 113 152 205 272 333 412 497
#     4  11  25  43  78 107 154 211 266 339 417 490
#     4  12  27  49  78 119 158 212 265 331 400 489
#     4  11  24  49  74 111 162 202 272 337 408 491
#
# _framework density 25.872754
#
# number of rings (size 3 to 8) (size 9 to 14) (size 15 to 20)
#    0.000    1.231    3.077    0.923    4.308    1.231 
#    8.308    0.000    0.000    0.000    0.000    0.000 
#    0.000    0.000    0.000    0.000    0.000    0.000 
#
# Total GULP energy -144769.136124 kJ/mol
# GULP energy per Si atom -5568.043697 kJ/mol
# Density = 2.581387 g / cm^3
# Si number density = 25.872754 Si / 1000 Ang^3
#
#
#
# Elastic Constant Matrix: (Units=GPa)
#
#
# Indices 1 2 3 4 5 6 
#
# 1 105.5070 35.6177 21.6428 0.0000 0.0000 0.0000
# 2 35.6177 96.7618 35.2389 0.0000 0.0000 0.0000
# 3 21.6428 35.2389 111.7206 0.0000 0.0000 0.0000
# 4 0.0000 0.0000 0.0000 42.7832 0.0000 0.0000
# 5 0.0000 0.0000 0.0000 0.0000 31.7746 0.0000
# 6 0.0000 0.0000 0.0000 0.0000 0.0000 49.5981
#
#
#
# Elastic Compliance Matrix: (Units=1/GPa)
#
#
# Indices 1 2 3 4 5 6 
#
# 1 0.010913 -0.003668 -0.000957 0.000000 0.000000 0.000000
# 2 -0.003668 0.012909 -0.003361 0.000000 0.000000 0.000000
# 3 -0.000957 -0.003361 0.010196 0.000000 0.000000 0.000000
# 4 0.000000 0.000000 0.000000 0.023374 0.000000 0.000000
# 5 0.000000 0.000000 0.000000 0.000000 0.031472 0.000000
# 6 0.000000 0.000000 0.000000 0.000000 0.000000 0.020162
#
#
# Mechanical properties :
#
#
# Convention : Reuss Voigt Hill
#
# Bulk Modulus (GPa) = 55.41623 55.44311 55.42967
# Shear Modulus (GPa) = 38.16394 39.59718 38.88056
#
# Velocity S-wave (km/s) = 3.84482 3.91635 3.88075
# Velocity P-wave (km/s) = 6.41681 6.47504 6.44599
#
# Compressibility (1/GPa) = 0.01804525
#
# Stress axis : x y z
#
# Youngs Moduli (GPa) = 91.63581 77.46505 98.07348
#
# Poissons Ratio (x) = 0.28418 0.09385
# Poissons Ratio (y) = 0.33616 0.32964
# Poissons Ratio (z) = 0.08769 0.26037
#
# Static dielectric constant tensor:
#      x y z
#    x 2.086310 0.000000 0.000000 
#    y 0.000000 2.059820 0.000000 
#    z 0.000000 0.000000 2.201180 
# 
# From -- ./inp_files/1406.got.cif
#   From: 2010.05.17/outbox.cif.g08.bks.cpg/sg30_1_cif.got.tgz:1406.got - 2010.06.03 17:03:02.
