data_PCOD9342519
_publ_section_title
;
Structure prediction by ZEFSAII (Michael W. Deem and Ramdas Pophale) SiO2 
 PCOD9342519
Probable space group: P N C 2
;
_chemical_formula_sum "Si O2"
_cell_formula_units_Z 26
_cell_length_a 18.115500
_cell_length_b 7.691323
_cell_length_c 8.604745
_cell_angle_alpha 90.000000
_cell_angle_beta 90.000000
_cell_angle_gamma 90.000000
_cell_volume 1198.917723
_symmetry_space_group_name_H-M "P N C 2"
_symmetry_group_IT_number 30
_symmetry_cell_setting 'orthorhombic'
loop_
_space_group_symop_operation_xyz
x,y,z
-x,-y,z
-x,1/2+y,1/2+z
x,1/2-y,1/2+z
loop_
_atom_site_type_symbol
_atom_site_label
_atom_site_fract_x
_atom_site_fract_y
_atom_site_fract_z
Si Si1 0.227705 0.486993 0.764300
Si Si2 0.686093 0.354251 0.256450
Si Si3 0.578064 0.251968 0.007847
Si Si4 0.913981 0.465092 0.236013
Si Si5 0.500000 0.500000 0.755515
Si Si6 0.082165 0.915649 0.097484
Si Si7 0.219818 0.141824 0.614864
O O1 0.272759 0.666404 0.747734
O O2 0.142379 0.509779 0.716622
O O3 0.252302 0.330424 0.651739
O O4 0.233403 0.419772 0.940150
O O5 0.637744 0.359119 0.410383
O O6 0.744806 0.504209 0.233821
O O7 0.629007 0.373362 0.115281
O O8 0.530534 0.364873 0.890074
O O9 0.531774 0.131334 0.120343
O O10 0.910098 0.288871 0.135698
O O11 0.893183 0.443677 0.418286
O O12 0.866859 0.616541 0.154344
O O13 0.000000 0.500000 0.240264
O O14 0.000000 0.000000 0.117826
#
# Coordination Sequence:
#
# PCOD9342519 Si02
#       7
#     4   4   4   4   2   4   4
#     4  12  26  43  69 105 141 194 251 310 376 449
#     4  11  24  47  71 110 152 194 235 308 366 440
#     4  10  24  50  77 114 153 192 240 295 372 445
#     4  11  24  41  64  94 137 191 248 322 380 441
#     4  10  24  50  80 114 156 200 242 300 362 458
#     4  11  24  41  64  94 136 188 250 316 383 444
#     4  12  26  43  69 102 145 193 251 307 378 440
#
# _framework density 21.686223999999999
#
# number of rings (size 3 to 8) (size 9 to 14) (size 15 to 20)
#    0.000    0.923    3.077    2.769    4.308    7.385 
#   11.077    0.000    0.000    0.000    0.000    0.000 
#    0.000    0.000    0.000    0.000    0.000    0.000 
#
# Total GULP energy -144761.961321 kJ/mol
# GULP energy per Si atom -5567.767743 kJ/mol
# Density = 2.163687 g / cm^3
# Si number density = 21.686224 Si / 1000 Ang^3
#
#
#
# Elastic Constant Matrix: (Units=GPa)
#
#
# Indices 1 2 3 4 5 6 
#
# 1 63.6193 30.8514 36.7553 0.0000 0.0000 0.0000
# 2 30.8514 88.2348 7.0674 0.0000 0.0000 0.0000
# 3 36.7553 7.0674 89.7546 0.0000 0.0000 0.0000
# 4 0.0000 0.0000 0.0000 64.4448 0.0000 0.0000
# 5 0.0000 0.0000 0.0000 0.0000 -35.9622 0.0000
# 6 0.0000 0.0000 0.0000 0.0000 0.0000 13.0020
#
#
#
# Elastic Compliance Matrix: (Units=1/GPa)
#
#
# Indices 1 2 3 4 5 6 
#
# 1 0.025219 -0.008041 -0.009694 0.000000 0.000000 0.000000
# 2 -0.008041 0.013969 0.002193 0.000000 0.000000 0.000000
# 3 -0.009694 0.002193 0.014939 0.000000 0.000000 0.000000
# 4 0.000000 0.000000 0.000000 0.015517 0.000000 0.000000
# 5 0.000000 0.000000 0.000000 0.000000 -0.027807 0.000000
# 6 0.000000 0.000000 0.000000 0.000000 0.000000 0.076911
#
#
# Mechanical properties :
#
#
# Convention : Reuss Voigt Hill
#
# Bulk Modulus (GPa) = 43.39907 43.43965 43.41936
# Shear Modulus (GPa) = 31.74342 19.42591 25.58467
#
# Velocity S-wave (km/s) = 3.83006 2.99619 3.43850
# Velocity P-wave (km/s) = 6.29404 5.66074 5.98577
#
# Compressibility (1/GPa) = 0.02304197
#
# Stress axis : x y z
#
# Youngs Moduli (GPa) = 39.65329 71.58521 66.94067
#
# Poissons Ratio (x) = 0.57563 0.64893
# Poissons Ratio (y) = 0.31886 -0.14680
# Poissons Ratio (z) = 0.38440 -0.15698
#
# Static dielectric constant tensor:
#      x y z
#    x 1.852070 0.000000 0.000000 
#    y 0.000000 1.673970 0.000000 
#    z 0.000000 0.000000 1.789830 
# 
# From -- ./inp_files/2763.got.cif
#   From: 2010.05.17/outbox.cif.g08.bks.cpg/sg30_2_cif.got.tgz:2763.got - 2010.06.03 17:03:02.
