data_PCOD9342897
_publ_section_title
;
Structure prediction by ZEFSAII (Michael W. Deem and Ramdas Pophale) SiO2 
 PCOD9342897
Probable space group: P M N 21
;
_chemical_formula_sum "Si O2"
_cell_formula_units_Z 32
_cell_length_a 9.507919
_cell_length_b 10.930001
_cell_length_c 14.183109
_cell_angle_alpha 90.000000
_cell_angle_beta 90.000000
_cell_angle_gamma 90.000000
_cell_volume 1473.930872
_symmetry_space_group_name_H-M "P M N 21"
_symmetry_group_IT_number 31
_symmetry_cell_setting 'orthorhombic'
loop_
_space_group_symop_operation_xyz
x,y,z
1/2-x,-y,1/2+z
-x,y,z
1/2+x,-y,1/2+z
loop_
_atom_site_type_symbol
_atom_site_label
_atom_site_fract_x
_atom_site_fract_y
_atom_site_fract_z
Si Si1 0.841146 0.195502 0.878850
Si Si2 0.160323 0.445773 0.758220
Si Si3 0.837200 0.937381 0.079755
Si Si4 0.833934 0.191581 0.192211
Si Si5 0.836516 0.926506 0.853987
Si Si6 0.336749 0.561690 0.914991
Si Si7 0.330074 0.704602 0.088217
Si Si8 0.663431 0.312348 0.037077
O O1 0.841881 0.315345 0.813697
O O2 0.000000 0.185551 0.920975
O O3 0.815701 0.069093 0.824921
O O4 0.728227 0.219672 0.959920
O O5 0.249006 0.536041 0.822151
O O6 0.216597 0.404719 0.657127
O O7 0.000000 0.489758 0.748644
O O8 0.736364 0.831763 0.117284
O O9 0.000000 0.903210 0.096070
O O10 0.815476 0.067389 0.129638
O O11 0.814347 0.937103 0.966657
O O12 0.763901 0.159326 0.292570
O O13 0.752993 0.294863 0.132015
O O14 0.000000 0.216719 0.200629
O O15 0.000000 0.892866 0.837450
O O16 0.500000 0.578461 0.891140
O O17 0.287727 0.671127 0.981814
O O18 0.327175 0.442309 0.983272
O O19 0.500000 0.708362 0.092922
O O20 0.500000 0.287684 0.056391
#
# Coordination Sequence:
#
# PCOD9342897 Si02
#       8
#     4   4   4   4   4   4   4   4
#     4   9  16  31  54  78 109 142 181 232 276 323
#     4   9  18  33  58  86 108 145 193 233 280 336
#     4  10  22  39  58  83 118 153 186 231 283 336
#     4  11  22  37  56  83 116 149 187 231 279 336
#     4  10  20  36  55  80 115 152 185 225 281 339
#     4   9  20  38  58  82 113 145 185 239 284 328
#     4  10  21  39  60  83 115 151 190 234 283 338
#     4  10  19  33  55  79 106 143 185 229 280 330
#
# _framework density 21.710653000000001
#
# number of rings (size 3 to 8) (size 9 to 14) (size 15 to 20)
#    0.000    2.250    1.250    1.500    0.000    4.500 
#    2.250    2.500    0.000    0.000    0.000    0.000 
#    0.000    0.000    0.000    0.000    0.000    0.000 
#
# Total GULP energy -178782.341344 kJ/mol
# GULP energy per Si atom -5586.948167 kJ/mol
# Density = 2.166124 g / cm^3
# Si number density = 21.710653 Si / 1000 Ang^3
#
#
#
# Elastic Constant Matrix: (Units=GPa)
#
#
# Indices 1 2 3 4 5 6 
#
# 1 60.5137 21.5427 40.9745 0.0000 0.0000 0.0000
# 2 21.5427 52.3569 12.1303 0.0000 0.0000 0.0000
# 3 40.9745 12.1303 107.3420 0.0000 0.0000 0.0000
# 4 0.0000 0.0000 0.0000 40.5841 0.0000 0.0000
# 5 0.0000 0.0000 0.0000 0.0000 13.8180 0.0000
# 6 0.0000 0.0000 0.0000 0.0000 0.0000 -17.9642
#
#
#
# Elastic Compliance Matrix: (Units=1/GPa)
#
#
# Indices 1 2 3 4 5 6 
#
# 1 0.025469 -0.008448 -0.008767 0.000000 0.000000 0.000000
# 2 -0.008448 0.022416 0.000692 0.000000 0.000000 0.000000
# 3 -0.008767 0.000692 0.012585 0.000000 0.000000 0.000000
# 4 0.000000 0.000000 0.000000 0.024640 0.000000 0.000000
# 5 0.000000 0.000000 0.000000 0.000000 0.072369 0.000000
# 6 0.000000 0.000000 0.000000 0.000000 0.000000 -0.055666
#
#
# Mechanical properties :
#
#
# Convention : Reuss Voigt Hill
#
# Bulk Modulus (GPa) = 36.46771 41.05638 38.76205
# Shear Modulus (GPa) = 34.72209 16.99194 25.85702
#
# Velocity S-wave (km/s) = 4.00348 2.80063 3.45481
# Velocity P-wave (km/s) = 6.18094 5.42308 5.81437
#
# Compressibility (1/GPa) = 0.02742152
#
# Stress axis : x y z
#
# Youngs Moduli (GPa) = 39.26303 44.61194 79.46268
#
# Poissons Ratio (x) = 0.37689 0.69668
# Poissons Ratio (y) = 0.33170 -0.05497
# Poissons Ratio (z) = 0.34423 -0.03086
#
# Static dielectric constant tensor:
#      x y z
#    x 1.732010 0.000000 0.000000 
#    y 0.000000 1.819440 0.000000 
#    z 0.000000 0.000000 1.819040 
# 
# From -- ./inp_files/5004.got.cif
#   From: 2010.05.17/outbox.cif.g08.bks.cpg/sg31_3_cif.got.tgz:5004.got - 2010.06.03 17:08:30.
