data_PCOD9342892
_publ_section_title
;
Structure prediction by ZEFSAII (Michael W. Deem and Ramdas Pophale) SiO2 
 PCOD9342892
Probable space group: P M N 21
;
_chemical_formula_sum "Si O2"
_cell_formula_units_Z 32
_cell_length_a 13.716411
_cell_length_b 11.563814
_cell_length_c 10.435351
_cell_angle_alpha 90.000000
_cell_angle_beta 90.000000
_cell_angle_gamma 90.000000
_cell_volume 1655.193030
_symmetry_space_group_name_H-M "P M N 21"
_symmetry_group_IT_number 31
_symmetry_cell_setting 'orthorhombic'
loop_
_space_group_symop_operation_xyz
x,y,z
1/2-x,-y,1/2+z
-x,y,z
1/2+x,-y,1/2+z
loop_
_atom_site_type_symbol
_atom_site_label
_atom_site_fract_x
_atom_site_fract_y
_atom_site_fract_z
Si Si1 0.109357 0.128333 0.134850
Si Si2 0.309214 0.827335 0.365385
Si Si3 0.885635 0.167951 0.577975
Si Si4 0.609492 0.455090 0.699488
Si Si5 0.390209 0.039056 0.870369
Si Si6 0.727706 0.353696 0.484359
Si Si7 0.742237 0.325810 0.206803
Si Si8 0.700299 0.385260 0.944341
O O1 0.189068 0.216130 0.188157
O O2 0.000000 0.176196 0.148884
O O3 0.114156 0.018927 0.228854
O O4 0.131865 0.116559 0.983807
O O5 0.354838 0.852504 0.226401
O O6 0.199162 0.874068 0.375735
O O7 0.292955 0.689931 0.392637
O O8 0.813346 0.267488 0.527097
O O9 0.000000 0.201945 0.573764
O O10 0.875755 0.058726 0.481375
O O11 0.500000 0.494994 0.676948
O O12 0.645583 0.366534 0.591178
O O13 0.684356 0.563431 0.702837
O O14 0.620603 0.390408 0.834513
O O15 0.500000 0.085721 0.887505
O O16 0.691559 0.319813 0.343505
O O17 0.770124 0.482487 0.468646
O O18 0.674237 0.334971 0.082885
#
# Coordination Sequence:
#
# PCOD9342892 Si02
#       8
#     4   4   4   4   4   4   4   4
#     4  10  19  34  57  85 107 140 192 236 281 334
#     4  11  21  38  57  85 117 154 180 239 294 340
#     4  11  22  38  61  89 114 146 194 244 290 338
#     4  10  19  33  54  81 114 152 188 226 284 349
#     4  10  22  38  59  85 111 146 194 234 282 352
#     4  10  19  36  57  83 117 147 190 242 285 333
#     4   9  18  33  57  77 112 146 187 236 283 329
#     4   9  20  34  56  81 112 151 191 227 283 343
#
# _framework density 19.333092000000001
#
# number of rings (size 3 to 8) (size 9 to 14) (size 15 to 20)
#    0.000    2.000    2.500    1.500    0.000    2.500 
#    0.000    1.250    0.000    1.500    0.000    0.000 
#    0.000    0.000    0.000    0.000    0.000    0.000 
#
# Total GULP energy -178339.231644 kJ/mol
# GULP energy per Si atom -5573.100989 kJ/mol
# Density = 1.928909 g / cm^3
# Si number density = 19.333092 Si / 1000 Ang^3
#
#
#
# Elastic Constant Matrix: (Units=GPa)
#
#
# Indices 1 2 3 4 5 6 
#
# 1 40.4861 10.1987 22.2492 0.0000 0.0000 0.0000
# 2 10.1987 27.2049 11.6842 0.0000 0.0000 0.0000
# 3 22.2492 11.6842 143.8574 0.0000 0.0000 0.0000
# 4 0.0000 0.0000 0.0000 11.2103 0.0000 0.0000
# 5 0.0000 0.0000 0.0000 0.0000 14.1027 0.0000
# 6 0.0000 0.0000 0.0000 0.0000 0.0000 19.1467
#
#
#
# Elastic Compliance Matrix: (Units=1/GPa)
#
#
# Indices 1 2 3 4 5 6 
#
# 1 0.029101 -0.009301 -0.003745 0.000000 0.000000 0.000000
# 2 -0.009301 0.041059 -0.001896 0.000000 0.000000 0.000000
# 3 -0.003745 -0.001896 0.007685 0.000000 0.000000 0.000000
# 4 0.000000 0.000000 0.000000 0.089204 0.000000 0.000000
# 5 0.000000 0.000000 0.000000 0.000000 0.070908 0.000000
# 6 0.000000 0.000000 0.000000 0.000000 0.000000 0.052228
#
#
# Mechanical properties :
#
#
# Convention : Reuss Voigt Hill
#
# Bulk Modulus (GPa) = 20.85085 33.31249 27.08167
# Shear Modulus (GPa) = 14.87841 20.05302 17.46571
#
# Velocity S-wave (km/s) = 2.77714 3.22411 3.00894
# Velocity P-wave (km/s) = 4.59259 5.57926 5.10979
#
# Compressibility (1/GPa) = 0.04795968
#
# Stress axis : x y z
#
# Youngs Moduli (GPa) = 34.36299 24.35498 130.13003
#
# Poissons Ratio (x) = 0.22652 0.48739
# Poissons Ratio (y) = 0.31961 0.24678
# Poissons Ratio (z) = 0.12870 0.04619
#
# Static dielectric constant tensor:
#      x y z
#    x 1.636300 0.000000 0.000000 
#    y 0.000000 1.718000 0.000000 
#    z 0.000000 0.000000 1.731590 
# 
# From -- ./inp_files/2563.got.cif
#   From: 2010.05.17/outbox.cif.g08.bks.cpg/sg31_2_cif.got.tgz:2563.got - 2010.06.03 17:08:30.
