data_PCOD9342058
_publ_section_title
;
Structure prediction by ZEFSAII (Michael W. Deem and Ramdas Pophale) SiO2 
 PCOD9342058
Probable space group: P N C 2
;
_chemical_formula_sum "Si O2"
_cell_formula_units_Z 20
_cell_length_a 10.816332
_cell_length_b 8.222714
_cell_length_c 9.603054
_cell_angle_alpha 90.000000
_cell_angle_beta 90.000000
_cell_angle_gamma 90.000000
_cell_volume 854.091825
_symmetry_space_group_name_H-M "P N C 2"
_symmetry_group_IT_number 30
_symmetry_cell_setting 'orthorhombic'
loop_
_space_group_symop_operation_xyz
x,y,z
-x,-y,z
-x,1/2+y,1/2+z
x,1/2-y,1/2+z
loop_
_atom_site_type_symbol
_atom_site_label
_atom_site_fract_x
_atom_site_fract_y
_atom_site_fract_z
Si Si1 0.737669 0.568526 0.881110
Si Si2 0.169768 0.633691 0.216633
Si Si3 0.500000 0.500000 0.336667
Si Si4 0.680461 0.804326 0.657814
Si Si5 0.000000 0.500000 0.014384
Si Si6 0.296034 0.717676 0.473626
O O1 0.720608 0.638381 0.728916
O O2 0.671974 0.399296 0.919218
O O3 0.882408 0.546559 0.920984
O O4 0.681463 0.697957 0.991579
O O5 0.224700 0.451945 0.196050
O O6 0.176118 0.672523 0.378226
O O7 0.046463 0.636369 0.125003
O O8 0.260927 0.755261 0.133405
O O9 0.443642 0.366000 0.231302
O O10 0.398933 0.589050 0.432023
#
# Coordination Sequence:
#
# PCOD9342058 Si02
#       6
#     4   4   2   4   2   4
#     4  10  21  37  57  87 115 147 192 234 280 349
#     4   9  19  36  55  82 111 147 190 232 278 342
#     4  10  20  38  58  80 118 154 182 240 290 324
#     4   9  21  36  54  80 113 147 192 231 278 341
#     4   8  18  36  60  80 118 150 178 242 292 318
#     4   9  20  36  57  83 113 146 192 232 279 343
#
# _framework density 23.416684
#
# number of rings (size 3 to 8) (size 9 to 14) (size 15 to 20)
#    0.000    3.200    0.000    0.000    0.000   15.200 
#    0.000    0.000    0.000   28.800    0.000    0.000 
#    0.000    0.000    0.000    0.000    0.000    0.000 
#
# Total GULP energy -111595.431989 kJ/mol
# GULP energy per Si atom -5579.771599 kJ/mol
# Density = 2.336339 g / cm^3
# Si number density = 23.416684 Si / 1000 Ang^3
#
#
#
# Elastic Constant Matrix: (Units=GPa)
#
#
# Indices 1 2 3 4 5 6 
#
# 1 83.7192 16.7006 8.6553 0.0000 0.0000 0.0000
# 2 16.7006 68.1166 13.4610 0.0000 0.0000 0.0000
# 3 8.6553 13.4610 57.9932 0.0000 0.0000 0.0000
# 4 0.0000 0.0000 0.0000 40.6314 0.0000 0.0000
# 5 0.0000 0.0000 0.0000 0.0000 12.4700 0.0000
# 6 0.0000 0.0000 0.0000 0.0000 0.0000 24.4986
#
#
#
# Elastic Compliance Matrix: (Units=1/GPa)
#
#
# Indices 1 2 3 4 5 6 
#
# 1 0.012641 -0.002858 -0.001223 0.000000 0.000000 0.000000
# 2 -0.002858 0.016032 -0.003295 0.000000 0.000000 0.000000
# 3 -0.001223 -0.003295 0.018191 0.000000 0.000000 0.000000
# 4 0.000000 0.000000 0.000000 0.024612 0.000000 0.000000
# 5 0.000000 0.000000 0.000000 0.000000 0.080193 0.000000
# 6 0.000000 0.000000 0.000000 0.000000 0.000000 0.040819
#
#
# Mechanical properties :
#
#
# Convention : Reuss Voigt Hill
#
# Bulk Modulus (GPa) = 31.14022 31.94029 31.54025
# Shear Modulus (GPa) = 22.94177 26.92081 24.93129
#
# Velocity S-wave (km/s) = 3.13344 3.39432 3.26648
# Velocity P-wave (km/s) = 5.13989 5.38808 5.26545
#
# Compressibility (1/GPa) = 0.03211282
#
# Stress axis : x y z
#
# Youngs Moduli (GPa) = 79.10636 62.37353 54.97297
#
# Poissons Ratio (x) = 0.17824 0.06725
# Poissons Ratio (y) = 0.22605 0.18113
# Poissons Ratio (z) = 0.09678 0.20551
#
# Static dielectric constant tensor:
#      x y z
#    x 1.953700 0.000000 0.000000 
#    y 0.000000 1.896350 0.000000 
#    z 0.000000 0.000000 1.877050 
# 
# From -- ./inp_files/2304.got.cif
#   From: 2010.05.17/outbox.cif.g08.bks.cpg/sg30_2_cif.got.tgz:2304.got - 2010.06.03 17:03:02.
