data_PCOD9342662
_publ_section_title
;
Structure prediction by ZEFSAII (Michael W. Deem and Ramdas Pophale) SiO2 
 PCOD9342662
Probable space group: P N C 2
;
_chemical_formula_sum "Si O2"
_cell_formula_units_Z 14
_cell_length_a 10.248331
_cell_length_b 4.562010
_cell_length_c 11.158495
_cell_angle_alpha 90.000000
_cell_angle_beta 90.000000
_cell_angle_gamma 90.000000
_cell_volume 521.692988
_symmetry_space_group_name_H-M "P N C 2"
_symmetry_group_IT_number 30
_symmetry_cell_setting 'orthorhombic'
loop_
_space_group_symop_operation_xyz
x,y,z
-x,-y,z
-x,1/2+y,1/2+z
x,1/2-y,1/2+z
loop_
_atom_site_type_symbol
_atom_site_label
_atom_site_fract_x
_atom_site_fract_y
_atom_site_fract_z
Si Si1 0.705556 0.141619 0.458970
Si Si2 0.319532 0.177765 0.789924
Si Si3 0.092783 0.268434 0.120452
Si Si4 0.500000 0.000000 0.115162
O O1 0.804976 0.683055 0.722259
O O2 0.634317 0.862713 0.404018
O O3 0.720940 0.365939 0.346226
O O4 0.617424 0.328893 0.548499
O O5 0.171598 0.471763 0.022668
O O6 0.430595 0.252619 0.695399
O O7 0.000000 0.500000 0.183026
O O8 0.000000 0.000000 0.077055
#
# Coordination Sequence:
#
# PCOD9342662 Si02
#       4
#     4   4   4   2
#     4  12  27  48  79 117 159 214 267 328 409 482
#     4  12  27  48  77 114 157 210 267 330 405 479
#     4  12  27  51  77 110 156 206 271 339 395 471
#     4  12  26  50  78 120 170 210 266 334 404 496
#
# _framework density 26.835705000000001
#
# number of rings (size 3 to 8) (size 9 to 14) (size 15 to 20)
#    0.000    0.000    0.000   10.286    0.000   12.571 
#    0.000    2.857    0.000    0.000    0.000    0.000 
#    0.000    0.000    0.000    0.000    0.000    0.000 
#
# Total GULP energy -78146.603334 kJ/mol
# GULP energy per Si atom -5581.900238 kJ/mol
# Density = 2.677463 g / cm^3
# Si number density = 26.835705 Si / 1000 Ang^3
#
#
#
# Elastic Constant Matrix: (Units=GPa)
#
#
# Indices 1 2 3 4 5 6 
#
# 1 163.8181 94.0735 67.0161 0.0000 0.0000 0.0000
# 2 94.0735 234.9090 87.1610 0.0000 0.0000 0.0000
# 3 67.0161 87.1610 121.3744 0.0000 0.0000 0.0000
# 4 0.0000 0.0000 0.0000 27.8584 0.0000 0.0000
# 5 0.0000 0.0000 0.0000 0.0000 8.1020 0.0000
# 6 0.0000 0.0000 0.0000 0.0000 0.0000 50.1467
#
#
#
# Elastic Compliance Matrix: (Units=1/GPa)
#
#
# Indices 1 2 3 4 5 6 
#
# 1 0.008729 -0.002328 -0.003148 0.000000 0.000000 0.000000
# 2 -0.002328 0.006424 -0.003328 0.000000 0.000000 0.000000
# 3 -0.003148 -0.003328 0.012367 0.000000 0.000000 0.000000
# 4 0.000000 0.000000 0.000000 0.035896 0.000000 0.000000
# 5 0.000000 0.000000 0.000000 0.000000 0.123426 0.000000
# 6 0.000000 0.000000 0.000000 0.000000 0.000000 0.019941
#
#
# Mechanical properties :
#
#
# Convention : Reuss Voigt Hill
#
# Bulk Modulus (GPa) = 100.88260 112.95585 106.91923
# Shear Modulus (GPa) = 21.95925 35.34482 28.65204
#
# Velocity S-wave (km/s) = 2.86367 3.63310 3.27109
# Velocity P-wave (km/s) = 6.97198 7.73190 7.36175
#
# Compressibility (1/GPa) = 0.00991251
#
# Stress axis : x y z
#
# Youngs Moduli (GPa) = 114.56363 155.66920 80.85998
#
# Poissons Ratio (x) = 0.36232 0.25456
# Poissons Ratio (y) = 0.26665 0.26910
# Poissons Ratio (z) = 0.36066 0.51806
#
# Static dielectric constant tensor:
#      x y z
#    x 2.141420 0.000000 0.000000 
#    y 0.000000 2.096840 0.000000 
#    z 0.000000 0.000000 2.144450 
# 
# From -- ./inp_files/2201.got.cif
#   From: 2010.05.17/outbox.cif.g08.bks.cpg/sg30_2_cif.got.tgz:2201.got - 2010.06.03 17:03:02.
