data_PCOD9342510
_publ_section_title
;
Structure prediction by ZEFSAII (Michael W. Deem and Ramdas Pophale) SiO2 
 PCOD9342510
Probable space group: P N C 2
;
_chemical_formula_sum "Si O2"
_cell_formula_units_Z 20
_cell_length_a 7.822898
_cell_length_b 12.106877
_cell_length_c 8.447786
_cell_angle_alpha 90.000000
_cell_angle_beta 90.000000
_cell_angle_gamma 90.000000
_cell_volume 800.097110
_symmetry_space_group_name_H-M "P N C 2"
_symmetry_group_IT_number 30
_symmetry_cell_setting 'orthorhombic'
loop_
_space_group_symop_operation_xyz
x,y,z
-x,-y,z
-x,1/2+y,1/2+z
x,1/2-y,1/2+z
loop_
_atom_site_type_symbol
_atom_site_label
_atom_site_fract_x
_atom_site_fract_y
_atom_site_fract_z
Si Si1 0.500000 0.000000 0.229550
Si Si2 0.834790 0.307154 0.409777
Si Si3 0.346189 0.412705 0.099341
Si Si4 0.460450 0.226646 0.297788
Si Si5 0.861894 0.406207 0.761245
Si Si6 0.000000 0.500000 0.201093
O O1 0.544246 0.875536 0.167453
O O2 0.320202 0.961511 0.306369
O O3 0.645825 0.280574 0.337162
O O4 0.834043 0.346304 0.590791
O O5 0.918793 0.187302 0.384575
O O6 0.930915 0.400379 0.310246
O O7 0.500000 0.500000 0.122777
O O8 0.345062 0.327131 0.244963
O O9 0.162277 0.466861 0.097855
O O10 0.396864 0.336816 0.951925
O O11 0.000000 0.500000 0.739561
#
# Coordination Sequence:
#
# PCOD9342510 Si02
#       6
#     2   4   4   4   4   2
#     4  10  24  46  78 112 142 204 252 316 374 454
#     4  11  25  50  76 109 155 201 254 323 378 460
#     4  12  27  52  76 117 154 207 260 327 389 468
#     4  11  24  50  80 107 158 204 257 315 390 459
#     4  11  26  49  74 111 152 197 256 311 379 454
#     4  12  28  46  78 116 160 202 264 326 392 458
#
# _framework density 24.996963999999998
#
# number of rings (size 3 to 8) (size 9 to 14) (size 15 to 20)
#    0.000    0.800    4.000    2.400    2.800    4.800 
#    5.400    0.000    0.000    1.200    0.000    0.000 
#    0.000    0.000    0.000    0.000    0.000    0.000 
#
# Total GULP energy -111813.837763 kJ/mol
# GULP energy per Si atom -5590.691888 kJ/mol
# Density = 2.494007 g / cm^3
# Si number density = 24.996964 Si / 1000 Ang^3
#
#
#
# Elastic Constant Matrix: (Units=GPa)
#
#
# Indices 1 2 3 4 5 6 
#
# 1 166.2060 104.0895 54.7255 0.0000 0.0000 0.0000
# 2 104.0895 208.4338 64.7553 0.0000 0.0000 0.0000
# 3 54.7255 64.7553 93.0295 0.0000 0.0000 0.0000
# 4 0.0000 0.0000 0.0000 48.9718 0.0000 0.0000
# 5 0.0000 0.0000 0.0000 0.0000 25.6500 0.0000
# 6 0.0000 0.0000 0.0000 0.0000 0.0000 60.1196
#
#
#
# Elastic Compliance Matrix: (Units=1/GPa)
#
#
# Indices 1 2 3 4 5 6 
#
# 1 0.009315 -0.003763 -0.002860 0.000000 0.000000 0.000000
# 2 -0.003763 0.007642 -0.003105 0.000000 0.000000 0.000000
# 3 -0.002860 -0.003105 0.014593 0.000000 0.000000 0.000000
# 4 0.000000 0.000000 0.000000 0.020420 0.000000 0.000000
# 5 0.000000 0.000000 0.000000 0.000000 0.038986 0.000000
# 6 0.000000 0.000000 0.000000 0.000000 0.000000 0.016634
#
#
# Mechanical properties :
#
#
# Convention : Reuss Voigt Hill
#
# Bulk Modulus (GPa) = 82.69588 101.64556 92.17072
# Shear Modulus (GPa) = 38.14486 43.22154 40.68320
#
# Velocity S-wave (km/s) = 3.91062 4.16272 4.03864
# Velocity P-wave (km/s) = 7.31743 7.99098 7.66161
#
# Compressibility (1/GPa) = 0.01209250
#
# Stress axis : x y z
#
# Youngs Moduli (GPa) = 107.35085 130.85855 68.52378
#
# Poissons Ratio (x) = 0.49246 0.19599
# Poissons Ratio (y) = 0.40400 0.21280
# Poissons Ratio (z) = 0.30705 0.40638
#
# Static dielectric constant tensor:
#      x y z
#    x 1.953940 0.000000 0.000000 
#    y 0.000000 2.008880 0.000000 
#    z 0.000000 0.000000 2.047070 
# 
# From -- ./inp_files/1725.got.cif
#   From: 2010.05.17/outbox.cif.g08.bks.cpg/sg30_1_cif.got.tgz:1725.got - 2010.06.03 17:03:02.
