data_PCOD9342755
_publ_section_title
;
Structure prediction by ZEFSAII (Michael W. Deem and Ramdas Pophale) SiO2 
 PCOD9342755
Probable space group: P M N 21
;
_chemical_formula_sum "Si O2"
_cell_formula_units_Z 18
_cell_length_a 8.266608
_cell_length_b 6.943073
_cell_length_c 12.341316
_cell_angle_alpha 90.000000
_cell_angle_beta 90.000000
_cell_angle_gamma 90.000000
_cell_volume 708.338012
_symmetry_space_group_name_H-M "P M N 21"
_symmetry_group_IT_number 31
_symmetry_cell_setting 'orthorhombic'
loop_
_space_group_symop_operation_xyz
x,y,z
1/2-x,-y,1/2+z
-x,y,z
1/2+x,-y,1/2+z
loop_
_atom_site_type_symbol
_atom_site_label
_atom_site_fract_x
_atom_site_fract_y
_atom_site_fract_z
Si Si1 0.308974 0.388264 0.609720
Si Si2 0.174420 0.671760 0.370300
Si Si3 0.000000 0.397204 0.847657
Si Si4 0.000000 0.640080 0.632802
Si Si5 0.500000 0.059351 0.285311
Si Si6 0.313907 0.887978 0.925029
O O1 0.500000 0.431067 0.593448
O O2 0.307150 0.324007 0.738490
O O3 0.172740 0.555733 0.594121
O O4 0.245888 0.211424 0.535449
O O5 0.334157 0.565285 0.407910
O O6 0.000000 0.585694 0.392752
O O7 0.176115 0.880606 0.424088
O O8 0.000000 0.537623 0.748867
O O9 0.000000 0.170890 0.810471
O O10 0.000000 0.866806 0.661307
O O11 0.333196 0.138263 0.339000
O O12 0.500000 0.827979 0.897265
#
# Coordination Sequence:
#
# PCOD9342755 Si02
#       6
#     4   4   2   2   2   4
#     4  10  18  32  54  84 112 151 193 232 286 343
#     4   8  16  28  48  78 112 142 182 228 270 326
#     4   8  16  32  52  76 106 136 176 220 268 320
#     4  10  20  34  56  81 108 148 188 229 282 335
#     4  10  20  34  56  81 108 148 188 229 282 335
#     4  10  18  32  54  84 112 151 193 232 286 343
#
# _framework density 25.411598999999999
#
# number of rings (size 3 to 8) (size 9 to 14) (size 15 to 20)
#    0.000    2.667    2.222    0.000    0.000    0.889 
#    0.000    0.000    0.000   24.000    0.000    0.000 
#    0.000    0.000    0.000    0.000    0.000    0.000 
#
# Total GULP energy -100431.942204 kJ/mol
# GULP energy per Si atom -5579.552345 kJ/mol
# Density = 2.535376 g / cm^3
# Si number density = 25.411599 Si / 1000 Ang^3
#
#
#
# Elastic Constant Matrix: (Units=GPa)
#
#
# Indices 1 2 3 4 5 6 
#
# 1 293.0966 8.8194 60.6144 0.0000 0.0000 0.0000
# 2 8.8194 108.2304 20.0944 0.0000 0.0000 0.0000
# 3 60.6144 20.0944 100.0838 0.0000 0.0000 0.0000
# 4 0.0000 0.0000 0.0000 35.9903 0.0000 0.0000
# 5 0.0000 0.0000 0.0000 0.0000 65.2291 0.0000
# 6 0.0000 0.0000 0.0000 0.0000 0.0000 26.3569
#
#
#
# Elastic Compliance Matrix: (Units=1/GPa)
#
#
# Indices 1 2 3 4 5 6 
#
# 1 0.003902 0.000125 -0.002388 0.000000 0.000000 0.000000
# 2 0.000125 0.009601 -0.002004 0.000000 0.000000 0.000000
# 3 -0.002388 -0.002004 0.011840 0.000000 0.000000 0.000000
# 4 0.000000 0.000000 0.000000 0.027785 0.000000 0.000000
# 5 0.000000 0.000000 0.000000 0.000000 0.015331 0.000000
# 6 0.000000 0.000000 0.000000 0.000000 0.000000 0.037941
#
#
# Mechanical properties :
#
#
# Convention : Reuss Voigt Hill
#
# Bulk Modulus (GPa) = 59.48657 75.60747 67.54702
# Shear Modulus (GPa) = 41.48101 52.97411 47.22756
#
# Velocity S-wave (km/s) = 4.04464 4.57074 4.31571
# Velocity P-wave (km/s) = 6.72846 7.59429 7.17445
#
# Compressibility (1/GPa) = 0.01681052
#
# Stress axis : x y z
#
# Youngs Moduli (GPa) = 256.27854 104.15212 84.45642
#
# Poissons Ratio (x) = -0.01307 0.20171
# Poissons Ratio (y) = -0.03216 0.16923
# Poissons Ratio (z) = 0.61209 0.20869
#
# Static dielectric constant tensor:
#      x y z
#    x 2.068530 0.000000 0.000000 
#    y 0.000000 2.005290 0.000000 
#    z 0.000000 0.000000 2.097390 
# 
# From -- ./inp_files/3350.got.cif
#   From: 2010.05.17/outbox.cif.g08.bks.cpg/sg31_2_cif.got.tgz:3350.got - 2010.06.03 17:08:30.
