data_PCOD9342089
_publ_section_title
;
Structure prediction by ZEFSAII (Michael W. Deem and Ramdas Pophale) SiO2 
 PCOD9342089
Probable space group: P N C 2
;
_chemical_formula_sum "Si O2"
_cell_formula_units_Z 30
_cell_length_a 8.883995
_cell_length_b 21.477848
_cell_length_c 8.597519
_cell_angle_alpha 90.000000
_cell_angle_beta 90.000000
_cell_angle_gamma 90.000000
_cell_volume 1640.484813
_symmetry_space_group_name_H-M "P N C 2"
_symmetry_group_IT_number 30
_symmetry_cell_setting 'orthorhombic'
loop_
_space_group_symop_operation_xyz
x,y,z
-x,-y,z
-x,1/2+y,1/2+z
x,1/2-y,1/2+z
loop_
_atom_site_type_symbol
_atom_site_label
_atom_site_fract_x
_atom_site_fract_y
_atom_site_fract_z
Si Si1 0.500000 0.000000 0.279021
Si Si2 0.335425 0.277767 0.781045
Si Si3 0.650690 0.442874 0.065350
Si Si4 0.186828 0.683667 0.091874
Si Si5 0.357409 0.788023 0.897057
Si Si6 0.164914 0.178146 0.586360
Si Si7 0.328649 0.432640 0.221711
Si Si8 0.565405 0.615280 0.552743
O O1 0.627761 0.021971 0.401353
O O2 0.463746 0.058721 0.170583
O O3 0.495963 0.245241 0.819097
O O4 0.227298 0.224070 0.718506
O O5 0.350598 0.330447 0.648808
O O6 0.264498 0.307433 0.934756
O O7 0.756088 0.384374 0.043704
O O8 0.486866 0.420146 0.129352
O O9 0.700087 0.494446 0.191646
O O10 0.236396 0.691185 0.270260
O O11 0.010498 0.689489 0.062287
O O12 0.279868 0.736669 0.003686
O O13 0.418350 0.848180 0.989400
O O14 0.200751 0.108837 0.644020
O O15 0.353327 0.412147 0.399558
#
# Coordination Sequence:
#
# PCOD9342089 Si02
#       8
#     2   4   4   4   4   4   4   4
#     4  10  22  36  62  98 116 154 212 278 304 360
#     4  12  21  40  63  91 123 168 212 264 305 390
#     4  10  21  41  65  90 128 163 223 261 311 375
#     4  12  25  39  62  95 131 163 199 271 326 388
#     4  12  22  39  63  93 122 162 213 259 323 369
#     4  12  23  39  60  93 130 166 211 255 340 377
#     4  10  20  39  63  91 116 170 216 262 301 379
#     4  12  21  36  67  92 121 153 220 269 308 362
#
# _framework density 18.287278000000001
#
# number of rings (size 3 to 8) (size 9 to 14) (size 15 to 20)
#    0.000    0.800    5.333    4.800    0.000    0.533 
#    0.000    0.000    0.000    0.000    0.000    0.000 
#    0.000    0.000    0.000    0.000    0.000    0.000 
#
# Total GULP energy -167540.760804 kJ/mol
# GULP energy per Si atom -5584.692027 kJ/mol
# Density = 1.824565 g / cm^3
# Si number density = 18.287278 Si / 1000 Ang^3
#
#
#
# Elastic Constant Matrix: (Units=GPa)
#
#
# Indices 1 2 3 4 5 6 
#
# 1 42.5642 12.7261 5.8174 0.0000 0.0000 0.0000
# 2 12.7261 82.0400 29.1114 0.0000 0.0000 0.0000
# 3 5.8174 29.1114 85.2669 0.0000 0.0000 0.0000
# 4 0.0000 0.0000 0.0000 44.9041 0.0000 0.0000
# 5 0.0000 0.0000 0.0000 0.0000 17.8891 0.0000
# 6 0.0000 0.0000 0.0000 0.0000 0.0000 19.6654
#
#
#
# Elastic Compliance Matrix: (Units=1/GPa)
#
#
# Indices 1 2 3 4 5 6 
#
# 1 0.024650 -0.003672 -0.000428 0.000000 0.000000 0.000000
# 2 -0.003672 0.014416 -0.004671 0.000000 0.000000 0.000000
# 3 -0.000428 -0.004671 0.013352 0.000000 0.000000 0.000000
# 4 0.000000 0.000000 0.000000 0.022270 0.000000 0.000000
# 5 0.000000 0.000000 0.000000 0.000000 0.055900 0.000000
# 6 0.000000 0.000000 0.000000 0.000000 0.000000 0.050851
#
#
# Mechanical properties :
#
#
# Convention : Reuss Voigt Hill
#
# Bulk Modulus (GPa) = 28.67322 33.90897 31.29110
# Shear Modulus (GPa) = 23.74087 27.30613 25.52350
#
# Velocity S-wave (km/s) = 3.60699 3.86836 3.73996
# Velocity P-wave (km/s) = 5.74983 6.20765 5.98312
#
# Compressibility (1/GPa) = 0.03487575
#
# Stress axis : x y z
#
# Youngs Moduli (GPa) = 40.56751 69.36550 74.89513
#
# Poissons Ratio (x) = 0.25470 0.03207
# Poissons Ratio (y) = 0.14896 0.34987
# Poissons Ratio (z) = 0.01737 0.32404
#
# Static dielectric constant tensor:
#      x y z
#    x 1.605150 0.000000 0.000000 
#    y 0.000000 1.637290 0.000000 
#    z 0.000000 0.000000 1.643130 
# 
# From -- ./inp_files/2111.got.cif
#   From: 2010.05.17/outbox.cif.g08.bks.cpg/sg30_2_cif.got.tgz:2111.got - 2010.06.03 17:03:02.
