data_PCOD9342623
_publ_section_title
;
Structure prediction by ZEFSAII (Michael W. Deem and Ramdas Pophale) SiO2 
 PCOD9342623
Probable space group: P N C 2
;
_chemical_formula_sum "Si O2"
_cell_formula_units_Z 24
_cell_length_a 6.651251
_cell_length_b 14.502569
_cell_length_c 10.304648
_cell_angle_alpha 90.000000
_cell_angle_beta 90.000000
_cell_angle_gamma 90.000000
_cell_volume 993.988681
_symmetry_space_group_name_H-M "P N C 2"
_symmetry_group_IT_number 30
_symmetry_cell_setting 'orthorhombic'
loop_
_space_group_symop_operation_xyz
x,y,z
-x,-y,z
-x,1/2+y,1/2+z
x,1/2-y,1/2+z
loop_
_atom_site_type_symbol
_atom_site_label
_atom_site_fract_x
_atom_site_fract_y
_atom_site_fract_z
Si Si1 0.126894 0.140808 0.052700
Si Si2 0.500000 0.500000 0.836558
Si Si3 0.218370 0.122505 0.780222
Si Si4 0.000000 0.500000 0.778202
Si Si5 0.750785 0.014995 0.541091
Si Si6 0.142885 0.709649 0.122621
Si Si7 0.471478 0.296384 0.723768
O O1 0.331569 0.189523 0.098317
O O2 0.974394 0.224077 0.023682
O O3 0.172400 0.083758 0.923507
O O4 0.041460 0.083906 0.176802
O O5 0.215449 0.506681 0.860317
O O6 0.478783 0.399263 0.779560
O O7 0.283438 0.048226 0.673860
O O8 0.371027 0.209341 0.795753
O O9 0.019185 0.169232 0.721473
O O10 0.500000 0.000000 0.492628
O O11 0.742415 0.125458 0.559242
O O12 0.000000 0.000000 0.541736
O O13 0.303783 0.770481 0.194748
#
# Coordination Sequence:
#
# PCOD9342623 Si02
#       7
#     4   2   4   2   4   4   4
#     4  11  28  46  75 111 154 197 251 324 382 447
#     4  12  26  46  78 106 152 206 254 312 374 466
#     4  11  27  48  77 113 156 193 254 321 384 444
#     4  12  24  48  76 102 148 200 256 308 382 454
#     4  12  25  48  80 108 146 202 257 307 380 467
#     4  11  26  46  78 111 149 202 249 306 382 465
#     4  11  27  48  74 114 153 198 252 315 381 455
#
# _framework density 24.145143000000001
#
# number of rings (size 3 to 8) (size 9 to 14) (size 15 to 20)
#    0.000    0.667    3.333    2.000   16.333    0.000 
#    0.000    2.500    0.000    0.000    0.000    0.000 
#    0.000    0.000    0.000    0.000    0.000    0.000 
#
# Total GULP energy -133757.715164 kJ/mol
# GULP energy per Si atom -5573.238132 kJ/mol
# Density = 2.409019 g / cm^3
# Si number density = 24.145143 Si / 1000 Ang^3
#
#
#
# Elastic Constant Matrix: (Units=GPa)
#
#
# Indices 1 2 3 4 5 6 
#
# 1 137.5118 43.5288 74.3268 0.0000 0.0000 0.0000
# 2 43.5288 138.1647 66.5687 0.0000 0.0000 0.0000
# 3 74.3268 66.5687 149.2352 0.0000 0.0000 0.0000
# 4 0.0000 0.0000 0.0000 56.0111 0.0000 0.0000
# 5 0.0000 0.0000 0.0000 0.0000 19.3813 0.0000
# 6 0.0000 0.0000 0.0000 0.0000 0.0000 64.1506
#
#
#
# Elastic Compliance Matrix: (Units=1/GPa)
#
#
# Indices 1 2 3 4 5 6 
#
# 1 0.010050 -0.000961 -0.004577 0.000000 0.000000 0.000000
# 2 -0.000961 0.009311 -0.003675 0.000000 0.000000 0.000000
# 3 -0.004577 -0.003675 0.010619 0.000000 0.000000 0.000000
# 4 0.000000 0.000000 0.000000 0.017854 0.000000 0.000000
# 5 0.000000 0.000000 0.000000 0.000000 0.051596 0.000000
# 6 0.000000 0.000000 0.000000 0.000000 0.000000 0.015588
#
#
# Mechanical properties :
#
#
# Convention : Reuss Voigt Hill
#
# Bulk Modulus (GPa) = 86.53891 88.19558 87.36724
# Shear Modulus (GPa) = 36.41782 43.94110 40.17946
#
# Velocity S-wave (km/s) = 3.88788 4.27063 4.08374
# Velocity P-wave (km/s) = 7.48820 7.80540 7.64844
#
# Compressibility (1/GPa) = 0.01155550
#
# Stress axis : x y z
#
# Youngs Moduli (GPa) = 99.50105 107.39981 94.16747
#
# Poissons Ratio (x) = 0.10323 0.43098
# Poissons Ratio (y) = 0.09564 0.34603
# Poissons Ratio (z) = 0.45539 0.39465
#
# Static dielectric constant tensor:
#      x y z
#    x 2.147080 0.000000 0.000000 
#    y 0.000000 1.891530 0.000000 
#    z 0.000000 0.000000 2.080000 
# 
# From -- ./inp_files/4670.got.cif
#   From: 2010.05.17/outbox.cif.g08.bks.cpg/sg30_3_cif.got.tgz:4670.got - 2010.06.03 17:03:02.
