data_PCOD9342567
_publ_section_title
;
Structure prediction by ZEFSAII (Michael W. Deem and Ramdas Pophale) SiO2 
 PCOD9342567
Probable space group: P N C 2
;
_chemical_formula_sum "Si O2"
_cell_formula_units_Z 26
_cell_length_a 7.139908
_cell_length_b 11.250577
_cell_length_c 12.291739
_cell_angle_alpha 90.000000
_cell_angle_beta 90.000000
_cell_angle_gamma 90.000000
_cell_volume 987.371852
_symmetry_space_group_name_H-M "P N C 2"
_symmetry_group_IT_number 30
_symmetry_cell_setting 'orthorhombic'
loop_
_space_group_symop_operation_xyz
x,y,z
-x,-y,z
-x,1/2+y,1/2+z
x,1/2-y,1/2+z
loop_
_atom_site_type_symbol
_atom_site_label
_atom_site_fract_x
_atom_site_fract_y
_atom_site_fract_z
Si Si1 0.348159 0.721519 0.423190
Si Si2 0.307529 0.600252 0.121861
Si Si3 0.805536 0.574031 0.951129
Si Si4 0.337726 0.932366 0.253193
Si Si5 0.500000 0.000000 0.830801
Si Si6 0.092103 0.156096 0.929255
Si Si7 0.000000 0.500000 0.244923
Si Si8 0.000000 0.500000 0.618876
O O1 0.353979 0.796599 0.536684
O O2 0.373608 0.815213 0.324371
O O3 0.488550 0.611074 0.417512
O O4 0.133862 0.673741 0.415864
O O5 0.415124 0.586787 0.233698
O O6 0.093549 0.599056 0.168499
O O7 0.304326 0.475389 0.055159
O O8 0.701908 0.531303 0.844528
O O9 0.000000 0.500000 0.949479
O O10 0.829513 0.713265 0.941163
O O11 0.144357 0.922254 0.187995
O O12 0.500000 0.000000 0.186891
O O13 0.142898 0.071300 0.825544
O O14 0.116730 0.083958 0.039193
#
# Coordination Sequence:
#
# PCOD9342567 Si02
#       8
#     4   4   4   4   2   4   2   2
#     4  11  25  48  75 109 159 209 262 340 408 495
#     4  11  24  45  73 110 149 208 263 327 417 477
#     4  11  21  42  74 107 144 210 268 323 411 502
#     4  11  25  47  73 110 154 205 271 335 407 492
#     4  12  28  48  78 110 158 218 262 334 414 490
#     4  11  23  44  75 107 155 205 270 342 407 519
#     4  11  22  43  74 110 140 203 268 325 426 476
#     4  11  26  45  72 110 156 213 264 345 430 468
#
# _framework density 26.332530999999999
#
# number of rings (size 3 to 8) (size 9 to 14) (size 15 to 20)
#    0.000    0.923    6.154    0.000    6.462    6.154 
#    1.385    0.000    0.000    0.000    0.000    0.000 
#    0.000    0.000    0.000    0.000    0.000    0.000 
#
# Total GULP energy -145230.390550 kJ/mol
# GULP energy per Si atom -5585.784252 kJ/mol
# Density = 2.627260 g / cm^3
# Si number density = 26.332531 Si / 1000 Ang^3
#
#
#
# Elastic Constant Matrix: (Units=GPa)
#
#
# Indices 1 2 3 4 5 6 
#
# 1 53.1494 40.6212 41.8465 0.0000 0.0000 0.0000
# 2 40.6212 256.2416 91.2871 0.0000 0.0000 0.0000
# 3 41.8465 91.2871 141.1003 0.0000 0.0000 0.0000
# 4 0.0000 0.0000 0.0000 -158.5638 0.0000 0.0000
# 5 0.0000 0.0000 0.0000 0.0000 483.8113 0.0000
# 6 0.0000 0.0000 0.0000 0.0000 0.0000 33.6845
#
#
#
# Elastic Compliance Matrix: (Units=1/GPa)
#
#
# Indices 1 2 3 4 5 6 
#
# 1 0.025121 -0.001726 -0.006333 0.000000 0.000000 0.000000
# 2 -0.001726 0.005190 -0.002846 0.000000 0.000000 0.000000
# 3 -0.006333 -0.002846 0.010807 0.000000 0.000000 0.000000
# 4 0.000000 0.000000 0.000000 -0.006307 0.000000 0.000000
# 5 0.000000 0.000000 0.000000 0.000000 0.002067 0.000000
# 6 0.000000 0.000000 0.000000 0.000000 0.000000 0.029687
#
#
# Mechanical properties :
#
#
# Convention : Reuss Voigt Hill
#
# Bulk Modulus (GPa) = 51.79560 88.66676 70.23118
# Shear Modulus (GPa) = 52.73651 90.23551 71.48601
#
# Velocity S-wave (km/s) = 4.48002 5.86021 5.21597
# Velocity P-wave (km/s) = 6.81713 8.91821 7.93750
#
# Compressibility (1/GPa) = 0.01930666
#
# Stress axis : x y z
#
# Youngs Moduli (GPa) = 39.80805 192.67660 92.53529
#
# Poissons Ratio (x) = 0.33255 0.58607
# Poissons Ratio (y) = 0.06871 0.26335
# Poissons Ratio (z) = 0.25212 0.54834
#
# Static dielectric constant tensor:
#      x y z
#    x -0.105420 0.000000 0.000000 
#    y 0.000000 2.397430 0.000000 
#    z 0.000000 0.000000 2.011810 
# 
# From -- ./inp_files/3692.got.cif
#   From: 2010.05.17/outbox.cif.g08.bks.cpg/sg30_2_cif.got.tgz:3692.got - 2010.06.03 17:03:02.
