data_PCOD9342656
_publ_section_title
;
Structure prediction by ZEFSAII (Michael W. Deem and Ramdas Pophale) SiO2 
 PCOD9342656
Probable space group: P N C 2
;
_chemical_formula_sum "Si O2"
_cell_formula_units_Z 18
_cell_length_a 8.158461
_cell_length_b 7.313030
_cell_length_c 12.575371
_cell_angle_alpha 90.000000
_cell_angle_beta 90.000000
_cell_angle_gamma 90.000000
_cell_volume 750.285241
_symmetry_space_group_name_H-M "P N C 2"
_symmetry_group_IT_number 30
_symmetry_cell_setting 'orthorhombic'
loop_
_space_group_symop_operation_xyz
x,y,z
-x,-y,z
-x,1/2+y,1/2+z
x,1/2-y,1/2+z
loop_
_atom_site_type_symbol
_atom_site_label
_atom_site_fract_x
_atom_site_fract_y
_atom_site_fract_z
Si Si1 0.000000 0.500000 0.979210
Si Si2 0.304922 0.954928 0.917253
Si Si3 0.341523 0.896025 0.283075
Si Si4 0.111396 0.262123 0.790477
Si Si5 0.823285 0.240346 0.109826
O O1 0.958492 0.668130 0.903447
O O2 0.851035 0.432161 0.051152
O O3 0.301054 0.752028 0.869976
O O4 0.500000 0.000000 0.934084
O O5 0.219508 0.088699 0.829352
O O6 0.197052 0.926694 0.024973
O O7 0.344417 0.778549 0.175516
O O8 0.500000 0.000000 0.317327
O O9 0.218944 0.062266 0.259041
O O10 0.971648 0.250855 0.698787
#
# Coordination Sequence:
#
# PCOD9342656 Si02
#       5
#     2   4   4   4   4
#     4  12  26  46  78 112 154 204 266 324 394 466
#     4  12  27  50  81 115 160 213 259 323 411 478
#     4  12  25  51  74 110 160 198 262 332 395 467
#     4  12  26  48  77 112 157 199 263 338 377 472
#     4  12  26  48  76 116 148 207 264 321 394 471
#
# _framework density 23.990877000000001
#
# number of rings (size 3 to 8) (size 9 to 14) (size 15 to 20)
#    0.000    0.000    6.667    2.000    6.222    1.778 
#    0.000    1.111    0.000    0.000    0.000    0.000 
#    0.000    0.000    0.000    0.000    0.000    0.000 
#
# Total GULP energy -100287.251993 kJ/mol
# GULP energy per Si atom -5571.514000 kJ/mol
# Density = 2.393627 g / cm^3
# Si number density = 23.990877 Si / 1000 Ang^3
#
#
#
# Elastic Constant Matrix: (Units=GPa)
#
#
# Indices 1 2 3 4 5 6 
#
# 1 87.4996 76.1333 46.2130 0.0000 0.0000 0.0000
# 2 76.1333 128.3527 63.6729 0.0000 0.0000 0.0000
# 3 46.2130 63.6729 126.0470 0.0000 0.0000 0.0000
# 4 0.0000 0.0000 0.0000 33.2560 0.0000 0.0000
# 5 0.0000 0.0000 0.0000 0.0000 15.3100 0.0000
# 6 0.0000 0.0000 0.0000 0.0000 0.0000 51.0190
#
#
#
# Elastic Compliance Matrix: (Units=1/GPa)
#
#
# Indices 1 2 3 4 5 6 
#
# 1 0.024047 -0.013197 -0.002150 0.000000 0.000000 0.000000
# 2 -0.013197 0.017639 -0.004072 0.000000 0.000000 0.000000
# 3 -0.002150 -0.004072 0.010779 0.000000 0.000000 0.000000
# 4 0.000000 0.000000 0.000000 0.030070 0.000000 0.000000
# 5 0.000000 0.000000 0.000000 0.000000 0.065317 0.000000
# 6 0.000000 0.000000 0.000000 0.000000 0.000000 0.019601
#
#
# Mechanical properties :
#
#
# Convention : Reuss Voigt Hill
#
# Bulk Modulus (GPa) = 73.38435 79.32643 76.35539
# Shear Modulus (GPa) = 23.71564 30.30899 27.01231
#
# Velocity S-wave (km/s) = 3.14750 3.55823 3.35914
# Velocity P-wave (km/s) = 6.62298 7.07236 6.85136
#
# Compressibility (1/GPa) = 0.01362688
#
# Stress axis : x y z
#
# Youngs Moduli (GPa) = 41.58554 56.69276 92.77592
#
# Poissons Ratio (x) = 0.74818 0.19945
# Poissons Ratio (y) = 0.54881 0.37777
# Poissons Ratio (z) = 0.08940 0.23085
#
# Static dielectric constant tensor:
#      x y z
#    x 2.002580 0.000000 0.000000 
#    y 0.000000 1.916060 0.000000 
#    z 0.000000 0.000000 2.062560 
# 
# From -- ./inp_files/3511.got.cif
#   From: 2010.05.17/outbox.cif.g08.bks.cpg/sg30_2_cif.got.tgz:3511.got - 2010.06.03 17:03:02.
