data_PCOD9342744
_publ_section_title
;
Structure prediction by ZEFSAII (Michael W. Deem and Ramdas Pophale) SiO2 
 PCOD9342744
Probable space group: P M N 21
;
_chemical_formula_sum "Si O2"
_cell_formula_units_Z 24
_cell_length_a 8.254394
_cell_length_b 7.828672
_cell_length_c 15.681636
_cell_angle_alpha 90.000000
_cell_angle_beta 90.000000
_cell_angle_gamma 90.000000
_cell_volume 1013.362109
_symmetry_space_group_name_H-M "P M N 21"
_symmetry_group_IT_number 31
_symmetry_cell_setting 'orthorhombic'
loop_
_space_group_symop_operation_xyz
x,y,z
1/2-x,-y,1/2+z
-x,y,z
1/2+x,-y,1/2+z
loop_
_atom_site_type_symbol
_atom_site_label
_atom_site_fract_x
_atom_site_fract_y
_atom_site_fract_z
Si Si1 0.324142 0.088583 0.716130
Si Si2 0.500000 0.099861 0.197600
Si Si3 0.000000 0.073614 0.517645
Si Si4 0.000000 0.535796 0.778228
Si Si5 0.316123 0.559157 0.525007
Si Si6 0.327704 0.157056 0.510892
Si Si7 0.000000 0.444441 0.609025
Si Si8 0.815158 0.607323 0.352440
O O1 0.500000 0.001502 0.728087
O O2 0.318068 0.137240 0.614784
O O3 0.323007 0.250098 0.779139
O O4 0.165124 0.980530 0.732792
O O5 0.500000 0.057406 0.096352
O O6 0.500000 0.292915 0.225412
O O7 0.171141 0.067750 0.471118
O O8 0.000000 0.269713 0.554495
O O9 0.000000 0.387382 0.706696
O O10 0.169582 0.518116 0.825739
O O11 0.500000 0.609427 0.551788
O O12 0.328110 0.359963 0.496997
O O13 0.166532 0.546540 0.590423
O O14 0.248476 0.665880 0.445274
O O15 0.500000 0.085880 0.482041
O O16 0.000000 0.539449 0.362657
#
# Coordination Sequence:
#
# PCOD9342744 Si02
#       8
#     4   2   2   2   4   4   2   4
#     4   9  18  34  57  81 103 145 202 238 270 337
#     4  10  20  34  54  80 114 156 188 228 281 340
#     4   8  14  28  50  72  96 135 185 216 255 317
#     4  12  24  36  56  88 127 147 183 240 295 345
#     4  10  18  31  54  85 113 144 179 237 299 338
#     4   8  14  25  45  74  99 123 173 224 268 312
#     4  10  20  36  58  86 111 144 190 246 291 338
#     4  11  21  35  57  89 118 146 191 245 292 338
#
# _framework density 23.683536
#
# number of rings (size 3 to 8) (size 9 to 14) (size 15 to 20)
#    0.000    2.333    1.667    3.500    0.000    2.667 
#    0.000    0.000    0.000    6.000    0.000    0.000 
#    0.000    0.000    0.000    0.000    0.000    0.000 
#
# Total GULP energy -133837.962012 kJ/mol
# GULP energy per Si atom -5576.581750 kJ/mol
# Density = 2.362963 g / cm^3
# Si number density = 23.683536 Si / 1000 Ang^3
#
#
#
# Elastic Constant Matrix: (Units=GPa)
#
#
# Indices 1 2 3 4 5 6 
#
# 1 283.9268 39.7377 27.9450 0.0000 0.0000 0.0000
# 2 39.7377 45.1478 5.6858 0.0000 0.0000 0.0000
# 3 27.9450 5.6858 29.6057 0.0000 0.0000 0.0000
# 4 0.0000 0.0000 0.0000 -13.6504 0.0000 0.0000
# 5 0.0000 0.0000 0.0000 0.0000 21.0010 0.0000
# 6 0.0000 0.0000 0.0000 0.0000 0.0000 -4.1847
#
#
#
# Elastic Compliance Matrix: (Units=1/GPa)
#
#
# Indices 1 2 3 4 5 6 
#
# 1 0.004334 -0.003381 -0.003442 0.000000 0.000000 0.000000
# 2 -0.003381 0.025336 -0.001674 0.000000 0.000000 0.000000
# 3 -0.003442 -0.001674 0.037347 0.000000 0.000000 0.000000
# 4 0.000000 0.000000 0.000000 -0.073258 0.000000 0.000000
# 5 0.000000 0.000000 0.000000 0.000000 0.047617 0.000000
# 6 0.000000 0.000000 0.000000 0.000000 0.000000 -0.238963
#
#
# Mechanical properties :
#
#
# Convention : Reuss Voigt Hill
#
# Bulk Modulus (GPa) = 19.99059 56.15747 38.07403
# Shear Modulus (GPa) = -30.50305 19.65395 -5.42455
#
# Velocity S-wave (km/s) = -3.59269 2.88385 -1.51506
# Velocity P-wave (km/s) = 2.95818 5.90355 3.61255
#
# Compressibility (1/GPa) = 0.05002354
#
# Stress axis : x y z
#
# Youngs Moduli (GPa) = 230.73451 39.46891 26.77571
#
# Poissons Ratio (x) = 0.13345 0.09215
# Poissons Ratio (y) = 0.78016 0.04483
# Poissons Ratio (z) = 0.79407 0.06608
#
# Static dielectric constant tensor:
#      x y z
#    x 2.049880 0.000000 0.000000 
#    y 0.000000 1.891840 0.000000 
#    z 0.000000 0.000000 1.929870 
# 
# From -- ./inp_files/5735.got.cif
#   From: 2010.05.17/outbox.cif.g08.bks.cpg/sg31_3_cif.got.tgz:5735.got - 2010.06.03 17:08:30.
