data_PCOD9342884
_publ_section_title
;
Structure prediction by ZEFSAII (Michael W. Deem and Ramdas Pophale) SiO2 
 PCOD9342884
Probable space group: P M N 21
;
_chemical_formula_sum "Si O2"
_cell_formula_units_Z 32
_cell_length_a 7.596798
_cell_length_b 12.787245
_cell_length_c 12.960438
_cell_angle_alpha 90.000000
_cell_angle_beta 90.000000
_cell_angle_gamma 90.000000
_cell_volume 1259.004388
_symmetry_space_group_name_H-M "P M N 21"
_symmetry_group_IT_number 31
_symmetry_cell_setting 'orthorhombic'
loop_
_space_group_symop_operation_xyz
x,y,z
1/2-x,-y,1/2+z
-x,y,z
1/2+x,-y,1/2+z
loop_
_atom_site_type_symbol
_atom_site_label
_atom_site_fract_x
_atom_site_fract_y
_atom_site_fract_z
Si Si1 0.298014 0.162167 0.828730
Si Si2 0.209101 0.427773 0.078740
Si Si3 0.699532 0.887935 0.559447
Si Si4 0.787244 0.117227 0.508320
Si Si5 0.204876 0.389288 0.850378
Si Si6 0.800534 0.388441 0.291833
Si Si7 0.214369 0.065997 0.275648
Si Si8 0.287200 0.658046 0.018839
O O1 0.500000 0.167514 0.797837
O O2 0.215743 0.274009 0.803829
O O3 0.220525 0.054571 0.782951
O O4 0.289168 0.147061 0.953566
O O5 0.271473 0.385445 0.968830
O O6 0.237723 0.552635 0.076802
O O7 0.000000 0.410618 0.082352
O O8 0.284661 0.373403 0.180357
O O9 0.500000 0.846265 0.554631
O O10 0.699205 0.014391 0.552813
O O11 0.775215 0.872773 0.674071
O O12 0.731781 0.227665 0.556204
O O13 0.000000 0.105115 0.517861
O O14 0.745967 0.117403 0.385706
O O15 0.306718 0.484955 0.799993
O O16 0.000000 0.420703 0.850745
O O17 0.721325 0.354636 0.400621
O O18 0.000000 0.344850 0.290397
O O19 0.000000 0.062199 0.269030
O O20 0.500000 0.658922 0.015855
#
# Coordination Sequence:
#
# PCOD9342884 Si02
#       8
#     4   4   4   4   4   4   4   4
#     4  10  20  36  54  74 102 136 168 203 250 306
#     4   9  19  34  52  73 101 133 166 204 250 300
#     4  10  19  33  53  76  99 128 166 209 248 290
#     4   9  18  34  52  72  99 132 165 202 247 298
#     4  10  20  34  52  77 104 132 168 213 254 293
#     4   9  18  34  53  73  98 134 172 205 245 299
#     4   8  17  33  52  71  96 130 166 200 242 294
#     4   9  18  32  52  74  97 127 167 208 246 290
#
# _framework density 25.416910000000001
#
# number of rings (size 3 to 8) (size 9 to 14) (size 15 to 20)
#    0.000    2.750    0.000    1.875    0.000    3.500 
#    0.000   13.750    0.000    3.000    0.000    0.000 
#    0.000    0.000    0.000    0.000    0.000    0.000 
#
# Total GULP energy -178811.024757 kJ/mol
# GULP energy per Si atom -5587.844524 kJ/mol
# Density = 2.535906 g / cm^3
# Si number density = 25.416910 Si / 1000 Ang^3
#
#
#
# Elastic Constant Matrix: (Units=GPa)
#
#
# Indices 1 2 3 4 5 6 
#
# 1 67.2359 1.2618 0.9509 0.0000 0.0000 0.0000
# 2 1.2618 147.5019 -19.8840 0.0000 0.0000 0.0000
# 3 0.9509 -19.8840 74.4014 0.0000 0.0000 0.0000
# 4 0.0000 0.0000 0.0000 -13.9522 0.0000 0.0000
# 5 0.0000 0.0000 0.0000 0.0000 13.1026 0.0000
# 6 0.0000 0.0000 0.0000 0.0000 0.0000 20.7313
#
#
#
# Elastic Compliance Matrix: (Units=1/GPa)
#
#
# Indices 1 2 3 4 5 6 
#
# 1 0.014879 -0.000159 -0.000233 0.000000 0.000000 0.000000
# 2 -0.000159 0.007035 0.001882 0.000000 0.000000 0.000000
# 3 -0.000233 0.001882 0.013947 0.000000 0.000000 0.000000
# 4 0.000000 0.000000 0.000000 -0.071673 0.000000 0.000000
# 5 0.000000 0.000000 0.000000 0.000000 0.076321 0.000000
# 6 0.000000 0.000000 0.000000 0.000000 0.000000 0.048236
#
#
# Mechanical properties :
#
#
# Convention : Reuss Voigt Hill
#
# Bulk Modulus (GPa) = 25.74520 28.19963 26.97241
# Shear Modulus (GPa) = 50.65366 24.43038 37.54202
#
# Velocity S-wave (km/s) = 4.46905 3.10366 3.84741
# Velocity P-wave (km/s) = 6.06473 4.89516 5.51106
#
# Compressibility (1/GPa) = 0.03884219
#
# Stress axis : x y z
#
# Youngs Moduli (GPa) = 67.20756 142.15366 71.70220
#
# Poissons Ratio (x) = 0.02255 0.01668
# Poissons Ratio (y) = 0.01066 -0.13495
# Poissons Ratio (z) = 0.01563 -0.26754
#
# Static dielectric constant tensor:
#      x y z
#    x 1.948680 0.000000 0.000000 
#    y 0.000000 1.985410 0.000000 
#    z 0.000000 0.000000 2.042950 
# 
# From -- ./inp_files/5145.got.cif
#   From: 2010.05.17/outbox.cif.g08.bks.cpg/sg31_3_cif.got.tgz:5145.got - 2010.06.03 17:08:30.
