data_PCOD9342406
_publ_section_title
;
Structure prediction by ZEFSAII (Michael W. Deem and Ramdas Pophale) SiO2 
 PCOD9342406
Probable space group: P N C 2
;
_chemical_formula_sum "Si O2"
_cell_formula_units_Z 20
_cell_length_a 5.990230
_cell_length_b 24.816790
_cell_length_c 5.284923
_cell_angle_alpha 90.000000
_cell_angle_beta 90.000000
_cell_angle_gamma 90.000000
_cell_volume 785.647563
_symmetry_space_group_name_H-M "P N C 2"
_symmetry_group_IT_number 30
_symmetry_cell_setting 'orthorhombic'
loop_
_space_group_symop_operation_xyz
x,y,z
-x,-y,z
-x,1/2+y,1/2+z
x,1/2-y,1/2+z
loop_
_atom_site_type_symbol
_atom_site_label
_atom_site_fract_x
_atom_site_fract_y
_atom_site_fract_z
Si Si1 0.577025 0.280241 0.430950
Si Si2 0.500000 0.500000 0.352263
Si Si3 0.462665 0.606150 0.652065
Si Si4 0.016867 0.654530 0.530857
Si Si5 0.000000 0.500000 0.098107
Si Si6 0.179113 0.114093 0.509423
O O1 0.518111 0.237707 0.649692
O O2 0.476734 0.337278 0.515183
O O3 0.841992 0.292641 0.457577
O O4 0.548397 0.552704 0.520657
O O5 0.747253 0.490543 0.222600
O O6 0.202029 0.609723 0.605729
O O7 0.559004 0.606912 0.936993
O O8 0.938118 0.556219 0.964994
O O9 0.896535 0.657453 0.799940
O O10 0.897119 0.632873 0.282354
#
# Coordination Sequence:
#
# PCOD9342406 Si02
#       6
#     4   2   4   4   2   4
#     4  10  22  45  74 103 148 201 257 334 405 482
#     4  12  26  52  76 124 160 220 262 344 408 498
#     4  10  27  43  80 101 163 197 266 326 410 479
#     4  10  25  45  69 105 145 195 256 325 393 480
#     4  12  28  42  84 110 170 210 278 322 416 492
#     4  12  25  45  71 109 149 204 265 320 404 488
#
# _framework density 25.456707999999999
#
# number of rings (size 3 to 8) (size 9 to 14) (size 15 to 20)
#    1.200    0.000    2.000    2.400    5.600    5.600 
#    0.000    6.000    0.000    0.000    0.000    0.000 
#    0.000    0.000    0.000    0.000    0.000    0.000 
#
# Total GULP energy -111382.971054 kJ/mol
# GULP energy per Si atom -5569.148553 kJ/mol
# Density = 2.539877 g / cm^3
# Si number density = 25.456708 Si / 1000 Ang^3
#
#
#
# Elastic Constant Matrix: (Units=GPa)
#
#
# Indices 1 2 3 4 5 6 
#
# 1 128.7695 19.7870 101.9178 0.0000 0.0000 0.0000
# 2 19.7870 99.5823 28.8486 0.0000 0.0000 0.0000
# 3 101.9178 28.8486 138.1252 0.0000 0.0000 0.0000
# 4 0.0000 0.0000 0.0000 46.3222 0.0000 0.0000
# 5 0.0000 0.0000 0.0000 0.0000 54.3946 0.0000
# 6 0.0000 0.0000 0.0000 0.0000 0.0000 29.4617
#
#
#
# Elastic Compliance Matrix: (Units=1/GPa)
#
#
# Indices 1 2 3 4 5 6 
#
# 1 0.018676 0.000299 -0.013843 0.000000 0.000000 0.000000
# 2 0.000299 0.010693 -0.002454 0.000000 0.000000 0.000000
# 3 -0.013843 -0.002454 0.017967 0.000000 0.000000 0.000000
# 4 0.000000 0.000000 0.000000 0.021588 0.000000 0.000000
# 5 0.000000 0.000000 0.000000 0.000000 0.018384 0.000000
# 6 0.000000 0.000000 0.000000 0.000000 0.000000 0.033942
#
#
# Mechanical properties :
#
#
# Convention : Reuss Voigt Hill
#
# Bulk Modulus (GPa) = 65.18741 74.17596 69.68169
# Shear Modulus (GPa) = 31.57353 40.43061 36.00207
#
# Velocity S-wave (km/s) = 3.52559 3.98956 3.76473
# Velocity P-wave (km/s) = 6.49891 7.10095 6.80659
#
# Compressibility (1/GPa) = 0.01534038
#
# Stress axis : x y z
#
# Youngs Moduli (GPa) = 53.54387 93.51507 55.65838
#
# Poissons Ratio (x) = -0.02799 0.77048
# Poissons Ratio (y) = -0.01603 0.13660
# Poissons Ratio (z) = 0.74121 0.22951
#
# Static dielectric constant tensor:
#      x y z
#    x 2.227750 0.000000 0.000000 
#    y 0.000000 1.972430 0.000000 
#    z 0.000000 0.000000 1.957760 
# 
# From -- ./inp_files/465.got.cif
#   From: 2010.05.17/outbox.cif.g08.bks.cpg/sg30_1_cif.got.tgz:465.got - 2010.06.03 17:03:02.
