data_PCOD9342316
_publ_section_title
;
Structure prediction by ZEFSAII (Michael W. Deem and Ramdas Pophale) SiO2 
 PCOD9342316
Probable space group: P N C 2
;
_chemical_formula_sum "Si O2"
_cell_formula_units_Z 32
_cell_length_a 14.249789
_cell_length_b 10.954697
_cell_length_c 8.778662
_cell_angle_alpha 90.000000
_cell_angle_beta 90.000000
_cell_angle_gamma 90.000000
_cell_volume 1370.367756
_symmetry_space_group_name_H-M "P N C 2"
_symmetry_group_IT_number 30
_symmetry_cell_setting 'orthorhombic'
loop_
_space_group_symop_operation_xyz
x,y,z
-x,-y,z
-x,1/2+y,1/2+z
x,1/2-y,1/2+z
loop_
_atom_site_type_symbol
_atom_site_label
_atom_site_fract_x
_atom_site_fract_y
_atom_site_fract_z
Si Si1 0.416057 0.276187 0.194980
Si Si2 0.098241 0.962784 0.030318
Si Si3 0.291977 0.140863 0.417761
Si Si4 0.978058 0.189977 0.558713
Si Si5 0.263587 0.857026 0.853737
Si Si6 0.104041 0.313901 0.770256
Si Si7 0.784679 0.110987 0.516058
Si Si8 0.527114 0.126082 0.971766
O O1 0.370755 0.166352 0.291819
O O2 0.459147 0.363700 0.323587
O O3 0.335568 0.323653 0.080982
O O4 0.499627 0.233389 0.085949
O O5 0.073364 0.823385 0.081134
O O6 0.189396 0.952403 0.925426
O O7 0.000000 0.000000 0.950664
O O8 0.112745 0.064819 0.162752
O O9 0.200272 0.213087 0.358932
O O10 0.256573 0.004209 0.431428
O O11 0.892776 0.096449 0.569424
O O12 0.066226 0.201430 0.670260
O O13 0.023065 0.170341 0.394618
O O14 0.269444 0.866163 0.672945
O O15 0.365510 0.871251 0.925557
O O16 0.224379 0.724899 0.902825
O O17 0.500000 0.000000 0.049991
#
# Coordination Sequence:
#
# PCOD9342316 Si02
#       8
#     4   4   4   4   4   4   4   4
#     4  10  25  48  68 107 143 179 249 303 360 444
#     4   9  22  41  69  96 144 181 233 287 352 414
#     4  11  25  45  71 102 140 194 240 299 367 437
#     4  10  22  40  65 102 138 181 239 283 351 420
#     4  11  24  45  71 108 145 186 243 296 365 437
#     4  11  23  42  69  96 142 195 233 298 355 427
#     4  11  25  42  74 104 146 184 239 299 365 433
#     4  11  24  44  75  99 143 188 234 301 369 425
#
# _framework density 23.351395
#
# number of rings (size 3 to 8) (size 9 to 14) (size 15 to 20)
#    0.000    1.500    0.000    3.750   10.500    1.000 
#   13.500    2.500    0.000    0.000    0.000    0.000 
#    0.000    0.000    0.000    0.000    0.000    0.000 
#
# Total GULP energy -178915.945128 kJ/mol
# GULP energy per Si atom -5591.123285 kJ/mol
# Density = 2.329825 g / cm^3
# Si number density = 23.351395 Si / 1000 Ang^3
#
#
#
# Elastic Constant Matrix: (Units=GPa)
#
#
# Indices 1 2 3 4 5 6 
#
# 1 129.0797 31.0230 29.7087 0.0000 0.0000 0.0000
# 2 31.0230 69.4783 34.0851 0.0000 0.0000 0.0000
# 3 29.7087 34.0851 58.3329 0.0000 0.0000 0.0000
# 4 0.0000 0.0000 0.0000 0.7447 0.0000 0.0000
# 5 0.0000 0.0000 0.0000 0.0000 31.0106 0.0000
# 6 0.0000 0.0000 0.0000 0.0000 0.0000 31.8655
#
#
#
# Elastic Compliance Matrix: (Units=1/GPa)
#
#
# Indices 1 2 3 4 5 6 
#
# 1 0.009076 -0.002502 -0.003160 0.000000 0.000000 0.000000
# 2 -0.002502 0.020867 -0.010919 0.000000 0.000000 0.000000
# 3 -0.003160 -0.010919 0.025132 0.000000 0.000000 0.000000
# 4 0.000000 0.000000 0.000000 1.342891 0.000000 0.000000
# 5 0.000000 0.000000 0.000000 0.000000 0.032247 0.000000
# 6 0.000000 0.000000 0.000000 0.000000 0.000000 0.031382
#
#
# Mechanical properties :
#
#
# Convention : Reuss Voigt Hill
#
# Bulk Modulus (GPa) = 45.63465 49.61382 47.62423
# Shear Modulus (GPa) = 3.32876 23.52909 13.42892
#
# Velocity S-wave (km/s) = 1.19524 3.17773 2.40068
# Velocity P-wave (km/s) = 4.63571 5.89548 5.30314
#
# Compressibility (1/GPa) = 0.02191318
#
# Stress axis : x y z
#
# Youngs Moduli (GPa) = 110.18228 47.92322 39.78927
#
# Poissons Ratio (x) = 0.11991 0.12574
# Poissons Ratio (y) = 0.27569 0.43444
# Poissons Ratio (z) = 0.34820 0.52325
#
# Static dielectric constant tensor:
#      x y z
#    x 1.903960 0.000000 0.000000 
#    y 0.000000 1.912880 0.000000 
#    z 0.000000 0.000000 1.891190 
# 
# From -- ./inp_files/2688.got.cif
#   From: 2010.05.17/outbox.cif.g08.bks.cpg/sg30_2_cif.got.tgz:2688.got - 2010.06.03 17:03:02.
