data_PCOD9342422
_publ_section_title
;
Structure prediction by ZEFSAII (Michael W. Deem and Ramdas Pophale) SiO2 
 PCOD9342422
Probable space group: P N C 2
;
_chemical_formula_sum "Si O2"
_cell_formula_units_Z 26
_cell_length_a 9.765063
_cell_length_b 9.516623
_cell_length_c 9.911930
_cell_angle_alpha 90.000000
_cell_angle_beta 90.000000
_cell_angle_gamma 90.000000
_cell_volume 921.119849
_symmetry_space_group_name_H-M "P N C 2"
_symmetry_group_IT_number 30
_symmetry_cell_setting 'orthorhombic'
loop_
_space_group_symop_operation_xyz
x,y,z
-x,-y,z
-x,1/2+y,1/2+z
x,1/2-y,1/2+z
loop_
_atom_site_type_symbol
_atom_site_label
_atom_site_fract_x
_atom_site_fract_y
_atom_site_fract_z
Si Si1 0.000000 0.000000 0.201540
Si Si2 0.704461 0.562836 0.638372
Si Si3 0.399081 0.294229 0.848217
Si Si4 0.348235 0.831881 0.559878
Si Si5 0.757470 0.642197 0.082306
Si Si6 0.173315 0.749063 0.308536
Si Si7 0.500000 0.000000 0.905173
Si Si8 0.000000 0.000000 0.717201
O O1 0.058720 0.867709 0.282997
O O2 0.863917 0.957731 0.122999
O O3 0.627928 0.546892 0.780823
O O4 0.692615 0.733699 0.673844
O O5 0.624432 0.500160 0.513499
O O6 0.507084 0.316271 0.982822
O O7 0.257730 0.284249 0.937465
O O8 0.469979 0.138574 0.820002
O O9 0.238556 0.782186 0.449807
O O10 0.293180 0.746050 0.692649
O O11 0.910775 0.894096 0.626231
O O12 0.103301 0.597187 0.299966
O O13 0.683934 0.493334 0.092116
#
# Coordination Sequence:
#
# PCOD9342422 Si02
#       8
#     2   4   4   4   4   4   2   2
#     4  12  24  46  74 114 150 210 258 326 390 466
#     4  11  25  45  76 109 155 201 260 324 396 468
#     4  11  25  44  73 109 147 204 256 321 390 472
#     4  11  26  46  76 111 152 203 256 320 390 473
#     4  10  23  44  71 105 147 196 248 320 382 458
#     4  11  26  45  76 110 156 204 259 323 389 464
#     4  10  26  48  68 106 154 194 260 324 390 474
#     4  10  22  50  66 112 156 196 260 316 396 458
#
# _framework density 28.226512
#
# number of rings (size 3 to 8) (size 9 to 14) (size 15 to 20)
#    0.000    1.231    1.538    2.308    8.615    8.615 
#    0.000    0.000    0.000    0.000    0.000    0.000 
#    0.000    0.000    0.000    0.000    0.000    0.000 
#
# Total GULP energy -145198.797887 kJ/mol
# GULP energy per Si atom -5584.569149 kJ/mol
# Density = 2.816227 g / cm^3
# Si number density = 28.226512 Si / 1000 Ang^3
#
#
#
# Elastic Constant Matrix: (Units=GPa)
#
#
# Indices 1 2 3 4 5 6 
#
# 1 189.0326 56.5669 52.6662 0.0000 0.0000 0.0000
# 2 56.5669 126.0323 37.6708 0.0000 0.0000 0.0000
# 3 52.6662 37.6708 122.6374 0.0000 0.0000 0.0000
# 4 0.0000 0.0000 0.0000 24.5694 0.0000 0.0000
# 5 0.0000 0.0000 0.0000 0.0000 39.2783 0.0000
# 6 0.0000 0.0000 0.0000 0.0000 0.0000 62.9860
#
#
#
# Elastic Compliance Matrix: (Units=1/GPa)
#
#
# Indices 1 2 3 4 5 6 
#
# 1 0.006572 -0.002319 -0.002110 0.000000 0.000000 0.000000
# 2 -0.002319 0.009555 -0.001939 0.000000 0.000000 0.000000
# 3 -0.002110 -0.001939 0.009656 0.000000 0.000000 0.000000
# 4 0.000000 0.000000 0.000000 0.040701 0.000000 0.000000
# 5 0.000000 0.000000 0.000000 0.000000 0.025459 0.000000
# 6 0.000000 0.000000 0.000000 0.000000 0.000000 0.015877
#
#
# Mechanical properties :
#
#
# Convention : Reuss Voigt Hill
#
# Bulk Modulus (GPa) = 76.64861 81.27891 78.96376
# Shear Modulus (GPa) = 40.03058 44.75330 42.39194
#
# Velocity S-wave (km/s) = 3.76997 3.98616 3.87957
# Velocity P-wave (km/s) = 6.79441 7.07416 6.93570
#
# Compressibility (1/GPa) = 0.01304655
#
# Stress axis : x y z
#
# Youngs Moduli (GPa) = 152.16329 104.65836 103.56393
#
# Poissons Ratio (x) = 0.24270 0.21851
# Poissons Ratio (y) = 0.35287 0.20082
# Poissons Ratio (z) = 0.32106 0.20294
#
# Static dielectric constant tensor:
#      x y z
#    x 2.403170 0.000000 0.000000 
#    y 0.000000 2.478610 0.000000 
#    z 0.000000 0.000000 2.413190 
# 
# From -- ./inp_files/3688.got.cif
#   From: 2010.05.17/outbox.cif.g08.bks.cpg/sg30_2_cif.got.tgz:3688.got - 2010.06.03 17:03:02.
