data_PCOD9342994
_publ_section_title
;
Structure prediction by ZEFSAII (Michael W. Deem and Ramdas Pophale) SiO2 
 PCOD9342994
Probable space group: P M N 21
;
_chemical_formula_sum "Si O2"
_cell_formula_units_Z 32
_cell_length_a 14.602052
_cell_length_b 9.545336
_cell_length_c 11.606495
_cell_angle_alpha 90.000000
_cell_angle_beta 90.000000
_cell_angle_gamma 90.000000
_cell_volume 1617.730597
_symmetry_space_group_name_H-M "P M N 21"
_symmetry_group_IT_number 31
_symmetry_cell_setting 'orthorhombic'
loop_
_space_group_symop_operation_xyz
x,y,z
1/2-x,-y,1/2+z
-x,y,z
1/2+x,-y,1/2+z
loop_
_atom_site_type_symbol
_atom_site_label
_atom_site_fract_x
_atom_site_fract_y
_atom_site_fract_z
Si Si1 0.895220 0.960865 0.656930
Si Si2 0.896079 0.198117 0.820471
Si Si3 0.396663 0.143190 0.733718
Si Si4 0.221180 0.642785 0.385374
Si Si5 0.250553 0.757491 0.633357
Si Si6 0.892197 0.370682 0.313975
Si Si7 0.143909 0.084732 0.413818
Si Si8 0.163640 0.980214 0.003979
O O1 0.839559 0.822668 0.692990
O O2 0.000000 0.946133 0.693320
O O3 0.859814 0.106197 0.712796
O O4 0.892537 0.992018 0.520163
O O5 0.827374 0.324146 0.851910
O O6 0.000000 0.245735 0.800853
O O7 0.895921 0.077108 0.919436
O O8 0.500000 0.193175 0.749530
O O9 0.330497 0.242373 0.806759
O O10 0.378501 0.125053 0.597291
O O11 0.385329 0.993732 0.797436
O O12 0.218857 0.670167 0.522166
O O13 0.167159 0.500747 0.359800
O O14 0.329315 0.684128 0.707339
O O15 0.290939 0.900548 0.582535
O O16 0.891043 0.242461 0.404991
O O17 0.000000 0.401203 0.287159
O O18 0.253475 0.085786 0.431019
#
# Coordination Sequence:
#
# PCOD9342994 Si02
#       8
#     4   4   4   4   4   4   4   4
#     4  10  19  35  63  95 126 160 208 265 316 372
#     4  10  20  37  60  89 124 168 215 260 319 385
#     4  12  21  36  64  96 125 162 215 266 313 371
#     4  11  24  41  59  90 129 169 205 264 322 378
#     4  10  21  38  61  87 120 162 203 260 324 374
#     4  12  26  43  63  93 129 170 216 262 315 386
#     4  11  21  36  63  93 125 159 211 262 314 369
#     4  10  20  36  63  93 126 158 211 269 315 365
#
# _framework density 19.780795000000001
#
# number of rings (size 3 to 8) (size 9 to 14) (size 15 to 20)
#    0.000    1.250    5.000    4.125    0.000    4.500 
#    0.000    0.625    0.000    1.500    0.000    0.000 
#    0.000    0.000    0.000    0.000    0.000    0.000 
#
# Total GULP energy -178272.059132 kJ/mol
# GULP energy per Si atom -5571.001848 kJ/mol
# Density = 1.973577 g / cm^3
# Si number density = 19.780795 Si / 1000 Ang^3
#
#
#
# Elastic Constant Matrix: (Units=GPa)
#
#
# Indices 1 2 3 4 5 6 
#
# 1 137.6527 49.6403 29.3276 0.0000 0.0000 0.0000
# 2 49.6403 79.9267 3.0019 0.0000 0.0000 0.0000
# 3 29.3276 3.0019 50.5514 0.0000 0.0000 0.0000
# 4 0.0000 0.0000 0.0000 20.2897 0.0000 0.0000
# 5 0.0000 0.0000 0.0000 0.0000 27.5353 0.0000
# 6 0.0000 0.0000 0.0000 0.0000 0.0000 13.7206
#
#
#
# Elastic Compliance Matrix: (Units=1/GPa)
#
#
# Indices 1 2 3 4 5 6 
#
# 1 0.010885 -0.006538 -0.005927 0.000000 0.000000 0.000000
# 2 -0.006538 0.016466 0.002815 0.000000 0.000000 0.000000
# 3 -0.005927 0.002815 0.023053 0.000000 0.000000 0.000000
# 4 0.000000 0.000000 0.000000 0.049286 0.000000 0.000000
# 5 0.000000 0.000000 0.000000 0.000000 0.036317 0.000000
# 6 0.000000 0.000000 0.000000 0.000000 0.000000 0.072883
#
#
# Mechanical properties :
#
#
# Convention : Reuss Voigt Hill
#
# Bulk Modulus (GPa) = 32.14876 48.00782 40.07829
# Shear Modulus (GPa) = 20.95927 24.71985 22.83956
#
# Velocity S-wave (km/s) = 3.25865 3.53893 3.40168
# Velocity P-wave (km/s) = 5.51780 6.40479 5.97777
#
# Compressibility (1/GPa) = 0.03110540
#
# Stress axis : x y z
#
# Youngs Moduli (GPa) = 91.86923 60.73058 43.37816
#
# Poissons Ratio (x) = 0.39704 0.25709
# Poissons Ratio (y) = 0.60062 -0.12211
# Poissons Ratio (z) = 0.54449 -0.17096
#
# Static dielectric constant tensor:
#      x y z
#    x 1.776460 0.000000 0.000000 
#    y 0.000000 1.706710 0.000000 
#    z 0.000000 0.000000 1.800660 
# 
# From -- ./inp_files/4270.got.cif
#   From: 2010.05.17/outbox.cif.g08.bks.cpg/sg31_3_cif.got.tgz:4270.got - 2010.06.03 17:08:30.
