data_PCOD9342579
_publ_section_title
;
Structure prediction by ZEFSAII (Michael W. Deem and Ramdas Pophale) SiO2 
 PCOD9342579
Probable space group: P N C 2
;
_chemical_formula_sum "Si O2"
_cell_formula_units_Z 24
_cell_length_a 9.264798
_cell_length_b 8.050417
_cell_length_c 14.256576
_cell_angle_alpha 90.000000
_cell_angle_beta 90.000000
_cell_angle_gamma 90.000000
_cell_volume 1063.333668
_symmetry_space_group_name_H-M "P N C 2"
_symmetry_group_IT_number 30
_symmetry_cell_setting 'orthorhombic'
loop_
_space_group_symop_operation_xyz
x,y,z
-x,-y,z
-x,1/2+y,1/2+z
x,1/2-y,1/2+z
loop_
_atom_site_type_symbol
_atom_site_label
_atom_site_fract_x
_atom_site_fract_y
_atom_site_fract_z
Si Si1 0.871618 0.380010 0.210660
Si Si2 0.940357 0.312422 0.404778
Si Si3 0.368835 0.114410 0.807538
Si Si4 0.565922 0.818053 0.122680
Si Si5 0.773699 0.803329 0.481541
Si Si6 0.707742 0.316871 0.028836
O O1 0.931772 0.267264 0.295029
O O2 0.752493 0.497164 0.260646
O O3 0.796054 0.289825 0.125190
O O4 0.000000 0.500000 0.176987
O O5 0.783595 0.294408 0.450363
O O6 0.000000 0.500000 0.408765
O O7 0.055973 0.206411 0.462163
O O8 0.426744 0.227996 0.722486
O O9 0.300863 0.223778 0.889851
O O10 0.500000 0.000000 0.842433
O O11 0.456049 0.722814 0.053204
O O12 0.500000 0.000000 0.132442
O O13 0.719996 0.803332 0.070995
O O14 0.728109 0.992280 0.499595
#
# Coordination Sequence:
#
# PCOD9342579 Si02
#       6
#     4   4   4   4   4   4
#     4  11  22  46  71  99 145 185 229 291 364 423
#     4  11  24  43  70 106 135 188 236 291 361 430
#     4  12  24  46  73 103 145 190 238 296 370 427
#     4  12  27  45  68 104 140 191 243 300 362 431
#     4  12  24  44  72 102 142 187 241 298 355 435
#     4  12  26  46  73 105 142 189 245 297 366 430
#
# _framework density 22.570527999999999
#
# number of rings (size 3 to 8) (size 9 to 14) (size 15 to 20)
#    0.000    0.333    6.667    3.500    2.333    2.667 
#    0.000    1.667    0.000    0.000    0.000    0.000 
#    0.000    0.000    0.000    0.000    0.000    0.000 
#
# Total GULP energy -134428.545793 kJ/mol
# GULP energy per Si atom -5601.189408 kJ/mol
# Density = 2.251916 g / cm^3
# Si number density = 22.570528 Si / 1000 Ang^3
#
#
#
# Elastic Constant Matrix: (Units=GPa)
#
#
# Indices 1 2 3 4 5 6 
#
# 1 74.7999 4.4492 2.2123 0.0000 0.0000 0.0000
# 2 4.4492 65.8373 13.2961 0.0000 0.0000 0.0000
# 3 2.2123 13.2961 93.5555 0.0000 0.0000 0.0000
# 4 0.0000 0.0000 0.0000 26.6192 0.0000 0.0000
# 5 0.0000 0.0000 0.0000 0.0000 39.6455 0.0000
# 6 0.0000 0.0000 0.0000 0.0000 0.0000 32.1370
#
#
#
# Elastic Compliance Matrix: (Units=1/GPa)
#
#
# Indices 1 2 3 4 5 6 
#
# 1 0.013426 -0.000868 -0.000194 0.000000 0.000000 0.000000
# 2 -0.000868 0.015694 -0.002210 0.000000 0.000000 0.000000
# 3 -0.000194 -0.002210 0.011007 0.000000 0.000000 0.000000
# 4 0.000000 0.000000 0.000000 0.037567 0.000000 0.000000
# 5 0.000000 0.000000 0.000000 0.000000 0.025224 0.000000
# 6 0.000000 0.000000 0.000000 0.000000 0.000000 0.031117
#
#
# Mechanical properties :
#
#
# Convention : Reuss Voigt Hill
#
# Bulk Modulus (GPa) = 29.77651 30.45644 30.11648
# Shear Modulus (GPa) = 32.94375 33.96267 33.45321
#
# Velocity S-wave (km/s) = 3.82460 3.88330 3.85406
# Velocity P-wave (km/s) = 5.72056 5.79913 5.75998
#
# Compressibility (1/GPa) = 0.03358352
#
# Stress axis : x y z
#
# Youngs Moduli (GPa) = 74.48022 63.71897 90.84716
#
# Poissons Ratio (x) = 0.05532 0.01763
# Poissons Ratio (y) = 0.06466 0.20076
# Poissons Ratio (z) = 0.01446 0.14081
#
# Static dielectric constant tensor:
#      x y z
#    x 1.888030 0.000000 0.000000 
#    y 0.000000 1.825330 0.000000 
#    z 0.000000 0.000000 1.821310 
# 
# From -- ./inp_files/5027.got.cif
#   From: 2010.05.17/outbox.cif.g08.bks.cpg/sg30_3_cif.got.tgz:5027.got - 2010.06.03 17:03:02.
