data_PCOD9342999
_publ_section_title
;
Structure prediction by ZEFSAII (Michael W. Deem and Ramdas Pophale) SiO2 
 PCOD9342999
Probable space group: P M N 21
;
_chemical_formula_sum "Si O2"
_cell_formula_units_Z 32
_cell_length_a 7.701367
_cell_length_b 15.138749
_cell_length_c 10.322234
_cell_angle_alpha 90.000000
_cell_angle_beta 90.000000
_cell_angle_gamma 90.000000
_cell_volume 1203.459579
_symmetry_space_group_name_H-M "P M N 21"
_symmetry_group_IT_number 31
_symmetry_cell_setting 'orthorhombic'
loop_
_space_group_symop_operation_xyz
x,y,z
1/2-x,-y,1/2+z
-x,y,z
1/2+x,-y,1/2+z
loop_
_atom_site_type_symbol
_atom_site_label
_atom_site_fract_x
_atom_site_fract_y
_atom_site_fract_z
Si Si1 0.206532 0.066125 0.766190
Si Si2 0.211904 0.732940 0.985947
Si Si3 0.798968 0.445888 0.159845
Si Si4 0.301860 0.545907 0.920049
Si Si5 0.702596 0.735688 0.560659
Si Si6 0.289928 0.930947 0.604147
Si Si7 0.694152 0.262717 0.772904
Si Si8 0.789536 0.930961 0.936526
O O1 0.314095 0.155989 0.762957
O O2 0.000000 0.084226 0.766412
O O3 0.234946 0.041674 0.599131
O O4 0.245095 0.953423 0.770183
O O5 0.269535 0.713241 0.133754
O O6 0.000000 0.732548 0.984165
O O7 0.282644 0.651127 0.906088
O O8 0.276136 0.829271 0.941458
O O9 0.726086 0.491610 0.287162
O O10 0.718132 0.351844 0.122748
O O11 0.000000 0.429100 0.193935
O O12 0.799048 0.510493 0.040867
O O13 0.500000 0.519644 0.944541
O O14 0.500000 0.742316 0.596254
O O15 0.782746 0.830678 0.596891
O O16 0.710116 0.720546 0.406370
O O17 0.500000 0.929434 0.612197
O O18 0.265003 0.953835 0.434411
O O19 0.500000 0.299770 0.783916
O O20 0.000000 0.923002 0.941219
#
# Coordination Sequence:
#
# PCOD9342999 Si02
#       8
#     4   4   4   4   4   4   4   4
#     4  11  21  34  54  83 122 169 222 270 315 379
#     4  10  22  41  63  89 128 173 215 267 331 390
#     4  10  25  49  73 101 136 172 213 268 338 405
#     4  11  26  47  73 104 132 166 218 275 332 402
#     4  10  22  41  65  90 127 171 213 267 332 392
#     4  10  19  36  57  81 120 167 209 258 318 372
#     4  11  22  37  60  91 127 172 222 271 324 386
#     4   9  18  35  55  79 118 166 208 252 310 370
#
# _framework density 26.590008999999998
#
# number of rings (size 3 to 8) (size 9 to 14) (size 15 to 20)
#    0.000    1.750    2.500    1.125    3.500    3.000 
#    0.000    0.625    0.000    0.000    0.000    0.000 
#    0.000    0.000    0.000    0.000    0.000    0.000 
#
# Total GULP energy -178669.230881 kJ/mol
# GULP energy per Si atom -5583.413465 kJ/mol
# Density = 2.652949 g / cm^3
# Si number density = 26.590009 Si / 1000 Ang^3
#
#
#
# Elastic Constant Matrix: (Units=GPa)
#
#
# Indices 1 2 3 4 5 6 
#
# 1 58.0994 0.1923 18.4360 0.0000 0.0000 0.0000
# 2 0.1923 84.2595 42.0137 0.0000 0.0000 0.0000
# 3 18.4360 42.0137 201.6791 0.0000 0.0000 0.0000
# 4 0.0000 0.0000 0.0000 47.3953 0.0000 0.0000
# 5 0.0000 0.0000 0.0000 0.0000 32.8839 0.0000
# 6 0.0000 0.0000 0.0000 0.0000 0.0000 17.3797
#
#
#
# Elastic Compliance Matrix: (Units=1/GPa)
#
#
# Indices 1 2 3 4 5 6 
#
# 1 0.017782 0.000859 -0.001804 0.000000 0.000000 0.000000
# 2 0.000859 0.013285 -0.002846 0.000000 0.000000 0.000000
# 3 -0.001804 -0.002846 0.005716 0.000000 0.000000 0.000000
# 4 0.000000 0.000000 0.000000 0.021099 0.000000 0.000000
# 5 0.000000 0.000000 0.000000 0.000000 0.030410 0.000000
# 6 0.000000 0.000000 0.000000 0.000000 0.000000 0.057539
#
#
# Mechanical properties :
#
#
# Convention : Reuss Voigt Hill
#
# Bulk Modulus (GPa) = 34.24625 51.70247 42.97436
# Shear Modulus (GPa) = 30.64719 38.42483 34.53601
#
# Velocity S-wave (km/s) = 3.39865 3.80555 3.60784
# Velocity P-wave (km/s) = 5.32057 6.22866 5.79244
#
# Compressibility (1/GPa) = 0.02920028
#
# Stress axis : x y z
#
# Youngs Moduli (GPa) = 56.23785 75.27131 174.94066
#
# Poissons Ratio (x) = -0.06467 0.31567
# Poissons Ratio (y) = -0.04832 0.49790
# Poissons Ratio (z) = 0.10148 0.21423
#
# Static dielectric constant tensor:
#      x y z
#    x 1.880570 0.000000 0.000000 
#    y 0.000000 2.043830 0.000000 
#    z 0.000000 0.000000 2.446850 
# 
# From -- ./inp_files/3621.got.cif
#   From: 2010.05.17/outbox.cif.g08.bks.cpg/sg31_2_cif.got.tgz:3621.got - 2010.06.03 17:08:30.
