data_PCOD9342951
_publ_section_title
;
Structure prediction by ZEFSAII (Michael W. Deem and Ramdas Pophale) SiO2 
 PCOD9342951
Probable space group: P M N 21
;
_chemical_formula_sum "Si O2"
_cell_formula_units_Z 26
_cell_length_a 7.954072
_cell_length_b 9.022721
_cell_length_c 17.488881
_cell_angle_alpha 90.000000
_cell_angle_beta 90.000000
_cell_angle_gamma 90.000000
_cell_volume 1255.131037
_symmetry_space_group_name_H-M "P M N 21"
_symmetry_group_IT_number 31
_symmetry_cell_setting 'orthorhombic'
loop_
_space_group_symop_operation_xyz
x,y,z
1/2-x,-y,1/2+z
-x,y,z
1/2+x,-y,1/2+z
loop_
_atom_site_type_symbol
_atom_site_label
_atom_site_fract_x
_atom_site_fract_y
_atom_site_fract_z
Si Si1 0.000000 0.812325 0.013031
Si Si2 0.000000 0.138329 0.979318
Si Si3 0.695924 0.552883 0.330923
Si Si4 0.308469 0.885451 0.752015
Si Si5 0.693661 0.133698 0.859471
Si Si6 0.500000 0.539074 0.564787
Si Si7 0.811528 0.278560 0.415949
Si Si8 0.686966 0.384878 0.169529
O O1 0.000000 0.641469 0.048622
O O2 0.828505 0.801036 0.964997
O O3 0.000000 0.990954 0.035842
O O4 0.167567 0.121687 0.926158
O O5 0.000000 0.309223 0.011015
O O6 0.500000 0.590749 0.339918
O O7 0.806956 0.696744 0.335241
O O8 0.750391 0.444497 0.399056
O O9 0.710908 0.471701 0.249585
O O10 0.500000 0.896791 0.724097
O O11 0.311761 0.794964 0.832033
O O12 0.206058 0.788373 0.692314
O O13 0.249331 0.042478 0.784033
O O14 0.500000 0.087106 0.879085
O O15 0.668223 0.565809 0.613440
O O16 0.000000 0.274149 0.447187
O O17 0.500000 0.413925 0.140150
#
# Coordination Sequence:
#
# PCOD9342951 Si02
#       8
#     2   2   4   4   4   2   4   4
#     4  12  24  42  68  90 130 182 218 269 320 397
#     4  12  26  44  68  98 140 176 227 272 320 415
#     4  10  19  34  61  96 130 163 208 273 339 397
#     4   9  18  35  62  94 127 154 201 270 340 398
#     4  11  22  36  62 103 135 161 207 285 351 395
#     4  12  28  48  62  90 134 190 233 261 312 402
#     4  10  19  34  60  93 125 160 203 262 339 391
#     4  10  23  42  64  87 123 176 225 269 326 395
#
# _framework density 20.714969
#
# number of rings (size 3 to 8) (size 9 to 14) (size 15 to 20)
#    0.000    1.538    3.846    1.385    4.308    1.231 
#    2.769    0.000    0.000    0.000    0.000    0.000 
#    0.000    0.000    0.000    0.000    0.000    0.000 
#
# Total GULP energy -144787.605678 kJ/mol
# GULP energy per Si atom -5568.754065 kJ/mol
# Density = 2.066782 g / cm^3
# Si number density = 20.714969 Si / 1000 Ang^3
#
#
#
# Elastic Constant Matrix: (Units=GPa)
#
#
# Indices 1 2 3 4 5 6 
#
# 1 140.1025 13.5910 41.0177 0.0000 0.0000 0.0000
# 2 13.5910 117.8899 12.8708 0.0000 0.0000 0.0000
# 3 41.0177 12.8708 32.1799 0.0000 0.0000 0.0000
# 4 0.0000 0.0000 0.0000 18.0470 0.0000 0.0000
# 5 0.0000 0.0000 0.0000 0.0000 26.1314 0.0000
# 6 0.0000 0.0000 0.0000 0.0000 0.0000 18.1865
#
#
#
# Elastic Compliance Matrix: (Units=1/GPa)
#
#
# Indices 1 2 3 4 5 6 
#
# 1 0.011396 0.000285 -0.014640 0.000000 0.000000 0.000000
# 2 0.000285 0.008877 -0.003913 0.000000 0.000000 0.000000
# 3 -0.014640 -0.003913 0.051301 0.000000 0.000000 0.000000
# 4 0.000000 0.000000 0.000000 0.055411 0.000000 0.000000
# 5 0.000000 0.000000 0.000000 0.000000 0.038268 0.000000
# 6 0.000000 0.000000 0.000000 0.000000 0.000000 0.054986
#
#
# Mechanical properties :
#
#
# Convention : Reuss Voigt Hill
#
# Bulk Modulus (GPa) = 28.54113 47.23680 37.88897
# Shear Modulus (GPa) = 18.62517 27.31917 22.97217
#
# Velocity S-wave (km/s) = 3.00178 3.63549 3.33373
# Velocity P-wave (km/s) = 5.08155 6.36200 5.75748
#
# Compressibility (1/GPa) = 0.03503716
#
# Stress axis : x y z
#
# Youngs Moduli (GPa) = 87.74949 112.65187 19.49294
#
# Poissons Ratio (x) = -0.03205 0.28537
# Poissons Ratio (y) = -0.02496 0.07628
# Poissons Ratio (z) = 1.28462 0.44082
#
# Static dielectric constant tensor:
#      x y z
#    x 1.700980 0.000000 0.000000 
#    y 0.000000 1.838040 0.000000 
#    z 0.000000 0.000000 1.743770 
# 
# From -- ./inp_files/5805.got.cif
#   From: 2010.05.17/outbox.cif.g08.bks.cpg/sg31_3_cif.got.tgz:5805.got - 2010.06.03 17:08:30.
