data_PCOD9342070
_publ_section_title
;
Structure prediction by ZEFSAII (Michael W. Deem and Ramdas Pophale) SiO2 
 PCOD9342070
Probable space group: P N C 2
;
_chemical_formula_sum "Si O2"
_cell_formula_units_Z 26
_cell_length_a 9.796284
_cell_length_b 15.126119
_cell_length_c 8.884398
_cell_angle_alpha 90.000000
_cell_angle_beta 90.000000
_cell_angle_gamma 90.000000
_cell_volume 1316.487942
_symmetry_space_group_name_H-M "P N C 2"
_symmetry_group_IT_number 30
_symmetry_cell_setting 'orthorhombic'
loop_
_space_group_symop_operation_xyz
x,y,z
-x,-y,z
-x,1/2+y,1/2+z
x,1/2-y,1/2+z
loop_
_atom_site_type_symbol
_atom_site_label
_atom_site_fract_x
_atom_site_fract_y
_atom_site_fract_z
Si Si1 0.802531 0.927516 0.233780
Si Si2 0.574196 0.633382 0.088331
Si Si3 0.000000 0.500000 0.481666
Si Si4 0.968144 0.351260 0.959177
Si Si5 0.978335 0.676442 0.304485
Si Si6 0.696491 0.036137 0.485599
Si Si7 0.314961 0.251209 0.818852
O O1 0.729621 0.833330 0.210398
O O2 0.921542 0.903310 0.356850
O O3 0.698534 0.993328 0.318454
O O4 0.875955 0.971831 0.092324
O O5 0.430471 0.597137 0.029473
O O6 0.677084 0.549485 0.092351
O O7 0.631196 0.700455 0.965134
O O8 0.576977 0.686182 0.243068
O O9 0.972141 0.414634 0.378272
O O10 0.835753 0.410034 0.990699
O O11 0.938868 0.260868 0.867915
O O12 0.022208 0.326927 0.124179
O O13 0.822782 0.697257 0.350640
#
# Coordination Sequence:
#
# PCOD9342070 Si02
#       7
#     4   4   2   4   4   4   4
#     4  10  20  38  64  86 126 159 197 260 318 366
#     4  10  22  38  64  83 114 169 205 243 296 378
#     4  12  22  34  58 100 118 160 196 252 318 370
#     4  11  22  40  60  92 126 160 197 266 315 367
#     4  11  24  35  62  93 122 159 206 250 326 366
#     4  10  21  38  63  86 118 161 211 240 316 365
#     4  10  20  40  59  84 117 157 203 246 296 376
#
# _framework density 19.749517000000001
#
# number of rings (size 3 to 8) (size 9 to 14) (size 15 to 20)
#    0.000    1.538    1.538    5.538    4.308    1.231 
#    0.000    0.000    0.000    1.846    0.000    0.000 
#    0.000    0.000    0.000    0.000    0.000    0.000 
#
# Total GULP energy -145117.032679 kJ/mol
# GULP energy per Si atom -5581.424334 kJ/mol
# Density = 1.970457 g / cm^3
# Si number density = 19.749517 Si / 1000 Ang^3
#
#
#
# Elastic Constant Matrix: (Units=GPa)
#
#
# Indices 1 2 3 4 5 6 
#
# 1 66.6508 44.0874 8.9096 0.0000 0.0000 0.0000
# 2 44.0874 122.3896 43.0580 0.0000 0.0000 0.0000
# 3 8.9096 43.0580 69.3103 0.0000 0.0000 0.0000
# 4 0.0000 0.0000 0.0000 29.0351 0.0000 0.0000
# 5 0.0000 0.0000 0.0000 0.0000 16.9010 0.0000
# 6 0.0000 0.0000 0.0000 0.0000 0.0000 42.4321
#
#
#
# Elastic Compliance Matrix: (Units=1/GPa)
#
#
# Indices 1 2 3 4 5 6 
#
# 1 0.020014 -0.008068 0.002439 0.000000 0.000000 0.000000
# 2 -0.008068 0.013708 -0.007479 0.000000 0.000000 0.000000
# 3 0.002439 -0.007479 0.018760 0.000000 0.000000 0.000000
# 4 0.000000 0.000000 0.000000 0.034441 0.000000 0.000000
# 5 0.000000 0.000000 0.000000 0.000000 0.059168 0.000000
# 6 0.000000 0.000000 0.000000 0.000000 0.000000 0.023567
#
#
# Mechanical properties :
#
#
# Convention : Reuss Voigt Hill
#
# Bulk Modulus (GPa) = 38.06942 50.05121 44.06031
# Shear Modulus (GPa) = 24.43452 28.49336 26.46394
#
# Velocity S-wave (km/s) = 3.52123 3.80246 3.66454
# Velocity P-wave (km/s) = 5.98749 6.68403 6.34533
#
# Compressibility (1/GPa) = 0.02626781
#
# Stress axis : x y z
#
# Youngs Moduli (GPa) = 49.96514 72.95100 53.30389
#
# Poissons Ratio (x) = 0.58854 -0.13001
# Poissons Ratio (y) = 0.40310 0.39864
# Poissons Ratio (z) = -0.12187 0.54558
#
# Static dielectric constant tensor:
#      x y z
#    x 1.698070 0.000000 0.000000 
#    y 0.000000 1.728380 0.000000 
#    z 0.000000 0.000000 1.694700 
# 
# From -- ./inp_files/2428.got.cif
#   From: 2010.05.17/outbox.cif.g08.bks.cpg/sg30_2_cif.got.tgz:2428.got - 2010.06.03 17:03:02.
