data_PCOD9342868
_publ_section_title
;
Structure prediction by ZEFSAII (Michael W. Deem and Ramdas Pophale) SiO2 
 PCOD9342868
Probable space group: P M N 21
;
_chemical_formula_sum "Si O2"
_cell_formula_units_Z 32
_cell_length_a 7.762694
_cell_length_b 11.734514
_cell_length_c 16.808672
_cell_angle_alpha 90.000000
_cell_angle_beta 90.000000
_cell_angle_gamma 90.000000
_cell_volume 1531.126161
_symmetry_space_group_name_H-M "P M N 21"
_symmetry_group_IT_number 31
_symmetry_cell_setting 'orthorhombic'
loop_
_space_group_symop_operation_xyz
x,y,z
1/2-x,-y,1/2+z
-x,y,z
1/2+x,-y,1/2+z
loop_
_atom_site_type_symbol
_atom_site_label
_atom_site_fract_x
_atom_site_fract_y
_atom_site_fract_z
Si Si1 0.800322 0.299874 0.721190
Si Si2 0.307478 0.260374 0.313395
Si Si3 0.295581 0.718752 0.551364
Si Si4 0.712058 0.073745 0.429982
Si Si5 0.788716 0.183048 0.884554
Si Si6 0.703588 0.904886 0.683619
Si Si7 0.797891 0.879552 0.106191
Si Si8 0.799718 0.445743 0.191228
O O1 0.729962 0.243712 0.802896
O O2 0.721119 0.244482 0.642110
O O3 0.783015 0.435206 0.714846
O O4 0.000000 0.269695 0.719343
O O5 0.500000 0.299937 0.334202
O O6 0.228744 0.188681 0.385350
O O7 0.312126 0.161599 0.247399
O O8 0.214286 0.361281 0.266840
O O9 0.500000 0.695313 0.543383
O O10 0.229846 0.744931 0.462681
O O11 0.281401 0.836311 0.600926
O O12 0.228118 0.621371 0.612762
O O13 0.500000 0.075875 0.426832
O O14 0.772761 0.090217 0.520266
O O15 0.763383 0.950299 0.394624
O O16 0.000000 0.183952 0.886239
O O17 0.500000 0.899821 0.706619
O O18 0.768324 0.031840 0.671529
O O19 0.000000 0.906547 0.100106
O O20 0.000000 0.467674 0.175666
#
# Coordination Sequence:
#
# PCOD9342868 Si02
#       8
#     4   4   4   4   4   4   4   4
#     4  11  23  37  55  81 114 147 181 233 289 331
#     4  10  19  32  54  83 111 139 177 226 278 324
#     4   8  14  29  55  81 100 131 182 230 260 304
#     4   9  17  31  54  84 112 140 180 225 266 325
#     4   9  16  31  56  84 109 136 180 229 271 320
#     4   9  16  29  53  81 108 140 178 218 268 322
#     4  10  19  34  56  79 110 148 185 223 264 326
#     4  10  21  39  59  77 104 145 193 232 270 328
#
# _framework density 20.899649
#
# number of rings (size 3 to 8) (size 9 to 14) (size 15 to 20)
#    0.000    2.500    1.250    2.625    0.000    1.500 
#    2.250    1.250    0.000    8.250    0.000    0.000 
#    0.000    0.000    0.000    0.000    0.000    0.000 
#
# Total GULP energy -178307.786020 kJ/mol
# GULP energy per Si atom -5572.118313 kJ/mol
# Density = 2.085208 g / cm^3
# Si number density = 20.899649 Si / 1000 Ang^3
#
#
#
# Elastic Constant Matrix: (Units=GPa)
#
#
# Indices 1 2 3 4 5 6 
#
# 1 29.8938 -7.1116 0.2529 0.0000 0.0000 0.0000
# 2 -7.1116 102.3542 36.9334 0.0000 0.0000 0.0000
# 3 0.2529 36.9334 67.2676 0.0000 0.0000 0.0000
# 4 0.0000 0.0000 0.0000 25.4251 0.0000 0.0000
# 5 0.0000 0.0000 0.0000 0.0000 12.1423 0.0000
# 6 0.0000 0.0000 0.0000 0.0000 0.0000 7.8913
#
#
#
# Elastic Compliance Matrix: (Units=1/GPa)
#
#
# Indices 1 2 3 4 5 6 
#
# 1 0.034185 0.003020 -0.001787 0.000000 0.000000 0.000000
# 2 0.003020 0.012451 -0.006847 0.000000 0.000000 0.000000
# 3 -0.001787 -0.006847 0.018632 0.000000 0.000000 0.000000
# 4 0.000000 0.000000 0.000000 0.039331 0.000000 0.000000
# 5 0.000000 0.000000 0.000000 0.000000 0.082357 0.000000
# 6 0.000000 0.000000 0.000000 0.000000 0.000000 0.126722
#
#
# Mechanical properties :
#
#
# Convention : Reuss Voigt Hill
#
# Bulk Modulus (GPa) = 18.50481 28.85166 23.67823
# Shear Modulus (GPa) = 14.58064 20.38777 17.48421
#
# Velocity S-wave (km/s) = 2.64417 3.12670 2.89551
# Velocity P-wave (km/s) = 4.26562 5.18361 4.74686
#
# Compressibility (1/GPa) = 0.05404000
#
# Stress axis : x y z
#
# Youngs Moduli (GPa) = 29.25233 80.31720 53.67024
#
# Poissons Ratio (x) = -0.24255 0.09589
# Poissons Ratio (y) = -0.08834 0.36750
# Poissons Ratio (z) = 0.05226 0.54996
#
# Static dielectric constant tensor:
#      x y z
#    x 1.781410 0.000000 0.000000 
#    y 0.000000 1.732240 0.000000 
#    z 0.000000 0.000000 1.820780 
# 
# From -- ./inp_files/5056.got.cif
#   From: 2010.05.17/outbox.cif.g08.bks.cpg/sg31_3_cif.got.tgz:5056.got - 2010.06.03 17:08:30.
