data_PCOD9342094
_publ_section_title
;
Structure prediction by ZEFSAII (Michael W. Deem and Ramdas Pophale) SiO2 
 PCOD9342094
Probable space group: P N C 2
;
_chemical_formula_sum "Si O2"
_cell_formula_units_Z 28
_cell_length_a 9.112272
_cell_length_b 26.724488
_cell_length_c 5.226883
_cell_angle_alpha 90.000000
_cell_angle_beta 90.000000
_cell_angle_gamma 90.000000
_cell_volume 1272.854749
_symmetry_space_group_name_H-M "P N C 2"
_symmetry_group_IT_number 30
_symmetry_cell_setting 'orthorhombic'
loop_
_space_group_symop_operation_xyz
x,y,z
-x,-y,z
-x,1/2+y,1/2+z
x,1/2-y,1/2+z
loop_
_atom_site_type_symbol
_atom_site_label
_atom_site_fract_x
_atom_site_fract_y
_atom_site_fract_z
Si Si1 0.386859 0.386491 0.202600
Si Si2 0.739327 0.778372 0.823051
Si Si3 0.129408 0.883515 0.115086
Si Si4 0.289770 0.582432 0.128712
Si Si5 0.770398 0.525610 0.993705
Si Si6 0.094450 0.776946 0.869225
Si Si7 0.154369 0.439192 0.501348
O O1 0.321160 0.331327 0.225411
O O2 0.315032 0.416156 0.441789
O O3 0.559818 0.388168 0.175831
O O4 0.323285 0.423125 0.983549
O O5 0.692793 0.737937 0.607888
O O6 0.916881 0.779745 0.842618
O O7 0.197614 0.893840 0.393386
O O8 0.204840 0.916491 0.895939
O O9 0.146019 0.827770 0.002831
O O10 0.957964 0.897874 0.102626
O O11 0.316531 0.524128 0.064324
O O12 0.839153 0.519181 0.717397
O O13 0.883019 0.539221 0.221375
O O14 0.140254 0.765198 0.577905
#
# Coordination Sequence:
#
# PCOD9342094 Si02
#       7
#     4   4   4   4   4   4   4
#     4  10  25  45  67  95 133 175 220 278 325 399
#     4  10  22  38  68  98 122 163 226 278 322 385
#     4  12  25  43  62 103 132 176 214 288 337 401
#     4  12  27  41  66  96 144 170 223 266 351 398
#     4  10  23  42  68  95 124 184 223 269 320 406
#     4  10  20  39  66  93 124 170 225 272 330 405
#     4  10  23  41  70  88 133 166 231 265 328 379
#
# _framework density 21.997793999999999
#
# number of rings (size 3 to 8) (size 9 to 14) (size 15 to 20)
#    0.857    0.571    1.429    3.000    4.000    4.571 
#    2.571    4.286    0.000    0.000    0.000    0.000 
#    0.000    0.000    0.000    0.000    0.000    0.000 
#
# Total GULP energy -156100.319082 kJ/mol
# GULP energy per Si atom -5575.011396 kJ/mol
# Density = 2.194773 g / cm^3
# Si number density = 21.997794 Si / 1000 Ang^3
#
#
#
# Elastic Constant Matrix: (Units=GPa)
#
#
# Indices 1 2 3 4 5 6 
#
# 1 45.9574 -2.3782 26.0448 0.0000 0.0000 0.0000
# 2 -2.3782 94.8018 21.3683 0.0000 0.0000 0.0000
# 3 26.0448 21.3683 121.5649 0.0000 0.0000 0.0000
# 4 0.0000 0.0000 0.0000 15.2415 0.0000 0.0000
# 5 0.0000 0.0000 0.0000 0.0000 17.3252 0.0000
# 6 0.0000 0.0000 0.0000 0.0000 0.0000 17.2351
#
#
#
# Elastic Compliance Matrix: (Units=1/GPa)
#
#
# Indices 1 2 3 4 5 6 
#
# 1 0.025097 0.001918 -0.005714 0.000000 0.000000 0.000000
# 2 0.001918 0.011130 -0.002367 0.000000 0.000000 0.000000
# 3 -0.005714 -0.002367 0.009866 0.000000 0.000000 0.000000
# 4 0.000000 0.000000 0.000000 0.065610 0.000000 0.000000
# 5 0.000000 0.000000 0.000000 0.000000 0.057719 0.000000
# 6 0.000000 0.000000 0.000000 0.000000 0.000000 0.058021
#
#
# Mechanical properties :
#
#
# Convention : Reuss Voigt Hill
#
# Bulk Modulus (GPa) = 29.61580 39.15487 34.38533
# Shear Modulus (GPa) = 19.91824 24.44632 22.18228
#
# Velocity S-wave (km/s) = 3.01236 3.33724 3.17896
# Velocity P-wave (km/s) = 5.05879 5.71732 5.39811
#
# Compressibility (1/GPa) = 0.03376576
#
# Stress axis : x y z
#
# Youngs Moduli (GPa) = 39.84592 89.84727 101.35467
#
# Poissons Ratio (x) = -0.17228 0.57913
# Poissons Ratio (y) = -0.07640 0.23993
# Poissons Ratio (z) = 0.22768 0.21269
#
# Static dielectric constant tensor:
#      x y z
#    x 1.905030 0.000000 0.000000 
#    y 0.000000 1.846010 0.000000 
#    z 0.000000 0.000000 1.834050 
# 
# From -- ./inp_files/545.got.cif
#   From: 2010.05.17/outbox.cif.g08.bks.cpg/sg30_1_cif.got.tgz:545.got - 2010.06.03 17:03:02.
