data_PCOD9342114
_publ_section_title
;
Structure prediction by ZEFSAII (Michael W. Deem and Ramdas Pophale) SiO2 
 PCOD9342114
Probable space group: P N C 2
;
_chemical_formula_sum "Si O2"
_cell_formula_units_Z 16
_cell_length_a 5.050238
_cell_length_b 6.905553
_cell_length_c 21.763143
_cell_angle_alpha 90.000000
_cell_angle_beta 90.000000
_cell_angle_gamma 90.000000
_cell_volume 758.982782
_symmetry_space_group_name_H-M "P N C 2"
_symmetry_group_IT_number 30
_symmetry_cell_setting 'orthorhombic'
loop_
_space_group_symop_operation_xyz
x,y,z
-x,-y,z
-x,1/2+y,1/2+z
x,1/2-y,1/2+z
loop_
_atom_site_type_symbol
_atom_site_label
_atom_site_fract_x
_atom_site_fract_y
_atom_site_fract_z
Si Si1 0.755144 0.631373 0.264130
Si Si2 0.500000 0.000000 0.032221
Si Si3 0.737471 0.873002 0.147934
Si Si4 0.748874 0.866180 0.383192
Si Si5 0.000000 0.500000 0.454419
O O1 0.500000 0.500000 0.266775
O O2 0.795670 0.702766 0.194648
O O3 0.715947 0.804163 0.312186
O O4 0.000000 0.500000 0.284024
O O5 0.752412 0.079075 0.994894
O O6 0.378833 0.160130 0.079573
O O7 0.500000 0.000000 0.177470
O O8 0.000000 0.000000 0.141350
O O9 0.839311 0.667616 0.417633
O O10 0.500000 0.000000 0.403054
O O11 0.000000 0.000000 0.389061
#
# Coordination Sequence:
#
# PCOD9342114 Si02
#       5
#     4   2   4   4   2
#     4  12  24  40  67 106 142 175 228 293 352 429
#     4  10  22  42  72  90 136 194 228 290 346 422
#     4  10  20  41  66  95 126 185 225 269 357 404
#     4  12  26  45  71 105 141 185 232 295 362 421
#     4  12  24  46  72 100 142 184 252 278 356 432
#
# _framework density 21.080848
#
# number of rings (size 3 to 8) (size 9 to 14) (size 15 to 20)
#    0.750    0.000    2.500    6.000    1.750    0.000 
#    0.000    5.000    0.000    0.000    0.000    0.000 
#    0.000    0.000    0.000    0.000    0.000    0.000 
#
# Total GULP energy -89165.881311 kJ/mol
# GULP energy per Si atom -5572.867582 kJ/mol
# Density = 2.103287 g / cm^3
# Si number density = 21.080848 Si / 1000 Ang^3
#
#
#
# Elastic Constant Matrix: (Units=GPa)
#
#
# Indices 1 2 3 4 5 6 
#
# 1 186.1741 57.4466 55.6716 0.0000 0.0000 0.0000
# 2 57.4466 79.4318 32.9867 0.0000 0.0000 0.0000
# 3 55.6716 32.9867 80.6504 0.0000 0.0000 0.0000
# 4 0.0000 0.0000 0.0000 59.4437 0.0000 0.0000
# 5 0.0000 0.0000 0.0000 0.0000 -57.7597 0.0000
# 6 0.0000 0.0000 0.0000 0.0000 0.0000 14.2033
#
#
#
# Elastic Compliance Matrix: (Units=1/GPa)
#
#
# Indices 1 2 3 4 5 6 
#
# 1 0.007721 -0.004061 -0.003669 0.000000 0.000000 0.000000
# 2 -0.004061 0.017301 -0.004273 0.000000 0.000000 0.000000
# 3 -0.003669 -0.004273 0.016680 0.000000 0.000000 0.000000
# 4 0.000000 0.000000 0.000000 0.016823 0.000000 0.000000
# 5 0.000000 0.000000 0.000000 0.000000 -0.017313 0.000000
# 6 0.000000 0.000000 0.000000 0.000000 0.000000 0.070406
#
#
# Mechanical properties :
#
#
# Convention : Reuss Voigt Hill
#
# Bulk Modulus (GPa) = 56.50994 70.94067 63.72531
# Shear Modulus (GPa) = 35.33021 16.52088 25.92554
#
# Velocity S-wave (km/s) = 4.09826 2.80249 3.51068
# Velocity P-wave (km/s) = 7.01846 6.64806 6.83577
#
# Compressibility (1/GPa) = 0.01769600
#
# Stress axis : x y z
#
# Youngs Moduli (GPa) = 129.50935 57.80126 59.95300
#
# Poissons Ratio (x) = 0.23470 0.21998
# Poissons Ratio (y) = 0.52588 0.25619
# Poissons Ratio (z) = 0.47519 0.24700
#
# Static dielectric constant tensor:
#      x y z
#    x 1.727210 0.000000 0.000000 
#    y 0.000000 1.437520 0.000000 
#    z 0.000000 0.000000 1.856370 
# 
# From -- ./inp_files/7131.got.cif
#   From: 2010.05.17/outbox.cif.g08.bks.cpg/sg30_4_cif.got.tgz:7131.got - 2010.06.03 17:03:02.
