data_PCOD9342053
_publ_section_title
;
Structure prediction by ZEFSAII (Michael W. Deem and Ramdas Pophale) SiO2 
 PCOD9342053
Probable space group: P N C 2
;
_chemical_formula_sum "Si O2"
_cell_formula_units_Z 24
_cell_length_a 7.003032
_cell_length_b 13.566864
_cell_length_c 10.541706
_cell_angle_alpha 90.000000
_cell_angle_beta 90.000000
_cell_angle_gamma 90.000000
_cell_volume 1001.558872
_symmetry_space_group_name_H-M "P N C 2"
_symmetry_group_IT_number 30
_symmetry_cell_setting 'orthorhombic'
loop_
_space_group_symop_operation_xyz
x,y,z
-x,-y,z
-x,1/2+y,1/2+z
x,1/2-y,1/2+z
loop_
_atom_site_type_symbol
_atom_site_label
_atom_site_fract_x
_atom_site_fract_y
_atom_site_fract_z
Si Si1 0.990692 0.293882 0.861720
Si Si2 0.131996 0.905675 0.965901
Si Si3 0.500000 0.000000 0.982718
Si Si4 0.863148 0.423641 0.075718
Si Si5 0.500000 0.000000 0.419442
Si Si6 0.307181 0.730276 0.684551
Si Si7 0.330872 0.360972 0.700278
O O1 0.124586 0.324445 0.744658
O O2 0.769535 0.301389 0.820755
O O3 0.000638 0.180688 0.906249
O O4 0.005716 0.373790 0.971901
O O5 0.333905 0.943620 0.904618
O O6 0.224313 0.851540 0.088638
O O7 0.000000 0.000000 0.990467
O O8 0.624521 0.929692 0.078533
O O9 0.790341 0.332598 0.155958
O O10 0.000000 0.500000 0.147557
O O11 0.677254 0.467635 0.007179
O O12 0.415331 0.081139 0.321723
O O13 0.532866 0.732360 0.677035
#
# Coordination Sequence:
#
# PCOD9342053 Si02
#       7
#     4   4   2   4   2   4   4
#     4  11  22  39  63  90 125 164 208 255 315 383
#     4  10  22  39  60  89 119 165 210 258 313 375
#     4   9  20  38  61  92 124 160 209 270 313 360
#     4  11  23  39  64  95 128 165 209 264 318 381
#     4  11  20  38  65  90 122 164 217 260 315 368
#     4  10  23  40  59  93 128 158 208 264 314 372
#     4  10  20  37  65  92 119 166 210 262 308 369
#
# _framework density 23.962648000000002
#
# number of rings (size 3 to 8) (size 9 to 14) (size 15 to 20)
#    0.000    1.667    3.333    1.000    0.000    4.000 
#    3.000    0.833    0.000    0.000    0.000    0.000 
#    0.000    0.000    0.000    0.000    0.000    0.000 
#
# Total GULP energy -133892.352119 kJ/mol
# GULP energy per Si atom -5578.848005 kJ/mol
# Density = 2.390811 g / cm^3
# Si number density = 23.962648 Si / 1000 Ang^3
#
#
#
# Elastic Constant Matrix: (Units=GPa)
#
#
# Indices 1 2 3 4 5 6 
#
# 1 136.7710 53.8657 8.9702 0.0000 0.0000 0.0000
# 2 53.8657 99.7280 0.5294 0.0000 0.0000 0.0000
# 3 8.9702 0.5294 19.3364 0.0000 0.0000 0.0000
# 4 0.0000 0.0000 0.0000 15.1821 0.0000 0.0000
# 5 0.0000 0.0000 0.0000 0.0000 21.4604 0.0000
# 6 0.0000 0.0000 0.0000 0.0000 0.0000 41.4784
#
#
#
# Elastic Compliance Matrix: (Units=1/GPa)
#
#
# Indices 1 2 3 4 5 6 
#
# 1 0.009636 -0.005182 -0.004328 0.000000 0.000000 0.000000
# 2 -0.005182 0.012815 0.002053 0.000000 0.000000 0.000000
# 3 -0.004328 0.002053 0.053668 0.000000 0.000000 0.000000
# 4 0.000000 0.000000 0.000000 0.065867 0.000000 0.000000
# 5 0.000000 0.000000 0.000000 0.000000 0.046597 0.000000
# 6 0.000000 0.000000 0.000000 0.000000 0.000000 0.024109
#
#
# Mechanical properties :
#
#
# Convention : Reuss Voigt Hill
#
# Bulk Modulus (GPa) = 16.33863 42.50735 29.42299
# Shear Modulus (GPa) = 20.16060 28.45551 24.30805
#
# Velocity S-wave (km/s) = 2.90372 3.44974 3.18844
# Velocity P-wave (km/s) = 4.25151 5.80044 5.08530
#
# Compressibility (1/GPa) = 0.06120464
#
# Stress axis : x y z
#
# Youngs Moduli (GPa) = 103.77601 78.03254 18.63320
#
# Poissons Ratio (x) = 0.40434 0.08065
# Poissons Ratio (y) = 0.53774 -0.03825
# Poissons Ratio (z) = 0.44918 -0.16020
#
# Static dielectric constant tensor:
#      x y z
#    x 1.929810 0.000000 0.000000 
#    y 0.000000 1.984220 0.000000 
#    z 0.000000 0.000000 1.960710 
# 
# From -- ./inp_files/4702.got.cif
#   From: 2010.05.17/outbox.cif.g08.bks.cpg/sg30_3_cif.got.tgz:4702.got - 2010.06.03 17:03:02.
