data_PCOD9342303
_publ_section_title
;
Structure prediction by ZEFSAII (Michael W. Deem and Ramdas Pophale) SiO2 
 PCOD9342303
Probable space group: P N C 2
;
_chemical_formula_sum "Si O2"
_cell_formula_units_Z 26
_cell_length_a 7.680170
_cell_length_b 17.778417
_cell_length_c 9.019994
_cell_angle_alpha 90.000000
_cell_angle_beta 90.000000
_cell_angle_gamma 90.000000
_cell_volume 1231.601390
_symmetry_space_group_name_H-M "P N C 2"
_symmetry_group_IT_number 30
_symmetry_cell_setting 'orthorhombic'
loop_
_space_group_symop_operation_xyz
x,y,z
-x,-y,z
-x,1/2+y,1/2+z
x,1/2-y,1/2+z
loop_
_atom_site_type_symbol
_atom_site_label
_atom_site_fract_x
_atom_site_fract_y
_atom_site_fract_z
Si Si1 0.800702 0.073741 0.091970
Si Si2 0.797039 0.924244 0.606792
Si Si3 0.500000 0.000000 0.218960
Si Si4 0.289909 0.783466 0.937043
Si Si5 0.000000 0.500000 0.346472
Si Si6 0.000000 0.000000 0.345055
Si Si7 0.132669 0.669974 0.125044
Si Si8 0.452822 0.872827 0.466333
O O1 0.669148 0.004003 0.115176
O O2 0.685015 0.145634 0.046127
O O3 0.916390 0.064805 0.240166
O O4 0.933632 0.064065 0.956633
O O5 0.837161 0.980660 0.741412
O O6 0.605463 0.893046 0.581049
O O7 0.860058 0.961080 0.452257
O O8 0.942070 0.861569 0.643395
O O9 0.518589 0.072972 0.325579
O O10 0.233638 0.807161 0.773740
O O11 0.435753 0.717061 0.933278
O O12 0.129230 0.740804 0.015706
O O13 0.264431 0.612961 0.040979
#
# Coordination Sequence:
#
# PCOD9342303 Si02
#       8
#     4   4   2   4   2   2   4   4
#     4  11  22  42  68  99 145 180 234 306 364 428
#     4  11  21  44  67 100 133 177 238 292 357 433
#     4  12  22  42  70 106 136 188 238 308 358 434
#     4  10  23  45  63  98 142 194 232 291 376 433
#     4  10  24  40  66 110 134 178 236 298 378 420
#     4  10  22  38  70 102 132 176 242 298 358 448
#     4  10  23  43  66  94 144 184 227 299 362 429
#     4  10  25  40  68 103 131 183 245 281 359 439
#
# _framework density 21.110724999999999
#
# number of rings (size 3 to 8) (size 9 to 14) (size 15 to 20)
#    0.923    0.615    3.077    1.846    4.308    1.231 
#    2.769    3.077    0.000    0.000    0.000    0.000 
#    0.000    0.000    0.000    0.000    0.000    0.000 
#
# Total GULP energy -144798.330151 kJ/mol
# GULP energy per Si atom -5569.166544 kJ/mol
# Density = 2.106268 g / cm^3
# Si number density = 21.110725 Si / 1000 Ang^3
#
#
#
# Elastic Constant Matrix: (Units=GPa)
#
#
# Indices 1 2 3 4 5 6 
#
# 1 51.4022 11.1879 13.6147 0.0000 0.0000 0.0000
# 2 11.1879 92.1194 45.0419 0.0000 0.0000 0.0000
# 3 13.6147 45.0419 121.2109 0.0000 0.0000 0.0000
# 4 0.0000 0.0000 0.0000 39.3779 0.0000 0.0000
# 5 0.0000 0.0000 0.0000 0.0000 28.4683 0.0000
# 6 0.0000 0.0000 0.0000 0.0000 0.0000 41.8131
#
#
#
# Elastic Compliance Matrix: (Units=1/GPa)
#
#
# Indices 1 2 3 4 5 6 
#
# 1 0.020253 -0.001647 -0.001663 0.000000 0.000000 0.000000
# 2 -0.001647 0.013400 -0.004794 0.000000 0.000000 0.000000
# 3 -0.001663 -0.004794 0.010218 0.000000 0.000000 0.000000
# 4 0.000000 0.000000 0.000000 0.025395 0.000000 0.000000
# 5 0.000000 0.000000 0.000000 0.000000 0.035127 0.000000
# 6 0.000000 0.000000 0.000000 0.000000 0.000000 0.023916
#
#
# Mechanical properties :
#
#
# Convention : Reuss Voigt Hill
#
# Bulk Modulus (GPa) = 36.14883 44.93573 40.54228
# Shear Modulus (GPa) = 32.52280 34.92438 33.72359
#
# Velocity S-wave (km/s) = 3.92928 4.07177 4.00116
# Velocity P-wave (km/s) = 6.14380 6.59073 6.37119
#
# Compressibility (1/GPa) = 0.02766341
#
# Stress axis : x y z
#
# Youngs Moduli (GPa) = 49.37470 74.62871 97.86209
#
# Poissons Ratio (x) = 0.12289 0.16274
# Poissons Ratio (y) = 0.08130 0.46919
# Poissons Ratio (z) = 0.08211 0.35780
#
# Static dielectric constant tensor:
#      x y z
#    x 1.774200 0.000000 0.000000 
#    y 0.000000 1.909460 0.000000 
#    z 0.000000 0.000000 1.796240 
# 
# From -- ./inp_files/2011.got.cif
#   From: 2010.05.17/outbox.cif.g08.bks.cpg/sg30_2_cif.got.tgz:2011.got - 2010.06.03 17:03:02.
