data_PCOD9342187
_publ_section_title
;
Structure prediction by ZEFSAII (Michael W. Deem and Ramdas Pophale) SiO2 
 PCOD9342187
Probable space group: P N C 2
;
_chemical_formula_sum "Si O2"
_cell_formula_units_Z 26
_cell_length_a 6.457880
_cell_length_b 17.543400
_cell_length_c 11.681251
_cell_angle_alpha 90.000000
_cell_angle_beta 90.000000
_cell_angle_gamma 90.000000
_cell_volume 1323.405979
_symmetry_space_group_name_H-M "P N C 2"
_symmetry_group_IT_number 30
_symmetry_cell_setting 'orthorhombic'
loop_
_space_group_symop_operation_xyz
x,y,z
-x,-y,z
-x,1/2+y,1/2+z
x,1/2-y,1/2+z
loop_
_atom_site_type_symbol
_atom_site_label
_atom_site_fract_x
_atom_site_fract_y
_atom_site_fract_z
Si Si1 0.482230 0.346994 0.933530
Si Si2 0.500000 0.000000 0.573160
Si Si3 0.763674 0.292776 0.511796
Si Si4 0.141047 0.297762 0.112540
Si Si5 0.901833 0.582045 0.493133
Si Si6 0.823743 0.940108 0.756363
Si Si7 0.602521 0.841909 0.173026
O O1 0.443882 0.366981 0.801477
O O2 0.554763 0.424586 0.998609
O O3 0.633811 0.272563 0.942887
O O4 0.269770 0.323369 0.999651
O O5 0.322973 0.024408 0.661329
O O6 0.602046 0.334110 0.595906
O O7 0.932418 0.244343 0.580908
O O8 0.912017 0.358923 0.459546
O O9 0.088975 0.366437 0.194772
O O10 0.298082 0.242330 0.178781
O O11 0.746269 0.579949 0.383654
O O12 0.772443 0.610382 0.602301
O O13 0.000000 0.500000 0.518424
O O14 0.000000 0.000000 0.781105
#
# Coordination Sequence:
#
# PCOD9342187 Si02
#       7
#     4   2   4   4   4   4   4
#     4  10  22  40  63  92 126 162 208 262 316 380
#     4  10  22  42  62  94 122 160 206 262 322 374
#     4  10  22  38  61  92 121 165 214 248 322 373
#     4   9  21  38  59  89 125 157 207 256 312 369
#     4  10  24  41  59  91 128 169 210 261 319 376
#     4  10  21  38  63  87 121 161 205 256 310 376
#     4  10  23  39  62  92 124 166 207 263 307 382
#
# _framework density 19.646277000000001
#
# number of rings (size 3 to 8) (size 9 to 14) (size 15 to 20)
#    0.000    2.154    0.000    0.923    8.615    5.538 
#    2.769    3.077    0.000    0.000    0.000    0.000 
#    0.000    0.000    0.000    0.000    0.000    0.000 
#
# Total GULP energy -144855.029914 kJ/mol
# GULP energy per Si atom -5571.347304 kJ/mol
# Density = 1.960156 g / cm^3
# Si number density = 19.646277 Si / 1000 Ang^3
#
#
#
# Elastic Constant Matrix: (Units=GPa)
#
#
# Indices 1 2 3 4 5 6 
#
# 1 66.1269 28.9102 33.0106 0.0000 0.0000 0.0000
# 2 28.9102 106.4285 50.8847 0.0000 0.0000 0.0000
# 3 33.0106 50.8847 133.4244 0.0000 0.0000 0.0000
# 4 0.0000 0.0000 0.0000 23.0433 0.0000 0.0000
# 5 0.0000 0.0000 0.0000 0.0000 14.4734 0.0000
# 6 0.0000 0.0000 0.0000 0.0000 0.0000 21.1900
#
#
#
# Elastic Compliance Matrix: (Units=1/GPa)
#
#
# Indices 1 2 3 4 5 6 
#
# 1 0.018215 -0.003416 -0.003204 0.000000 0.000000 0.000000
# 2 -0.003416 0.012132 -0.003782 0.000000 0.000000 0.000000
# 3 -0.003204 -0.003782 0.009730 0.000000 0.000000 0.000000
# 4 0.000000 0.000000 0.000000 0.043397 0.000000 0.000000
# 5 0.000000 0.000000 0.000000 0.000000 0.069092 0.000000
# 6 0.000000 0.000000 0.000000 0.000000 0.000000 0.047192
#
#
# Mechanical properties :
#
#
# Convention : Reuss Voigt Hill
#
# Bulk Modulus (GPa) = 51.88398 59.06563 55.47481
# Shear Modulus (GPa) = 22.02778 24.61962 23.32370
#
# Velocity S-wave (km/s) = 3.35209 3.54382 3.44929
# Velocity P-wave (km/s) = 6.43805 6.84651 6.64542
#
# Compressibility (1/GPa) = 0.01927377
#
# Stress axis : x y z
#
# Youngs Moduli (GPa) = 54.89881 82.42667 102.77751
#
# Poissons Ratio (x) = 0.28159 0.32928
# Poissons Ratio (y) = 0.18755 0.38867
# Poissons Ratio (z) = 0.17589 0.31171
#
# Static dielectric constant tensor:
#      x y z
#    x 1.693580 0.000000 0.000000 
#    y 0.000000 1.726640 0.000000 
#    z 0.000000 0.000000 1.704770 
# 
# From -- ./inp_files/3161.got.cif
#   From: 2010.05.17/outbox.cif.g08.bks.cpg/sg30_2_cif.got.tgz:3161.got - 2010.06.03 17:03:02.
