data_PCOD9342240
_publ_section_title
;
Structure prediction by ZEFSAII (Michael W. Deem and Ramdas Pophale) SiO2 
 PCOD9342240
Probable space group: P N C 2
;
_chemical_formula_sum "Si O2"
_cell_formula_units_Z 30
_cell_length_a 10.875634
_cell_length_b 8.107119
_cell_length_c 15.316206
_cell_angle_alpha 90.000000
_cell_angle_beta 90.000000
_cell_angle_gamma 90.000000
_cell_volume 1350.430787
_symmetry_space_group_name_H-M "P N C 2"
_symmetry_group_IT_number 30
_symmetry_cell_setting 'orthorhombic'
loop_
_space_group_symop_operation_xyz
x,y,z
-x,-y,z
-x,1/2+y,1/2+z
x,1/2-y,1/2+z
loop_
_atom_site_type_symbol
_atom_site_label
_atom_site_fract_x
_atom_site_fract_y
_atom_site_fract_z
Si Si1 0.139582 0.059987 0.973010
Si Si2 0.438089 0.741804 0.721851
Si Si3 0.248098 0.069336 0.473591
Si Si4 0.698470 0.857491 0.286290
Si Si5 0.500000 0.500000 0.071146
Si Si6 0.797425 0.050394 0.152758
Si Si7 0.269806 0.522889 0.305860
Si Si8 0.878367 0.104522 0.631489
O O1 0.167432 0.258932 0.972167
O O2 0.179825 0.956733 0.887467
O O3 0.000000 0.000000 0.990244
O O4 0.221440 0.004053 0.054621
O O5 0.561564 0.648607 0.746948
O O6 0.461631 0.854763 0.637226
O O7 0.323727 0.628789 0.695702
O O8 0.387423 0.858637 0.799845
O O9 0.272771 0.032596 0.371479
O O10 0.385399 0.070428 0.515515
O O11 0.179776 0.938391 0.536830
O O12 0.700987 0.668071 0.315936
O O13 0.806319 0.893314 0.215821
O O14 0.893630 0.199997 0.148183
O O15 0.207447 0.545186 0.211250
O O16 0.000000 0.000000 0.637821
#
# Coordination Sequence:
#
# PCOD9342240 Si02
#       8
#     4   4   4   4   2   4   4   4
#     4  11  24  44  66  96 135 178 237 299 344 416
#     4  11  21  40  65  94 135 180 214 282 344 430
#     4  11  25  41  68  99 133 187 222 285 357 428
#     4  11  23  41  65  98 137 170 228 286 351 421
#     4  12  20  42  68  92 136 180 218 272 352 428
#     4  11  24  38  63  96 126 173 229 286 331 413
#     4  10  21  41  66  94 129 180 229 274 360 421
#     4  11  22  43  66  93 133 181 227 280 349 419
#
# _framework density 22.215133000000002
#
# number of rings (size 3 to 8) (size 9 to 14) (size 15 to 20)
#    0.000    1.067    4.000    3.200    1.867    3.200 
#    0.000    7.333    0.000    0.000    0.000    0.000 
#    0.000    0.000    0.000    0.000    0.000    0.000 
#
# Total GULP energy -167196.475913 kJ/mol
# GULP energy per Si atom -5573.215864 kJ/mol
# Density = 2.216457 g / cm^3
# Si number density = 22.215133 Si / 1000 Ang^3
#
#
#
# Elastic Constant Matrix: (Units=GPa)
#
#
# Indices 1 2 3 4 5 6 
#
# 1 92.8406 29.6027 30.6830 0.0000 0.0000 0.0000
# 2 29.6027 63.7198 14.1602 0.0000 0.0000 0.0000
# 3 30.6830 14.1602 124.2816 0.0000 0.0000 0.0000
# 4 0.0000 0.0000 0.0000 12.9358 0.0000 0.0000
# 5 0.0000 0.0000 0.0000 0.0000 25.2097 0.0000
# 6 0.0000 0.0000 0.0000 0.0000 0.0000 28.1882
#
#
#
# Elastic Compliance Matrix: (Units=1/GPa)
#
#
# Indices 1 2 3 4 5 6 
#
# 1 0.013461 -0.005658 -0.002678 0.000000 0.000000 0.000000
# 2 -0.005658 0.018480 -0.000709 0.000000 0.000000 0.000000
# 3 -0.002678 -0.000709 0.008788 0.000000 0.000000 0.000000
# 4 0.000000 0.000000 0.000000 0.077305 0.000000 0.000000
# 5 0.000000 0.000000 0.000000 0.000000 0.039667 0.000000
# 6 0.000000 0.000000 0.000000 0.000000 0.000000 0.035476
#
#
# Mechanical properties :
#
#
# Convention : Reuss Voigt Hill
#
# Bulk Modulus (GPa) = 44.17352 47.74818 45.96085
# Shear Modulus (GPa) = 22.85054 27.02649 24.93852
#
# Velocity S-wave (km/s) = 3.21066 3.49173 3.35414
# Velocity P-wave (km/s) = 5.80276 6.14788 5.97782
#
# Compressibility (1/GPa) = 0.02263800
#
# Stress axis : x y z
#
# Youngs Moduli (GPa) = 74.29136 54.11308 113.78818
#
# Poissons Ratio (x) = 0.30618 0.30478
# Poissons Ratio (y) = 0.42035 0.08063
# Poissons Ratio (z) = 0.19899 0.03835
#
# Static dielectric constant tensor:
#      x y z
#    x 1.867420 0.000000 0.000000 
#    y 0.000000 1.950920 0.000000 
#    z 0.000000 0.000000 1.831120 
# 
# From -- ./inp_files/5499.got.cif
#   From: 2010.05.17/outbox.cif.g08.bks.cpg/sg30_3_cif.got.tgz:5499.got - 2010.06.03 17:03:02.
