data_PCOD9342328
_publ_section_title
;
Structure prediction by ZEFSAII (Michael W. Deem and Ramdas Pophale) SiO2 
 PCOD9342328
Probable space group: P N C 2
;
_chemical_formula_sum "Si O2"
_cell_formula_units_Z 24
_cell_length_a 11.887886
_cell_length_b 9.677827
_cell_length_c 8.976302
_cell_angle_alpha 90.000000
_cell_angle_beta 90.000000
_cell_angle_gamma 90.000000
_cell_volume 1032.713708
_symmetry_space_group_name_H-M "P N C 2"
_symmetry_group_IT_number 30
_symmetry_cell_setting 'orthorhombic'
loop_
_space_group_symop_operation_xyz
x,y,z
-x,-y,z
-x,1/2+y,1/2+z
x,1/2-y,1/2+z
loop_
_atom_site_type_symbol
_atom_site_label
_atom_site_fract_x
_atom_site_fract_y
_atom_site_fract_z
Si Si1 0.896870 0.844887 0.072460
Si Si2 0.405737 0.096500 0.476596
Si Si3 0.203511 0.620535 0.025632
Si Si4 0.850068 0.367958 0.690053
Si Si5 0.839729 0.581898 0.247731
Si Si6 0.409804 0.109241 0.818137
O O1 0.837172 0.707852 0.130931
O O2 0.024296 0.840982 0.130032
O O3 0.831698 0.972969 0.147191
O O4 0.902232 0.869210 0.895737
O O5 0.443521 0.131868 0.645467
O O6 0.394613 0.242430 0.395209
O O7 0.500000 0.000000 0.402707
O O8 0.299603 0.992689 0.491582
O O9 0.150557 0.651216 0.866415
O O10 0.233859 0.764238 0.105384
O O11 0.123541 0.548375 0.149401
O O12 0.715196 0.545696 0.308662
O O13 0.500000 0.000000 0.882277
#
# Coordination Sequence:
#
# PCOD9342328 Si02
#       6
#     4   4   4   4   4   4
#     4  11  23  40  65  95 132 175 225 273 332 399
#     4  10  23  41  65  98 130 171 221 273 333 398
#     4  11  24  42  65  94 135 176 224 277 333 398
#     4  11  24  41  61  96 132 176 224 275 335 394
#     4  11  22  41  65  94 130 175 221 275 334 398
#     4  10  22  41  63  93 130 168 217 271 331 396
#
# _framework density 23.239740999999999
#
# number of rings (size 3 to 8) (size 9 to 14) (size 15 to 20)
#    0.000    1.333    0.000    6.000    0.000    9.333 
#    0.000    0.000    0.000    0.000    0.000    0.000 
#    0.000    0.000    0.000    0.000    0.000    0.000 
#
# Total GULP energy -134096.967230 kJ/mol
# GULP energy per Si atom -5587.373635 kJ/mol
# Density = 2.318685 g / cm^3
# Si number density = 23.239741 Si / 1000 Ang^3
#
#
#
# Elastic Constant Matrix: (Units=GPa)
#
#
# Indices 1 2 3 4 5 6 
#
# 1 70.4929 18.6779 13.1569 0.0000 0.0000 0.0000
# 2 18.6779 132.2195 40.9904 0.0000 0.0000 0.0000
# 3 13.1569 40.9904 157.7744 0.0000 0.0000 0.0000
# 4 0.0000 0.0000 0.0000 45.0130 0.0000 0.0000
# 5 0.0000 0.0000 0.0000 0.0000 5.2682 0.0000
# 6 0.0000 0.0000 0.0000 0.0000 0.0000 36.2316
#
#
#
# Elastic Compliance Matrix: (Units=1/GPa)
#
#
# Indices 1 2 3 4 5 6 
#
# 1 0.014819 -0.001860 -0.000753 0.000000 0.000000 0.000000
# 2 -0.001860 0.008459 -0.002043 0.000000 0.000000 0.000000
# 3 -0.000753 -0.002043 0.006932 0.000000 0.000000 0.000000
# 4 0.000000 0.000000 0.000000 0.022216 0.000000 0.000000
# 5 0.000000 0.000000 0.000000 0.000000 0.189816 0.000000
# 6 0.000000 0.000000 0.000000 0.000000 0.000000 0.027600
#
#
# Mechanical properties :
#
#
# Convention : Reuss Voigt Hill
#
# Bulk Modulus (GPa) = 47.84817 56.23745 52.04281
# Shear Modulus (GPa) = 17.47523 36.48001 26.97762
#
# Velocity S-wave (km/s) = 2.74515 3.96627 3.41081
# Velocity P-wave (km/s) = 5.53909 6.72506 6.16068
#
# Compressibility (1/GPa) = 0.02089944
#
# Stress axis : x y z
#
# Youngs Moduli (GPa) = 67.48030 118.21452 144.26693
#
# Poissons Ratio (x) = 0.21989 0.10856
# Poissons Ratio (y) = 0.12552 0.29468
# Poissons Ratio (z) = 0.05078 0.24147
#
# Static dielectric constant tensor:
#      x y z
#    x 1.950690 0.000000 0.000000 
#    y 0.000000 1.890490 0.000000 
#    z 0.000000 0.000000 1.872800 
# 
# From -- ./inp_files/2634.got.cif
#   From: 2010.05.17/outbox.cif.g08.bks.cpg/sg30_2_cif.got.tgz:2634.got - 2010.06.03 17:03:02.
