data_PCOD9342019
_publ_section_title
;
Structure prediction by ZEFSAII (Michael W. Deem and Ramdas Pophale) SiO2 
 PCOD9342019
Probable space group: P N C 2
;
_chemical_formula_sum "Si O2"
_cell_formula_units_Z 22
_cell_length_a 8.338108
_cell_length_b 12.015681
_cell_length_c 8.538575
_cell_angle_alpha 90.000000
_cell_angle_beta 90.000000
_cell_angle_gamma 90.000000
_cell_volume 855.463144
_symmetry_space_group_name_H-M "P N C 2"
_symmetry_group_IT_number 30
_symmetry_cell_setting 'orthorhombic'
loop_
_space_group_symop_operation_xyz
x,y,z
-x,-y,z
-x,1/2+y,1/2+z
x,1/2-y,1/2+z
loop_
_atom_site_type_symbol
_atom_site_label
_atom_site_fract_x
_atom_site_fract_y
_atom_site_fract_z
Si Si1 0.343973 0.425284 0.336820
Si Si2 0.344360 0.078029 0.487599
Si Si3 0.769013 0.607603 0.670300
Si Si4 0.858900 0.353860 0.286150
Si Si5 0.000000 0.000000 0.559248
Si Si6 0.132660 0.645871 0.641339
O O1 0.500000 0.500000 0.374259
O O2 0.289773 0.361160 0.494172
O O3 0.223128 0.527106 0.302687
O O4 0.356135 0.369611 0.163535
O O5 0.338119 0.139113 0.319818
O O6 0.500000 0.000000 0.483695
O O7 0.174187 0.009260 0.479378
O O8 0.780512 0.472039 0.653414
O O9 0.952899 0.640870 0.710365
O O10 0.903846 0.327034 0.461279
O O11 0.770501 0.246990 0.217619
O O12 0.992773 0.386247 0.160577
#
# Coordination Sequence:
#
# PCOD9342019 Si02
#       6
#     4   4   4   4   2   4
#     4   9  19  37  60  84 117 164 207 255 312 373
#     4  10  20  34  64  91 112 155 206 250 305 365
#     4  10  20  37  58  86 123 162 201 250 309 371
#     4  10  21  35  60  89 120 159 212 255 309 377
#     4  10  20  38  62  84 122 164 200 256 308 368
#     4  10  21  34  57  91 119 158 206 253 306 373
#
# _framework density 25.717063
#
# number of rings (size 3 to 8) (size 9 to 14) (size 15 to 20)
#    0.000    2.182    0.000    4.909    7.636    0.000 
#    0.000    0.000    4.000    8.727    0.000    0.000 
#    0.000    0.000    0.000    0.000    0.000    0.000 
#
# Total GULP energy -122621.646679 kJ/mol
# GULP energy per Si atom -5573.711213 kJ/mol
# Density = 2.565853 g / cm^3
# Si number density = 25.717063 Si / 1000 Ang^3
#
#
#
# Elastic Constant Matrix: (Units=GPa)
#
#
# Indices 1 2 3 4 5 6 
#
# 1 86.6682 -5.9151 28.1822 0.0000 0.0000 0.0000
# 2 -5.9151 96.0866 45.2512 0.0000 0.0000 0.0000
# 3 28.1822 45.2512 219.3162 0.0000 0.0000 0.0000
# 4 0.0000 0.0000 0.0000 76.0988 0.0000 0.0000
# 5 0.0000 0.0000 0.0000 0.0000 27.4199 0.0000
# 6 0.0000 0.0000 0.0000 0.0000 0.0000 -7.7203
#
#
#
# Elastic Compliance Matrix: (Units=1/GPa)
#
#
# Indices 1 2 3 4 5 6 
#
# 1 0.012276 0.001660 -0.001920 0.000000 0.000000 0.000000
# 2 0.001660 0.011752 -0.002638 0.000000 0.000000 0.000000
# 3 -0.001920 -0.002638 0.005351 0.000000 0.000000 0.000000
# 4 0.000000 0.000000 0.000000 0.013141 0.000000 0.000000
# 5 0.000000 0.000000 0.000000 0.000000 0.036470 0.000000
# 6 0.000000 0.000000 0.000000 0.000000 0.000000 -0.129528
#
#
# Mechanical properties :
#
#
# Convention : Reuss Voigt Hill
#
# Bulk Modulus (GPa) = 42.40494 59.67861 51.04178
# Shear Modulus (GPa) = -135.56733 41.46319 -47.05207
#
# Velocity S-wave (km/s) = -7.26838 4.01968 -4.28203
# Velocity P-wave (km/s) = 7.34264 6.69328 2.13475
#
# Compressibility (1/GPa) = 0.02358216
#
# Stress axis : x y z
#
# Youngs Moduli (GPa) = 81.46071 85.09323 186.89359
#
# Poissons Ratio (x) = -0.14124 0.35882
# Poissons Ratio (y) = -0.13522 0.49303
# Poissons Ratio (z) = 0.15640 0.22448
#
# Static dielectric constant tensor:
#      x y z
#    x 1.755380 0.000000 0.000000 
#    y 0.000000 2.314420 0.000000 
#    z 0.000000 0.000000 2.145520 
# 
# From -- ./inp_files/1820.got.cif
#   From: 2010.05.17/outbox.cif.g08.bks.cpg/sg30_1_cif.got.tgz:1820.got - 2010.06.03 17:03:02.
