data_PCOD9342196
_publ_section_title
;
Structure prediction by ZEFSAII (Michael W. Deem and Ramdas Pophale) SiO2 
 PCOD9342196
Probable space group: P N C 2
;
_chemical_formula_sum "Si O2"
_cell_formula_units_Z 32
_cell_length_a 16.251924
_cell_length_b 10.658473
_cell_length_c 9.024323
_cell_angle_alpha 90.000000
_cell_angle_beta 90.000000
_cell_angle_gamma 90.000000
_cell_volume 1563.199485
_symmetry_space_group_name_H-M "P N C 2"
_symmetry_group_IT_number 30
_symmetry_cell_setting 'orthorhombic'
loop_
_space_group_symop_operation_xyz
x,y,z
-x,-y,z
-x,1/2+y,1/2+z
x,1/2-y,1/2+z
loop_
_atom_site_type_symbol
_atom_site_label
_atom_site_fract_x
_atom_site_fract_y
_atom_site_fract_z
Si Si1 0.266430 0.095932 0.276610
Si Si2 0.200094 0.896124 0.449102
Si Si3 0.202185 0.320239 0.480562
Si Si4 0.416083 0.576987 0.733977
Si Si5 0.774492 0.451592 0.259842
Si Si6 0.074472 0.782865 0.851353
Si Si7 0.648934 0.205624 0.929470
Si Si8 0.022996 0.133675 0.118794
O O1 0.230967 0.199771 0.387809
O O2 0.208555 0.973499 0.297193
O O3 0.353599 0.028136 0.299338
O O4 0.265114 0.152140 0.113361
O O5 0.218636 0.985211 0.587860
O O6 0.111838 0.833714 0.442659
O O7 0.270526 0.790071 0.468191
O O8 0.204873 0.434055 0.365205
O O9 0.113716 0.328157 0.562897
O O10 0.500000 0.500000 0.715491
O O11 0.412290 0.696157 0.847466
O O12 0.384715 0.634753 0.575622
O O13 0.845822 0.347444 0.280058
O O14 0.687502 0.393350 0.312039
O O15 0.009058 0.737920 0.732322
O O16 0.033196 0.869135 0.972557
O O17 0.000000 0.000000 0.191392
#
# Coordination Sequence:
#
# PCOD9342196 Si02
#       8
#     4   4   4   4   4   4   4   4
#     4  11  25  43  66  98 132 177 225 278 339 421
#     4  10  21  38  68  95 125 172 234 279 333 400
#     4  12  24  42  65  92 139 183 226 279 342 408
#     4  11  24  45  73 106 141 173 220 283 349 412
#     4  11  20  39  68  94 127 180 231 279 331 400
#     4  11  23  38  61  93 126 170 229 284 341 392
#     4  10  21  41  69 101 134 176 222 275 327 419
#     4  12  24  41  58  90 135 177 222 289 346 394
#
# _framework density 20.470835999999998
#
# number of rings (size 3 to 8) (size 9 to 14) (size 15 to 20)
#    0.000    1.000    5.000    2.250    0.000    1.000 
#    0.000    1.250    0.000    0.000    0.000    0.000 
#    0.000    0.000    0.000    0.000    0.000    0.000 
#
# Total GULP energy -178441.764036 kJ/mol
# GULP energy per Si atom -5576.305126 kJ/mol
# Density = 2.042424 g / cm^3
# Si number density = 20.470836 Si / 1000 Ang^3
#
#
#
# Elastic Constant Matrix: (Units=GPa)
#
#
# Indices 1 2 3 4 5 6 
#
# 1 69.9234 44.6695 18.3290 0.0000 0.0000 0.0000
# 2 44.6695 89.2811 33.4643 0.0000 0.0000 0.0000
# 3 18.3290 33.4643 75.2744 0.0000 0.0000 0.0000
# 4 0.0000 0.0000 0.0000 23.4351 0.0000 0.0000
# 5 0.0000 0.0000 0.0000 0.0000 22.7794 0.0000
# 6 0.0000 0.0000 0.0000 0.0000 0.0000 28.3938
#
#
#
# Elastic Compliance Matrix: (Units=1/GPa)
#
#
# Indices 1 2 3 4 5 6 
#
# 1 0.021038 -0.010326 -0.000532 0.000000 0.000000 0.000000
# 2 -0.010326 0.018509 -0.005714 0.000000 0.000000 0.000000
# 3 -0.000532 -0.005714 0.015954 0.000000 0.000000 0.000000
# 4 0.000000 0.000000 0.000000 0.042671 0.000000 0.000000
# 5 0.000000 0.000000 0.000000 0.000000 0.043899 0.000000
# 6 0.000000 0.000000 0.000000 0.000000 0.000000 0.035219
#
#
# Mechanical properties :
#
#
# Convention : Reuss Voigt Hill
#
# Bulk Modulus (GPa) = 44.72943 47.48938 46.10941
# Shear Modulus (GPa) = 22.94774 24.12272 23.53523
#
# Velocity S-wave (km/s) = 3.35176 3.43650 3.39439
# Velocity P-wave (km/s) = 6.07263 6.24459 6.15921
#
# Compressibility (1/GPa) = 0.02235665
#
# Stress axis : x y z
#
# Youngs Moduli (GPa) = 47.53402 54.02854 62.67849
#
# Poissons Ratio (x) = 0.55791 0.03334
# Poissons Ratio (y) = 0.49085 0.35814
# Poissons Ratio (z) = 0.02528 0.30871
#
# Static dielectric constant tensor:
#      x y z
#    x 1.727910 0.000000 0.000000 
#    y 0.000000 1.778810 0.000000 
#    z 0.000000 0.000000 1.762770 
# 
# From -- ./inp_files/2700.got.cif
#   From: 2010.05.17/outbox.cif.g08.bks.cpg/sg30_2_cif.got.tgz:2700.got - 2010.06.03 17:03:02.
