data_PCOD9342203
_publ_section_title
;
Structure prediction by ZEFSAII (Michael W. Deem and Ramdas Pophale) SiO2 
 PCOD9342203
Probable space group: P N C 2
;
_chemical_formula_sum "Si O2"
_cell_formula_units_Z 20
_cell_length_a 25.997892
_cell_length_b 7.348110
_cell_length_c 4.998824
_cell_angle_alpha 90.000000
_cell_angle_beta 90.000000
_cell_angle_gamma 90.000000
_cell_volume 954.952193
_symmetry_space_group_name_H-M "P N C 2"
_symmetry_group_IT_number 30
_symmetry_cell_setting 'orthorhombic'
loop_
_space_group_symop_operation_xyz
x,y,z
-x,-y,z
-x,1/2+y,1/2+z
x,1/2-y,1/2+z
loop_
_atom_site_type_symbol
_atom_site_label
_atom_site_fract_x
_atom_site_fract_y
_atom_site_fract_z
Si Si1 0.548433 0.129379 0.866220
Si Si2 0.759608 0.874593 0.804083
Si Si3 0.049606 0.125563 0.804860
Si Si4 0.146021 0.628936 0.174580
Si Si5 0.642201 0.872930 0.723750
O O1 0.546281 0.301562 0.669304
O O2 0.500000 0.000000 0.812069
O O3 0.600293 0.020752 0.800792
O O4 0.766664 0.705111 0.600490
O O5 0.700786 0.938146 0.765581
O O6 0.800605 0.027224 0.732845
O O7 0.048900 0.295756 0.603355
O O8 0.100143 0.008242 0.744914
O O9 0.000000 0.000000 0.759407
O O10 0.142200 0.801394 0.372116
O O11 0.635725 0.798694 0.424020
#
# Coordination Sequence:
#
# PCOD9342203 Si02
#       5
#     4   4   4   4   4
#     4  12  24  39  60  85 116 151 192 237 288 343
#     4  10  21  39  61  85 116 156 193 234 288 343
#     4  12  24  42  64  88 119 154 195 240 291 346
#     4  12  24  39  60  89 121 154 195 240 285 339
#     4  10  21  39  61  85 116 151 192 237 288 343
#
# _framework density 20.943456999999999
#
# number of rings (size 3 to 8) (size 9 to 14) (size 15 to 20)
#    0.000    0.800    0.000    8.400    0.000    1.600 
#    0.000    0.000    0.000    0.000    0.000    0.000 
#    0.000    0.000    0.000    0.000    0.000    0.000 
#
# Total GULP energy -112003.885973 kJ/mol
# GULP energy per Si atom -5600.194299 kJ/mol
# Density = 2.089579 g / cm^3
# Si number density = 20.943457 Si / 1000 Ang^3
#
#
#
# Elastic Constant Matrix: (Units=GPa)
#
#
# Indices 1 2 3 4 5 6 
#
# 1 101.5916 48.9332 -6.1481 0.0000 0.0000 0.0000
# 2 48.9332 46.2266 -19.6552 0.0000 0.0000 0.0000
# 3 -6.1481 -19.6552 50.5443 0.0000 0.0000 0.0000
# 4 0.0000 0.0000 0.0000 40.8555 0.0000 0.0000
# 5 0.0000 0.0000 0.0000 0.0000 21.7678 0.0000
# 6 0.0000 0.0000 0.0000 0.0000 0.0000 55.3354
#
#
#
# Elastic Compliance Matrix: (Units=1/GPa)
#
#
# Indices 1 2 3 4 5 6 
#
# 1 0.022371 -0.026986 -0.007773 0.000000 0.000000 0.000000
# 2 -0.026986 0.058471 0.019455 0.000000 0.000000 0.000000
# 3 -0.007773 0.019455 0.026405 0.000000 0.000000 0.000000
# 4 0.000000 0.000000 0.000000 0.024477 0.000000 0.000000
# 5 0.000000 0.000000 0.000000 0.000000 0.045939 0.000000
# 6 0.000000 0.000000 0.000000 0.000000 0.000000 0.018072
#
#
# Mechanical properties :
#
#
# Convention : Reuss Voigt Hill
#
# Bulk Modulus (GPa) = 13.04817 27.18027 20.11422
# Shear Modulus (GPa) = 19.85006 35.27392 27.56199
#
# Velocity S-wave (km/s) = 3.08196 4.10841 3.63163
# Velocity P-wave (km/s) = 4.34838 5.95915 5.21631
#
# Compressibility (1/GPa) = 0.07663912
#
# Stress axis : x y z
#
# Youngs Moduli (GPa) = 44.70031 17.10252 37.87203
#
# Poissons Ratio (x) = 0.46153 0.29438
# Poissons Ratio (y) = 1.20629 -0.73681
# Poissons Ratio (z) = 0.34745 -0.33273
#
# Static dielectric constant tensor:
#      x y z
#    x 1.713880 0.000000 0.000000 
#    y 0.000000 1.711450 0.000000 
#    z 0.000000 0.000000 1.713180 
# 
# From -- ./inp_files/1069.got.cif
#   From: 2010.05.17/outbox.cif.g08.bks.cpg/sg30_1_cif.got.tgz:1069.got - 2010.06.03 17:03:02.
