data_PCOD9342351
_publ_section_title
;
Structure prediction by ZEFSAII (Michael W. Deem and Ramdas Pophale) SiO2 
 PCOD9342351
Probable space group: P N C 2
;
_chemical_formula_sum "Si O2"
_cell_formula_units_Z 26
_cell_length_a 13.404665
_cell_length_b 9.143806
_cell_length_c 8.892895
_cell_angle_alpha 90.000000
_cell_angle_beta 90.000000
_cell_angle_gamma 90.000000
_cell_volume 1089.999083
_symmetry_space_group_name_H-M "P N C 2"
_symmetry_group_IT_number 30
_symmetry_cell_setting 'orthorhombic'
loop_
_space_group_symop_operation_xyz
x,y,z
-x,-y,z
-x,1/2+y,1/2+z
x,1/2-y,1/2+z
loop_
_atom_site_type_symbol
_atom_site_label
_atom_site_fract_x
_atom_site_fract_y
_atom_site_fract_z
Si Si1 0.848989 0.920221 0.671580
Si Si2 0.153436 0.892176 0.953496
Si Si3 0.500000 0.000000 0.823204
Si Si4 0.375212 0.815605 0.057617
Si Si5 0.976013 0.297176 0.725216
Si Si6 0.364743 0.039645 0.563709
Si Si7 0.000000 0.500000 0.974300
Si Si8 0.500000 0.500000 0.798981
O O1 0.905853 0.046548 0.575377
O O2 0.935006 0.800693 0.658776
O O3 0.840023 0.965373 0.845688
O O4 0.744973 0.899342 0.589970
O O5 0.110181 0.777452 0.829708
O O6 0.261849 0.863021 0.022420
O O7 0.077411 0.886912 0.092727
O O8 0.573832 0.915927 0.710772
O O9 0.560207 0.115404 0.922572
O O10 0.367832 0.639276 0.066928
O O11 0.429774 0.893541 0.199364
O O12 0.036405 0.383300 0.853667
O O13 0.423175 0.081185 0.412832
#
# Coordination Sequence:
#
# PCOD9342351 Si02
#       8
#     4   4   2   4   4   4   2   2
#     4  12  25  48  74 111 151 197 261 316 383 452
#     4  12  24  44  77 106 147 198 253 312 379 454
#     4  10  22  42  68 104 142 180 246 306 370 450
#     4  11  23  43  74 107 139 190 250 306 381 459
#     4  12  26  45  73 114 147 199 249 316 367 470
#     4  11  23  46  75 101 146 199 241 319 385 441
#     4  12  26  44  72 104 154 196 248 306 388 450
#     4  10  26  42  72 112 144 184 258 316 370 468
#
# _framework density 23.85323
#
# number of rings (size 3 to 8) (size 9 to 14) (size 15 to 20)
#    0.000    0.615    4.615    2.769    6.462    0.000 
#    0.000    6.154    6.769    0.000    0.000    0.000 
#    0.000    0.000    0.000    0.000    0.000    0.000 
#
# Total GULP energy -145130.383344 kJ/mol
# GULP energy per Si atom -5581.937821 kJ/mol
# Density = 2.379894 g / cm^3
# Si number density = 23.853230 Si / 1000 Ang^3
#
#
#
# Elastic Constant Matrix: (Units=GPa)
#
#
# Indices 1 2 3 4 5 6 
#
# 1 221.3292 41.3025 86.9154 0.0000 0.0000 0.0000
# 2 41.3025 42.0170 29.3667 0.0000 0.0000 0.0000
# 3 86.9154 29.3667 191.5216 0.0000 0.0000 0.0000
# 4 0.0000 0.0000 0.0000 21.6291 0.0000 0.0000
# 5 0.0000 0.0000 0.0000 0.0000 26.3121 0.0000
# 6 0.0000 0.0000 0.0000 0.0000 0.0000 19.0326
#
#
#
# Elastic Compliance Matrix: (Units=1/GPa)
#
#
# Indices 1 2 3 4 5 6 
#
# 1 0.006210 -0.004631 -0.002108 0.000000 0.000000 0.000000
# 2 -0.004631 0.030110 -0.002515 0.000000 0.000000 0.000000
# 3 -0.002108 -0.002515 0.006564 0.000000 0.000000 0.000000
# 4 0.000000 0.000000 0.000000 0.046234 0.000000 0.000000
# 5 0.000000 0.000000 0.000000 0.000000 0.038005 0.000000
# 6 0.000000 0.000000 0.000000 0.000000 0.000000 0.052541
#
#
# Mechanical properties :
#
#
# Convention : Reuss Voigt Hill
#
# Bulk Modulus (GPa) = 41.02552 85.55966 63.29259
# Shear Modulus (GPa) = 24.23663 33.21364 28.72514
#
# Velocity S-wave (km/s) = 3.19105 3.73556 3.47399
# Velocity P-wave (km/s) = 5.55099 7.38600 6.53324
#
# Compressibility (1/GPa) = 0.02437507
#
# Stress axis : x y z
#
# Youngs Moduli (GPa) = 161.02364 33.21128 152.35215
#
# Poissons Ratio (x) = 0.15381 0.32119
# Poissons Ratio (y) = 0.74573 0.38320
# Poissons Ratio (z) = 0.33947 0.08353
#
# Static dielectric constant tensor:
#      x y z
#    x 1.880460 0.000000 0.000000 
#    y 0.000000 2.253670 0.000000 
#    z 0.000000 0.000000 1.921150 
# 
# From -- ./inp_files/2403.got.cif
#   From: 2010.05.17/outbox.cif.g08.bks.cpg/sg30_2_cif.got.tgz:2403.got - 2010.06.03 17:03:02.
