data_PCOD9342578
_publ_section_title
;
Structure prediction by ZEFSAII (Michael W. Deem and Ramdas Pophale) SiO2 
 PCOD9342578
Probable space group: P N C 2
;
_chemical_formula_sum "Si O2"
_cell_formula_units_Z 26
_cell_length_a 7.485286
_cell_length_b 15.339423
_cell_length_c 9.971330
_cell_angle_alpha 90.000000
_cell_angle_beta 90.000000
_cell_angle_gamma 90.000000
_cell_volume 1144.907794
_symmetry_space_group_name_H-M "P N C 2"
_symmetry_group_IT_number 30
_symmetry_cell_setting 'orthorhombic'
loop_
_space_group_symop_operation_xyz
x,y,z
-x,-y,z
-x,1/2+y,1/2+z
x,1/2-y,1/2+z
loop_
_atom_site_type_symbol
_atom_site_label
_atom_site_fract_x
_atom_site_fract_y
_atom_site_fract_z
Si Si1 0.797693 0.849314 0.497740
Si Si2 0.526334 0.103150 0.684311
Si Si3 0.000000 0.000000 0.341093
Si Si4 0.797691 0.150685 0.184445
Si Si5 0.473666 0.396850 0.497870
Si Si6 0.902039 0.833203 0.963557
Si Si7 0.097964 0.833202 0.718628
O O1 0.608245 0.857343 0.573783
O O2 0.822691 0.760230 0.413004
O O3 0.940482 0.831282 0.613271
O O4 0.868021 0.935248 0.423027
O O5 0.500000 0.131432 0.841090
O O6 0.732000 0.121719 0.653215
O O7 0.500000 0.000000 0.681968
O O8 0.868017 0.064750 0.259159
O O9 0.822685 0.239769 0.269181
O O10 0.608244 0.142656 0.108398
O O11 0.940484 0.168717 0.068918
O O12 0.500000 0.500000 0.500211
O O13 0.268000 0.378282 0.528966
O O14 0.000005 0.880716 0.841093
#
# Coordination Sequence:
#
# PCOD9342578 Si02
#       7
#     4   4   2   4   4   4   4
#     4  11  24  43  68  98 143 183 233 291 361 431
#     4  11  23  41  65  99 133 175 238 295 347 415
#     4  12  24  44  68 108 152 192 232 302 374 436
#     4  11  24  43  68  98 143 183 233 291 361 431
#     4  11  23  41  65  99 133 175 238 295 347 415
#     4  11  22  44  70  99 134 188 238 291 354 429
#     4  11  22  44  70  99 134 188 238 291 354 429
#
# _framework density 22.709254000000001
#
# number of rings (size 3 to 8) (size 9 to 14) (size 15 to 20)
#    0.000    0.923    4.615    2.769    0.000    0.000 
#    0.000    6.923    0.000    0.000    0.000    0.000 
#    0.000    0.000    0.000    0.000    0.000    0.000 
#
# Total GULP energy -145080.505686 kJ/mol
# GULP energy per Si atom -5580.019449 kJ/mol
# Density = 2.265757 g / cm^3
# Si number density = 22.709254 Si / 1000 Ang^3
#
#
#
# Elastic Constant Matrix: (Units=GPa)
#
#
# Indices 1 2 3 4 5 6 
#
# 1 172.1296 17.9605 18.1110 0.0000 0.0000 0.0000
# 2 17.9605 83.4863 2.4996 0.0000 0.0000 0.0000
# 3 18.1110 2.4996 43.9494 0.0000 0.0000 0.0000
# 4 0.0000 0.0000 0.0000 22.3705 0.0000 0.0000
# 5 0.0000 0.0000 0.0000 0.0000 46.0860 0.0000
# 6 0.0000 0.0000 0.0000 0.0000 0.0000 127.0571
#
#
#
# Elastic Compliance Matrix: (Units=1/GPa)
#
#
# Indices 1 2 3 4 5 6 
#
# 1 0.006202 -0.001260 -0.002484 0.000000 0.000000 0.000000
# 2 -0.001260 0.012254 -0.000178 0.000000 0.000000 0.000000
# 3 -0.002484 -0.000178 0.023787 0.000000 0.000000 0.000000
# 4 0.000000 0.000000 0.000000 0.044702 0.000000 0.000000
# 5 0.000000 0.000000 0.000000 0.000000 0.021699 0.000000
# 6 0.000000 0.000000 0.000000 0.000000 0.000000 0.007870
#
#
# Mechanical properties :
#
#
# Convention : Reuss Voigt Hill
#
# Bulk Modulus (GPa) = 29.06963 41.85638 35.46300
# Shear Modulus (GPa) = 36.81193 56.50234 46.65714
#
# Velocity S-wave (km/s) = 4.03055 4.99347 4.53762
# Velocity P-wave (km/s) = 5.87273 7.19151 6.56532
#
# Compressibility (1/GPa) = 0.03440016
#
# Stress axis : x y z
#
# Youngs Moduli (GPa) = 161.22708 81.60336 42.03924
#
# Poissons Ratio (x) = 0.10282 0.10444
# Poissons Ratio (y) = 0.20314 0.00747
# Poissons Ratio (z) = 0.40053 0.01450
#
# Static dielectric constant tensor:
#      x y z
#    x 2.562610 0.000000 0.000000 
#    y 0.000000 2.006640 0.000000 
#    z 0.000000 0.000000 1.896150 
# 
# From -- ./inp_files/3164.got.cif
#   From: 2010.05.17/outbox.cif.g08.bks.cpg/sg30_2_cif.got.tgz:3164.got - 2010.06.03 17:03:02.
