data_PCOD9342988
_publ_section_title
;
Structure prediction by ZEFSAII (Michael W. Deem and Ramdas Pophale) SiO2 
 PCOD9342988
Probable space group: P M N 21
;
_chemical_formula_sum "Si O2"
_cell_formula_units_Z 32
_cell_length_a 7.732800
_cell_length_b 12.089791
_cell_length_c 15.775019
_cell_angle_alpha 90.000000
_cell_angle_beta 90.000000
_cell_angle_gamma 90.000000
_cell_volume 1474.773964
_symmetry_space_group_name_H-M "P M N 21"
_symmetry_group_IT_number 31
_symmetry_cell_setting 'orthorhombic'
loop_
_space_group_symop_operation_xyz
x,y,z
1/2-x,-y,1/2+z
-x,y,z
1/2+x,-y,1/2+z
loop_
_atom_site_type_symbol
_atom_site_label
_atom_site_fract_x
_atom_site_fract_y
_atom_site_fract_z
Si Si1 0.288455 0.244968 0.478440
Si Si2 0.288351 0.218505 0.665558
Si Si3 0.200289 0.583821 0.837126
Si Si4 0.299419 0.748200 0.696025
Si Si5 0.700508 0.334737 0.835039
Si Si6 0.208237 0.007748 0.239611
Si Si7 0.294427 0.996913 0.434073
Si Si8 0.299124 0.231371 0.007303
O O1 0.500000 0.244641 0.474725
O O2 0.233849 0.265560 0.575013
O O3 0.229818 0.335615 0.410878
O O4 0.232506 0.121001 0.453593
O O5 0.500000 0.221212 0.664894
O O6 0.226079 0.284348 0.748220
O O7 0.235538 0.090522 0.677489
O O8 0.211392 0.652709 0.750248
O O9 0.291792 0.466470 0.832177
O O10 0.000000 0.559997 0.855972
O O11 0.500000 0.746261 0.721574
O O12 0.225313 0.869634 0.719170
O O13 0.287389 0.736087 0.595302
O O14 0.500000 0.297583 0.836850
O O15 0.776638 0.289000 0.922952
O O16 0.000000 0.012428 0.233551
O O17 0.256236 0.975294 0.335279
O O18 0.500000 0.993980 0.448637
O O19 0.215590 0.899763 0.490347
O O20 0.500000 0.262219 0.015602
#
# Coordination Sequence:
#
# PCOD9342988 Si02
#       8
#     4   4   4   4   4   4   4   4
#     4   9  19  35  58  86 116 153 192 237 293 352
#     4   9  17  35  60  84 113 150 194 238 291 352
#     4  11  23  40  60  86 120 157 201 254 302 351
#     4  11  23  39  63  91 120 158 203 248 301 363
#     4  10  22  40  61  84 114 157 203 249 295 351
#     4  10  19  35  60  88 119 155 193 241 299 357
#     4  11  20  34  59  90 123 154 195 242 294 362
#     4  11  23  40  61  89 125 160 199 247 303 358
#
# _framework density 21.698239000000001
#
# number of rings (size 3 to 8) (size 9 to 14) (size 15 to 20)
#    0.000    1.750    2.500    2.250    0.000    4.500 
#    0.000    1.250    0.000    3.750    0.000    0.000 
#    0.000    0.000    0.000    0.000    0.000    0.000 
#
# Total GULP energy -178849.036611 kJ/mol
# GULP energy per Si atom -5589.032394 kJ/mol
# Density = 2.164885 g / cm^3
# Si number density = 21.698239 Si / 1000 Ang^3
#
#
#
# Elastic Constant Matrix: (Units=GPa)
#
#
# Indices 1 2 3 4 5 6 
#
# 1 34.8593 -6.3824 -11.6578 0.0000 0.0000 0.0000
# 2 -6.3824 95.6999 36.0078 0.0000 0.0000 0.0000
# 3 -11.6578 36.0078 111.7570 0.0000 0.0000 0.0000
# 4 0.0000 0.0000 0.0000 3.0879 0.0000 0.0000
# 5 0.0000 0.0000 0.0000 0.0000 54.1522 0.0000
# 6 0.0000 0.0000 0.0000 0.0000 0.0000 51.3697
#
#
#
# Elastic Compliance Matrix: (Units=1/GPa)
#
#
# Indices 1 2 3 4 5 6 
#
# 1 0.029796 0.000931 0.002808 0.000000 0.000000 0.000000
# 2 0.000931 0.011920 -0.003744 0.000000 0.000000 0.000000
# 3 0.002808 -0.003744 0.010447 0.000000 0.000000 0.000000
# 4 0.000000 0.000000 0.000000 0.323843 0.000000 0.000000
# 5 0.000000 0.000000 0.000000 0.000000 0.018466 0.000000
# 6 0.000000 0.000000 0.000000 0.000000 0.000000 0.019467
#
#
# Mechanical properties :
#
#
# Convention : Reuss Voigt Hill
#
# Bulk Modulus (GPa) = 19.17400 30.91683 25.04542
# Shear Modulus (GPa) = 11.59196 36.67853 24.13525
#
# Velocity S-wave (km/s) = 2.31386 4.11590 3.33875
# Velocity P-wave (km/s) = 3.99931 6.07182 5.14108
#
# Compressibility (1/GPa) = 0.05215396
#
# Stress axis : x y z
#
# Youngs Moduli (GPa) = 33.56126 83.89321 95.72049
#
# Poissons Ratio (x) = -0.07806 -0.26882
# Poissons Ratio (y) = -0.03123 0.35833
# Poissons Ratio (z) = -0.09425 0.31405
#
# Static dielectric constant tensor:
#      x y z
#    x 1.699580 0.000000 0.000000 
#    y 0.000000 1.764140 0.000000 
#    z 0.000000 0.000000 1.781790 
# 
# From -- ./inp_files/4962.got.cif
#   From: 2010.05.17/outbox.cif.g08.bks.cpg/sg31_3_cif.got.tgz:4962.got - 2010.06.03 17:08:30.
