data_PCOD9342032
_publ_section_title
;
Structure prediction by ZEFSAII (Michael W. Deem and Ramdas Pophale) SiO2 
 PCOD9342032
Probable space group: P N C 2
;
_chemical_formula_sum "Si O2"
_cell_formula_units_Z 22
_cell_length_a 6.585777
_cell_length_b 12.115471
_cell_length_c 12.181949
_cell_angle_alpha 90.000000
_cell_angle_beta 90.000000
_cell_angle_gamma 90.000000
_cell_volume 971.995156
_symmetry_space_group_name_H-M "P N C 2"
_symmetry_group_IT_number 30
_symmetry_cell_setting 'orthorhombic'
loop_
_space_group_symop_operation_xyz
x,y,z
-x,-y,z
-x,1/2+y,1/2+z
x,1/2-y,1/2+z
loop_
_atom_site_type_symbol
_atom_site_label
_atom_site_fract_x
_atom_site_fract_y
_atom_site_fract_z
Si Si1 0.986963 0.312685 0.423520
Si Si2 0.000000 0.000000 0.750556
Si Si3 0.410497 0.097819 0.708084
Si Si4 0.323299 0.170808 0.311811
Si Si5 0.408138 0.809285 0.504652
Si Si6 0.664679 0.904213 0.072488
O O1 0.804522 0.249710 0.483066
O O2 0.921893 0.399310 0.328582
O O3 0.119140 0.212436 0.371215
O O4 0.127843 0.388081 0.503662
O O5 0.178707 0.061911 0.684524
O O6 0.409612 0.212012 0.769766
O O7 0.564800 0.110266 0.607253
O O8 0.500000 0.000000 0.781770
O O9 0.491712 0.133309 0.398760
O O10 0.291878 0.097813 0.203542
O O11 0.554400 0.709100 0.539652
O O12 0.500000 0.000000 0.049546
#
# Coordination Sequence:
#
# PCOD9342032 Si02
#       6
#     4   2   4   4   4   4
#     4  10  20  36  61  88 121 162 207 253 304 369
#     4  10  20  36  60  88 116 158 210 254 302 364
#     4  10  21  35  57  84 114 154 204 256 303 357
#     4   9  21  37  55  83 119 158 200 249 305 368
#     4  10  21  37  57  84 118 160 203 250 306 365
#     4  10  21  37  59  89 122 156 203 257 307 361
#
# _framework density 22.633859000000001
#
# number of rings (size 3 to 8) (size 9 to 14) (size 15 to 20)
#    0.000    2.182    0.000    2.182    0.000   14.545 
#    0.000    0.000    0.000    9.818    0.000    0.000 
#    0.000    0.000    0.000    0.000    0.000    0.000 
#
# Total GULP energy -122639.968834 kJ/mol
# GULP energy per Si atom -5574.544038 kJ/mol
# Density = 2.258234 g / cm^3
# Si number density = 22.633859 Si / 1000 Ang^3
#
#
#
# Elastic Constant Matrix: (Units=GPa)
#
#
# Indices 1 2 3 4 5 6 
#
# 1 93.4228 16.2467 50.7759 0.0000 0.0000 0.0000
# 2 16.2467 65.2042 8.5030 0.0000 0.0000 0.0000
# 3 50.7759 8.5030 109.3220 0.0000 0.0000 0.0000
# 4 0.0000 0.0000 0.0000 15.3576 0.0000 0.0000
# 5 0.0000 0.0000 0.0000 0.0000 16.8418 0.0000
# 6 0.0000 0.0000 0.0000 0.0000 0.0000 28.7949
#
#
#
# Elastic Compliance Matrix: (Units=1/GPa)
#
#
# Indices 1 2 3 4 5 6 
#
# 1 0.014816 -0.002823 -0.006662 0.000000 0.000000 0.000000
# 2 -0.002823 0.016031 0.000064 0.000000 0.000000 0.000000
# 3 -0.006662 0.000064 0.012236 0.000000 0.000000 0.000000
# 4 0.000000 0.000000 0.000000 0.065114 0.000000 0.000000
# 5 0.000000 0.000000 0.000000 0.000000 0.059376 0.000000
# 6 0.000000 0.000000 0.000000 0.000000 0.000000 0.034728
#
#
# Mechanical properties :
#
#
# Convention : Reuss Voigt Hill
#
# Bulk Modulus (GPa) = 41.24954 46.55558 43.90256
# Shear Modulus (GPa) = 21.81275 25.02710 23.41992
#
# Velocity S-wave (km/s) = 3.10776 3.32887 3.22021
# Velocity P-wave (km/s) = 5.58048 5.94885 5.76761
#
# Compressibility (1/GPa) = 0.02424270
#
# Stress axis : x y z
#
# Youngs Moduli (GPa) = 67.49638 62.37754 81.72331
#
# Poissons Ratio (x) = 0.17608 0.54442
# Poissons Ratio (y) = 0.19053 -0.00524
# Poissons Ratio (z) = 0.44964 -0.00400
#
# Static dielectric constant tensor:
#      x y z
#    x 1.904020 0.000000 0.000000 
#    y 0.000000 1.845620 0.000000 
#    z 0.000000 0.000000 1.942930 
# 
# From -- ./inp_files/3094.got.cif
#   From: 2010.05.17/outbox.cif.g08.bks.cpg/sg30_2_cif.got.tgz:3094.got - 2010.06.03 17:03:02.
