data_PCOD9342869
_publ_section_title
;
Structure prediction by ZEFSAII (Michael W. Deem and Ramdas Pophale) SiO2 
 PCOD9342869
Probable space group: P M N 21
;
_chemical_formula_sum "Si O2"
_cell_formula_units_Z 32
_cell_length_a 8.782824
_cell_length_b 10.544580
_cell_length_c 19.711810
_cell_angle_alpha 90.000000
_cell_angle_beta 90.000000
_cell_angle_gamma 90.000000
_cell_volume 1825.534187
_symmetry_space_group_name_H-M "P M N 21"
_symmetry_group_IT_number 31
_symmetry_cell_setting 'orthorhombic'
loop_
_space_group_symop_operation_xyz
x,y,z
1/2-x,-y,1/2+z
-x,y,z
1/2+x,-y,1/2+z
loop_
_atom_site_type_symbol
_atom_site_label
_atom_site_fract_x
_atom_site_fract_y
_atom_site_fract_z
Si Si1 0.818139 0.983400 0.274790
Si Si2 0.816225 0.628153 0.479771
Si Si3 0.317975 0.887474 0.985783
Si Si4 0.182122 0.734710 0.774365
Si Si5 0.818924 0.980287 0.118578
Si Si6 0.318622 0.872797 0.405764
Si Si7 0.682866 0.260530 0.120570
Si Si8 0.683611 0.630723 0.907064
O O1 0.785902 0.946959 0.196854
O O2 0.741913 0.892708 0.329598
O O3 0.000000 0.986190 0.284759
O O4 0.753995 0.125666 0.284965
O O5 0.746527 0.745978 0.439319
O O6 0.775986 0.646461 0.559101
O O7 0.768271 0.495415 0.446861
O O8 0.000000 0.635538 0.475158
O O9 0.500000 0.901166 0.981906
O O10 0.264313 0.894540 0.063387
O O11 0.274113 0.756803 0.949180
O O12 0.242385 0.006140 0.947655
O O13 0.220692 0.695898 0.696943
O O14 0.245896 0.644085 0.832502
O O15 0.000000 0.744359 0.779999
O O16 0.000000 0.975416 0.108151
O O17 0.762085 0.124918 0.108910
O O18 0.500000 0.871746 0.407296
O O19 0.500000 0.240193 0.118340
O O20 0.500000 0.629595 0.901226
#
# Coordination Sequence:
#
# PCOD9342869 Si02
#       8
#     4   4   4   4   4   4   4   4
#     4  10  20  35  55  81 114 150 186 230 286 338
#     4  10  21  39  59  80 111 152 191 231 279 340
#     4  11  21  35  56  81 113 151 186 227 279 335
#     4  10  19  32  54  83 111 143 186 236 284 331
#     4  10  20  33  54  84 114 143 185 236 281 331
#     4  12  23  35  56  86 113 143 186 235 283 331
#     4   9  18  33  55  80 108 144 185 229 283 338
#     4  10  22  38  57  81 112 154 195 226 277 342
#
# _framework density 17.529116999999999
#
# number of rings (size 3 to 8) (size 9 to 14) (size 15 to 20)
#    0.000    1.750    2.500    2.625    0.000    3.000 
#    0.000    1.250    0.000    1.500    0.000    0.000 
#    0.000    0.000    0.000    0.000    0.000    0.000 
#
# Total GULP energy -178673.327587 kJ/mol
# GULP energy per Si atom -5583.541487 kJ/mol
# Density = 1.748922 g / cm^3
# Si number density = 17.529117 Si / 1000 Ang^3
#
#
#
# Elastic Constant Matrix: (Units=GPa)
#
#
# Indices 1 2 3 4 5 6 
#
# 1 39.9350 37.5688 48.3097 0.0000 0.0000 0.0000
# 2 37.5688 110.1778 78.0138 0.0000 0.0000 0.0000
# 3 48.3097 78.0138 155.2004 0.0000 0.0000 0.0000
# 4 0.0000 0.0000 0.0000 29.0771 0.0000 0.0000
# 5 0.0000 0.0000 0.0000 0.0000 31.9138 0.0000
# 6 0.0000 0.0000 0.0000 0.0000 0.0000 7.4190
#
#
#
# Elastic Compliance Matrix: (Units=1/GPa)
#
#
# Indices 1 2 3 4 5 6 
#
# 1 0.044622 -0.008354 -0.009691 0.000000 0.000000 0.000000
# 2 -0.008354 0.015656 -0.005269 0.000000 0.000000 0.000000
# 3 -0.009691 -0.005269 0.012108 0.000000 0.000000 0.000000
# 4 0.000000 0.000000 0.000000 0.034391 0.000000 0.000000
# 5 0.000000 0.000000 0.000000 0.000000 0.031334 0.000000
# 6 0.000000 0.000000 0.000000 0.000000 0.000000 0.134790
#
#
# Mechanical properties :
#
#
# Convention : Reuss Voigt Hill
#
# Bulk Modulus (GPa) = 38.82120 70.34419 54.58269
# Shear Modulus (GPa) = 15.23853 23.11003 19.17428
#
# Velocity S-wave (km/s) = 2.95163 3.63489 3.31093
# Velocity P-wave (km/s) = 5.81472 7.60484 6.76922
#
# Compressibility (1/GPa) = 0.02575912
#
# Stress axis : x y z
#
# Youngs Moduli (GPa) = 22.41028 63.87401 82.58759
#
# Poissons Ratio (x) = 0.53360 0.80032
# Poissons Ratio (y) = 0.18721 0.43518
# Poissons Ratio (z) = 0.21717 0.33657
#
# Static dielectric constant tensor:
#      x y z
#    x 1.585370 0.000000 0.000000 
#    y 0.000000 1.558220 0.000000 
#    z 0.000000 0.000000 1.625840 
# 
# From -- ./inp_files/6252.got.cif
#   From: 2010.05.17/outbox.cif.g08.bks.cpg/sg31_4_cif.got.tgz:6252.got - 2010.06.03 17:08:30.
