data_PCOD9342854
_publ_section_title
;
Structure prediction by ZEFSAII (Michael W. Deem and Ramdas Pophale) SiO2 
 PCOD9342854
Probable space group: P M N 21
;
_chemical_formula_sum "Si O2"
_cell_formula_units_Z 32
_cell_length_a 7.363272
_cell_length_b 12.528415
_cell_length_c 14.552707
_cell_angle_alpha 90.000000
_cell_angle_beta 90.000000
_cell_angle_gamma 90.000000
_cell_volume 1342.489074
_symmetry_space_group_name_H-M "P M N 21"
_symmetry_group_IT_number 31
_symmetry_cell_setting 'orthorhombic'
loop_
_space_group_symop_operation_xyz
x,y,z
1/2-x,-y,1/2+z
-x,y,z
1/2+x,-y,1/2+z
loop_
_atom_site_type_symbol
_atom_site_label
_atom_site_fract_x
_atom_site_fract_y
_atom_site_fract_z
Si Si1 0.217524 0.395981 0.241020
Si Si2 0.277848 0.367970 0.751420
Si Si3 0.220565 0.652721 0.039006
Si Si4 0.702517 0.222818 0.904942
Si Si5 0.781227 0.420969 0.024301
Si Si6 0.209909 0.847740 0.764763
Si Si7 0.212153 0.916069 0.566492
Si Si8 0.279839 0.123511 0.462989
O O1 0.281116 0.511464 0.278974
O O2 0.258910 0.401610 0.131806
O O3 0.285831 0.281372 0.275230
O O4 0.000000 0.393114 0.250677
O O5 0.500000 0.368099 0.756654
O O6 0.228445 0.349657 0.645911
O O7 0.211708 0.269346 0.812596
O O8 0.278792 0.539780 0.998044
O O9 0.000000 0.652354 0.036445
O O10 0.283510 0.758635 0.990002
O O11 0.500000 0.181928 0.882143
O O12 0.692458 0.330926 0.964191
O O13 0.792906 0.141796 0.976235
O O14 0.000000 0.413049 0.014520
O O15 0.289004 0.881498 0.665503
O O16 0.284966 0.898284 0.858765
O O17 0.000000 0.881571 0.760913
O O18 0.000000 0.882654 0.567947
O O19 0.223726 0.039596 0.540477
O O20 0.500000 0.123836 0.461357
#
# Coordination Sequence:
#
# PCOD9342854 Si02
#       8
#     4   4   4   4   4   4   4   4
#     4   9  17  31  52  79 109 142 180 221 263 316
#     4   8  16  30  50  78 111 142 178 221 263 315
#     4   8  16  33  52  75 107 139 174 222 271 312
#     4  10  19  32  52  78 107 144 179 214 269 325
#     4   9  17  30  51  78 108 139 173 218 265 316
#     4  10  21  37  55  80 112 141 174 227 283 324
#     4  10  22  39  55  76 112 149 181 226 278 323
#     4  10  22  38  59  82 104 142 191 231 270 321
#
# _framework density 23.836320000000001
#
# number of rings (size 3 to 8) (size 9 to 14) (size 15 to 20)
#    0.000    2.750    1.250    1.500    1.750    2.500 
#    0.000    1.875    0.000    2.250    0.000    0.000 
#    0.000    0.000    0.000    0.000    0.000    0.000 
#
# Total GULP energy -178645.774647 kJ/mol
# GULP energy per Si atom -5582.680458 kJ/mol
# Density = 2.378207 g / cm^3
# Si number density = 23.836320 Si / 1000 Ang^3
#
#
#
# Elastic Constant Matrix: (Units=GPa)
#
#
# Indices 1 2 3 4 5 6 
#
# 1 84.0467 -9.0658 0.9971 0.0000 0.0000 0.0000
# 2 -9.0658 80.6263 19.8115 0.0000 0.0000 0.0000
# 3 0.9971 19.8115 81.9034 0.0000 0.0000 0.0000
# 4 0.0000 0.0000 0.0000 34.5388 0.0000 0.0000
# 5 0.0000 0.0000 0.0000 0.0000 -6.1098 0.0000
# 6 0.0000 0.0000 0.0000 0.0000 0.0000 13.2162
#
#
#
# Elastic Compliance Matrix: (Units=1/GPa)
#
#
# Indices 1 2 3 4 5 6 
#
# 1 0.012064 0.001481 -0.000505 0.000000 0.000000 0.000000
# 2 0.001481 0.013368 -0.003252 0.000000 0.000000 0.000000
# 3 -0.000505 -0.003252 0.013002 0.000000 0.000000 0.000000
# 4 0.000000 0.000000 0.000000 0.028953 0.000000 0.000000
# 5 0.000000 0.000000 0.000000 0.000000 -0.163671 0.000000
# 6 0.000000 0.000000 0.000000 0.000000 0.000000 0.075664
#
#
# Mechanical properties :
#
#
# Convention : Reuss Voigt Hill
#
# Bulk Modulus (GPa) = 29.51403 30.00690 29.76047
# Shear Modulus (GPa) = -1047.58459 23.98462 -511.79999
#
# Velocity S-wave (km/s) = -20.98678 3.17554 -14.66903
# Velocity P-wave (km/s) = 23.97605 5.10504 16.56487
#
# Compressibility (1/GPa) = 0.03388219
#
# Stress axis : x y z
#
# Youngs Moduli (GPa) = 82.89237 74.80334 76.91006
#
# Poissons Ratio (x) = -0.11075 0.03884
# Poissons Ratio (y) = -0.12273 0.25009
# Poissons Ratio (z) = 0.04186 0.24324
#
# Static dielectric constant tensor:
#      x y z
#    x 1.897560 0.000000 0.000000 
#    y 0.000000 1.886420 0.000000 
#    z 0.000000 0.000000 1.923510 
# 
# From -- ./inp_files/4950.got.cif
#   From: 2010.05.17/outbox.cif.g08.bks.cpg/sg31_3_cif.got.tgz:4950.got - 2010.06.03 17:08:30.
