data_PCOD9342667
_publ_section_title
;
Structure prediction by ZEFSAII (Michael W. Deem and Ramdas Pophale) SiO2 
 PCOD9342667
Probable space group: P N C 2
;
_chemical_formula_sum "Si O2"
_cell_formula_units_Z 14
_cell_length_a 4.798736
_cell_length_b 12.014247
_cell_length_c 8.794395
_cell_angle_alpha 90.000000
_cell_angle_beta 90.000000
_cell_angle_gamma 90.000000
_cell_volume 507.025010
_symmetry_space_group_name_H-M "P N C 2"
_symmetry_group_IT_number 30
_symmetry_cell_setting 'orthorhombic'
loop_
_space_group_symop_operation_xyz
x,y,z
-x,-y,z
-x,1/2+y,1/2+z
x,1/2-y,1/2+z
loop_
_atom_site_type_symbol
_atom_site_label
_atom_site_fract_x
_atom_site_fract_y
_atom_site_fract_z
Si Si1 0.167899 0.388299 0.156260
Si Si2 0.500000 0.500000 0.887090
Si Si3 0.663507 0.888285 0.973924
Si Si4 0.201398 0.670587 0.654436
O O1 0.374522 0.372611 0.296792
O O2 0.000000 0.500000 0.198480
O O3 0.958413 0.285630 0.181413
O O4 0.305994 0.422897 0.995423
O O5 0.301961 0.585752 0.789028
O O6 0.500000 0.000000 0.015061
O O7 0.483593 0.799310 0.065986
O O8 0.973393 0.883649 0.039282
#
# Coordination Sequence:
#
# PCOD9342667 Si02
#       4
#     4   2   4   4
#     4  12  32  57  92 141 188 250 322 394 481 570
#     4  12  32  60  94 144 194 248 332 394 472 578
#     4  12  28  58  90 130 188 251 309 387 479 567
#     4  12  32  57  94 136 191 250 313 397 479 568
#
# _framework density 27.612053
#
# number of rings (size 3 to 8) (size 9 to 14) (size 15 to 20)
#    0.000    0.000    2.857    2.571   12.000    2.286 
#    5.143    2.857    0.000    0.000    0.000    0.000 
#    0.000    0.000    0.000    0.000    0.000    0.000 
#
# Total GULP energy -78372.954746 kJ/mol
# GULP energy per Si atom -5598.068196 kJ/mol
# Density = 2.754921 g / cm^3
# Si number density = 27.612053 Si / 1000 Ang^3
#
#
#
# Elastic Constant Matrix: (Units=GPa)
#
#
# Indices 1 2 3 4 5 6 
#
# 1 183.7096 42.2896 86.5014 0.0000 0.0000 0.0000
# 2 42.2896 194.3589 91.9070 0.0000 0.0000 0.0000
# 3 86.5014 91.9070 208.8593 0.0000 0.0000 0.0000
# 4 0.0000 0.0000 0.0000 1330.8422 0.0000 0.0000
# 5 0.0000 0.0000 0.0000 0.0000 -60.0330 0.0000
# 6 0.0000 0.0000 0.0000 0.0000 0.0000 47.0701
#
#
#
# Elastic Compliance Matrix: (Units=1/GPa)
#
#
# Indices 1 2 3 4 5 6 
#
# 1 0.006767 -0.000186 -0.002721 0.000000 0.000000 0.000000
# 2 -0.000186 0.006502 -0.002784 0.000000 0.000000 0.000000
# 3 -0.002721 -0.002784 0.007140 0.000000 0.000000 0.000000
# 4 0.000000 0.000000 0.000000 0.000751 0.000000 0.000000
# 5 0.000000 0.000000 0.000000 0.000000 -0.016658 0.000000
# 6 0.000000 0.000000 0.000000 0.000000 0.000000 0.021245
#
#
# Mechanical properties :
#
#
# Convention : Reuss Voigt Hill
#
# Bulk Modulus (GPa) = 110.77391 114.25822 112.51607
# Shear Modulus (GPa) = 124.56502 287.99118 206.27810
#
# Velocity S-wave (km/s) = 6.72387 10.22377 8.65263
# Velocity P-wave (km/s) = 10.02426 13.44757 11.86007
#
# Compressibility (1/GPa) = 0.00902740
#
# Stress axis : x y z
#
# Youngs Moduli (GPa) = 147.76807 153.79517 140.05486
#
# Poissons Ratio (x) = 0.02857 0.38109
# Poissons Ratio (y) = 0.02745 0.38995
# Poissons Ratio (z) = 0.40208 0.42821
#
# Static dielectric constant tensor:
#      x y z
#    x 2.463230 0.000000 0.000000 
#    y 0.000000 -3.796080 0.000000 
#    z 0.000000 0.000000 2.108860 
# 
# From -- ./inp_files/1189.got.cif
#   From: 2010.05.17/outbox.cif.g08.bks.cpg/sg30_1_cif.got.tgz:1189.got - 2010.06.03 17:03:02.
