data_PCOD9342476
_publ_section_title
;
Structure prediction by ZEFSAII (Michael W. Deem and Ramdas Pophale) SiO2 
 PCOD9342476
Probable space group: P N C 2
;
_chemical_formula_sum "Si O2"
_cell_formula_units_Z 14
_cell_length_a 7.329383
_cell_length_b 8.409902
_cell_length_c 9.826683
_cell_angle_alpha 90.000000
_cell_angle_beta 90.000000
_cell_angle_gamma 90.000000
_cell_volume 605.710773
_symmetry_space_group_name_H-M "P N C 2"
_symmetry_group_IT_number 30
_symmetry_cell_setting 'orthorhombic'
loop_
_space_group_symop_operation_xyz
x,y,z
-x,-y,z
-x,1/2+y,1/2+z
x,1/2-y,1/2+z
loop_
_atom_site_type_symbol
_atom_site_label
_atom_site_fract_x
_atom_site_fract_y
_atom_site_fract_z
Si Si1 0.267080 0.230462 0.454340
Si Si2 0.030247 0.318620 0.701272
Si Si3 0.794348 0.432486 0.109473
Si Si4 0.500000 0.500000 0.336837
O O1 0.196126 0.297347 0.597012
O O2 0.105440 0.252897 0.343302
O O3 0.439276 0.338890 0.414427
O O4 0.285656 0.039911 0.486055
O O5 0.000000 0.500000 0.732356
O O6 0.850904 0.251631 0.622865
O O7 0.667352 0.461651 0.237629
O O8 0.000000 0.500000 0.126921
#
# Coordination Sequence:
#
# PCOD9342476 Si02
#       4
#     4   4   4   2
#     4  11  24  47  72 112 147 195 260 303 378 452
#     4  11  24  45  76 106 148 199 252 307 385 443
#     4  10  23  49  72 103 155 192 247 316 366 450
#     4  12  24  46  74 110 152 196 248 318 372 450
#
# _framework density 23.113341999999999
#
# number of rings (size 3 to 8) (size 9 to 14) (size 15 to 20)
#    0.000    1.143    5.714    2.571    4.000    2.286 
#   10.286    0.000    0.000    0.000    0.000    0.000 
#    0.000    0.000    0.000    0.000    0.000    0.000 
#
# Total GULP energy -77937.006022 kJ/mol
# GULP energy per Si atom -5566.929002 kJ/mol
# Density = 2.306073 g / cm^3
# Si number density = 23.113342 Si / 1000 Ang^3
#
#
#
# Elastic Constant Matrix: (Units=GPa)
#
#
# Indices 1 2 3 4 5 6 
#
# 1 93.8698 43.5463 25.0305 0.0000 0.0000 0.0000
# 2 43.5463 115.6036 20.8096 0.0000 0.0000 0.0000
# 3 25.0305 20.8096 102.5241 0.0000 0.0000 0.0000
# 4 0.0000 0.0000 0.0000 -4.3659 0.0000 0.0000
# 5 0.0000 0.0000 0.0000 0.0000 23.6314 0.0000
# 6 0.0000 0.0000 0.0000 0.0000 0.0000 32.7831
#
#
#
# Elastic Compliance Matrix: (Units=1/GPa)
#
#
# Indices 1 2 3 4 5 6 
#
# 1 0.013427 -0.004637 -0.002337 0.000000 0.000000 0.000000
# 2 -0.004637 0.010580 -0.001015 0.000000 0.000000 0.000000
# 3 -0.002337 -0.001015 0.010530 0.000000 0.000000 0.000000
# 4 0.000000 0.000000 0.000000 -0.229049 0.000000 0.000000
# 5 0.000000 0.000000 0.000000 0.000000 0.042316 0.000000
# 6 0.000000 0.000000 0.000000 0.000000 0.000000 0.030503
#
#
# Mechanical properties :
#
#
# Convention : Reuss Voigt Hill
#
# Bulk Modulus (GPa) = 53.88312 54.53003 54.20657
# Shear Modulus (GPa) = -50.23803 25.25048 -12.49377
#
# Velocity S-wave (km/s) = -4.66719 3.30883 -2.32748
# Velocity P-wave (km/s) = 2.38336 6.18397 4.03491
#
# Compressibility (1/GPa) = 0.01855869
#
# Stress axis : x y z
#
# Youngs Moduli (GPa) = 74.47434 94.51984 94.96287
#
# Poissons Ratio (x) = 0.43831 0.22193
# Poissons Ratio (y) = 0.34536 0.09641
# Poissons Ratio (z) = 0.17405 0.09596
#
# Static dielectric constant tensor:
#      x y z
#    x 1.883580 0.000000 0.000000 
#    y 0.000000 2.178020 0.000000 
#    z 0.000000 0.000000 1.821120 
# 
# From -- ./inp_files/1525.got.cif
#   From: 2010.05.17/outbox.cif.g08.bks.cpg/sg30_1_cif.got.tgz:1525.got - 2010.06.03 17:03:02.
