data_PCOD9342088
_publ_section_title
;
Structure prediction by ZEFSAII (Michael W. Deem and Ramdas Pophale) SiO2 
 PCOD9342088
Probable space group: P N C 2
;
_chemical_formula_sum "Si O2"
_cell_formula_units_Z 28
_cell_length_a 7.772385
_cell_length_b 8.148960
_cell_length_c 20.574795
_cell_angle_alpha 90.000000
_cell_angle_beta 90.000000
_cell_angle_gamma 90.000000
_cell_volume 1303.142797
_symmetry_space_group_name_H-M "P N C 2"
_symmetry_group_IT_number 30
_symmetry_cell_setting 'orthorhombic'
loop_
_space_group_symop_operation_xyz
x,y,z
-x,-y,z
-x,1/2+y,1/2+z
x,1/2-y,1/2+z
loop_
_atom_site_type_symbol
_atom_site_label
_atom_site_fract_x
_atom_site_fract_y
_atom_site_fract_z
Si Si1 0.259627 0.170266 0.336190
Si Si2 0.389067 0.770258 0.762886
Si Si3 0.956277 0.157379 0.234716
Si Si4 0.000000 0.500000 0.160355
Si Si5 0.615000 0.164090 0.003096
Si Si6 0.500000 0.000000 0.431702
Si Si7 0.652779 0.390468 0.117310
Si Si8 0.293623 0.516733 0.382984
O O1 0.427378 0.218129 0.291426
O O2 0.334386 0.032867 0.384908
O O3 0.220239 0.336646 0.376567
O O4 0.089179 0.148095 0.294156
O O5 0.243258 0.634652 0.753686
O O6 0.402252 0.844202 0.690895
O O7 0.291682 0.890312 0.814123
O O8 0.985947 0.333401 0.202105
O O9 0.000000 0.000000 0.190669
O O10 0.825531 0.496496 0.119888
O O11 0.679521 0.233605 0.071742
O O12 0.500000 0.000000 0.016738
O O13 0.526593 0.326239 0.969112
O O14 0.755103 0.111309 0.948426
O O15 0.500000 0.500000 0.090410
O O16 0.500000 0.500000 0.391517
#
# Coordination Sequence:
#
# PCOD9342088 Si02
#       8
#     4   4   4   2   4   2   4   4
#     4  11  20  37  67  93 127 167 213 265 333 393
#     4  10  20  39  62  99 127 163 212 269 326 395
#     4  11  23  38  62  99 133 166 212 270 331 392
#     4  10  24  48  60  94 148 170 210 290 334 396
#     4  11  22  42  62  97 132 173 226 280 323 401
#     4  12  20  38  66  94 128 174 214 274 332 386
#     4  11  22  41  71  95 128 180 223 264 341 397
#     4   9  17  36  64  85 127 165 200 265 334 371
#
# _framework density 21.486518
#
# number of rings (size 3 to 8) (size 9 to 14) (size 15 to 20)
#    0.000    1.429    5.000    4.714    0.000    0.000 
#   11.571    1.429    0.000    0.000    0.000    0.000 
#    0.000    0.000    0.000    0.000    0.000    0.000 
#
# Total GULP energy -155939.081376 kJ/mol
# GULP energy per Si atom -5569.252906 kJ/mol
# Density = 2.143761 g / cm^3
# Si number density = 21.486518 Si / 1000 Ang^3
#
#
#
# Elastic Constant Matrix: (Units=GPa)
#
#
# Indices 1 2 3 4 5 6 
#
# 1 93.6043 26.9341 14.9119 0.0000 0.0000 0.0000
# 2 26.9341 114.2150 32.8756 0.0000 0.0000 0.0000
# 3 14.9119 32.8756 102.3134 0.0000 0.0000 0.0000
# 4 0.0000 0.0000 0.0000 11.9086 0.0000 0.0000
# 5 0.0000 0.0000 0.0000 0.0000 -90.3688 0.0000
# 6 0.0000 0.0000 0.0000 0.0000 0.0000 30.0595
#
#
#
# Elastic Compliance Matrix: (Units=1/GPa)
#
#
# Indices 1 2 3 4 5 6 
#
# 1 0.011534 -0.002464 -0.000889 0.000000 0.000000 0.000000
# 2 -0.002464 0.010174 -0.002910 0.000000 0.000000 0.000000
# 3 -0.000889 -0.002910 0.010839 0.000000 0.000000 0.000000
# 4 0.000000 0.000000 0.000000 0.083973 0.000000 0.000000
# 5 0.000000 0.000000 0.000000 0.000000 -0.011066 0.000000
# 6 0.000000 0.000000 0.000000 0.000000 0.000000 0.033267
#
#
# Mechanical properties :
#
#
# Convention : Reuss Voigt Hill
#
# Bulk Modulus (GPa) = 49.95013 51.06399 50.50706
# Shear Modulus (GPa) = 31.66145 6.01393 18.83769
#
# Velocity S-wave (km/s) = 3.84285 1.67482 2.96416
# Velocity P-wave (km/s) = 6.55650 5.24950 5.93906
#
# Compressibility (1/GPa) = 0.02001997
#
# Stress axis : x y z
#
# Youngs Moduli (GPa) = 86.70072 98.28886 92.26302
#
# Poissons Ratio (x) = 0.24218 0.08205
# Poissons Ratio (y) = 0.21363 0.26849
# Poissons Ratio (z) = 0.07710 0.28603
#
# Static dielectric constant tensor:
#      x y z
#    x 1.830560 0.000000 0.000000 
#    y 0.000000 1.936550 0.000000 
#    z 0.000000 0.000000 1.887600 
# 
# From -- ./inp_files/6954.got.cif
#   From: 2010.05.17/outbox.cif.g08.bks.cpg/sg30_4_cif.got.tgz:6954.got - 2010.06.03 17:03:02.
