data_PCOD9342146
_publ_section_title
;
Structure prediction by ZEFSAII (Michael W. Deem and Ramdas Pophale) SiO2 
 PCOD9342146
Probable space group: P N C 2
;
_chemical_formula_sum "Si O2"
_cell_formula_units_Z 14
_cell_length_a 7.507058
_cell_length_b 13.320675
_cell_length_c 5.279234
_cell_angle_alpha 90.000000
_cell_angle_beta 90.000000
_cell_angle_gamma 90.000000
_cell_volume 527.918542
_symmetry_space_group_name_H-M "P N C 2"
_symmetry_group_IT_number 30
_symmetry_cell_setting 'orthorhombic'
loop_
_space_group_symop_operation_xyz
x,y,z
-x,-y,z
-x,1/2+y,1/2+z
x,1/2-y,1/2+z
loop_
_atom_site_type_symbol
_atom_site_label
_atom_site_fract_x
_atom_site_fract_y
_atom_site_fract_z
Si Si1 0.530875 0.620859 0.626060
Si Si2 0.661134 0.579285 0.125937
Si Si3 0.000000 0.000000 0.341717
Si Si4 0.868760 0.191885 0.044637
O O1 0.500000 0.500000 0.661096
O O2 0.671858 0.628775 0.399787
O O3 0.343508 0.670155 0.557903
O O4 0.600870 0.652593 0.900651
O O5 0.500000 0.500000 0.161456
O O6 0.833510 0.523749 0.021984
O O7 0.956415 0.092815 0.159794
O O8 0.911058 0.277037 0.256731
#
# Coordination Sequence:
#
# PCOD9342146 Si02
#       4
#     4   4   2   4
#     4  10  20  44  71 103 144 194 257 309 403 457
#     4  10  21  40  76 109 134 208 250 312 406 459
#     4  12  26  50  84 110 172 204 274 344 394 484
#     4  12  28  48  76 118 162 213 267 337 404 470
#
# _framework density 26.519241000000001
#
# number of rings (size 3 to 8) (size 9 to 14) (size 15 to 20)
#    0.000    1.143    5.714    1.714    4.000    4.571 
#    0.000    8.571    0.000    0.000    0.000    0.000 
#    0.000    0.000    0.000    0.000    0.000    0.000 
#
# Total GULP energy -78499.716918 kJ/mol
# GULP energy per Si atom -5607.122637 kJ/mol
# Density = 2.645888 g / cm^3
# Si number density = 26.519241 Si / 1000 Ang^3
#
#
#
# Elastic Constant Matrix: (Units=GPa)
#
#
# Indices 1 2 3 4 5 6 
#
# 1 136.1414 24.2312 9.7487 0.0000 0.0000 0.0000
# 2 24.2312 115.0962 -1.5291 0.0000 0.0000 0.0000
# 3 9.7487 -1.5291 168.9055 0.0000 0.0000 0.0000
# 4 0.0000 0.0000 0.0000 6.9334 0.0000 0.0000
# 5 0.0000 0.0000 0.0000 0.0000 16.2633 0.0000
# 6 0.0000 0.0000 0.0000 0.0000 0.0000 42.4813
#
#
#
# Elastic Compliance Matrix: (Units=1/GPa)
#
#
# Indices 1 2 3 4 5 6 
#
# 1 0.007666 -0.001620 -0.000457 0.000000 0.000000 0.000000
# 2 -0.001620 0.009032 0.000175 0.000000 0.000000 0.000000
# 3 -0.000457 0.000175 0.005948 0.000000 0.000000 0.000000
# 4 0.000000 0.000000 0.000000 0.144230 0.000000 0.000000
# 5 0.000000 0.000000 0.000000 0.000000 0.061488 0.000000
# 6 0.000000 0.000000 0.000000 0.000000 0.000000 0.023540
#
#
# Mechanical properties :
#
#
# Convention : Reuss Voigt Hill
#
# Bulk Modulus (GPa) = 53.07091 53.89384 53.48237
# Shear Modulus (GPa) = 19.08474 38.98176 29.03325
#
# Velocity S-wave (km/s) = 2.68555 3.83814 3.31236
# Velocity P-wave (km/s) = 5.44719 6.32522 5.90256
#
# Compressibility (1/GPa) = 0.01884272
#
# Stress axis : x y z
#
# Youngs Moduli (GPa) = 130.43954 110.72011 168.11126
#
# Poissons Ratio (x) = 0.17937 0.07685
# Poissons Ratio (y) = 0.21132 -0.02947
# Poissons Ratio (z) = 0.05963 -0.01941
#
# Static dielectric constant tensor:
#      x y z
#    x 2.077750 0.000000 0.000000 
#    y 0.000000 1.973030 0.000000 
#    z 0.000000 0.000000 2.124950 
# 
# From -- ./inp_files/283.got.cif
#   From: 2010.05.17/outbox.cif.g08.bks.cpg/sg30_1_cif.got.tgz:283.got - 2010.06.03 17:03:02.
