data_PCOD9342820
_publ_section_title
;
Structure prediction by ZEFSAII (Michael W. Deem and Ramdas Pophale) SiO2 
 PCOD9342820
Probable space group: P M N 21
;
_chemical_formula_sum "Si O2"
_cell_formula_units_Z 24
_cell_length_a 9.136355
_cell_length_b 9.383397
_cell_length_c 16.941125
_cell_angle_alpha 90.000000
_cell_angle_beta 90.000000
_cell_angle_gamma 90.000000
_cell_volume 1452.363427
_symmetry_space_group_name_H-M "P M N 21"
_symmetry_group_IT_number 31
_symmetry_cell_setting 'orthorhombic'
loop_
_space_group_symop_operation_xyz
x,y,z
1/2-x,-y,1/2+z
-x,y,z
1/2+x,-y,1/2+z
loop_
_atom_site_type_symbol
_atom_site_label
_atom_site_fract_x
_atom_site_fract_y
_atom_site_fract_z
Si Si1 0.175682 0.836427 0.843280
Si Si2 0.323431 0.176561 0.521590
Si Si3 0.175320 0.656721 0.689989
Si Si4 0.166777 0.103919 0.101518
Si Si5 0.323826 0.671717 0.169160
Si Si6 0.831725 0.912704 0.261433
O O1 0.218865 0.725448 0.774428
O O2 0.000000 0.856507 0.838499
O O3 0.253285 0.986185 0.824524
O O4 0.209706 0.784933 0.931458
O O5 0.500000 0.186684 0.534609
O O6 0.241256 0.270328 0.586613
O O7 0.283150 0.010147 0.536386
O O8 0.239633 0.758053 0.621924
O O9 0.218888 0.492659 0.681623
O O10 0.000000 0.662927 0.686002
O O11 0.000000 0.146358 0.084557
O O12 0.167506 0.008145 0.181297
O O13 0.500000 0.683882 0.168947
O O14 0.256619 0.771871 0.237412
O O15 0.000000 0.881702 0.281804
#
# Coordination Sequence:
#
# PCOD9342820 Si02
#       6
#     4   4   4   4   4   4
#     4   9  17  32  52  71  94 124 159 201 245 286
#     4   9  18  32  50  72  95 122 160 202 243 287
#     4   9  18  31  48  70  94 124 160 194 233 285
#     4   8  15  28  46  67  89 115 150 190 230 276
#     4  10  19  31  48  70  97 128 161 195 234 284
#     4   9  17  30  48  70  93 119 156 194 231 280
#
# _framework density 16.524791
#
# number of rings (size 3 to 8) (size 9 to 14) (size 15 to 20)
#    0.000    3.000    0.000    2.000    0.000    6.000 
#    0.000    1.667    0.000    8.000    0.000    0.000 
#    0.000    0.000    0.000    0.000    0.000    0.000 
#
# Total GULP energy -133630.295050 kJ/mol
# GULP energy per Si atom -5567.928960 kJ/mol
# Density = 1.648718 g / cm^3
# Si number density = 16.524791 Si / 1000 Ang^3
#
#
#
# Elastic Constant Matrix: (Units=GPa)
#
#
# Indices 1 2 3 4 5 6 
#
# 1 42.5608 51.2832 29.7406 0.0000 0.0000 0.0000
# 2 51.2832 139.4662 43.1298 0.0000 0.0000 0.0000
# 3 29.7406 43.1298 72.4652 0.0000 0.0000 0.0000
# 4 0.0000 0.0000 0.0000 15.7573 0.0000 0.0000
# 5 0.0000 0.0000 0.0000 0.0000 17.2385 0.0000
# 6 0.0000 0.0000 0.0000 0.0000 0.0000 26.0865
#
#
#
# Elastic Compliance Matrix: (Units=1/GPa)
#
#
# Indices 1 2 3 4 5 6 
#
# 1 0.048913 -0.014435 -0.011483 0.000000 0.000000 0.000000
# 2 -0.014435 0.013047 -0.001841 0.000000 0.000000 0.000000
# 3 -0.011483 -0.001841 0.019609 0.000000 0.000000 0.000000
# 4 0.000000 0.000000 0.000000 0.063463 0.000000 0.000000
# 5 0.000000 0.000000 0.000000 0.000000 0.058010 0.000000
# 6 0.000000 0.000000 0.000000 0.000000 0.000000 0.038334
#
#
# Mechanical properties :
#
#
# Convention : Reuss Voigt Hill
#
# Bulk Modulus (GPa) = 38.38721 55.86659 47.12690
# Shear Modulus (GPa) = 16.36248 20.50571 18.43410
#
# Velocity S-wave (km/s) = 3.15012 3.52647 3.34360
# Velocity P-wave (km/s) = 6.04248 7.10369 6.59447
#
# Compressibility (1/GPa) = 0.02605034
#
# Stress axis : x y z
#
# Youngs Moduli (GPa) = 20.44451 76.64354 50.99819
#
# Poissons Ratio (x) = 1.10632 0.58562
# Poissons Ratio (y) = 0.29511 0.09391
# Poissons Ratio (z) = 0.23477 0.14113
#
# Static dielectric constant tensor:
#      x y z
#    x 1.560590 0.000000 0.000000 
#    y 0.000000 1.547850 0.000000 
#    z 0.000000 0.000000 1.566160 
# 
# From -- ./inp_files/5693.got.cif
#   From: 2010.05.17/outbox.cif.g08.bks.cpg/sg31_3_cif.got.tgz:5693.got - 2010.06.03 17:08:30.
