data_PCOD9342741
_publ_section_title
;
Structure prediction by ZEFSAII (Michael W. Deem and Ramdas Pophale) SiO2 
 PCOD9342741
Probable space group: P M N 21
;
_chemical_formula_sum "Si O2"
_cell_formula_units_Z 32
_cell_length_a 7.567930
_cell_length_b 14.937841
_cell_length_c 12.991248
_cell_angle_alpha 90.000000
_cell_angle_beta 90.000000
_cell_angle_gamma 90.000000
_cell_volume 1468.641555
_symmetry_space_group_name_H-M "P M N 21"
_symmetry_group_IT_number 31
_symmetry_cell_setting 'orthorhombic'
loop_
_space_group_symop_operation_xyz
x,y,z
1/2-x,-y,1/2+z
-x,y,z
1/2+x,-y,1/2+z
loop_
_atom_site_type_symbol
_atom_site_label
_atom_site_fract_x
_atom_site_fract_y
_atom_site_fract_z
Si Si1 0.211694 0.366066 0.145310
Si Si2 0.715818 0.864088 0.941093
Si Si3 0.211760 0.757833 0.467314
Si Si4 0.711439 0.670170 0.872595
Si Si5 0.286625 0.445435 0.576554
Si Si6 0.286904 0.056918 0.868549
Si Si7 0.707424 0.838484 0.174983
Si Si8 0.198111 0.657435 0.274901
O O1 0.278490 0.366020 0.262835
O O2 0.275413 0.452097 0.080788
O O3 0.000000 0.373778 0.150271
O O4 0.251404 0.276611 0.081326
O O5 0.500000 0.864269 0.935166
O O6 0.777264 0.771613 0.890039
O O7 0.778405 0.958877 0.898088
O O8 0.764412 0.859019 0.060533
O O9 0.275386 0.857433 0.436669
O O10 0.282418 0.684092 0.384509
O O11 0.000000 0.758664 0.452950
O O12 0.500000 0.675766 0.863599
O O13 0.742618 0.609522 0.973606
O O14 0.500000 0.442205 0.581777
O O15 0.220103 0.402392 0.684481
O O16 0.500000 0.055701 0.876804
O O17 0.235269 0.080299 0.752426
O O18 0.500000 0.814203 0.173322
O O19 0.809594 0.754626 0.221333
O O20 0.000000 0.621399 0.294817
#
# Coordination Sequence:
#
# PCOD9342741 Si02
#       8
#     4   4   4   4   4   4   4   4
#     4  10  23  38  55  81 116 149 182 230 282 332
#     4   9  18  34  56  80 108 142 182 226 277 330
#     4   9  19  35  56  79 107 147 188 222 271 331
#     4  10  21  39  60  83 111 147 185 228 285 337
#     4  10  21  37  56  81 110 142 183 230 276 329
#     4   9  19  36  55  77 110 152 188 223 276 339
#     4  10  18  31  52  81 108 135 182 236 275 319
#     4   9  18  34  56  78 104 142 182 225 276 331
#
# _framework density 21.788841999999999
#
# number of rings (size 3 to 8) (size 9 to 14) (size 15 to 20)
#    0.000    2.500    1.250    1.125    1.750    4.000 
#    0.000    1.875    0.000    0.000    0.000    0.000 
#    0.000    0.000    0.000    0.000    0.000    0.000 
#
# Total GULP energy -178497.721094 kJ/mol
# GULP energy per Si atom -5578.053784 kJ/mol
# Density = 2.173925 g / cm^3
# Si number density = 21.788842 Si / 1000 Ang^3
#
#
#
# Elastic Constant Matrix: (Units=GPa)
#
#
# Indices 1 2 3 4 5 6 
#
# 1 52.8010 3.4904 2.7271 0.0000 0.0000 0.0000
# 2 3.4904 117.2306 65.6637 0.0000 0.0000 0.0000
# 3 2.7271 65.6637 105.2669 0.0000 0.0000 0.0000
# 4 0.0000 0.0000 0.0000 28.3545 0.0000 0.0000
# 5 0.0000 0.0000 0.0000 0.0000 19.1485 0.0000
# 6 0.0000 0.0000 0.0000 0.0000 0.0000 14.0263
#
#
#
# Elastic Compliance Matrix: (Units=1/GPa)
#
#
# Indices 1 2 3 4 5 6 
#
# 1 0.018980 -0.000445 -0.000214 0.000000 0.000000 0.000000
# 2 -0.000445 0.013122 -0.008174 0.000000 0.000000 0.000000
# 3 -0.000214 -0.008174 0.014604 0.000000 0.000000 0.000000
# 4 0.000000 0.000000 0.000000 0.035268 0.000000 0.000000
# 5 0.000000 0.000000 0.000000 0.000000 0.052223 0.000000
# 6 0.000000 0.000000 0.000000 0.000000 0.000000 0.071295
#
#
# Mechanical properties :
#
#
# Convention : Reuss Voigt Hill
#
# Bulk Modulus (GPa) = 34.43596 46.56231 40.49914
# Shear Modulus (GPa) = 21.47436 25.86702 23.67069
#
# Velocity S-wave (km/s) = 3.14278 3.44927 3.29958
# Velocity P-wave (km/s) = 5.38592 6.10569 5.75706
#
# Compressibility (1/GPa) = 0.02903941
#
# Stress axis : x y z
#
# Youngs Moduli (GPa) = 52.68840 76.20998 68.47575
#
# Poissons Ratio (x) = 0.03393 0.01465
# Poissons Ratio (y) = 0.02346 0.55969
# Poissons Ratio (z) = 0.01127 0.62290
#
# Static dielectric constant tensor:
#      x y z
#    x 1.838120 0.000000 0.000000 
#    y 0.000000 1.796020 0.000000 
#    z 0.000000 0.000000 1.804340 
# 
# From -- ./inp_files/3624.got.cif
#   From: 2010.05.17/outbox.cif.g08.bks.cpg/sg31_2_cif.got.tgz:3624.got - 2010.06.03 17:08:30.
