data_PCOD9342262
_publ_section_title
;
Structure prediction by ZEFSAII (Michael W. Deem and Ramdas Pophale) SiO2 
 PCOD9342262
Probable space group: P N C 2
;
_chemical_formula_sum "Si O2"
_cell_formula_units_Z 26
_cell_length_a 5.922081
_cell_length_b 17.116285
_cell_length_c 11.830533
_cell_angle_alpha 90.000000
_cell_angle_beta 90.000000
_cell_angle_gamma 90.000000
_cell_volume 1199.190457
_symmetry_space_group_name_H-M "P N C 2"
_symmetry_group_IT_number 30
_symmetry_cell_setting 'orthorhombic'
loop_
_space_group_symop_operation_xyz
x,y,z
-x,-y,z
-x,1/2+y,1/2+z
x,1/2-y,1/2+z
loop_
_atom_site_type_symbol
_atom_site_label
_atom_site_fract_x
_atom_site_fract_y
_atom_site_fract_z
Si Si1 0.286792 0.862300 0.650350
Si Si2 0.500000 0.000000 0.021345
Si Si3 0.358945 0.116110 0.845240
Si Si4 0.000000 0.000000 0.373183
Si Si5 0.294152 0.861200 0.402591
Si Si6 0.000000 0.500000 0.244643
Si Si7 0.944482 0.750185 0.779999
Si Si8 0.317530 0.395079 0.720512
O O1 0.497138 0.867545 0.734016
O O2 0.379235 0.838669 0.526831
O O3 0.157256 0.944370 0.669761
O O4 0.101390 0.801316 0.697628
O O5 0.349628 0.049383 0.111909
O O6 0.527858 0.074126 0.934767
O O7 0.220398 0.196908 0.858554
O O8 0.163822 0.052618 0.821611
O O9 0.850845 0.943499 0.297783
O O10 0.169839 0.942154 0.432673
O O11 0.462005 0.879415 0.298621
O O12 0.115214 0.798093 0.359104
O O13 0.797431 0.689264 0.706175
#
# Coordination Sequence:
#
# PCOD9342262 Si02
#       8
#     4   2   4   2   4   2   4   4
#     4  11  23  44  67  96 134 179 230 292 344 429
#     4  12  24  46  78 104 150 180 240 312 352 422
#     4  11  24  46  69 106 137 187 234 293 357 425
#     4  10  21  43  66 100 126 173 231 272 358 416
#     4  11  23  44  67  96 134 179 230 292 344 429
#     4  10  21  43  66 100 126 173 231 272 358 416
#     4  10  26  46  64 102 140 186 244 278 372 422
#     4  11  24  46  69 106 137 187 234 293 357 425
#
# _framework density 21.681291000000002
#
# number of rings (size 3 to 8) (size 9 to 14) (size 15 to 20)
#    0.000    1.231    3.077    1.385    2.154    8.000 
#    8.308    0.000    0.000    0.000    0.000    0.000 
#    0.000    0.000    0.000    0.000    0.000    0.000 
#
# Total GULP energy -144769.676525 kJ/mol
# GULP energy per Si atom -5568.064482 kJ/mol
# Density = 2.163194 g / cm^3
# Si number density = 21.681291 Si / 1000 Ang^3
#
#
#
# Elastic Constant Matrix: (Units=GPa)
#
#
# Indices 1 2 3 4 5 6 
#
# 1 78.4107 30.1311 9.8981 0.0000 0.0000 0.0000
# 2 30.1311 110.4000 4.1203 0.0000 0.0000 0.0000
# 3 9.8981 4.1203 74.8396 0.0000 0.0000 0.0000
# 4 0.0000 0.0000 0.0000 1.7666 0.0000 0.0000
# 5 0.0000 0.0000 0.0000 0.0000 15.0397 0.0000
# 6 0.0000 0.0000 0.0000 0.0000 0.0000 41.9722
#
#
#
# Elastic Compliance Matrix: (Units=1/GPa)
#
#
# Indices 1 2 3 4 5 6 
#
# 1 0.014460 -0.003883 -0.001699 0.000000 0.000000 0.000000
# 2 -0.003883 0.010119 -0.000044 0.000000 0.000000 0.000000
# 3 -0.001699 -0.000044 0.013589 0.000000 0.000000 0.000000
# 4 0.000000 0.000000 0.000000 0.566052 0.000000 0.000000
# 5 0.000000 0.000000 0.000000 0.000000 0.066491 0.000000
# 6 0.000000 0.000000 0.000000 0.000000 0.000000 0.023825
#
#
# Mechanical properties :
#
#
# Convention : Reuss Voigt Hill
#
# Bulk Modulus (GPa) = 37.15029 39.10548 38.12788
# Shear Modulus (GPa) = 6.99535 26.38907 16.69221
#
# Velocity S-wave (km/s) = 1.79818 3.49253 2.77770
# Velocity P-wave (km/s) = 4.63500 5.85998 5.28311
#
# Compressibility (1/GPa) = 0.02691769
#
# Stress axis : x y z
#
# Youngs Moduli (GPa) = 69.15641 98.82003 73.58905
#
# Poissons Ratio (x) = 0.38373 0.12500
# Poissons Ratio (y) = 0.26854 0.00320
# Poissons Ratio (z) = 0.11747 0.00430
#
# Static dielectric constant tensor:
#      x y z
#    x 1.718250 0.000000 0.000000 
#    y 0.000000 1.837850 0.000000 
#    z 0.000000 0.000000 1.806550 
# 
# From -- ./inp_files/3184.got.cif
#   From: 2010.05.17/outbox.cif.g08.bks.cpg/sg30_2_cif.got.tgz:3184.got - 2010.06.03 17:03:02.
