data_PCOD9342102
_publ_section_title
;
Structure prediction by ZEFSAII (Michael W. Deem and Ramdas Pophale) SiO2 
 PCOD9342102
Probable space group: P N C 2
;
_chemical_formula_sum "Si O2"
_cell_formula_units_Z 30
_cell_length_a 8.860715
_cell_length_b 11.746243
_cell_length_c 14.270401
_cell_angle_alpha 90.000000
_cell_angle_beta 90.000000
_cell_angle_gamma 90.000000
_cell_volume 1485.264928
_symmetry_space_group_name_H-M "P N C 2"
_symmetry_group_IT_number 30
_symmetry_cell_setting 'orthorhombic'
loop_
_space_group_symop_operation_xyz
x,y,z
-x,-y,z
-x,1/2+y,1/2+z
x,1/2-y,1/2+z
loop_
_atom_site_type_symbol
_atom_site_label
_atom_site_fract_x
_atom_site_fract_y
_atom_site_fract_z
Si Si1 0.817775 0.057119 0.200420
Si Si2 0.500000 0.500000 0.791078
Si Si3 0.567038 0.872884 0.997637
Si Si4 0.200123 0.186529 0.156547
Si Si5 0.946544 0.125084 0.634289
Si Si6 0.242372 0.790104 0.024967
Si Si7 0.211000 0.717395 0.307319
Si Si8 0.440440 0.246024 0.313490
O O1 0.819888 0.116816 0.098693
O O2 0.846379 0.156070 0.277593
O O3 0.641191 0.028589 0.225005
O O4 0.881178 0.927949 0.197086
O O5 0.537391 0.614577 0.847376
O O6 0.704097 0.856366 0.068002
O O7 0.423108 0.797320 0.028295
O O8 0.500000 0.000000 0.993976
O O9 0.612549 0.828710 0.895338
O O10 0.319866 0.235996 0.230969
O O11 0.082790 0.284216 0.131016
O O12 0.821162 0.171677 0.562958
O O13 0.876124 0.133130 0.738477
O O14 0.000000 0.000000 0.611811
O O15 0.195074 0.807110 0.917212
O O16 0.390695 0.715279 0.285143
#
# Coordination Sequence:
#
# PCOD9342102 Si02
#       8
#     4   2   4   4   4   4   4   4
#     4   9  16  34  61  89 116 154 209 243 303 355
#     4   8  14  32  58  88 130 158 184 256 290 368
#     4  11  21  39  66  99 125 154 210 268 311 375
#     4  11  22  39  65  93 125 167 209 261 306 379
#     4  11  26  46  57  84 136 171 207 256 317 376
#     4  10  20  40  64  91 127 164 206 256 314 370
#     4   9  20  39  64  90 122 166 205 257 316 369
#     4   9  20  36  64  99 123 157 205 258 318 368
#
# _framework density 20.198416000000002
#
# number of rings (size 3 to 8) (size 9 to 14) (size 15 to 20)
#    0.000    2.133    1.333    3.200    0.933    5.333 
#   14.400    1.333    0.000    0.000    0.000    0.000 
#    0.000    0.000    0.000    0.000    0.000    0.000 
#
# Total GULP energy -167407.786948 kJ/mol
# GULP energy per Si atom -5580.259565 kJ/mol
# Density = 2.015244 g / cm^3
# Si number density = 20.198416 Si / 1000 Ang^3
#
#
#
# Elastic Constant Matrix: (Units=GPa)
#
#
# Indices 1 2 3 4 5 6 
#
# 1 37.1317 38.9867 19.2715 0.0000 0.0000 0.0000
# 2 38.9867 96.4606 21.2517 0.0000 0.0000 0.0000
# 3 19.2715 21.2517 84.6847 0.0000 0.0000 0.0000
# 4 0.0000 0.0000 0.0000 22.6950 0.0000 0.0000
# 5 0.0000 0.0000 0.0000 0.0000 12.0952 0.0000
# 6 0.0000 0.0000 0.0000 0.0000 0.0000 32.4606
#
#
#
# Elastic Compliance Matrix: (Units=1/GPa)
#
#
# Indices 1 2 3 4 5 6 
#
# 1 0.050130 -0.018787 -0.006693 0.000000 0.000000 0.000000
# 2 -0.018787 0.018014 -0.000245 0.000000 0.000000 0.000000
# 3 -0.006693 -0.000245 0.013393 0.000000 0.000000 0.000000
# 4 0.000000 0.000000 0.000000 0.044063 0.000000 0.000000
# 5 0.000000 0.000000 0.000000 0.000000 0.082677 0.000000
# 6 0.000000 0.000000 0.000000 0.000000 0.000000 0.030807
#
#
# Mechanical properties :
#
#
# Convention : Reuss Voigt Hill
#
# Bulk Modulus (GPa) = 33.23745 41.92187 37.57966
# Shear Modulus (GPa) = 16.63543 22.70130 19.66836
#
# Velocity S-wave (km/s) = 2.87296 3.35612 3.12389
# Velocity P-wave (km/s) = 5.24370 5.98483 5.62648
#
# Compressibility (1/GPa) = 0.03008654
#
# Stress axis : x y z
#
# Youngs Moduli (GPa) = 19.94811 55.51241 74.66409
#
# Poissons Ratio (x) = 1.04288 0.49976
# Poissons Ratio (y) = 0.37476 0.01833
# Poissons Ratio (z) = 0.13352 0.01362
#
# Static dielectric constant tensor:
#      x y z
#    x 1.805680 0.000000 0.000000 
#    y 0.000000 1.740350 0.000000 
#    z 0.000000 0.000000 1.709240 
# 
# From -- ./inp_files/5189.got.cif
#   From: 2010.05.17/outbox.cif.g08.bks.cpg/sg30_3_cif.got.tgz:5189.got - 2010.06.03 17:03:02.
