data_PCOD9342429
_publ_section_title
;
Structure prediction by ZEFSAII (Michael W. Deem and Ramdas Pophale) SiO2 
 PCOD9342429
Probable space group: P N C 2
;
_chemical_formula_sum "Si O2"
_cell_formula_units_Z 18
_cell_length_a 5.152911
_cell_length_b 10.565876
_cell_length_c 12.708004
_cell_angle_alpha 90.000000
_cell_angle_beta 90.000000
_cell_angle_gamma 90.000000
_cell_volume 691.887515
_symmetry_space_group_name_H-M "P N C 2"
_symmetry_group_IT_number 30
_symmetry_cell_setting 'orthorhombic'
loop_
_space_group_symop_operation_xyz
x,y,z
-x,-y,z
-x,1/2+y,1/2+z
x,1/2-y,1/2+z
loop_
_atom_site_type_symbol
_atom_site_label
_atom_site_fract_x
_atom_site_fract_y
_atom_site_fract_z
Si Si1 0.786013 0.814326 0.741850
Si Si2 0.279870 0.752070 0.626759
Si Si3 0.248440 0.415977 0.886543
Si Si4 0.500000 0.500000 0.621405
Si Si5 0.133047 0.167085 0.973472
O O1 0.524771 0.828624 0.675299
O O2 0.796484 0.666350 0.781263
O O3 0.826967 0.882008 0.854361
O O4 0.037544 0.828560 0.671760
O O5 0.335415 0.611542 0.675306
O O6 0.157517 0.705390 0.512555
O O7 0.500000 0.500000 0.885880
O O8 0.280228 0.301749 0.968982
O O9 0.000000 0.500000 0.910102
O O10 0.710791 0.577162 0.551340
#
# Coordination Sequence:
#
# PCOD9342429 Si02
#       5
#     4   4   4   2   4
#     4  10  26  40  72 103 143 186 239 305 374 431
#     4  12  24  43  69 106 140 190 243 304 358 448
#     4  10  23  40  68  97 137 188 238 291 366 437
#     4  12  26  44  74 112 146 184 252 316 376 440
#     4  10  27  43  73 102 154 188 242 306 383 440
#
# _framework density 26.015788000000001
#
# number of rings (size 3 to 8) (size 9 to 14) (size 15 to 20)
#    1.333    0.000    2.222    2.000   10.889    0.000 
#    0.000    0.000    7.333    0.000    0.000    0.000 
#    0.000    0.000    0.000    0.000    0.000    0.000 
#
# Total GULP energy -100298.316467 kJ/mol
# GULP energy per Si atom -5572.128693 kJ/mol
# Density = 2.595658 g / cm^3
# Si number density = 26.015788 Si / 1000 Ang^3
#
#
#
# Elastic Constant Matrix: (Units=GPa)
#
#
# Indices 1 2 3 4 5 6 
#
# 1 207.4803 11.5812 52.2974 0.0000 0.0000 0.0000
# 2 11.5812 69.8168 -12.6754 0.0000 0.0000 0.0000
# 3 52.2974 -12.6754 129.2831 0.0000 0.0000 0.0000
# 4 0.0000 0.0000 0.0000 36.4236 0.0000 0.0000
# 5 0.0000 0.0000 0.0000 0.0000 -577.8367 0.0000
# 6 0.0000 0.0000 0.0000 0.0000 0.0000 32.7288
#
#
#
# Elastic Compliance Matrix: (Units=1/GPa)
#
#
# Indices 1 2 3 4 5 6 
#
# 1 0.005487 -0.001337 -0.002351 0.000000 0.000000 0.000000
# 2 -0.001337 0.014909 0.002002 0.000000 0.000000 0.000000
# 3 -0.002351 0.002002 0.008882 0.000000 0.000000 0.000000
# 4 0.000000 0.000000 0.000000 0.027455 0.000000 0.000000
# 5 0.000000 0.000000 0.000000 0.000000 -0.001731 0.000000
# 6 0.000000 0.000000 0.000000 0.000000 0.000000 0.030554
#
#
# Mechanical properties :
#
#
# Convention : Reuss Voigt Hill
#
# Bulk Modulus (GPa) = 38.59887 56.55405 47.57646
# Shear Modulus (GPa) = 51.24965 -78.04506 -13.39770
#
# Velocity S-wave (km/s) = 4.44322 -5.48309 -2.27179
# Velocity P-wave (km/s) = 6.41809 4.27786 3.38318
#
# Compressibility (1/GPa) = 0.02590749
#
# Stress axis : x y z
#
# Youngs Moduli (GPa) = 182.25386 67.07567 112.58521
#
# Poissons Ratio (x) = 0.08967 0.26464
# Poissons Ratio (y) = 0.24366 -0.22545
# Poissons Ratio (z) = 0.42841 -0.13432
#
# Static dielectric constant tensor:
#      x y z
#    x 2.698490 0.000000 0.000000 
#    y 0.000000 2.042800 0.000000 
#    z 0.000000 0.000000 2.201410 
# 
# From -- ./inp_files/4583.got.cif
#   From: 2010.05.17/outbox.cif.g08.bks.cpg/sg30_3_cif.got.tgz:4583.got - 2010.06.03 17:03:02.
