data_PCOD9342861
_publ_section_title
;
Structure prediction by ZEFSAII (Michael W. Deem and Ramdas Pophale) SiO2 
 PCOD9342861
Probable space group: P M N 21
;
_chemical_formula_sum "Si O2"
_cell_formula_units_Z 24
_cell_length_a 8.683552
_cell_length_b 9.473559
_cell_length_c 16.939841
_cell_angle_alpha 90.000000
_cell_angle_beta 90.000000
_cell_angle_gamma 90.000000
_cell_volume 1393.541489
_symmetry_space_group_name_H-M "P M N 21"
_symmetry_group_IT_number 31
_symmetry_cell_setting 'orthorhombic'
loop_
_space_group_symop_operation_xyz
x,y,z
1/2-x,-y,1/2+z
-x,y,z
1/2+x,-y,1/2+z
loop_
_atom_site_type_symbol
_atom_site_label
_atom_site_fract_x
_atom_site_fract_y
_atom_site_fract_z
Si Si1 0.323450 0.077630 0.796770
Si Si2 0.314186 0.643256 0.863128
Si Si3 0.687325 0.172112 0.038065
Si Si4 0.816405 0.332067 0.886678
Si Si5 0.316321 0.184463 0.217042
Si Si6 0.323845 0.898357 0.960257
O O1 0.500000 0.099294 0.772217
O O2 0.243924 0.224065 0.819582
O O3 0.234877 0.975459 0.737145
O O4 0.326906 0.988484 0.878831
O O5 0.500000 0.642409 0.865848
O O6 0.249408 0.487516 0.872875
O O7 0.262469 0.713373 0.780690
O O8 0.255988 0.748918 0.933030
O O9 0.500000 0.171815 0.029692
O O10 0.725336 0.217141 0.126676
O O11 0.755586 0.270800 0.970117
O O12 0.743492 0.010839 0.021680
O O13 0.000000 0.333301 0.886556
O O14 0.500000 0.195428 0.225839
O O15 0.500000 0.870795 0.985305
#
# Coordination Sequence:
#
# PCOD9342861 Si02
#       6
#     4   4   4   4   4   4
#     4   9  17  32  52  72  98 133 170 205 251 307
#     4  10  19  33  53  74 102 140 177 212 258 314
#     4   9  18  34  54  76 104 136 169 210 263 314
#     4  11  21  33  52  77 104 135 177 221 257 303
#     4  10  19  32  53  80 106 133 172 217 256 302
#     4   7  13  28  50  71  90 123 167 201 237 296
#
# _framework density 17.222307000000001
#
# number of rings (size 3 to 8) (size 9 to 14) (size 15 to 20)
#    0.000    2.667    0.000    5.000    0.000    1.333 
#    0.000    2.500    0.000    8.000    0.000    0.000 
#    0.000    0.000    0.000    0.000    0.000    0.000 
#
# Total GULP energy -133670.209450 kJ/mol
# GULP energy per Si atom -5569.592060 kJ/mol
# Density = 1.718311 g / cm^3
# Si number density = 17.222307 Si / 1000 Ang^3
#
#
#
# Elastic Constant Matrix: (Units=GPa)
#
#
# Indices 1 2 3 4 5 6 
#
# 1 61.0068 38.7923 21.5560 0.0000 0.0000 0.0000
# 2 38.7923 154.3504 43.9476 0.0000 0.0000 0.0000
# 3 21.5560 43.9476 66.6926 0.0000 0.0000 0.0000
# 4 0.0000 0.0000 0.0000 16.6676 0.0000 0.0000
# 5 0.0000 0.0000 0.0000 0.0000 20.4670 0.0000
# 6 0.0000 0.0000 0.0000 0.0000 0.0000 27.3470
#
#
#
# Elastic Compliance Matrix: (Units=1/GPa)
#
#
# Indices 1 2 3 4 5 6 
#
# 1 0.020318 -0.003984 -0.003942 0.000000 0.000000 0.000000
# 2 -0.003984 0.008756 -0.004482 0.000000 0.000000 0.000000
# 3 -0.003942 -0.004482 0.019222 0.000000 0.000000 0.000000
# 4 0.000000 0.000000 0.000000 0.059997 0.000000 0.000000
# 5 0.000000 0.000000 0.000000 0.000000 0.048859 0.000000
# 6 0.000000 0.000000 0.000000 0.000000 0.000000 0.036567
#
#
# Mechanical properties :
#
#
# Convention : Reuss Voigt Hill
#
# Bulk Modulus (GPa) = 42.58990 54.51575 48.55283
# Shear Modulus (GPa) = 22.08859 24.74659 23.41759
#
# Velocity S-wave (km/s) = 3.58517 3.79475 3.69144
# Velocity P-wave (km/s) = 6.47465 7.13604 6.81337
#
# Compressibility (1/GPa) = 0.02347974
#
# Stress axis : x y z
#
# Youngs Moduli (GPa) = 49.21815 114.20335 52.02416
#
# Poissons Ratio (x) = 0.45500 0.20506
# Poissons Ratio (y) = 0.19609 0.23319
# Poissons Ratio (z) = 0.19400 0.51190
#
# Static dielectric constant tensor:
#      x y z
#    x 1.586190 0.000000 0.000000 
#    y 0.000000 1.591220 0.000000 
#    z 0.000000 0.000000 1.586720 
# 
# From -- ./inp_files/5699.got.cif
#   From: 2010.05.17/outbox.cif.g08.bks.cpg/sg31_3_cif.got.tgz:5699.got - 2010.06.03 17:08:30.
