data_PCOD9342408
_publ_section_title
;
Structure prediction by ZEFSAII (Michael W. Deem and Ramdas Pophale) SiO2 
 PCOD9342408
Probable space group: P N C 2
;
_chemical_formula_sum "Si O2"
_cell_formula_units_Z 30
_cell_length_a 18.726268
_cell_length_b 5.638952
_cell_length_c 13.238521
_cell_angle_alpha 90.000000
_cell_angle_beta 90.000000
_cell_angle_gamma 90.000000
_cell_volume 1397.941832
_symmetry_space_group_name_H-M "P N C 2"
_symmetry_group_IT_number 30
_symmetry_cell_setting 'orthorhombic'
loop_
_space_group_symop_operation_xyz
x,y,z
-x,-y,z
-x,1/2+y,1/2+z
x,1/2-y,1/2+z
loop_
_atom_site_type_symbol
_atom_site_label
_atom_site_fract_x
_atom_site_fract_y
_atom_site_fract_z
Si Si1 0.677560 0.924097 0.221060
Si Si2 0.928482 0.112384 0.870609
Si Si3 0.116922 0.167425 0.065604
Si Si4 0.578724 0.044830 0.038813
Si Si5 0.618326 0.537004 0.938342
Si Si6 0.824483 0.173972 0.212494
Si Si7 0.000000 0.000000 0.511563
Si Si8 0.742680 0.947385 0.587813
O O1 0.638697 0.054650 0.126758
O O2 0.627971 0.946162 0.318510
O O3 0.693035 0.660282 0.177259
O O4 0.755794 0.025691 0.249865
O O5 0.864762 0.176254 0.796470
O O6 0.954151 0.335740 0.936713
O O7 0.000000 0.000000 0.822876
O O8 0.901335 0.935111 0.956617
O O9 0.198263 0.251655 0.062867
O O10 0.116249 0.985319 0.157685
O O11 0.057028 0.364246 0.079727
O O12 0.500000 0.000000 0.083582
O O13 0.593330 0.799287 0.976536
O O14 0.578886 0.294043 0.975975
O O15 0.695135 0.503867 0.991471
O O16 0.788834 0.336635 0.127436
#
# Coordination Sequence:
#
# PCOD9342408 Si02
#       8
#     4   4   4   4   4   4   2   4
#     4  10  25  41  70 102 139 182 234 286 352 418
#     4  10  24  43  63  90 127 170 232 287 350 421
#     4  10  23  41  64  92 125 178 220 286 353 412
#     4  11  25  47  70 105 147 185 235 286 343 429
#     4  11  25  44  73 105 141 187 231 287 350 416
#     4  11  23  42  66  98 130 175 226 290 351 410
#     4  10  22  46  58  88 130 174 228 286 344 424
#     4  10  23  42  64 100 135 172 229 290 342 418
#
# _framework density 21.460121999999998
#
# number of rings (size 3 to 8) (size 9 to 14) (size 15 to 20)
#    0.000    1.600    1.333    1.200    7.467    4.267 
#   15.600    0.000    0.000    0.000    0.000    0.000 
#    0.000    0.000    0.000    0.000    0.000    0.000 
#
# Total GULP energy -167456.665064 kJ/mol
# GULP energy per Si atom -5581.888835 kJ/mol
# Density = 2.141128 g / cm^3
# Si number density = 21.460122 Si / 1000 Ang^3
#
#
#
# Elastic Constant Matrix: (Units=GPa)
#
#
# Indices 1 2 3 4 5 6 
#
# 1 76.7899 15.8669 29.2039 0.0000 0.0000 0.0000
# 2 15.8669 83.0002 24.3059 0.0000 0.0000 0.0000
# 3 29.2039 24.3059 78.7493 0.0000 0.0000 0.0000
# 4 0.0000 0.0000 0.0000 7.4213 0.0000 0.0000
# 5 0.0000 0.0000 0.0000 0.0000 23.6569 0.0000
# 6 0.0000 0.0000 0.0000 0.0000 0.0000 28.6741
#
#
#
# Elastic Compliance Matrix: (Units=1/GPa)
#
#
# Indices 1 2 3 4 5 6 
#
# 1 0.015305 -0.001389 -0.005247 0.000000 0.000000 0.000000
# 2 -0.001389 0.013371 -0.003612 0.000000 0.000000 0.000000
# 3 -0.005247 -0.003612 0.015759 0.000000 0.000000 0.000000
# 4 0.000000 0.000000 0.000000 0.134748 0.000000 0.000000
# 5 0.000000 0.000000 0.000000 0.000000 0.042271 0.000000
# 6 0.000000 0.000000 0.000000 0.000000 0.000000 0.034875
#
#
# Mechanical properties :
#
#
# Convention : Reuss Voigt Hill
#
# Bulk Modulus (GPa) = 41.77224 41.92140 41.84682
# Shear Modulus (GPa) = 17.55587 23.22797 20.39192
#
# Velocity S-wave (km/s) = 2.86329 3.29352 3.08591
# Velocity P-wave (km/s) = 5.51712 5.83438 5.67797
#
# Compressibility (1/GPa) = 0.02393935
#
# Stress axis : x y z
#
# Youngs Moduli (GPa) = 65.33764 74.78621 63.45513
#
# Poissons Ratio (x) = 0.10390 0.33295
# Poissons Ratio (y) = 0.09077 0.22919
# Poissons Ratio (z) = 0.34283 0.27012
#
# Static dielectric constant tensor:
#      x y z
#    x 1.771620 0.000000 0.000000 
#    y 0.000000 1.895610 0.000000 
#    z 0.000000 0.000000 1.725960 
# 
# From -- ./inp_files/4490.got.cif
#   From: 2010.05.17/outbox.cif.g08.bks.cpg/sg30_3_cif.got.tgz:4490.got - 2010.06.03 17:03:02.
