data_PCOD9342671
_publ_section_title
;
Structure prediction by ZEFSAII (Michael W. Deem and Ramdas Pophale) SiO2 
 PCOD9342671
Probable space group: P N C 2
;
_chemical_formula_sum "Si O2"
_cell_formula_units_Z 26
_cell_length_a 12.000000
_cell_length_b 12.000000
_cell_length_c 9.000000
_cell_angle_alpha 90.000000
_cell_angle_beta 90.000000
_cell_angle_gamma 90.000000
_cell_volume 1296.000000
_symmetry_space_group_name_H-M "P N C 2"
_symmetry_group_IT_number 30
_symmetry_cell_setting 'orthorhombic'
loop_
_space_group_symop_operation_xyz
x,y,z
-x,-y,z
-x,1/2+y,1/2+z
x,1/2-y,1/2+z
loop_
_atom_site_type_symbol
_atom_site_label
_atom_site_fract_x
_atom_site_fract_y
_atom_site_fract_z
Si Si1 0.932969 0.330365 0.514960
Si Si2 0.578343 0.895225 0.585568
Si Si3 0.523887 0.286738 0.802453
Si Si4 0.779562 0.051665 0.583232
Si Si5 0.683786 0.295276 0.556874
Si Si6 0.070376 0.892070 0.353809
Si Si7 0.000000 0.000000 0.777870
O O1 0.798998 0.350977 0.503715
O O2 0.956132 0.204318 0.470015
O O3 0.950944 0.351731 0.687990
O O4 0.003698 0.399388 0.396856
O O5 0.548516 0.795355 0.698223
O O6 0.549760 0.858944 0.416321
O O7 0.500000 0.000000 0.622116
O O8 0.700168 0.946536 0.600863
O O9 0.608683 0.347234 0.687670
O O10 0.603695 0.220856 0.917005
O O11 0.722288 0.171768 0.618359
O O12 0.807585 0.070732 0.408003
O O13 0.890703 0.025529 0.678768
O O14 0.000000 0.000000 0.376288
#
# Coordination Sequence:
#
# PCOD9342671 Si02
#       7
#     4   4   4   4   4   4   2
#     4  11  23  39  68  98 133 174 237 288 334 407
#     4  11  23  43  67  97 139 170 219 293 338 410
#     4  10  20  39  68  98 126 174 220 273 358 399
#     4  11  22  43  68  94 140 183 228 282 351 402
#     4  10  19  39  69  94 127 174 235 276 324 425
#     4  11  23  44  65  96 130 180 228 279 337 415
#     4  12  24  42  68 104 138 190 236 286 350 414
#
# _framework density 20.061727999999999
#
# number of rings (size 3 to 8) (size 9 to 14) (size 15 to 20)
#    0.000    1.231    4.615    4.615    0.000    0.000 
#    2.769    6.154    0.000    0.000    0.000    0.000 
#    0.000    0.000    0.000    0.000    0.000    0.000 
#
# Total GULP energy -144825.700108 kJ/mol
# GULP energy per Si atom -5570.219235 kJ/mol
# Density = 2.001607 g / cm^3
# Si number density = 20.061728 Si / 1000 Ang^3
#
#
#
# Elastic Constant Matrix: (Units=GPa)
#
#
# Indices 1 2 3 4 5 6 
#
# 1 52.2487 42.9588 41.3039 0.0000 0.0000 0.0000
# 2 42.9588 66.4480 26.6275 0.0000 0.0000 0.0000
# 3 41.3039 26.6275 130.9429 0.0000 0.0000 0.0000
# 4 0.0000 0.0000 0.0000 -91.2147 0.0000 0.0000
# 5 0.0000 0.0000 0.0000 0.0000 11.3540 0.0000
# 6 0.0000 0.0000 0.0000 0.0000 0.0000 32.2295
#
#
#
# Elastic Compliance Matrix: (Units=1/GPa)
#
#
# Indices 1 2 3 4 5 6 
#
# 1 0.050888 -0.028815 -0.010192 0.000000 0.000000 0.000000
# 2 -0.028815 0.032701 0.002439 0.000000 0.000000 0.000000
# 3 -0.010192 0.002439 0.010356 0.000000 0.000000 0.000000
# 4 0.000000 0.000000 0.000000 -0.010963 0.000000 0.000000
# 5 0.000000 0.000000 0.000000 0.000000 0.088075 0.000000
# 6 0.000000 0.000000 0.000000 0.000000 0.000000 0.031027
#
#
# Mechanical properties :
#
#
# Convention : Reuss Voigt Hill
#
# Bulk Modulus (GPa) = 48.05578 52.37999 50.21789
# Shear Modulus (GPa) = 17.72072 -0.27627 8.72223
#
# Velocity S-wave (km/s) = 2.97528 -0.37149 2.08737
# Velocity P-wave (km/s) = 5.98406 5.09726 5.55838
#
# Compressibility (1/GPa) = 0.02080915
#
# Stress axis : x y z
#
# Youngs Moduli (GPa) = 19.65095 30.58036 96.56389
#
# Poissons Ratio (x) = 0.88117 0.98421
# Poissons Ratio (y) = 0.56624 -0.23556
# Poissons Ratio (z) = 0.20029 -0.07460
#
# Static dielectric constant tensor:
#      x y z
#    x 1.901920 0.000000 0.000000 
#    y 0.000000 1.776760 0.000000 
#    z 0.000000 0.000000 1.739930 
# 
# From -- ./inp_files/2395.got.cif
#   From: 2010.05.17/outbox.ucp.g08.bks.cvg/sg30_2_cif.got.tgz:2395.got - 2010.06.11 10:34:04.
