data_PCOD9342093
_publ_section_title
;
Structure prediction by ZEFSAII (Michael W. Deem and Ramdas Pophale) SiO2 
 PCOD9342093
Probable space group: P N C 2
;
_chemical_formula_sum "Si O2"
_cell_formula_units_Z 32
_cell_length_a 5.284179
_cell_length_b 18.669021
_cell_length_c 15.881240
_cell_angle_alpha 90.000000
_cell_angle_beta 90.000000
_cell_angle_gamma 90.000000
_cell_volume 1566.691452
_symmetry_space_group_name_H-M "P N C 2"
_symmetry_group_IT_number 30
_symmetry_cell_setting 'orthorhombic'
loop_
_space_group_symop_operation_xyz
x,y,z
-x,-y,z
-x,1/2+y,1/2+z
x,1/2-y,1/2+z
loop_
_atom_site_type_symbol
_atom_site_label
_atom_site_fract_x
_atom_site_fract_y
_atom_site_fract_z
Si Si1 0.213296 0.839457 0.454730
Si Si2 0.319303 0.196195 0.161381
Si Si3 0.066060 0.808655 0.014769
Si Si4 0.564806 0.082467 0.040160
Si Si5 0.537999 0.854109 0.693816
Si Si6 0.325561 0.159072 0.879486
Si Si7 0.310028 0.322271 0.853884
Si Si8 0.039982 0.915983 0.619305
O O1 0.246194 0.759922 0.498023
O O2 0.454134 0.862004 0.398347
O O3 0.154834 0.894346 0.529219
O O4 0.953090 0.833744 0.402031
O O5 0.449098 0.130527 0.114007
O O6 0.478481 0.268559 0.177885
O O7 0.252058 0.169587 0.254943
O O8 0.107704 0.217161 0.092273
O O9 0.151234 0.888161 0.042751
O O10 0.942216 0.826390 0.924375
O O11 0.500000 0.000000 0.047304
O O12 0.470079 0.113831 0.950287
O O13 0.646049 0.872570 0.786915
O O14 0.260944 0.887531 0.681647
O O15 0.762905 0.881337 0.633015
O O16 0.408592 0.240700 0.864885
O O17 0.000000 0.000000 0.628602
#
# Coordination Sequence:
#
# PCOD9342093 Si02
#       8
#     4   4   4   4   4   4   4   4
#     4  11  21  41  66  93 125 167 216 278 331 387
#     4  10  23  39  64 100 124 177 227 275 331 393
#     4  10  20  39  66  89 133 169 221 267 328 405
#     4  11  23  39  63  95 137 181 215 271 337 411
#     4  11  24  42  68  95 131 175 222 276 326 400
#     4   9  22  37  60  95 124 169 217 264 324 393
#     4  10  22  38  68  97 121 163 225 281 319 388
#     4  12  26  42  65  96 130 173 216 273 342 400
#
# _framework density 20.425208000000001
#
# number of rings (size 3 to 8) (size 9 to 14) (size 15 to 20)
#    0.000    1.500    2.500    1.875    5.250    5.000 
#    0.000    1.250    0.000    0.000    0.000    0.000 
#    0.000    0.000    0.000    0.000    0.000    0.000 
#
# Total GULP energy -178153.338498 kJ/mol
# GULP energy per Si atom -5567.291828 kJ/mol
# Density = 2.037872 g / cm^3
# Si number density = 20.425208 Si / 1000 Ang^3
#
#
#
# Elastic Constant Matrix: (Units=GPa)
#
#
# Indices 1 2 3 4 5 6 
#
# 1 47.8301 3.4184 5.3835 0.0000 0.0000 0.0000
# 2 3.4184 79.2216 21.2822 0.0000 0.0000 0.0000
# 3 5.3835 21.2822 97.5612 0.0000 0.0000 0.0000
# 4 0.0000 0.0000 0.0000 -1.1818 0.0000 0.0000
# 5 0.0000 0.0000 0.0000 0.0000 -23.8693 0.0000
# 6 0.0000 0.0000 0.0000 0.0000 0.0000 24.7342
#
#
#
# Elastic Compliance Matrix: (Units=1/GPa)
#
#
# Indices 1 2 3 4 5 6 
#
# 1 0.021068 -0.000634 -0.001024 0.000000 0.000000 0.000000
# 2 -0.000634 0.013428 -0.002894 0.000000 0.000000 0.000000
# 3 -0.001024 -0.002894 0.010938 0.000000 0.000000 0.000000
# 4 0.000000 0.000000 0.000000 -0.846165 0.000000 0.000000
# 5 0.000000 0.000000 0.000000 0.000000 -0.041895 0.000000
# 6 0.000000 0.000000 0.000000 0.000000 0.000000 0.040430
#
#
# Mechanical properties :
#
#
# Convention : Reuss Voigt Hill
#
# Bulk Modulus (GPa) = 27.52639 31.64233 29.58436
# Shear Modulus (GPa) = -6.40219 12.90521 3.25151
#
# Velocity S-wave (km/s) = -1.77236 2.51635 1.26308
# Velocity P-wave (km/s) = 3.05247 4.89572 4.07956
#
# Compressibility (1/GPa) = 0.03632877
#
# Stress axis : x y z
#
# Youngs Moduli (GPa) = 47.46548 74.47310 91.42582
#
# Poissons Ratio (x) = 0.04721 0.09364
# Poissons Ratio (y) = 0.03009 0.26460
# Poissons Ratio (z) = 0.04862 0.21554
#
# Static dielectric constant tensor:
#      x y z
#    x 1.853420 0.000000 0.000000 
#    y 0.000000 1.717660 0.000000 
#    z 0.000000 0.000000 1.848990 
# 
# From -- ./inp_files/4785.got.cif
#   From: 2010.05.17/outbox.cif.g08.bks.cpg/sg30_3_cif.got.tgz:4785.got - 2010.06.03 17:03:02.
