data_PCOD9342221
_publ_section_title
;
Structure prediction by ZEFSAII (Michael W. Deem and Ramdas Pophale) SiO2 
 PCOD9342221
Probable space group: P N C 2
;
_chemical_formula_sum "Si O2"
_cell_formula_units_Z 16
_cell_length_a 16.069741
_cell_length_b 7.692891
_cell_length_c 5.295157
_cell_angle_alpha 90.000000
_cell_angle_beta 90.000000
_cell_angle_gamma 90.000000
_cell_volume 654.601954
_symmetry_space_group_name_H-M "P N C 2"
_symmetry_group_IT_number 30
_symmetry_cell_setting 'orthorhombic'
loop_
_space_group_symop_operation_xyz
x,y,z
-x,-y,z
-x,1/2+y,1/2+z
x,1/2-y,1/2+z
loop_
_atom_site_type_symbol
_atom_site_label
_atom_site_fract_x
_atom_site_fract_y
_atom_site_fract_z
Si Si1 0.341391 0.834908 0.709180
Si Si2 0.921224 0.370688 0.080666
Si Si3 0.766696 0.864420 0.554102
Si Si4 0.473354 0.301972 0.754887
O O1 0.310673 0.698594 0.494006
O O2 0.440747 0.807580 0.723518
O O3 0.314056 0.015951 0.595743
O O4 0.921913 0.250121 0.330707
O O5 0.841164 0.495837 0.079492
O O6 0.000000 0.500000 0.080527
O O7 0.771432 0.772430 0.283273
O O8 0.500000 0.500000 0.789476
O O9 0.428371 0.284041 0.489639
#
# Coordination Sequence:
#
# PCOD9342221 Si02
#       4
#     4   4   4   4
#     4  10  21  41  62  88 122 161 205 255 315 373
#     4  12  24  42  66  95 132 172 214 263 312 370
#     4  12  24  41  64  94 127 167 214 262 315 376
#     4  10  21  40  63  89 121 158 202 254 313 379
#
# _framework density 24.442336999999998
#
# number of rings (size 3 to 8) (size 9 to 14) (size 15 to 20)
#    0.000    1.000    0.000    7.500    0.000    0.000 
#    0.000   30.000    0.000    0.000    0.000    0.000 
#    0.000    0.000    0.000    0.000    0.000    0.000 
#
# Total GULP energy -89660.529542 kJ/mol
# GULP energy per Si atom -5603.783096 kJ/mol
# Density = 2.438671 g / cm^3
# Si number density = 24.442337 Si / 1000 Ang^3
#
#
#
# Elastic Constant Matrix: (Units=GPa)
#
#
# Indices 1 2 3 4 5 6 
#
# 1 77.0768 47.9604 -24.6652 0.0000 0.0000 0.0000
# 2 47.9604 142.6630 47.6174 0.0000 0.0000 0.0000
# 3 -24.6652 47.6174 191.8176 0.0000 0.0000 0.0000
# 4 0.0000 0.0000 0.0000 75.5385 0.0000 0.0000
# 5 0.0000 0.0000 0.0000 0.0000 17.0588 0.0000
# 6 0.0000 0.0000 0.0000 0.0000 0.0000 75.9809
#
#
#
# Elastic Compliance Matrix: (Units=1/GPa)
#
#
# Indices 1 2 3 4 5 6 
#
# 1 0.019399 -0.008018 0.004485 0.000000 0.000000 0.000000
# 2 -0.008018 0.010957 -0.003751 0.000000 0.000000 0.000000
# 3 0.004485 -0.003751 0.006721 0.000000 0.000000 0.000000
# 4 0.000000 0.000000 0.000000 0.013238 0.000000 0.000000
# 5 0.000000 0.000000 0.000000 0.000000 0.058621 0.000000
# 6 0.000000 0.000000 0.000000 0.000000 0.000000 0.013161
#
#
# Mechanical properties :
#
#
# Convention : Reuss Voigt Hill
#
# Bulk Modulus (GPa) = 44.42889 61.48695 52.95792
# Shear Modulus (GPa) = 34.68151 56.42528 45.55339
#
# Velocity S-wave (km/s) = 3.77093 4.80990 4.32175
# Velocity P-wave (km/s) = 6.09724 7.48715 6.82766
#
# Compressibility (1/GPa) = 0.02250788
#
# Stress axis : x y z
#
# Youngs Moduli (GPa) = 51.54993 91.26445 148.78347
#
# Poissons Ratio (x) = 0.73179 -0.66728
# Poissons Ratio (y) = 0.41335 0.55810
# Poissons Ratio (z) = -0.23120 0.34234
#
# Static dielectric constant tensor:
#      x y z
#    x 1.983570 0.000000 0.000000 
#    y 0.000000 1.909490 0.000000 
#    z 0.000000 0.000000 2.066860 
# 
# From -- ./inp_files/1034.got.cif
#   From: 2010.05.17/outbox.cif.g08.bks.cpg/sg30_1_cif.got.tgz:1034.got - 2010.06.03 17:03:02.
