data_PCOD9342191
_publ_section_title
;
Structure prediction by ZEFSAII (Michael W. Deem and Ramdas Pophale) SiO2 
 PCOD9342191
Probable space group: P N C 2
;
_chemical_formula_sum "Si O2"
_cell_formula_units_Z 30
_cell_length_a 11.506119
_cell_length_b 22.307384
_cell_length_c 5.533180
_cell_angle_alpha 90.000000
_cell_angle_beta 90.000000
_cell_angle_gamma 90.000000
_cell_volume 1420.209139
_symmetry_space_group_name_H-M "P N C 2"
_symmetry_group_IT_number 30
_symmetry_cell_setting 'orthorhombic'
loop_
_space_group_symop_operation_xyz
x,y,z
-x,-y,z
-x,1/2+y,1/2+z
x,1/2-y,1/2+z
loop_
_atom_site_type_symbol
_atom_site_label
_atom_site_fract_x
_atom_site_fract_y
_atom_site_fract_z
Si Si1 0.694483 0.524646 0.512710
Si Si2 0.612144 0.217379 0.025222
Si Si3 0.500000 0.000000 0.643173
Si Si4 0.855389 0.556688 0.136930
Si Si5 0.355430 0.261830 0.997886
Si Si6 0.616875 0.897200 0.395568
Si Si7 0.240562 0.601998 0.626793
Si Si8 0.112137 0.584616 0.107614
O O1 0.615674 0.498376 0.299877
O O2 0.815460 0.550070 0.415537
O O3 0.626897 0.580981 0.621373
O O4 0.711713 0.465560 0.670401
O O5 0.648640 0.242956 0.761040
O O6 0.471532 0.221219 0.013217
O O7 0.661441 0.151515 0.076127
O O8 0.516210 0.939301 0.497125
O O9 0.873872 0.487254 0.067465
O O10 0.973103 0.593295 0.108440
O O11 0.744117 0.583878 0.000098
O O12 0.290738 0.245603 0.751002
O O13 0.399156 0.329513 0.968192
O O14 0.166021 0.598619 0.374121
O O15 0.170959 0.615970 0.874977
#
# Coordination Sequence:
#
# PCOD9342191 Si02
#       8
#     4   4   2   4   4   4   4   4
#     4  10  22  37  60  96 132 171 201 274 325 402
#     4  10  22  39  61  87 121 168 213 265 303 377
#     4  10  24  34  58  96 134 172 198 266 328 392
#     4   9  21  37  61  96 132 160 211 255 332 396
#     4  10  25  42  62  88 119 173 220 261 307 370
#     4  11  22  40  63  90 134 169 218 261 325 386
#     4  11  22  38  64  93 129 160 216 260 331 381
#     4  10  21  38  64  97 128 167 202 262 332 394
#
# _framework density 21.123650000000001
#
# number of rings (size 3 to 8) (size 9 to 14) (size 15 to 20)
#    0.000    1.867    1.333    1.200    9.333    4.267 
#    0.000    0.000    0.000    4.800    0.000    0.000 
#    0.000    0.000    0.000    0.000    0.000    0.000 
#
# Total GULP energy -167249.074460 kJ/mol
# GULP energy per Si atom -5574.969149 kJ/mol
# Density = 2.107557 g / cm^3
# Si number density = 21.123650 Si / 1000 Ang^3
#
#
#
# Elastic Constant Matrix: (Units=GPa)
#
#
# Indices 1 2 3 4 5 6 
#
# 1 70.5219 6.2501 16.3277 0.0000 0.0000 0.0000
# 2 6.2501 55.6438 22.3531 0.0000 0.0000 0.0000
# 3 16.3277 22.3531 121.2219 0.0000 0.0000 0.0000
# 4 0.0000 0.0000 0.0000 32.7902 0.0000 0.0000
# 5 0.0000 0.0000 0.0000 0.0000 17.1011 0.0000
# 6 0.0000 0.0000 0.0000 0.0000 0.0000 18.5990
#
#
#
# Elastic Compliance Matrix: (Units=1/GPa)
#
#
# Indices 1 2 3 4 5 6 
#
# 1 0.014680 -0.000923 -0.001807 0.000000 0.000000 0.000000
# 2 -0.000923 0.019467 -0.003465 0.000000 0.000000 0.000000
# 3 -0.001807 -0.003465 0.009132 0.000000 0.000000 0.000000
# 4 0.000000 0.000000 0.000000 0.030497 0.000000 0.000000
# 5 0.000000 0.000000 0.000000 0.000000 0.058476 0.000000
# 6 0.000000 0.000000 0.000000 0.000000 0.000000 0.053766
#
#
# Mechanical properties :
#
#
# Convention : Reuss Voigt Hill
#
# Bulk Modulus (GPa) = 32.37482 37.47214 34.92348
# Shear Modulus (GPa) = 23.95721 27.19515 25.57618
#
# Velocity S-wave (km/s) = 3.37136 3.59197 3.48341
# Velocity P-wave (km/s) = 5.52398 5.91446 5.72255
#
# Compressibility (1/GPa) = 0.03088820
#
# Stress axis : x y z
#
# Youngs Moduli (GPa) = 68.11900 51.36830 109.50793
#
# Poissons Ratio (x) = 0.04741 0.19789
# Poissons Ratio (y) = 0.06287 0.37949
# Poissons Ratio (z) = 0.12310 0.17801
#
# Static dielectric constant tensor:
#      x y z
#    x 1.770570 0.000000 0.000000 
#    y 0.000000 1.731980 0.000000 
#    z 0.000000 0.000000 1.926020 
# 
# From -- ./inp_files/796.got.cif
#   From: 2010.05.17/outbox.cif.g08.bks.cpg/sg30_1_cif.got.tgz:796.got - 2010.06.03 17:03:02.
