data_PCOD9342851
_publ_section_title
;
Structure prediction by ZEFSAII (Michael W. Deem and Ramdas Pophale) SiO2 
 PCOD9342851
Probable space group: P M N 21
;
_chemical_formula_sum "Si O2"
_cell_formula_units_Z 24
_cell_length_a 9.275507
_cell_length_b 14.234014
_cell_length_c 7.784724
_cell_angle_alpha 90.000000
_cell_angle_beta 90.000000
_cell_angle_gamma 90.000000
_cell_volume 1027.799178
_symmetry_space_group_name_H-M "P M N 21"
_symmetry_group_IT_number 31
_symmetry_cell_setting 'orthorhombic'
loop_
_space_group_symop_operation_xyz
x,y,z
1/2-x,-y,1/2+z
-x,y,z
1/2+x,-y,1/2+z
loop_
_atom_site_type_symbol
_atom_site_label
_atom_site_fract_x
_atom_site_fract_y
_atom_site_fract_z
Si Si1 0.670771 0.967292 0.939070
Si Si2 0.171174 0.855838 0.642601
Si Si3 0.335500 0.688384 0.794176
Si Si4 0.164762 0.525671 0.970391
Si Si5 0.335647 0.362480 0.832490
Si Si6 0.338790 0.796218 0.164367
O O1 0.500000 0.958491 0.891010
O O2 0.773054 0.919021 0.801543
O O3 0.690157 0.903107 0.109874
O O4 0.701273 0.075401 0.982891
O O5 0.255722 0.758634 0.664256
O O6 0.000000 0.840347 0.653779
O O7 0.500000 0.667656 0.742674
O O8 0.248296 0.595964 0.843803
O O9 0.341353 0.744273 0.977452
O O10 0.241073 0.424994 0.960411
O O11 0.000000 0.515042 0.914815
O O12 0.166614 0.576689 0.154915
O O13 0.500000 0.354297 0.891371
O O14 0.271892 0.261973 0.778951
O O15 0.500000 0.788904 0.238759
#
# Coordination Sequence:
#
# PCOD9342851 Si02
#       6
#     4   4   4   4   4   4
#     4   9  19  34  51  74 102 131 166 207 249 294
#     4  10  19  32  52  76 101 132 169 207 249 296
#     4   9  17  31  51  73  99 132 167 203 245 295
#     4  10  20  34  53  76 101 131 167 205 246 295
#     4  10  20  33  51  76 101 128 165 205 247 295
#     4   8  15  30  50  69  94 130 166 201 242 289
#
# _framework density 23.350866
#
# number of rings (size 3 to 8) (size 9 to 14) (size 15 to 20)
#    0.000    2.667    0.000    3.000    0.000    7.333 
#    0.000    1.667    0.000    6.000    0.000    0.000 
#    0.000    0.000    0.000    0.000    0.000    0.000 
#
# Total GULP energy -134242.657803 kJ/mol
# GULP energy per Si atom -5593.444075 kJ/mol
# Density = 2.329772 g / cm^3
# Si number density = 23.350866 Si / 1000 Ang^3
#
#
#
# Elastic Constant Matrix: (Units=GPa)
#
#
# Indices 1 2 3 4 5 6 
#
# 1 113.6592 53.0931 34.7503 0.0000 0.0000 0.0000
# 2 53.0931 149.5848 15.6541 0.0000 0.0000 0.0000
# 3 34.7503 15.6541 62.6648 0.0000 0.0000 0.0000
# 4 0.0000 0.0000 0.0000 41.2940 0.0000 0.0000
# 5 0.0000 0.0000 0.0000 0.0000 12.9851 0.0000
# 6 0.0000 0.0000 0.0000 0.0000 0.0000 30.9531
#
#
#
# Elastic Compliance Matrix: (Units=1/GPa)
#
#
# Indices 1 2 3 4 5 6 
#
# 1 0.012369 -0.003771 -0.005917 0.000000 0.000000 0.000000
# 2 -0.003771 0.008014 0.000089 0.000000 0.000000 0.000000
# 3 -0.005917 0.000089 0.019217 0.000000 0.000000 0.000000
# 4 0.000000 0.000000 0.000000 0.024217 0.000000 0.000000
# 5 0.000000 0.000000 0.000000 0.000000 0.077011 0.000000
# 6 0.000000 0.000000 0.000000 0.000000 0.000000 0.032307
#
#
# Mechanical properties :
#
#
# Convention : Reuss Voigt Hill
#
# Bulk Modulus (GPa) = 49.01403 59.21153 54.11278
# Shear Modulus (GPa) = 25.10882 31.87387 28.49134
#
# Velocity S-wave (km/s) = 3.28271 3.69859 3.49684
# Velocity P-wave (km/s) = 5.95013 6.60695 6.28713
#
# Compressibility (1/GPa) = 0.02040232
#
# Stress axis : x y z
#
# Youngs Moduli (GPa) = 80.84856 124.77719 52.03755
#
# Poissons Ratio (x) = 0.47053 0.30791
# Poissons Ratio (y) = 0.30487 -0.00464
# Poissons Ratio (z) = 0.47838 -0.01112
#
# Static dielectric constant tensor:
#      x y z
#    x 1.805440 0.000000 0.000000 
#    y 0.000000 1.865540 0.000000 
#    z 0.000000 0.000000 1.937180 
# 
# From -- ./inp_files/1686.got.cif
#   From: 2010.05.17/outbox.cif.g08.bks.cpg/sg31_1_cif.got.tgz:1686.got - 2010.06.03 17:08:30.
