data_PCOD9342485
_publ_section_title
;
Structure prediction by ZEFSAII (Michael W. Deem and Ramdas Pophale) SiO2 
 PCOD9342485
Probable space group: P N C 2
;
_chemical_formula_sum "Si O2"
_cell_formula_units_Z 20
_cell_length_a 9.179806
_cell_length_b 8.856701
_cell_length_c 10.565035
_cell_angle_alpha 90.000000
_cell_angle_beta 90.000000
_cell_angle_gamma 90.000000
_cell_volume 858.966896
_symmetry_space_group_name_H-M "P N C 2"
_symmetry_group_IT_number 30
_symmetry_cell_setting 'orthorhombic'
loop_
_space_group_symop_operation_xyz
x,y,z
-x,-y,z
-x,1/2+y,1/2+z
x,1/2-y,1/2+z
loop_
_atom_site_type_symbol
_atom_site_label
_atom_site_fract_x
_atom_site_fract_y
_atom_site_fract_z
Si Si1 0.586313 0.303386 0.150990
Si Si2 0.909607 0.155983 0.584838
Si Si3 0.654786 0.713485 0.945416
Si Si4 0.500000 0.000000 0.242519
Si Si5 0.022596 0.178134 0.334789
Si Si6 0.500000 0.000000 0.878919
O O1 0.737122 0.365795 0.098416
O O2 0.576526 0.379523 0.287507
O O3 0.594573 0.121246 0.164436
O O4 0.438133 0.336011 0.070706
O O5 0.918146 0.233481 0.447412
O O6 0.983252 0.241288 0.703345
O O7 0.000000 0.000000 0.577312
O O8 0.590205 0.609787 0.833432
O O9 0.823199 0.702846 0.906581
O O10 0.615181 0.891402 0.945054
O O11 0.000000 0.000000 0.311436
#
# Coordination Sequence:
#
# PCOD9342485 Si02
#       6
#     4   4   4   2   4   2
#     4  11  24  43  71 101 137 186 240 298 353 438
#     4  11  27  47  71 104 146 190 240 296 373 435
#     4  11  24  43  71 101 137 186 240 298 353 438
#     4  10  24  40  72  96 138 174 242 288 362 410
#     4  11  27  47  71 104 146 190 240 296 373 435
#     4  10  24  40  72  96 138 174 242 288 362 410
#
# _framework density 23.283785999999999
#
# number of rings (size 3 to 8) (size 9 to 14) (size 15 to 20)
#    0.000    1.200    0.000    3.600   22.400    0.800 
#    7.200    0.000    0.000    0.000    0.000    0.000 
#    0.000    0.000    0.000    0.000    0.000    0.000 
#
# Total GULP energy -111479.726066 kJ/mol
# GULP energy per Si atom -5573.986303 kJ/mol
# Density = 2.323079 g / cm^3
# Si number density = 23.283786 Si / 1000 Ang^3
#
#
#
# Elastic Constant Matrix: (Units=GPa)
#
#
# Indices 1 2 3 4 5 6 
#
# 1 51.7460 33.6062 -10.3180 0.0000 0.0000 0.0000
# 2 33.6062 134.0684 33.4040 0.0000 0.0000 0.0000
# 3 -10.3180 33.4040 92.3558 0.0000 0.0000 0.0000
# 4 0.0000 0.0000 0.0000 31.2277 0.0000 0.0000
# 5 0.0000 0.0000 0.0000 0.0000 17.2845 0.0000
# 6 0.0000 0.0000 0.0000 0.0000 0.0000 31.7000
#
#
#
# Elastic Compliance Matrix: (Units=1/GPa)
#
#
# Indices 1 2 3 4 5 6 
#
# 1 0.025533 -0.007815 0.005679 0.000000 0.000000 0.000000
# 2 -0.007815 0.010590 -0.004703 0.000000 0.000000 0.000000
# 3 0.005679 -0.004703 0.013163 0.000000 0.000000 0.000000
# 4 0.000000 0.000000 0.000000 0.032023 0.000000 0.000000
# 5 0.000000 0.000000 0.000000 0.000000 0.057855 0.000000
# 6 0.000000 0.000000 0.000000 0.000000 0.000000 0.031546
#
#
# Mechanical properties :
#
#
# Convention : Reuss Voigt Hill
#
# Bulk Modulus (GPa) = 28.08392 43.50607 35.79499
# Shear Modulus (GPa) = 25.47667 30.80764 28.14215
#
# Velocity S-wave (km/s) = 3.31143 3.64144 3.48035
# Velocity P-wave (km/s) = 5.16803 6.03372 5.61758
#
# Compressibility (1/GPa) = 0.03560757
#
# Stress axis : x y z
#
# Youngs Moduli (GPa) = 39.16474 94.43093 75.96872
#
# Poissons Ratio (x) = 0.73800 -0.43145
# Poissons Ratio (y) = 0.30608 0.35730
# Poissons Ratio (z) = -0.22243 0.44414
#
# Static dielectric constant tensor:
#      x y z
#    x 2.072900 0.000000 0.000000 
#    y 0.000000 1.880630 0.000000 
#    z 0.000000 0.000000 1.949020 
# 
# From -- ./inp_files/3544.got.cif
#   From: 2010.05.17/outbox.cif.g08.bks.cpg/sg30_2_cif.got.tgz:3544.got - 2010.06.03 17:03:02.
