data_PCOD9342138
_publ_section_title
;
Structure prediction by ZEFSAII (Michael W. Deem and Ramdas Pophale) SiO2 
 PCOD9342138
Probable space group: P N C 2
;
_chemical_formula_sum "Si O2"
_cell_formula_units_Z 24
_cell_length_a 7.560291
_cell_length_b 13.407562
_cell_length_c 9.120547
_cell_angle_alpha 90.000000
_cell_angle_beta 90.000000
_cell_angle_gamma 90.000000
_cell_volume 924.504888
_symmetry_space_group_name_H-M "P N C 2"
_symmetry_group_IT_number 30
_symmetry_cell_setting 'orthorhombic'
loop_
_space_group_symop_operation_xyz
x,y,z
-x,-y,z
-x,1/2+y,1/2+z
x,1/2-y,1/2+z
loop_
_atom_site_type_symbol
_atom_site_label
_atom_site_fract_x
_atom_site_fract_y
_atom_site_fract_z
Si Si1 0.709813 0.468216 0.622820
Si Si2 0.307285 0.756761 0.528503
Si Si3 0.959869 0.658679 0.118996
Si Si4 0.687143 0.952003 0.421680
Si Si5 0.839335 0.853176 0.940652
Si Si6 0.459829 0.249625 0.282196
O O1 0.500000 0.500000 0.611771
O O2 0.260001 0.643629 0.569212
O O3 0.760033 0.477384 0.793297
O O4 0.820148 0.545176 0.526906
O O5 0.351094 0.759114 0.358595
O O6 0.492274 0.773627 0.615896
O O7 0.162070 0.837415 0.568611
O O8 0.958262 0.650959 0.294687
O O9 0.829894 0.578607 0.043102
O O10 0.886454 0.764766 0.054583
O O11 0.639576 0.852512 0.323682
O O12 0.500000 0.000000 0.474030
O O13 0.649890 0.834054 0.862456
#
# Coordination Sequence:
#
# PCOD9342138 Si02
#       6
#     4   4   4   4   4   4
#     4  11  21  43  75 105 128 180 247 295 342 426
#     4  12  24  42  67 106 138 176 235 300 367 411
#     4  11  25  41  67 100 147 184 230 298 369 412
#     4  10  20  43  73 100 131 188 248 280 340 432
#     4  11  22  43  68 100 138 190 237 282 354 440
#     4  11  20  39  70  94 135 184 236 283 345 440
#
# _framework density 25.959841999999998
#
# number of rings (size 3 to 8) (size 9 to 14) (size 15 to 20)
#    0.000    1.000    5.000    5.000    0.000    1.333 
#    3.000    0.833    0.000    0.000    0.000    0.000 
#    0.000    0.000    0.000    0.000    0.000    0.000 
#
# Total GULP energy -134466.101861 kJ/mol
# GULP energy per Si atom -5602.754244 kJ/mol
# Density = 2.590076 g / cm^3
# Si number density = 25.959842 Si / 1000 Ang^3
#
#
#
# Elastic Constant Matrix: (Units=GPa)
#
#
# Indices 1 2 3 4 5 6 
#
# 1 94.9021 3.9903 14.2697 0.0000 0.0000 0.0000
# 2 3.9903 105.8854 24.4624 0.0000 0.0000 0.0000
# 3 14.2697 24.4624 95.7345 0.0000 0.0000 0.0000
# 4 0.0000 0.0000 0.0000 43.3343 0.0000 0.0000
# 5 0.0000 0.0000 0.0000 0.0000 40.0075 0.0000
# 6 0.0000 0.0000 0.0000 0.0000 0.0000 32.6357
#
#
#
# Elastic Compliance Matrix: (Units=1/GPa)
#
#
# Indices 1 2 3 4 5 6 
#
# 1 0.010779 -0.000037 -0.001597 0.000000 0.000000 0.000000
# 2 -0.000037 0.010037 -0.002559 0.000000 0.000000 0.000000
# 3 -0.001597 -0.002559 0.011338 0.000000 0.000000 0.000000
# 4 0.000000 0.000000 0.000000 0.023076 0.000000 0.000000
# 5 0.000000 0.000000 0.000000 0.000000 0.024995 0.000000
# 6 0.000000 0.000000 0.000000 0.000000 0.000000 0.030641
#
#
# Mechanical properties :
#
#
# Convention : Reuss Voigt Hill
#
# Bulk Modulus (GPa) = 42.07637 42.44077 42.25857
# Shear Modulus (GPa) = 39.31583 40.11547 39.71565
#
# Velocity S-wave (km/s) = 3.89586 3.93528 3.91562
# Velocity P-wave (km/s) = 6.03990 6.08545 6.06272
#
# Compressibility (1/GPa) = 0.02376631
#
# Stress axis : x y z
#
# Youngs Moduli (GPa) = 92.77392 99.63341 88.20272
#
# Poissons Ratio (x) = 0.00371 0.14087
# Poissons Ratio (y) = 0.00345 0.22572
# Poissons Ratio (z) = 0.14817 0.25497
#
# Static dielectric constant tensor:
#      x y z
#    x 2.102850 0.000000 0.000000 
#    y 0.000000 2.024610 0.000000 
#    z 0.000000 0.000000 1.987210 
# 
# From -- ./inp_files/1929.got.cif
#   From: 2010.05.17/outbox.cif.g08.bks.cpg/sg30_1_cif.got.tgz:1929.got - 2010.06.03 17:03:02.
