data_PCOD9342189
_publ_section_title
;
Structure prediction by ZEFSAII (Michael W. Deem and Ramdas Pophale) SiO2 
 PCOD9342189
Probable space group: P N C 2
;
_chemical_formula_sum "Si O2"
_cell_formula_units_Z 30
_cell_length_a 16.288823
_cell_length_b 7.859261
_cell_length_c 9.175078
_cell_angle_alpha 90.000000
_cell_angle_beta 90.000000
_cell_angle_gamma 90.000000
_cell_volume 1174.576157
_symmetry_space_group_name_H-M "P N C 2"
_symmetry_group_IT_number 30
_symmetry_cell_setting 'orthorhombic'
loop_
_space_group_symop_operation_xyz
x,y,z
-x,-y,z
-x,1/2+y,1/2+z
x,1/2-y,1/2+z
loop_
_atom_site_type_symbol
_atom_site_label
_atom_site_fract_x
_atom_site_fract_y
_atom_site_fract_z
Si Si1 0.000000 0.500000 0.240440
Si Si2 0.121953 0.903337 0.530525
Si Si3 0.168685 0.455085 0.410585
Si Si4 0.789348 0.763893 0.653395
Si Si5 0.389535 0.408714 0.159388
Si Si6 0.211482 0.704041 0.761823
Si Si7 0.386791 0.686390 0.676472
Si Si8 0.498794 0.280316 0.425013
O O1 0.963689 0.370277 0.116305
O O2 0.923873 0.520757 0.351427
O O3 0.179445 0.765882 0.607135
O O4 0.141242 0.884315 0.360750
O O5 0.153606 0.085978 0.585736
O O6 0.181009 0.407149 0.577374
O O7 0.198221 0.285695 0.325297
O O8 0.221406 0.612104 0.346865
O O9 0.694863 0.809490 0.633027
O O10 0.374426 0.610444 0.148778
O O11 0.434405 0.370963 0.313988
O O12 0.449563 0.335043 0.037522
O O13 0.299368 0.618299 0.734056
O O14 0.433777 0.624215 0.531203
O O15 0.447135 0.672569 0.812194
#
# Coordination Sequence:
#
# PCOD9342189 Si02
#       8
#     2   4   4   4   4   4   4   4
#     4   8  20  40  64 100 136 166 196 276 312 384
#     4  10  21  38  64  94 128 166 210 249 324 372
#     4  10  21  38  64  94 128 166 210 249 324 372
#     4  10  21  39  63  90 122 172 210 259 306 389
#     4  11  21  41  59  83 125 163 206 272 312 382
#     4  10  21  39  63  90 122 172 210 259 306 389
#     4  11  21  41  59  83 125 163 206 272 312 382
#     4  10  22  34  60  82 114 160 206 256 328 354
#
# _framework density 25.541125000000001
#
# number of rings (size 3 to 8) (size 9 to 14) (size 15 to 20)
#    0.000    2.133    2.667    3.200    0.000    5.333 
#    0.000   10.667    0.000   12.800    0.000    0.000 
#    0.000    0.000    0.000    0.000    0.000    0.000 
#
# Total GULP energy -167446.892319 kJ/mol
# GULP energy per Si atom -5581.563077 kJ/mol
# Density = 2.548299 g / cm^3
# Si number density = 25.541125 Si / 1000 Ang^3
#
#
#
# Elastic Constant Matrix: (Units=GPa)
#
#
# Indices 1 2 3 4 5 6 
#
# 1 142.4875 3.3967 29.4169 0.0000 0.0000 0.0000
# 2 3.3967 72.9228 12.1637 0.0000 0.0000 0.0000
# 3 29.4169 12.1637 150.8909 0.0000 0.0000 0.0000
# 4 0.0000 0.0000 0.0000 22.5800 0.0000 0.0000
# 5 0.0000 0.0000 0.0000 0.0000 13.6069 0.0000
# 6 0.0000 0.0000 0.0000 0.0000 0.0000 13.8788
#
#
#
# Elastic Compliance Matrix: (Units=1/GPa)
#
#
# Indices 1 2 3 4 5 6 
#
# 1 0.007313 -0.000104 -0.001417 0.000000 0.000000 0.000000
# 2 -0.000104 0.013902 -0.001100 0.000000 0.000000 0.000000
# 3 -0.001417 -0.001100 0.006992 0.000000 0.000000 0.000000
# 4 0.000000 0.000000 0.000000 0.044287 0.000000 0.000000
# 5 0.000000 0.000000 0.000000 0.000000 0.073492 0.000000
# 6 0.000000 0.000000 0.000000 0.000000 0.000000 0.072053
#
#
# Mechanical properties :
#
#
# Convention : Reuss Voigt Hill
#
# Bulk Modulus (GPa) = 43.54775 50.69510 47.12143
# Shear Modulus (GPa) = 21.65091 31.43472 26.54281
#
# Velocity S-wave (km/s) = 2.91467 3.51201 3.22719
# Velocity P-wave (km/s) = 5.33049 6.02803 5.68996
#
# Compressibility (1/GPa) = 0.02296330
#
# Stress axis : x y z
#
# Youngs Moduli (GPa) = 136.73795 71.93460 143.01396
#
# Poissons Ratio (x) = 0.00750 0.20270
# Poissons Ratio (y) = 0.01425 0.15736
# Poissons Ratio (z) = 0.19381 0.07915
#
# Static dielectric constant tensor:
#      x y z
#    x 2.169860 0.000000 0.000000 
#    y 0.000000 2.129780 0.000000 
#    z 0.000000 0.000000 1.983770 
# 
# From -- ./inp_files/2789.got.cif
#   From: 2010.05.17/outbox.cif.g08.bks.cpg/sg30_2_cif.got.tgz:2789.got - 2010.06.03 17:03:02.
