data_PCOD9342434
_publ_section_title
;
Structure prediction by ZEFSAII (Michael W. Deem and Ramdas Pophale) SiO2 
 PCOD9342434
Probable space group: P N C 2
;
_chemical_formula_sum "Si O2"
_cell_formula_units_Z 32
_cell_length_a 16.498984
_cell_length_b 14.867007
_cell_length_c 5.244421
_cell_angle_alpha 90.000000
_cell_angle_beta 90.000000
_cell_angle_gamma 90.000000
_cell_volume 1286.406705
_symmetry_space_group_name_H-M "P N C 2"
_symmetry_group_IT_number 30
_symmetry_cell_setting 'orthorhombic'
loop_
_space_group_symop_operation_xyz
x,y,z
-x,-y,z
-x,1/2+y,1/2+z
x,1/2-y,1/2+z
loop_
_atom_site_type_symbol
_atom_site_label
_atom_site_fract_x
_atom_site_fract_y
_atom_site_fract_z
Si Si1 0.680554 0.807091 0.613530
Si Si2 0.191317 0.091524 0.880890
Si Si3 0.812615 0.446088 0.007014
Si Si4 0.326057 0.507326 0.666665
Si Si5 0.060723 0.429277 0.709879
Si Si6 0.057880 0.804922 0.516159
Si Si7 0.617248 0.191165 0.947437
Si Si8 0.543798 0.584880 0.377758
O O1 0.671439 0.766440 0.336550
O O2 0.769648 0.849362 0.657701
O O3 0.611302 0.877793 0.686558
O O4 0.112477 0.130660 0.015025
O O5 0.172973 0.991649 0.778604
O O6 0.266353 0.070593 0.064664
O O7 0.719713 0.458775 0.920190
O O8 0.869979 0.509194 0.833883
O O9 0.852892 0.349181 0.987940
O O10 0.333825 0.598583 0.498414
O O11 0.412136 0.459078 0.625131
O O12 0.000000 0.500000 0.578344
O O13 0.009531 0.376353 0.921117
O O14 0.050020 0.773675 0.806544
O O15 0.633013 0.240991 0.681323
O O16 0.522802 0.159320 0.946496
O O17 0.500000 0.500000 0.250181
#
# Coordination Sequence:
#
# PCOD9342434 Si02
#       8
#     4   4   4   4   4   4   4   4
#     4  11  25  42  66  99 136 169 216 279 338 383
#     4  10  23  41  70  93 132 180 227 267 330 404
#     4  10  23  43  69  93 133 180 226 271 327 405
#     4   9  22  42  63  96 124 176 225 271 321 403
#     4   9  22  42  66  94 127 175 221 272 327 402
#     4  11  27  44  67 101 135 174 219 279 340 391
#     4  11  24  42  64  96 133 171 215 276 337 388
#     4   9  20  44  66  94 128 178 224 270 329 407
#
# _framework density 24.875492999999999
#
# number of rings (size 3 to 8) (size 9 to 14) (size 15 to 20)
#    0.000    2.000    0.000    0.750   14.000    2.500 
#    2.250    2.500    0.000    0.000    0.000    0.000 
#    0.000    0.000    0.000    0.000    0.000    0.000 
#
# Total GULP energy -178832.021318 kJ/mol
# GULP energy per Si atom -5588.500666 kJ/mol
# Density = 2.481888 g / cm^3
# Si number density = 24.875493 Si / 1000 Ang^3
#
#
#
# Elastic Constant Matrix: (Units=GPa)
#
#
# Indices 1 2 3 4 5 6 
#
# 1 85.9089 26.5920 25.1601 0.0000 0.0000 0.0000
# 2 26.5920 84.7101 30.9000 0.0000 0.0000 0.0000
# 3 25.1601 30.9000 85.1945 0.0000 0.0000 0.0000
# 4 0.0000 0.0000 0.0000 44.0816 0.0000 0.0000
# 5 0.0000 0.0000 0.0000 0.0000 12.4538 0.0000
# 6 0.0000 0.0000 0.0000 0.0000 0.0000 32.0934
#
#
#
# Elastic Compliance Matrix: (Units=1/GPa)
#
#
# Indices 1 2 3 4 5 6 
#
# 1 0.013454 -0.003197 -0.002814 0.000000 0.000000 0.000000
# 2 -0.003197 0.014365 -0.004266 0.000000 0.000000 0.000000
# 3 -0.002814 -0.004266 0.014116 0.000000 0.000000 0.000000
# 4 0.000000 0.000000 0.000000 0.022685 0.000000 0.000000
# 5 0.000000 0.000000 0.000000 0.000000 0.080297 0.000000
# 6 0.000000 0.000000 0.000000 0.000000 0.000000 0.031159
#
#
# Mechanical properties :
#
#
# Convention : Reuss Voigt Hill
#
# Bulk Modulus (GPa) = 46.76983 46.79086 46.78034
# Shear Modulus (GPa) = 24.53916 29.26987 26.90451
#
# Velocity S-wave (km/s) = 3.14423 3.43396 3.29229
# Velocity P-wave (km/s) = 5.65897 5.87994 5.77051
#
# Compressibility (1/GPa) = 0.02138131
#
# Stress axis : x y z
#
# Youngs Moduli (GPa) = 74.32797 69.61536 70.84147
#
# Poissons Ratio (x) = 0.22256 0.19933
# Poissons Ratio (y) = 0.23763 0.30220
# Poissons Ratio (z) = 0.20914 0.29697
#
# Static dielectric constant tensor:
#      x y z
#    x 2.008660 0.000000 0.000000 
#    y 0.000000 1.996710 0.000000 
#    z 0.000000 0.000000 2.025460 
# 
# From -- ./inp_files/1010.got.cif
#   From: 2010.05.17/outbox.cif.g08.bks.cpg/sg30_1_cif.got.tgz:1010.got - 2010.06.03 17:03:02.
