data_PCOD9342071
_publ_section_title
;
Structure prediction by ZEFSAII (Michael W. Deem and Ramdas Pophale) SiO2 
 PCOD9342071
Probable space group: P N C 2
;
_chemical_formula_sum "Si O2"
_cell_formula_units_Z 16
_cell_length_a 5.600746
_cell_length_b 12.351842
_cell_length_c 8.186329
_cell_angle_alpha 90.000000
_cell_angle_beta 90.000000
_cell_angle_gamma 90.000000
_cell_volume 566.326390
_symmetry_space_group_name_H-M "P N C 2"
_symmetry_group_IT_number 30
_symmetry_cell_setting 'orthorhombic'
loop_
_space_group_symop_operation_xyz
x,y,z
-x,-y,z
-x,1/2+y,1/2+z
x,1/2-y,1/2+z
loop_
_atom_site_type_symbol
_atom_site_label
_atom_site_fract_x
_atom_site_fract_y
_atom_site_fract_z
Si Si1 0.250000 0.085716 0.326320
Si Si2 0.000000 0.000000 0.625350
Si Si3 0.996034 0.236141 0.671598
Si Si4 0.500000 0.000000 0.027290
Si Si5 0.503966 0.236141 0.981043
O O1 0.471413 0.167598 0.351975
O O2 0.211469 0.018787 0.491979
O O3 0.028587 0.167597 0.300664
O O4 0.288531 0.018787 0.160661
O O5 0.991080 0.110502 0.726940
O O6 0.750000 0.250000 0.576320
O O7 0.250000 0.250000 0.576320
O O8 0.491080 0.889498 0.925700
#
# Coordination Sequence:
#
# PCOD9342071 Si02
#       5
#     4   2   4   2   4
#     4  10  20  38  64  94 128 168 208 264 320 376
#     4  10  20  38  64  88 124 166 204 260 320 374
#     4  10  22  38  60  92 122 160 215 258 311 388
#     4  10  20  38  64  88 124 166 204 260 320 374
#     4  10  22  38  60  92 122 160 215 258 311 388
#
# _framework density 28.252257
#
# number of rings (size 3 to 8) (size 9 to 14) (size 15 to 20)
#    0.000    2.000    0.000    3.000    0.000   12.000 
#    0.000   10.000    0.000    0.000    0.000    0.000 
#    0.000    0.000    0.000    0.000    0.000    0.000 
#
# Total GULP energy -89378.681006 kJ/mol
# GULP energy per Si atom -5586.167563 kJ/mol
# Density = 2.818795 g / cm^3
# Si number density = 28.252257 Si / 1000 Ang^3
#
#
#
# Elastic Constant Matrix: (Units=GPa)
#
#
# Indices 1 2 3 4 5 6 
#
# 1 213.3157 40.9446 52.9619 0.0000 0.0000 0.0000
# 2 40.9446 207.9801 -5.6588 0.0000 0.0000 0.0000
# 3 52.9619 -5.6588 48.9648 0.0000 0.0000 0.0000
# 4 0.0000 0.0000 0.0000 18.8168 0.0000 0.0000
# 5 0.0000 0.0000 0.0000 0.0000 70.1586 0.0000
# 6 0.0000 0.0000 0.0000 0.0000 0.0000 49.6829
#
#
#
# Elastic Compliance Matrix: (Units=1/GPa)
#
#
# Indices 1 2 3 4 5 6 
#
# 1 0.006880 -0.001562 -0.007622 0.000000 0.000000 0.000000
# 2 -0.001562 0.005178 0.002288 0.000000 0.000000 0.000000
# 3 -0.007622 0.002288 0.028932 0.000000 0.000000 0.000000
# 4 0.000000 0.000000 0.000000 0.053144 0.000000 0.000000
# 5 0.000000 0.000000 0.000000 0.000000 0.014253 0.000000
# 6 0.000000 0.000000 0.000000 0.000000 0.000000 0.020128
#
#
# Mechanical properties :
#
#
# Convention : Reuss Voigt Hill
#
# Bulk Modulus (GPa) = 36.76879 71.86176 54.31527
# Shear Modulus (GPa) = 33.03097 53.19919 43.11508
#
# Velocity S-wave (km/s) = 3.42299 4.34407 3.91074
# Velocity P-wave (km/s) = 5.35398 7.11704 6.29751
#
# Compressibility (1/GPa) = 0.02719698
#
# Stress axis : x y z
#
# Youngs Moduli (GPa) = 145.34614 193.12931 34.56414
#
# Poissons Ratio (x) = 0.30164 0.26346
# Poissons Ratio (y) = 0.22701 -0.07907
# Poissons Ratio (z) = 1.10787 -0.44183
#
# Static dielectric constant tensor:
#      x y z
#    x 2.317920 0.000000 0.000000 
#    y 0.000000 2.273690 0.000000 
#    z 0.000000 0.000000 2.380330 
# 
# From -- ./inp_files/2968.got.cif
#   From: 2010.05.17/outbox.cif.g08.bks.cpg/sg30_2_cif.got.tgz:2968.got - 2010.06.03 17:03:02.
