data_PCOD9342302
_publ_section_title
;
Structure prediction by ZEFSAII (Michael W. Deem and Ramdas Pophale) SiO2 
 PCOD9342302
Probable space group: P N C 2
;
_chemical_formula_sum "Si O2"
_cell_formula_units_Z 18
_cell_length_a 5.637662
_cell_length_b 16.406513
_cell_length_c 8.895647
_cell_angle_alpha 90.000000
_cell_angle_beta 90.000000
_cell_angle_gamma 90.000000
_cell_volume 822.797309
_symmetry_space_group_name_H-M "P N C 2"
_symmetry_group_IT_number 30
_symmetry_cell_setting 'orthorhombic'
loop_
_space_group_symop_operation_xyz
x,y,z
-x,-y,z
-x,1/2+y,1/2+z
x,1/2-y,1/2+z
loop_
_atom_site_type_symbol
_atom_site_label
_atom_site_fract_x
_atom_site_fract_y
_atom_site_fract_z
Si Si1 0.740966 0.230167 0.217220
Si Si2 0.500000 0.000000 0.649332
Si Si3 0.932643 0.699404 0.454214
Si Si4 0.440812 0.166528 0.480710
Si Si5 0.744515 0.972275 0.939606
O O1 0.877583 0.295181 0.321299
O O2 0.592816 0.173293 0.328533
O O3 0.567897 0.277344 0.105504
O O4 0.932555 0.186937 0.111026
O O5 0.439565 0.076887 0.547556
O O6 0.711747 0.010099 0.771881
O O7 0.751993 0.625690 0.428266
O O8 0.807361 0.787597 0.455539
O O9 0.500000 0.000000 0.019308
O O10 0.000000 0.000000 1.000000
#
# Coordination Sequence:
#
# PCOD9342302 Si02
#       5
#     4   2   4   4   4
#     4  10  23  38  68  94 132 176 226 277 342 413
#     4  10  22  38  68  98 138 172 238 284 350 398
#     4  11  22  42  66  97 132 181 224 281 347 412
#     4  11  22  42  66  98 133 180 226 287 341 417
#     4  10  23  40  68 102 129 177 229 288 337 415
#
# _framework density 21.876588999999999
#
# number of rings (size 3 to 8) (size 9 to 14) (size 15 to 20)
#    0.667    0.889    0.000    5.333    6.222    1.778 
#    0.000    4.444    0.000    0.000    0.000    0.000 
#    0.000    0.000    0.000    0.000    0.000    0.000 
#
# Total GULP energy -100527.051185 kJ/mol
# GULP energy per Si atom -5584.836177 kJ/mol
# Density = 2.182680 g / cm^3
# Si number density = 21.876589 Si / 1000 Ang^3
#
#
#
# Elastic Constant Matrix: (Units=GPa)
#
#
# Indices 1 2 3 4 5 6 
#
# 1 88.6524 1.0330 19.6720 0.0000 0.0000 0.0000
# 2 1.0330 75.4251 -2.9013 0.0000 0.0000 0.0000
# 3 19.6720 -2.9013 92.8506 0.0000 0.0000 0.0000
# 4 0.0000 0.0000 0.0000 20.8088 0.0000 0.0000
# 5 0.0000 0.0000 0.0000 0.0000 23.0439 0.0000
# 6 0.0000 0.0000 0.0000 0.0000 0.0000 28.8260
#
#
#
# Elastic Compliance Matrix: (Units=1/GPa)
#
#
# Indices 1 2 3 4 5 6 
#
# 1 0.011842 -0.000259 -0.002517 0.000000 0.000000 0.000000
# 2 -0.000259 0.013280 0.000470 0.000000 0.000000 0.000000
# 3 -0.002517 0.000470 0.011318 0.000000 0.000000 0.000000
# 4 0.000000 0.000000 0.000000 0.048057 0.000000 0.000000
# 5 0.000000 0.000000 0.000000 0.000000 0.043395 0.000000
# 6 0.000000 0.000000 0.000000 0.000000 0.000000 0.034691
#
#
# Mechanical properties :
#
#
# Convention : Reuss Voigt Hill
#
# Bulk Modulus (GPa) = 31.41979 32.50394 31.96186
# Shear Modulus (GPa) = 28.12095 30.47738 29.29916
#
# Velocity S-wave (km/s) = 3.58919 3.73654 3.66361
# Velocity P-wave (km/s) = 5.61870 5.78842 5.70419
#
# Compressibility (1/GPa) = 0.03182708
#
# Stress axis : x y z
#
# Youngs Moduli (GPa) = 84.44848 75.30235 88.35544
#
# Poissons Ratio (x) = 0.01950 0.22238
# Poissons Ratio (y) = 0.02187 -0.04151
# Poissons Ratio (z) = 0.21255 -0.03538
#
# Static dielectric constant tensor:
#      x y z
#    x 1.864850 0.000000 0.000000 
#    y 0.000000 1.801300 0.000000 
#    z 0.000000 0.000000 1.772340 
# 
# From -- ./inp_files/1299.got.cif
#   From: 2010.05.17/outbox.cif.g08.bks.cpg/sg30_1_cif.got.tgz:1299.got - 2010.06.03 17:03:02.
