data_PCOD9342811
_publ_section_title
;
Structure prediction by ZEFSAII (Michael W. Deem and Ramdas Pophale) SiO2 
 PCOD9342811
Probable space group: P M N 21
;
_chemical_formula_sum "Si O2"
_cell_formula_units_Z 32
_cell_length_a 13.938606
_cell_length_b 7.442157
_cell_length_c 18.624372
_cell_angle_alpha 90.000000
_cell_angle_beta 90.000000
_cell_angle_gamma 90.000000
_cell_volume 1931.967460
_symmetry_space_group_name_H-M "P M N 21"
_symmetry_group_IT_number 31
_symmetry_cell_setting 'orthorhombic'
loop_
_space_group_symop_operation_xyz
x,y,z
1/2-x,-y,1/2+z
-x,y,z
1/2+x,-y,1/2+z
loop_
_atom_site_type_symbol
_atom_site_label
_atom_site_fract_x
_atom_site_fract_y
_atom_site_fract_z
Si Si1 0.609760 0.592870 0.864950
Si Si2 0.111802 0.610964 0.097928
Si Si3 0.706231 0.526483 0.010824
Si Si4 0.207455 0.924570 0.183889
Si Si5 0.887273 0.283481 0.206370
Si Si6 0.613503 0.141912 0.989346
Si Si7 0.111201 0.175244 0.604266
Si Si8 0.890608 0.832546 0.330542
O O1 0.500000 0.641186 0.886425
O O2 0.633723 0.693438 0.791091
O O3 0.609065 0.381682 0.843868
O O4 0.679036 0.607600 0.932934
O O5 0.184123 0.553808 0.034792
O O6 0.145396 0.801437 0.129825
O O7 0.124480 0.468634 0.163142
O O8 0.000000 0.612587 0.077940
O O9 0.673827 0.318711 0.009131
O O10 0.644408 0.637646 0.069011
O O11 0.316947 0.876383 0.167841
O O12 0.176294 0.878654 0.264587
O O13 0.179731 0.131356 0.173293
O O14 0.000000 0.233848 0.200048
O O15 0.500000 0.192805 0.988491
O O16 0.625765 0.979384 0.044109
O O17 0.636407 0.084891 0.907540
O O18 0.000000 0.180210 0.624040
O O19 0.000000 0.886305 0.312398
#
# Coordination Sequence:
#
# PCOD9342811 Si02
#       8
#     4   4   4   4   4   4   4   4
#     4   9  17  30  50  76 101 122 155 205 248 285
#     4  10  20  34  49  72 103 130 161 199 239 286
#     4  10  19  32  52  74  98 130 159 196 245 291
#     4  11  20  31  50  74  99 131 160 195 244 294
#     4  10  19  30  50  77 101 124 157 201 247 289
#     4   9  18  32  51  75 101 123 155 204 249 287
#     4  10  21  34  49  72  99 129 166 199 239 290
#     4   9  16  29  49  74 100 125 153 199 253 288
#
# _framework density 16.563424999999999
#
# number of rings (size 3 to 8) (size 9 to 14) (size 15 to 20)
#    0.000    2.250    1.250    3.750    1.750    0.000 
#    0.000    0.000    0.000    3.750    0.000    0.000 
#    0.000    0.000    0.000    0.000    0.000    0.000 
#
# Total GULP energy -178536.738193 kJ/mol
# GULP energy per Si atom -5579.273069 kJ/mol
# Density = 1.652573 g / cm^3
# Si number density = 16.563425 Si / 1000 Ang^3
#
#
#
# Elastic Constant Matrix: (Units=GPa)
#
#
# Indices 1 2 3 4 5 6 
#
# 1 109.3308 14.9823 54.7678 0.0000 0.0000 0.0000
# 2 14.9823 26.4024 1.9697 0.0000 0.0000 0.0000
# 3 54.7678 1.9697 77.6384 0.0000 0.0000 0.0000
# 4 0.0000 0.0000 0.0000 24.5363 0.0000 0.0000
# 5 0.0000 0.0000 0.0000 0.0000 29.8192 0.0000
# 6 0.0000 0.0000 0.0000 0.0000 0.0000 16.8844
#
#
#
# Elastic Compliance Matrix: (Units=1/GPa)
#
#
# Indices 1 2 3 4 5 6 
#
# 1 0.015702 -0.008099 -0.010871 0.000000 0.000000 0.000000
# 2 -0.008099 0.042125 0.004645 0.000000 0.000000 0.000000
# 3 -0.010871 0.004645 0.020431 0.000000 0.000000 0.000000
# 4 0.000000 0.000000 0.000000 0.040756 0.000000 0.000000
# 5 0.000000 0.000000 0.000000 0.000000 0.033535 0.000000
# 6 0.000000 0.000000 0.000000 0.000000 0.000000 0.059226
#
#
# Mechanical properties :
#
#
# Convention : Reuss Voigt Hill
#
# Bulk Modulus (GPa) = 20.15856 39.64567 29.90212
# Shear Modulus (GPa) = 19.45803 23.69143 21.57473
#
# Velocity S-wave (km/s) = 3.43119 3.78609 3.61300
# Velocity P-wave (km/s) = 5.28152 6.56508 5.95797
#
# Compressibility (1/GPa) = 0.04960671
#
# Stress axis : x y z
#
# Youngs Moduli (GPa) = 63.68516 23.73891 48.94483
#
# Poissons Ratio (x) = 0.19227 0.53209
# Poissons Ratio (y) = 0.51581 -0.22734
# Poissons Ratio (z) = 0.69234 -0.11026
#
# Static dielectric constant tensor:
#      x y z
#    x 1.536460 0.000000 0.000000 
#    y 0.000000 1.592790 0.000000 
#    z 0.000000 0.000000 1.557340 
# 
# From -- ./inp_files/6048.got.cif
#   From: 2010.05.17/outbox.cif.g08.bks.cpg/sg31_4_cif.got.tgz:6048.got - 2010.06.03 17:08:30.
