data_PCOD9342937
_publ_section_title
;
Structure prediction by ZEFSAII (Michael W. Deem and Ramdas Pophale) SiO2 
 PCOD9342937
Probable space group: P M N 21
;
_chemical_formula_sum "Si O2"
_cell_formula_units_Z 32
_cell_length_a 8.615117
_cell_length_b 12.864332
_cell_length_c 14.375014
_cell_angle_alpha 90.000000
_cell_angle_beta 90.000000
_cell_angle_gamma 90.000000
_cell_volume 1593.150103
_symmetry_space_group_name_H-M "P M N 21"
_symmetry_group_IT_number 31
_symmetry_cell_setting 'orthorhombic'
loop_
_space_group_symop_operation_xyz
x,y,z
1/2-x,-y,1/2+z
-x,y,z
1/2+x,-y,1/2+z
loop_
_atom_site_type_symbol
_atom_site_label
_atom_site_fract_x
_atom_site_fract_y
_atom_site_fract_z
Si Si1 0.320095 0.910541 0.656990
Si Si2 0.814919 0.163103 0.451537
Si Si3 0.687286 0.867916 0.161378
Si Si4 0.314262 0.425410 0.970396
Si Si5 0.687037 0.741557 0.332657
Si Si6 0.686433 0.321902 0.165494
Si Si7 0.311414 0.625386 0.859519
Si Si8 0.679851 0.950220 0.435289
O O1 0.500000 0.903922 0.685204
O O2 0.243498 0.798121 0.674607
O O3 0.310159 0.928251 0.545381
O O4 0.247202 0.018703 0.693735
O O5 0.755942 0.156604 0.557534
O O6 0.757155 0.262355 0.396355
O O7 0.000000 0.172241 0.455976
O O8 0.771691 0.052861 0.408474
O O9 0.500000 0.875630 0.160635
O O10 0.728247 0.771708 0.227650
O O11 0.500000 0.429395 0.979138
O O12 0.267931 0.351815 0.884749
O O13 0.262609 0.539160 0.935408
O O14 0.257384 0.374987 0.068060
O O15 0.500000 0.728483 0.339420
O O16 0.733457 0.845957 0.386839
O O17 0.500000 0.321236 0.164707
O O18 0.746084 0.385177 0.255366
O O19 0.500000 0.623672 0.854042
O O20 0.500000 0.966887 0.411048
#
# Coordination Sequence:
#
# PCOD9342937 Si02
#       8
#     4   4   4   4   4   4   4   4
#     4  10  19  34  56  83 118 157 193 237 291 346
#     4   9  19  36  56  80 114 153 192 236 289 346
#     4   9  19  34  55  86 120 157 196 240 289 346
#     4  10  23  42  62  85 118 155 196 244 289 345
#     4  10  20  35  57  86 119 155 193 239 290 342
#     4  11  23  39  61  88 114 149 195 243 289 345
#     4  10  23  42  61  85 116 154 197 243 295 345
#     4   9  18  32  52  81 117 152 186 234 288 339
#
# _framework density 20.085992999999998
#
# number of rings (size 3 to 8) (size 9 to 14) (size 15 to 20)
#    0.000    2.250    1.250    0.750    1.750    4.000 
#    0.000    2.500    0.000    0.000    0.000    0.000 
#    0.000    0.000    0.000    0.000    0.000    0.000 
#
# Total GULP energy -178495.990523 kJ/mol
# GULP energy per Si atom -5577.999704 kJ/mol
# Density = 2.004028 g / cm^3
# Si number density = 20.085993 Si / 1000 Ang^3
#
#
#
# Elastic Constant Matrix: (Units=GPa)
#
#
# Indices 1 2 3 4 5 6 
#
# 1 15.2895 12.9078 15.5886 0.0000 0.0000 0.0000
# 2 12.9078 79.5252 29.0133 0.0000 0.0000 0.0000
# 3 15.5886 29.0133 65.9086 0.0000 0.0000 0.0000
# 4 0.0000 0.0000 0.0000 23.4188 0.0000 0.0000
# 5 0.0000 0.0000 0.0000 0.0000 19.4615 0.0000
# 6 0.0000 0.0000 0.0000 0.0000 0.0000 23.7657
#
#
#
# Elastic Compliance Matrix: (Units=1/GPa)
#
#
# Indices 1 2 3 4 5 6 
#
# 1 0.090457 -0.008192 -0.017789 0.000000 0.000000 0.000000
# 2 -0.008192 0.015722 -0.004983 0.000000 0.000000 0.000000
# 3 -0.017789 -0.004983 0.021574 0.000000 0.000000 0.000000
# 4 0.000000 0.000000 0.000000 0.042701 0.000000 0.000000
# 5 0.000000 0.000000 0.000000 0.000000 0.051384 0.000000
# 6 0.000000 0.000000 0.000000 0.000000 0.000000 0.042077
#
#
# Mechanical properties :
#
#
# Convention : Reuss Voigt Hill
#
# Bulk Modulus (GPa) = 15.19192 30.63809 22.91500
# Shear Modulus (GPa) = 14.37671 20.21012 17.29341
#
# Velocity S-wave (km/s) = 2.67827 3.17547 2.93741
# Velocity P-wave (km/s) = 4.14053 5.36017 4.78933
#
# Compressibility (1/GPa) = 0.06582447
#
# Stress axis : x y z
#
# Youngs Moduli (GPa) = 11.05498 63.60336 46.35298
#
# Poissons Ratio (x) = 0.52106 0.82455
# Poissons Ratio (y) = 0.09057 0.23100
# Poissons Ratio (z) = 0.19665 0.31696
#
# Static dielectric constant tensor:
#      x y z
#    x 1.706240 0.000000 0.000000 
#    y 0.000000 1.728640 0.000000 
#    z 0.000000 0.000000 1.770220 
# 
# From -- ./inp_files/5075.got.cif
#   From: 2010.05.17/outbox.cif.g08.bks.cpg/sg31_3_cif.got.tgz:5075.got - 2010.06.03 17:08:30.
