data_PCOD9342822
_publ_section_title
;
Structure prediction by ZEFSAII (Michael W. Deem and Ramdas Pophale) SiO2 
 PCOD9342822
Probable space group: P M N 21
;
_chemical_formula_sum "Si O2"
_cell_formula_units_Z 32
_cell_length_a 9.387082
_cell_length_b 20.653176
_cell_length_c 7.134247
_cell_angle_alpha 90.000000
_cell_angle_beta 90.000000
_cell_angle_gamma 90.000000
_cell_volume 1383.138273
_symmetry_space_group_name_H-M "P M N 21"
_symmetry_group_IT_number 31
_symmetry_cell_setting 'orthorhombic'
loop_
_space_group_symop_operation_xyz
x,y,z
1/2-x,-y,1/2+z
-x,y,z
1/2+x,-y,1/2+z
loop_
_atom_site_type_symbol
_atom_site_label
_atom_site_fract_x
_atom_site_fract_y
_atom_site_fract_z
Si Si1 0.659780 0.176400 0.375000
Si Si2 0.163217 0.786862 0.321131
Si Si3 0.339338 0.456819 0.629056
Si Si4 0.660645 0.416665 0.194671
Si Si5 0.335193 0.048952 0.545736
Si Si6 0.836044 0.093094 0.893245
Si Si7 0.836651 0.336416 0.729700
Si Si8 0.838290 0.296295 0.286656
O O1 0.500000 0.191028 0.309242
O O2 0.662949 0.193143 0.599303
O O3 0.683066 0.099049 0.372579
O O4 0.769721 0.225361 0.283341
O O5 0.229341 0.847812 0.430823
O O6 0.263718 0.724524 0.329637
O O7 0.000000 0.773019 0.371596
O O8 0.500000 0.469486 0.697480
O O9 0.349571 0.430324 0.417972
O O10 0.247819 0.521916 0.621970
O O11 0.258041 0.401009 0.744364
O O12 0.500000 0.412536 0.120726
O O13 0.745803 0.349945 0.180783
O O14 0.500000 0.060668 0.613108
O O15 0.213049 0.068861 0.688715
O O16 0.324376 0.973101 0.508162
O O17 0.000000 0.115396 0.895864
O O18 0.839182 0.317561 0.507234
O O19 0.000000 0.347957 0.786147
O O20 0.000000 0.295730 0.220907
#
# Coordination Sequence:
#
# PCOD9342822 Si02
#       8
#     4   4   4   4   4   4   4   4
#     4   8  14  26  43  63  90 121 152 191 237 280
#     4   9  16  27  44  67  95 124 156 198 242 281
#     4  10  20  33  50  73 100 129 161 198 240 285
#     4  10  20  33  50  72  98 129 161 195 238 285
#     4   9  19  33  48  70  99 128 159 197 240 286
#     4  10  19  31  49  72  97 127 162 199 240 287
#     4   9  16  27  45  69  95 123 158 199 239 280
#     4   9  16  26  43  68  94 119 153 197 238 278
#
# _framework density 23.135791000000001
#
# number of rings (size 3 to 8) (size 9 to 14) (size 15 to 20)
#    0.000    2.750    0.000    3.000    0.000    8.500 
#    0.000    0.000    0.000    1.500    0.000    3.500 
#    0.000    0.000    0.000    0.000    0.000    0.000 
#
# Total GULP energy -178891.256209 kJ/mol
# GULP energy per Si atom -5590.351757 kJ/mol
# Density = 2.308313 g / cm^3
# Si number density = 23.135791 Si / 1000 Ang^3
#
#
#
# Elastic Constant Matrix: (Units=GPa)
#
#
# Indices 1 2 3 4 5 6 
#
# 1 186.2111 82.1291 12.8233 0.0000 0.0000 0.0000
# 2 82.1291 107.5105 27.4087 0.0000 0.0000 0.0000
# 3 12.8233 27.4087 43.6530 0.0000 0.0000 0.0000
# 4 0.0000 0.0000 0.0000 29.3718 0.0000 0.0000
# 5 0.0000 0.0000 0.0000 0.0000 8.4547 0.0000
# 6 0.0000 0.0000 0.0000 0.0000 0.0000 39.3467
#
#
#
# Elastic Compliance Matrix: (Units=1/GPa)
#
#
# Indices 1 2 3 4 5 6 
#
# 1 0.008219 -0.006742 0.001819 0.000000 0.000000 0.000000
# 2 -0.006742 0.016605 -0.008445 0.000000 0.000000 0.000000
# 3 0.001819 -0.008445 0.027676 0.000000 0.000000 0.000000
# 4 0.000000 0.000000 0.000000 0.034046 0.000000 0.000000
# 5 0.000000 0.000000 0.000000 0.000000 0.118277 0.000000
# 6 0.000000 0.000000 0.000000 0.000000 0.000000 0.025415
#
#
# Mechanical properties :
#
#
# Convention : Reuss Voigt Hill
#
# Bulk Modulus (GPa) = 38.81559 64.67742 51.74651
# Shear Modulus (GPa) = 18.82798 29.76889 24.29844
#
# Velocity S-wave (km/s) = 2.85582 3.59096 3.24428
# Velocity P-wave (km/s) = 5.26194 6.72380 6.03728
#
# Compressibility (1/GPa) = 0.02576284
#
# Stress axis : x y z
#
# Youngs Moduli (GPa) = 121.67534 60.22356 36.13210
#
# Poissons Ratio (x) = 0.40603 -0.06572
# Poissons Ratio (y) = 0.82034 0.30514
# Poissons Ratio (z) = -0.22132 0.50860
#
# Static dielectric constant tensor:
#      x y z
#    x 1.803430 0.000000 0.000000 
#    y 0.000000 1.830420 0.000000 
#    z 0.000000 0.000000 1.970260 
# 
# From -- ./inp_files/3763.got.cif
#   From: 2010.05.17/outbox.cif.g08.bks.cpg/sg31_2_cif.got.tgz:3763.got - 2010.06.03 17:08:30.
