data_PCOD9342008
_publ_section_title
;
Structure prediction by ZEFSAII (Michael W. Deem and Ramdas Pophale) SiO2 
 PCOD9342008
Probable space group: P N C 2
;
_chemical_formula_sum "Si O2"
_cell_formula_units_Z 32
_cell_length_a 6.667856
_cell_length_b 22.452161
_cell_length_c 13.149749
_cell_angle_alpha 90.000000
_cell_angle_beta 90.000000
_cell_angle_gamma 90.000000
_cell_volume 1968.619683
_symmetry_space_group_name_H-M "P N C 2"
_symmetry_group_IT_number 30
_symmetry_cell_setting 'orthorhombic'
loop_
_space_group_symop_operation_xyz
x,y,z
-x,-y,z
-x,1/2+y,1/2+z
x,1/2-y,1/2+z
loop_
_atom_site_type_symbol
_atom_site_label
_atom_site_fract_x
_atom_site_fract_y
_atom_site_fract_z
Si Si1 0.384032 0.562310 0.114530
Si Si2 0.510221 0.325218 0.795236
Si Si3 0.345529 0.147846 0.703862
Si Si4 0.238206 0.278045 0.393376
Si Si5 0.040915 0.408110 0.048971
Si Si6 0.496687 0.235851 0.086183
Si Si7 0.600458 0.936474 0.412624
Si Si8 0.847977 0.289859 0.950961
O O1 0.500000 0.500000 0.128726
O O2 0.451439 0.608382 0.201036
O O3 0.149569 0.556722 0.093268
O O4 0.471692 0.588586 0.008376
O O5 0.351554 0.278800 0.843619
O O6 0.535277 0.309972 0.677320
O O7 0.427776 0.390438 0.821940
O O8 0.715435 0.312801 0.856311
O O9 0.269601 0.169016 0.813129
O O10 0.183411 0.109041 0.643017
O O11 0.390884 0.206940 0.638113
O O12 0.351007 0.289393 0.499379
O O13 0.012081 0.257702 0.413812
O O14 0.176394 0.438418 0.960628
O O15 0.958801 0.346010 0.002310
O O16 0.697086 0.259496 0.031362
O O17 0.500000 0.000000 0.390319
#
# Coordination Sequence:
#
# PCOD9342008 Si02
#       8
#     4   4   4   4   4   4   4   4
#     4  10  20  34  52  75 107 136 174 211 264 312
#     4  10  20  33  49  76 106 136 172 218 261 313
#     4  10  20  31  51  77 103 138 172 215 258 315
#     4  10  20  33  50  75 106 137 173 214 266 311
#     4  11  18  33  52  75 106 138 170 214 258 317
#     4  10  20  32  50  74 109 136 172 216 263 311
#     4  10  20  33  50  76 105 138 174 212 259 314
#     4  11  18  31  51  75 105 139 172 206 265 317
#
# _framework density 16.255044000000002
#
# number of rings (size 3 to 8) (size 9 to 14) (size 15 to 20)
#    0.000    1.750    5.000    1.500    1.750    5.500 
#    0.000    0.000    0.000    0.750    0.000    0.000 
#    0.000    0.000    0.000    0.000    0.000    0.000 
#
# Total GULP energy -178418.989463 kJ/mol
# GULP energy per Si atom -5575.593421 kJ/mol
# Density = 1.621805 g / cm^3
# Si number density = 16.255044 Si / 1000 Ang^3
#
#
#
# Elastic Constant Matrix: (Units=GPa)
#
#
# Indices 1 2 3 4 5 6 
#
# 1 109.2026 33.1036 40.0196 0.0000 0.0000 0.0000
# 2 33.1036 78.5991 45.0269 0.0000 0.0000 0.0000
# 3 40.0196 45.0269 101.0526 0.0000 0.0000 0.0000
# 4 0.0000 0.0000 0.0000 23.7547 0.0000 0.0000
# 5 0.0000 0.0000 0.0000 0.0000 11.5196 0.0000
# 6 0.0000 0.0000 0.0000 0.0000 0.0000 23.4016
#
#
#
# Elastic Compliance Matrix: (Units=1/GPa)
#
#
# Indices 1 2 3 4 5 6 
#
# 1 0.011190 -0.002919 -0.003131 0.000000 0.000000 0.000000
# 2 -0.002919 0.017845 -0.006795 0.000000 0.000000 0.000000
# 3 -0.003131 -0.006795 0.014163 0.000000 0.000000 0.000000
# 4 0.000000 0.000000 0.000000 0.042097 0.000000 0.000000
# 5 0.000000 0.000000 0.000000 0.000000 0.086809 0.000000
# 6 0.000000 0.000000 0.000000 0.000000 0.000000 0.042732
#
#
# Mechanical properties :
#
#
# Convention : Reuss Voigt Hill
#
# Bulk Modulus (GPa) = 57.11747 58.35052 57.73399
# Shear Modulus (GPa) = 20.29533 23.11546 21.70539
#
# Velocity S-wave (km/s) = 3.53732 3.77510 3.65814
# Velocity P-wave (km/s) = 7.20404 7.41462 7.31009
#
# Compressibility (1/GPa) = 0.01750778
#
# Stress axis : x y z
#
# Youngs Moduli (GPa) = 89.36941 56.03777 70.60413
#
# Poissons Ratio (x) = 0.16359 0.22103
# Poissons Ratio (y) = 0.26089 0.47978
# Poissons Ratio (z) = 0.27978 0.38079
#
# Static dielectric constant tensor:
#      x y z
#    x 1.590920 0.000000 0.000000 
#    y 0.000000 1.564850 0.000000 
#    z 0.000000 0.000000 1.532570 
# 
# From -- ./inp_files/3293.got.cif
#   From: 2010.05.17/outbox.cif.g08.bks.cpg/sg30_2_cif.got.tgz:3293.got - 2010.06.03 17:03:02.
