data_PCOD9342246
_publ_section_title
;
Structure prediction by ZEFSAII (Michael W. Deem and Ramdas Pophale) SiO2 
 PCOD9342246
Probable space group: P N C 2
;
_chemical_formula_sum "Si O2"
_cell_formula_units_Z 24
_cell_length_a 13.633251
_cell_length_b 14.219574
_cell_length_c 5.198747
_cell_angle_alpha 90.000000
_cell_angle_beta 90.000000
_cell_angle_gamma 90.000000
_cell_volume 1007.824006
_symmetry_space_group_name_H-M "P N C 2"
_symmetry_group_IT_number 30
_symmetry_cell_setting 'orthorhombic'
loop_
_space_group_symop_operation_xyz
x,y,z
-x,-y,z
-x,1/2+y,1/2+z
x,1/2-y,1/2+z
loop_
_atom_site_type_symbol
_atom_site_label
_atom_site_fract_x
_atom_site_fract_y
_atom_site_fract_z
Si Si1 0.784910 0.509539 0.222030
Si Si2 0.019991 0.703826 0.022095
Si Si3 0.000000 0.500000 0.102136
Si Si4 0.472619 0.301052 0.877712
Si Si5 0.500000 0.500000 0.834765
Si Si6 0.254704 0.701307 0.118843
Si Si7 0.303944 0.087339 0.212674
O O1 0.737207 0.405119 0.221300
O O2 0.744314 0.580453 0.435443
O O3 0.900509 0.496561 0.264033
O O4 0.765474 0.546840 0.934473
O O5 0.979413 0.728550 0.302554
O O6 0.000703 0.596732 0.945531
O O7 0.137223 0.715180 0.066227
O O8 0.500183 0.224965 0.087729
O O9 0.510932 0.401481 0.980392
O O10 0.355516 0.320194 0.832799
O O11 0.599827 0.519793 0.684408
O O12 0.293887 0.772310 0.336685
#
# Coordination Sequence:
#
# PCOD9342246 Si02
#       7
#     4   4   2   4   2   4   4
#     4  11  22  39  62  90 130 173 223 259 331 384
#     4   9  19  35  55  80 112 155 208 257 310 368
#     4  10  24  40  64  92 128 182 212 278 322 374
#     4  10  21  41  69  98 132 175 214 264 335 391
#     4   8  24  42  70  94 132 172 212 284 324 392
#     4   9  17  32  53  78 114 156 200 260 316 366
#     4  10  23  41  64  93 128 173 206 273 323 386
#
# _framework density 23.813680999999999
#
# number of rings (size 3 to 8) (size 9 to 14) (size 15 to 20)
#    1.000    1.333    0.000    2.000    0.000    9.333 
#    0.000   10.000    0.000    0.000    0.000    0.000 
#    0.000    0.000    0.000    0.000    0.000    0.000 
#
# Total GULP energy -133724.822083 kJ/mol
# GULP energy per Si atom -5571.867587 kJ/mol
# Density = 2.375948 g / cm^3
# Si number density = 23.813681 Si / 1000 Ang^3
#
#
#
# Elastic Constant Matrix: (Units=GPa)
#
#
# Indices 1 2 3 4 5 6 
#
# 1 86.5463 3.4154 17.5088 0.0000 0.0000 0.0000
# 2 3.4154 73.6897 39.0013 0.0000 0.0000 0.0000
# 3 17.5088 39.0013 127.6514 0.0000 0.0000 0.0000
# 4 0.0000 0.0000 0.0000 43.3511 0.0000 0.0000
# 5 0.0000 0.0000 0.0000 0.0000 -12.0795 0.0000
# 6 0.0000 0.0000 0.0000 0.0000 0.0000 23.4160
#
#
#
# Elastic Compliance Matrix: (Units=1/GPa)
#
#
# Indices 1 2 3 4 5 6 
#
# 1 0.011893 0.000372 -0.001745 0.000000 0.000000 0.000000
# 2 0.000372 0.016200 -0.005001 0.000000 0.000000 0.000000
# 3 -0.001745 -0.005001 0.009601 0.000000 0.000000 0.000000
# 4 0.000000 0.000000 0.000000 0.023067 0.000000 0.000000
# 5 0.000000 0.000000 0.000000 0.000000 -0.082785 0.000000
# 6 0.000000 0.000000 0.000000 0.000000 0.000000 0.042706
#
#
# Mechanical properties :
#
#
# Convention : Reuss Voigt Hill
#
# Bulk Modulus (GPa) = 40.08470 45.30426 42.69448
# Shear Modulus (GPa) = 119.77782 26.13500 72.95641
#
# Velocity S-wave (km/s) = 7.09980 3.31642 5.54102
# Velocity P-wave (km/s) = 9.16944 5.80780 7.67493
#
# Compressibility (1/GPa) = 0.02494717
#
# Stress axis : x y z
#
# Youngs Moduli (GPa) = 84.08421 61.72923 104.15577
#
# Poissons Ratio (x) = -0.02299 0.18175
# Poissons Ratio (y) = -0.03131 0.52084
# Poissons Ratio (z) = 0.14673 0.30868
#
# Static dielectric constant tensor:
#      x y z
#    x 1.982840 0.000000 0.000000 
#    y 0.000000 1.873780 0.000000 
#    z 0.000000 0.000000 1.822440 
# 
# From -- ./inp_files/910.got.cif
#   From: 2010.05.17/outbox.cif.g08.bks.cpg/sg30_1_cif.got.tgz:910.got - 2010.06.03 17:03:02.
