data_PCOD9342835
_publ_section_title
;
Structure prediction by ZEFSAII (Michael W. Deem and Ramdas Pophale) SiO2 
 PCOD9342835
Probable space group: P M N 21
;
_chemical_formula_sum "Si O2"
_cell_formula_units_Z 32
_cell_length_a 8.899205
_cell_length_b 21.942378
_cell_length_c 9.934868
_cell_angle_alpha 90.000000
_cell_angle_beta 90.000000
_cell_angle_gamma 90.000000
_cell_volume 1939.978893
_symmetry_space_group_name_H-M "P M N 21"
_symmetry_group_IT_number 31
_symmetry_cell_setting 'orthorhombic'
loop_
_space_group_symop_operation_xyz
x,y,z
1/2-x,-y,1/2+z
-x,y,z
1/2+x,-y,1/2+z
loop_
_atom_site_type_symbol
_atom_site_label
_atom_site_fract_x
_atom_site_fract_y
_atom_site_fract_z
Si Si1 0.824096 0.936516 0.448780
Si Si2 0.819561 0.632799 0.932514
Si Si3 0.680422 0.267328 0.215008
Si Si4 0.323875 0.015235 0.229529
Si Si5 0.179004 0.137138 0.169902
Si Si6 0.818385 0.602570 0.229918
Si Si7 0.819858 0.460744 0.228883
Si Si8 0.319868 0.638607 0.508935
O O1 0.810131 0.988078 0.566928
O O2 0.738068 0.880396 0.519467
O O3 0.000000 0.922511 0.433882
O O4 0.753355 0.962289 0.313630
O O5 0.779370 0.692822 0.847121
O O6 0.751402 0.575325 0.853491
O O7 0.000000 0.626667 0.928191
O O8 0.774351 0.632753 0.088066
O O9 0.500000 0.263351 0.206155
O O10 0.751985 0.200762 0.215039
O O11 0.745089 0.305898 0.089893
O O12 0.500000 0.018559 0.262324
O O13 0.243721 0.080310 0.256293
O O14 0.000000 0.137840 0.173274
O O15 0.775006 0.531096 0.222967
O O16 0.742383 0.632085 0.359355
O O17 0.000000 0.605863 0.243157
O O18 0.780189 0.422391 0.094825
O O19 0.000000 0.458530 0.241598
O O20 0.500000 0.645049 0.509590
#
# Coordination Sequence:
#
# PCOD9342835 Si02
#       8
#     4   4   4   4   4   4   4   4
#     4   9  18  31  51  79 109 138 170 205 248 295
#     4   9  19  33  51  71  96 129 165 205 251 299
#     4  10  19  35  55  73  95 129 173 212 247 299
#     4   9  18  31  51  79 109 138 170 206 248 296
#     4  10  19  32  54  78 104 137 171 210 251 297
#     4  10  19  32  48  70  99 128 158 203 257 305
#     4   9  18  31  48  71  98 126 162 202 248 305
#     4  10  20  33  50  73  98 129 165 207 252 300
#
# _framework density 16.495025999999999
#
# number of rings (size 3 to 8) (size 9 to 14) (size 15 to 20)
#    0.750    1.750    0.000    3.000    0.000    3.000 
#    0.000    0.000    2.750    0.000    0.000    0.000 
#    0.000    0.000    0.000    0.000    0.000    0.000 
#
# Total GULP energy -178224.171797 kJ/mol
# GULP energy per Si atom -5569.505369 kJ/mol
# Density = 1.645748 g / cm^3
# Si number density = 16.495026 Si / 1000 Ang^3
#
#
#
# Elastic Constant Matrix: (Units=GPa)
#
#
# Indices 1 2 3 4 5 6 
#
# 1 55.6566 6.1734 17.5061 0.0000 0.0000 0.0000
# 2 6.1734 33.3568 1.1526 0.0000 0.0000 0.0000
# 3 17.5061 1.1526 80.2109 0.0000 0.0000 0.0000
# 4 0.0000 0.0000 0.0000 7.7256 0.0000 0.0000
# 5 0.0000 0.0000 0.0000 0.0000 22.9135 0.0000
# 6 0.0000 0.0000 0.0000 0.0000 0.0000 26.3441
#
#
#
# Elastic Compliance Matrix: (Units=1/GPa)
#
#
# Indices 1 2 3 4 5 6 
#
# 1 0.019691 -0.003498 -0.004247 0.000000 0.000000 0.000000
# 2 -0.003498 0.030615 0.000323 0.000000 0.000000 0.000000
# 3 -0.004247 0.000323 0.013389 0.000000 0.000000 0.000000
# 4 0.000000 0.000000 0.000000 0.129440 0.000000 0.000000
# 5 0.000000 0.000000 0.000000 0.000000 0.043642 0.000000
# 6 0.000000 0.000000 0.000000 0.000000 0.000000 0.037959
#
#
# Mechanical properties :
#
#
# Convention : Reuss Voigt Hill
#
# Bulk Modulus (GPa) = 20.46968 24.32095 22.39532
# Shear Modulus (GPa) = 16.34710 21.02278 18.68494
#
# Velocity S-wave (km/s) = 3.15148 3.57388 3.36930
# Velocity P-wave (km/s) = 5.06745 5.63973 5.36123
#
# Compressibility (1/GPa) = 0.04885273
#
# Stress axis : x y z
#
# Youngs Moduli (GPa) = 50.78407 32.66375 74.68545
#
# Poissons Ratio (x) = 0.11424 0.31722
# Poissons Ratio (y) = 0.17762 -0.02415
# Poissons Ratio (z) = 0.21570 -0.01056
#
# Static dielectric constant tensor:
#      x y z
#    x 1.547170 0.000000 0.000000 
#    y 0.000000 1.537280 0.000000 
#    z 0.000000 0.000000 1.551870 
# 
# From -- ./inp_files/1890.got.cif
#   From: 2010.05.17/outbox.cif.g08.bks.cpg/sg31_1_cif.got.tgz:1890.got - 2010.06.03 17:08:30.
