data_PCOD9342953
_publ_section_title
;
Structure prediction by ZEFSAII (Michael W. Deem and Ramdas Pophale) SiO2 
 PCOD9342953
Probable space group: P M N 21
;
_chemical_formula_sum "Si O2"
_cell_formula_units_Z 20
_cell_length_a 19.194597
_cell_length_b 10.404498
_cell_length_c 5.196091
_cell_angle_alpha 90.000000
_cell_angle_beta 90.000000
_cell_angle_gamma 90.000000
_cell_volume 1037.712093
_symmetry_space_group_name_H-M "P M N 21"
_symmetry_group_IT_number 31
_symmetry_cell_setting 'orthorhombic'
loop_
_space_group_symop_operation_xyz
x,y,z
1/2-x,-y,1/2+z
-x,y,z
1/2+x,-y,1/2+z
loop_
_atom_site_type_symbol
_atom_site_label
_atom_site_fract_x
_atom_site_fract_y
_atom_site_fract_z
Si Si1 0.415686 0.114875 0.753220
Si Si2 0.803269 0.355769 0.431615
Si Si3 0.659606 0.517594 0.429963
Si Si4 0.582768 0.270201 0.250037
Si Si5 0.788322 0.056310 0.338287
O O1 0.500000 0.094487 0.764447
O O2 0.395967 0.171156 0.474442
O O3 0.368096 0.992252 0.810196
O O4 0.394716 0.220538 0.969868
O O5 0.732153 0.438280 0.434782
O O6 0.834949 0.372396 0.714452
O O7 0.786934 0.209641 0.363315
O O8 0.850188 0.421082 0.209800
O O9 0.606400 0.410811 0.332352
O O10 0.500000 0.268091 0.245696
O O11 0.753969 0.992493 0.589957
#
# Coordination Sequence:
#
# PCOD9342953 Si02
#       5
#     4   4   4   4   4
#     4  10  21  37  57  82 112 144 182 231 281 327
#     4  10  21  33  53  78 105 139 172 216 273 317
#     4  10  19  35  52  76 108 134 171 220 266 317
#     4  10  20  36  59  82 105 142 186 225 272 329
#     4  12  23  37  58  84 112 147 193 232 274 334
#
# _framework density 19.273168999999999
#
# number of rings (size 3 to 8) (size 9 to 14) (size 15 to 20)
#    0.000    1.600    0.000    6.000    0.000    3.200 
#    0.000    2.000    0.000    0.000    0.000    0.000 
#    0.000    0.000    0.000    0.000    0.000    0.000 
#
# Total GULP energy -111678.140242 kJ/mol
# GULP energy per Si atom -5583.907012 kJ/mol
# Density = 1.922930 g / cm^3
# Si number density = 19.273169 Si / 1000 Ang^3
#
#
#
# Elastic Constant Matrix: (Units=GPa)
#
#
# Indices 1 2 3 4 5 6 
#
# 1 22.0437 12.3345 8.4687 0.0000 0.0000 0.0000
# 2 12.3345 46.5910 -12.7571 0.0000 0.0000 0.0000
# 3 8.4687 -12.7571 52.4390 0.0000 0.0000 0.0000
# 4 0.0000 0.0000 0.0000 30.2711 0.0000 0.0000
# 5 0.0000 0.0000 0.0000 0.0000 16.9936 0.0000
# 6 0.0000 0.0000 0.0000 0.0000 0.0000 26.2119
#
#
#
# Elastic Compliance Matrix: (Units=1/GPa)
#
#
# Indices 1 2 3 4 5 6 
#
# 1 0.062849 -0.020803 -0.015211 0.000000 0.000000 0.000000
# 2 -0.020803 0.029881 0.010629 0.000000 0.000000 0.000000
# 3 -0.015211 0.010629 0.024112 0.000000 0.000000 0.000000
# 4 0.000000 0.000000 0.000000 0.033035 0.000000 0.000000
# 5 0.000000 0.000000 0.000000 0.000000 0.058846 0.000000
# 6 0.000000 0.000000 0.000000 0.000000 0.000000 0.038151
#
#
# Mechanical properties :
#
#
# Convention : Reuss Voigt Hill
#
# Bulk Modulus (GPa) = 15.13514 15.24068 15.18791
# Shear Modulus (GPa) = 15.64128 22.23050 18.93589
#
# Velocity S-wave (km/s) = 2.85187 3.39992 3.13789
# Velocity P-wave (km/s) = 4.32600 4.83089 4.58540
#
# Compressibility (1/GPa) = 0.06607142
#
# Stress axis : x y z
#
# Youngs Moduli (GPa) = 15.91126 33.46586 41.47305
#
# Poissons Ratio (x) = 0.69620 0.63084
# Poissons Ratio (y) = 0.33101 -0.44082
# Poissons Ratio (z) = 0.24202 -0.35571
#
# Static dielectric constant tensor:
#      x y z
#    x 1.682320 0.000000 0.000000 
#    y 0.000000 1.691870 0.000000 
#    z 0.000000 0.000000 1.709910 
# 
# From -- ./inp_files/764.got.cif
#   From: 2010.05.17/outbox.cif.g08.bks.cpg/sg31_1_cif.got.tgz:764.got - 2010.06.03 17:08:30.
