data_PCOD9342162
_publ_section_title
;
Structure prediction by ZEFSAII (Michael W. Deem and Ramdas Pophale) SiO2 
 PCOD9342162
Probable space group: P N C 2
;
_chemical_formula_sum "Si O2"
_cell_formula_units_Z 20
_cell_length_a 8.357359
_cell_length_b 9.380197
_cell_length_c 11.584094
_cell_angle_alpha 90.000000
_cell_angle_beta 90.000000
_cell_angle_gamma 90.000000
_cell_volume 908.119687
_symmetry_space_group_name_H-M "P N C 2"
_symmetry_group_IT_number 30
_symmetry_cell_setting 'orthorhombic'
loop_
_space_group_symop_operation_xyz
x,y,z
-x,-y,z
-x,1/2+y,1/2+z
x,1/2-y,1/2+z
loop_
_atom_site_type_symbol
_atom_site_label
_atom_site_fract_x
_atom_site_fract_y
_atom_site_fract_z
Si Si1 0.375717 0.109572 0.049460
Si Si2 0.413635 0.860372 0.659059
Si Si3 0.154067 0.577090 0.972103
Si Si4 0.969057 0.845417 0.013155
Si Si5 0.804056 0.388821 0.720080
O O1 0.465697 0.242395 0.107099
O O2 0.218022 0.180298 0.993347
O O3 0.500000 0.000000 0.987026
O O4 0.295197 0.997439 0.139040
O O5 0.305587 0.921620 0.553981
O O6 0.295236 0.758976 0.732981
O O7 0.500000 0.000000 0.710245
O O8 0.181966 0.531207 0.841444
O O9 0.000000 0.500000 0.026343
O O10 0.088385 0.736217 0.956467
O O11 0.034571 0.851034 0.147101
O O12 0.000000 0.000000 0.963533
#
# Coordination Sequence:
#
# PCOD9342162 Si02
#       5
#     4   4   4   4   4
#     4   9  17  34  58  78 110 151 181 217 274 336
#     4  10  21  36  55  84 116 141 179 236 284 317
#     4  11  21  36  59  85 110 145 192 231 271 330
#     4   9  18  36  57  79 112 149 186 226 271 326
#     4   9  20  38  58  80 110 152 192 220 269 341
#
# _framework density 22.023530000000001
#
# number of rings (size 3 to 8) (size 9 to 14) (size 15 to 20)
#    0.000    2.400    0.000    4.200    0.000    2.400 
#    0.000   19.000    0.000    0.000    0.000    0.000 
#    0.000    0.000    0.000    0.000    0.000    0.000 
#
# Total GULP energy -111335.541228 kJ/mol
# GULP energy per Si atom -5566.777061 kJ/mol
# Density = 2.197340 g / cm^3
# Si number density = 22.023530 Si / 1000 Ang^3
#
#
#
# Elastic Constant Matrix: (Units=GPa)
#
#
# Indices 1 2 3 4 5 6 
#
# 1 114.6074 12.7878 18.5522 0.0000 0.0000 0.0000
# 2 12.7878 86.2962 -10.8221 0.0000 0.0000 0.0000
# 3 18.5522 -10.8221 41.0645 0.0000 0.0000 0.0000
# 4 0.0000 0.0000 0.0000 14.1903 0.0000 0.0000
# 5 0.0000 0.0000 0.0000 0.0000 -0.3002 0.0000
# 6 0.0000 0.0000 0.0000 0.0000 0.0000 50.1368
#
#
#
# Elastic Compliance Matrix: (Units=1/GPa)
#
#
# Indices 1 2 3 4 5 6 
#
# 1 0.009758 -0.002067 -0.004953 0.000000 0.000000 0.000000
# 2 -0.002067 0.012422 0.004208 0.000000 0.000000 0.000000
# 3 -0.004953 0.004208 0.027699 0.000000 0.000000 0.000000
# 4 0.000000 0.000000 0.000000 0.070471 0.000000 0.000000
# 5 0.000000 0.000000 0.000000 0.000000 -3.330573 0.000000
# 6 0.000000 0.000000 0.000000 0.000000 0.000000 0.019945
#
#
# Mechanical properties :
#
#
# Convention : Reuss Voigt Hill
#
# Bulk Modulus (GPa) = 22.59742 31.44490 27.02116
# Shear Modulus (GPa) = -1.57734 27.56871 12.99569
#
# Velocity S-wave (km/s) = -0.84721 3.54190 2.43180
# Velocity P-wave (km/s) = 3.05382 5.57096 4.49229
#
# Compressibility (1/GPa) = 0.04425284
#
# Stress axis : x y z
#
# Youngs Moduli (GPa) = 102.48108 80.50257 36.10294
#
# Poissons Ratio (x) = 0.16641 0.17883
# Poissons Ratio (y) = 0.21184 -0.15191
# Poissons Ratio (z) = 0.50761 -0.33872
#
# Static dielectric constant tensor:
#      x y z
#    x 1.922830 0.000000 0.000000 
#    y 0.000000 1.740780 0.000000 
#    z 0.000000 0.000000 1.828340 
# 
# From -- ./inp_files/3514.got.cif
#   From: 2010.05.17/outbox.cif.g08.bks.cpg/sg30_2_cif.got.tgz:3514.got - 2010.06.03 17:03:02.
