data_PCOD9342500
_publ_section_title
;
Structure prediction by ZEFSAII (Michael W. Deem and Ramdas Pophale) SiO2 
 PCOD9342500
Probable space group: P N C 2
;
_chemical_formula_sum "Si O2"
_cell_formula_units_Z 24
_cell_length_a 8.400342
_cell_length_b 15.037025
_cell_length_c 8.537488
_cell_angle_alpha 90.000000
_cell_angle_beta 90.000000
_cell_angle_gamma 90.000000
_cell_volume 1078.422638
_symmetry_space_group_name_H-M "P N C 2"
_symmetry_group_IT_number 30
_symmetry_cell_setting 'orthorhombic'
loop_
_space_group_symop_operation_xyz
x,y,z
-x,-y,z
-x,1/2+y,1/2+z
x,1/2-y,1/2+z
loop_
_atom_site_type_symbol
_atom_site_label
_atom_site_fract_x
_atom_site_fract_y
_atom_site_fract_z
Si Si1 0.995002 0.830097 0.943640
Si Si2 0.810016 0.277748 0.720918
Si Si3 0.499148 0.326706 0.915672
Si Si4 0.000000 0.000000 0.715226
Si Si5 0.344958 0.335124 0.598246
Si Si6 0.311334 0.580514 0.148271
Si Si7 0.500000 0.000000 0.931257
O O1 0.046619 0.745422 0.839681
O O2 0.982441 0.914579 0.828880
O O3 0.830760 0.818305 0.034192
O O4 0.131361 0.837209 0.076793
O O5 0.660242 0.314561 0.814819
O O6 0.758221 0.180386 0.659581
O O7 0.363608 0.335654 0.784934
O O8 0.454338 0.242170 0.022198
O O9 0.541413 0.407349 0.030562
O O10 0.160661 0.983021 0.616062
O O11 0.407257 0.428676 0.533656
O O12 0.379847 0.551267 0.315502
#
# Coordination Sequence:
#
# PCOD9342500 Si02
#       7
#     4   4   4   2   4   4   2
#     4  11  23  41  69 101 139 181 236 296 348 423
#     4  11  21  40  71 101 131 183 239 280 348 427
#     4  12  23  43  70 100 139 188 242 280 352 437
#     4  10  24  44  70  98 142 186 230 296 370 404
#     4  12  24  42  67 104 139 187 234 296 349 424
#     4  11  23  45  69 100 138 190 230 292 361 420
#     4  12  24  44  68  98 146 178 234 296 362 412
#
# _framework density 22.254726000000002
#
# number of rings (size 3 to 8) (size 9 to 14) (size 15 to 20)
#    0.000    0.667    6.667    1.000    2.333    0.667 
#    0.000    2.500    0.000    0.000    0.000    0.000 
#    0.000    0.000    0.000    0.000    0.000    0.000 
#
# Total GULP energy -134203.101367 kJ/mol
# GULP energy per Si atom -5591.795890 kJ/mol
# Density = 2.220407 g / cm^3
# Si number density = 22.254726 Si / 1000 Ang^3
#
#
#
# Elastic Constant Matrix: (Units=GPa)
#
#
# Indices 1 2 3 4 5 6 
#
# 1 72.3317 9.7950 6.2307 0.0000 0.0000 0.0000
# 2 9.7950 65.2466 22.7455 0.0000 0.0000 0.0000
# 3 6.2307 22.7455 88.4622 0.0000 0.0000 0.0000
# 4 0.0000 0.0000 0.0000 26.8271 0.0000 0.0000
# 5 0.0000 0.0000 0.0000 0.0000 54.6809 0.0000
# 6 0.0000 0.0000 0.0000 0.0000 0.0000 28.0806
#
#
#
# Elastic Compliance Matrix: (Units=1/GPa)
#
#
# Indices 1 2 3 4 5 6 
#
# 1 0.014132 -0.001949 -0.000494 0.000000 0.000000 0.000000
# 2 -0.001949 0.017104 -0.004261 0.000000 0.000000 0.000000
# 3 -0.000494 -0.004261 0.012435 0.000000 0.000000 0.000000
# 4 0.000000 0.000000 0.000000 0.037276 0.000000 0.000000
# 5 0.000000 0.000000 0.000000 0.000000 0.018288 0.000000
# 6 0.000000 0.000000 0.000000 0.000000 0.000000 0.035612
#
#
# Mechanical properties :
#
#
# Convention : Reuss Voigt Hill
#
# Bulk Modulus (GPa) = 33.04400 33.73143 33.38772
# Shear Modulus (GPa) = 31.57731 34.40236 32.98984
#
# Velocity S-wave (km/s) = 3.77092 3.93599 3.85434
# Velocity P-wave (km/s) = 5.81722 5.98714 5.90280
#
# Compressibility (1/GPa) = 0.03026268
#
# Stress axis : x y z
#
# Youngs Moduli (GPa) = 70.76272 58.46457 80.42108
#
# Poissons Ratio (x) = 0.11396 0.03974
# Poissons Ratio (y) = 0.13793 0.34264
# Poissons Ratio (z) = 0.03497 0.24909
#
# Static dielectric constant tensor:
#      x y z
#    x 1.873030 0.000000 0.000000 
#    y 0.000000 1.784630 0.000000 
#    z 0.000000 0.000000 1.850090 
# 
# From -- ./inp_files/1855.got.cif
#   From: 2010.05.17/outbox.cif.g08.bks.cpg/sg30_1_cif.got.tgz:1855.got - 2010.06.03 17:03:02.
