data_PCOD9342893
_publ_section_title
;
Structure prediction by ZEFSAII (Michael W. Deem and Ramdas Pophale) SiO2 
 PCOD9342893
Probable space group: P M N 21
;
_chemical_formula_sum "Si O2"
_cell_formula_units_Z 32
_cell_length_a 9.210366
_cell_length_b 12.819089
_cell_length_c 14.230539
_cell_angle_alpha 90.000000
_cell_angle_beta 90.000000
_cell_angle_gamma 90.000000
_cell_volume 1680.178415
_symmetry_space_group_name_H-M "P M N 21"
_symmetry_group_IT_number 31
_symmetry_cell_setting 'orthorhombic'
loop_
_space_group_symop_operation_xyz
x,y,z
1/2-x,-y,1/2+z
-x,y,z
1/2+x,-y,1/2+z
loop_
_atom_site_type_symbol
_atom_site_label
_atom_site_fract_x
_atom_site_fract_y
_atom_site_fract_z
Si Si1 0.829397 0.341773 0.016670
Si Si2 0.171243 0.732075 0.135321
Si Si3 0.332885 0.579468 0.806647
Si Si4 0.166515 0.452021 0.532137
Si Si5 0.324046 0.821940 0.800472
Si Si6 0.823889 0.117311 0.095548
Si Si7 0.825492 0.913039 0.986960
Si Si8 0.669380 0.631780 0.293581
O O1 0.732236 0.435364 0.054473
O O2 0.783854 0.230005 0.055093
O O3 0.000000 0.358360 0.039753
O O4 0.815338 0.346203 0.904076
O O5 0.232946 0.635380 0.076556
O O6 0.200803 0.833358 0.072904
O O7 0.251458 0.720901 0.234191
O O8 0.000000 0.723368 0.149272
O O9 0.500000 0.568239 0.774033
O O10 0.285173 0.698694 0.787563
O O11 0.238915 0.481668 0.771441
O O12 0.331502 0.566029 0.919780
O O13 0.000000 0.442383 0.562715
O O14 0.500000 0.824142 0.810243
O O15 0.281530 0.883646 0.705443
O O16 0.252337 0.870721 0.893401
O O17 0.000000 0.111819 0.095314
O O18 0.774716 0.024774 0.027024
O O19 0.000000 0.915833 0.969959
O O20 0.500000 0.629994 0.271719
#
# Coordination Sequence:
#
# PCOD9342893 Si02
#       8
#     4   4   4   4   4   4   4   4
#     4   9  19  37  58  82 115 153 189 230 290 352
#     4  11  22  35  54  80 113 156 197 234 286 343
#     4   9  18  33  54  82 115 150 188 232 288 349
#     4  10  19  33  54  82 116 147 185 238 287 338
#     4  10  20  37  61  86 113 150 193 237 290 349
#     4   9  20  39  62  86 113 151 195 237 286 347
#     4  10  22  40  60  84 116 153 197 244 286 338
#     4  10  21  34  53  84 119 154 192 238 287 344
#
# _framework density 19.045597000000001
#
# number of rings (size 3 to 8) (size 9 to 14) (size 15 to 20)
#    0.000    2.250    1.250    1.125    1.750    3.000 
#    0.000    1.875    0.000    0.000    0.000    0.000 
#    0.000    0.000    0.000    0.000    0.000    0.000 
#
# Total GULP energy -178603.176116 kJ/mol
# GULP energy per Si atom -5581.349254 kJ/mol
# Density = 1.900225 g / cm^3
# Si number density = 19.045597 Si / 1000 Ang^3
#
#
#
# Elastic Constant Matrix: (Units=GPa)
#
#
# Indices 1 2 3 4 5 6 
#
# 1 30.3210 26.0221 28.1899 0.0000 0.0000 0.0000
# 2 26.0221 94.6076 29.0507 0.0000 0.0000 0.0000
# 3 28.1899 29.0507 73.5863 0.0000 0.0000 0.0000
# 4 0.0000 0.0000 0.0000 22.3046 0.0000 0.0000
# 5 0.0000 0.0000 0.0000 0.0000 22.2378 0.0000
# 6 0.0000 0.0000 0.0000 0.0000 0.0000 15.5331
#
#
#
# Elastic Compliance Matrix: (Units=1/GPa)
#
#
# Indices 1 2 3 4 5 6 
#
# 1 0.059334 -0.010629 -0.018534 0.000000 0.000000 0.000000
# 2 -0.010629 0.013932 -0.001428 0.000000 0.000000 0.000000
# 3 -0.018534 -0.001428 0.021253 0.000000 0.000000 0.000000
# 4 0.000000 0.000000 0.000000 0.044834 0.000000 0.000000
# 5 0.000000 0.000000 0.000000 0.000000 0.044968 0.000000
# 6 0.000000 0.000000 0.000000 0.000000 0.000000 0.064379
#
#
# Mechanical properties :
#
#
# Convention : Reuss Voigt Hill
#
# Bulk Modulus (GPa) = 29.99665 40.56004 35.27835
# Shear Modulus (GPa) = 15.57660 19.69858 17.63759
#
# Velocity S-wave (km/s) = 2.86292 3.21952 3.04644
# Velocity P-wave (km/s) = 5.16842 5.92983 5.56217
#
# Compressibility (1/GPa) = 0.03333706
#
# Stress axis : x y z
#
# Youngs Moduli (GPa) = 16.85387 71.77679 47.05117
#
# Poissons Ratio (x) = 0.76290 0.87204
# Poissons Ratio (y) = 0.17914 0.06721
# Poissons Ratio (z) = 0.31237 0.10253
#
# Static dielectric constant tensor:
#      x y z
#    x 1.638840 0.000000 0.000000 
#    y 0.000000 1.645260 0.000000 
#    z 0.000000 0.000000 1.701040 
# 
# From -- ./inp_files/5029.got.cif
#   From: 2010.05.17/outbox.cif.g08.bks.cpg/sg31_3_cif.got.tgz:5029.got - 2010.06.03 17:08:30.
