data_PCOD9342949
_publ_section_title
;
Structure prediction by ZEFSAII (Michael W. Deem and Ramdas Pophale) SiO2 
 PCOD9342949
Probable space group: P M N 21
;
_chemical_formula_sum "Si O2"
_cell_formula_units_Z 32
_cell_length_a 8.745946
_cell_length_b 11.611176
_cell_length_c 16.398616
_cell_angle_alpha 90.000000
_cell_angle_beta 90.000000
_cell_angle_gamma 90.000000
_cell_volume 1665.291234
_symmetry_space_group_name_H-M "P M N 21"
_symmetry_group_IT_number 31
_symmetry_cell_setting 'orthorhombic'
loop_
_space_group_symop_operation_xyz
x,y,z
1/2-x,-y,1/2+z
-x,y,z
1/2+x,-y,1/2+z
loop_
_atom_site_type_symbol
_atom_site_label
_atom_site_fract_x
_atom_site_fract_y
_atom_site_fract_z
Si Si1 0.181455 0.316073 0.716820
Si Si2 0.673884 0.236217 0.308466
Si Si3 0.316211 0.730767 0.545333
Si Si4 0.817664 0.061121 0.431855
Si Si5 0.315881 0.198266 0.878712
Si Si6 0.827164 0.928462 0.653284
Si Si7 0.821805 0.860806 0.102484
Si Si8 0.816883 0.430307 0.197951
O O1 0.253664 0.249584 0.794284
O O2 0.230157 0.247802 0.635488
O O3 0.245433 0.444712 0.709158
O O4 0.000000 0.316933 0.725749
O O5 0.500000 0.261438 0.335882
O O6 0.768581 0.168203 0.375825
O O7 0.665456 0.146377 0.234103
O O8 0.752731 0.347428 0.268998
O O9 0.500000 0.743124 0.543189
O O10 0.250500 0.726626 0.454173
O O11 0.238902 0.843673 0.584801
O O12 0.279531 0.628419 0.609742
O O13 0.738602 0.087780 0.517883
O O14 0.000000 0.057960 0.440733
O O15 0.770321 0.936015 0.395181
O O16 0.500000 0.203467 0.879051
O O17 0.000000 0.967112 0.632882
O O18 0.715446 0.035386 0.664546
O O19 0.000000 0.835149 0.098617
O O20 0.000000 0.435778 0.203308
#
# Coordination Sequence:
#
# PCOD9342949 Si02
#       8
#     4   4   4   4   4   4   4   4
#     4  12  26  44  65  90 125 166 214 263 317 377
#     4  10  21  37  61  91 122 160 203 251 305 363
#     4  10  20  36  63  94 124 161 205 255 307 367
#     4  11  23  39  61  93 129 163 204 253 312 375
#     4  11  23  40  65  95 130 165 208 259 314 377
#     4  10  19  34  58  89 124 159 199 246 304 368
#     4  12  24  39  61  88 125 164 204 254 314 375
#     4  10  22  43  66  90 123 162 211 259 309 372
#
# _framework density 19.215858000000001
#
# number of rings (size 3 to 8) (size 9 to 14) (size 15 to 20)
#    0.000    1.250    1.250    5.250    0.000    6.500 
#    2.250    0.000    0.000    0.000    0.000    0.000 
#    0.000    0.000    0.000    0.000    0.000    0.000 
#
# Total GULP energy -178772.804442 kJ/mol
# GULP energy per Si atom -5586.650139 kJ/mol
# Density = 1.917212 g / cm^3
# Si number density = 19.215858 Si / 1000 Ang^3
#
#
#
# Elastic Constant Matrix: (Units=GPa)
#
#
# Indices 1 2 3 4 5 6 
#
# 1 86.6588 34.0401 25.7961 0.0000 0.0000 0.0000
# 2 34.0401 120.2279 49.6656 0.0000 0.0000 0.0000
# 3 25.7961 49.6656 69.2056 0.0000 0.0000 0.0000
# 4 0.0000 0.0000 0.0000 24.4643 0.0000 0.0000
# 5 0.0000 0.0000 0.0000 0.0000 26.4757 0.0000
# 6 0.0000 0.0000 0.0000 0.0000 0.0000 25.1485
#
#
#
# Elastic Compliance Matrix: (Units=1/GPa)
#
#
# Indices 1 2 3 4 5 6 
#
# 1 0.013478 -0.002474 -0.003248 0.000000 0.000000 0.000000
# 2 -0.002474 0.012277 -0.007888 0.000000 0.000000 0.000000
# 3 -0.003248 -0.007888 0.021321 0.000000 0.000000 0.000000
# 4 0.000000 0.000000 0.000000 0.040876 0.000000 0.000000
# 5 0.000000 0.000000 0.000000 0.000000 0.037771 0.000000
# 6 0.000000 0.000000 0.000000 0.000000 0.000000 0.039764
#
#
# Mechanical properties :
#
#
# Convention : Reuss Voigt Hill
#
# Bulk Modulus (GPa) = 50.36509 55.01065 52.68787
# Shear Modulus (GPa) = 25.08450 26.32373 25.70412
#
# Velocity S-wave (km/s) = 3.61696 3.70523 3.66136
# Velocity P-wave (km/s) = 6.61137 6.85528 6.73443
#
# Compressibility (1/GPa) = 0.01985502
#
# Stress axis : x y z
#
# Youngs Moduli (GPa) = 74.19299 81.45588 46.90124
#
# Poissons Ratio (x) = 0.20154 0.15235
# Poissons Ratio (y) = 0.18357 0.36996
# Poissons Ratio (z) = 0.24101 0.64253
#
# Static dielectric constant tensor:
#      x y z
#    x 1.660950 0.000000 0.000000 
#    y 0.000000 1.661740 0.000000 
#    z 0.000000 0.000000 1.715250 
# 
# From -- ./inp_files/5054.got.cif
#   From: 2010.05.17/outbox.cif.g08.bks.cpg/sg31_3_cif.got.tgz:5054.got - 2010.06.03 17:08:30.
