data_PCOD9342245
_publ_section_title
;
Structure prediction by ZEFSAII (Michael W. Deem and Ramdas Pophale) SiO2 
 PCOD9342245
Probable space group: P N C 2
;
_chemical_formula_sum "Si O2"
_cell_formula_units_Z 32
_cell_length_a 11.491832
_cell_length_b 8.410566
_cell_length_c 15.276882
_cell_angle_alpha 90.000000
_cell_angle_beta 90.000000
_cell_angle_gamma 90.000000
_cell_volume 1476.553596
_symmetry_space_group_name_H-M "P N C 2"
_symmetry_group_IT_number 30
_symmetry_cell_setting 'orthorhombic'
loop_
_space_group_symop_operation_xyz
x,y,z
-x,-y,z
-x,1/2+y,1/2+z
x,1/2-y,1/2+z
loop_
_atom_site_type_symbol
_atom_site_label
_atom_site_fract_x
_atom_site_fract_y
_atom_site_fract_z
Si Si1 0.436572 0.252033 0.993330
Si Si2 0.674827 0.086101 0.948988
Si Si3 0.705091 0.268487 0.268203
Si Si4 0.468736 0.183860 0.180624
Si Si5 0.933263 0.341588 0.502460
Si Si6 0.050995 0.172441 0.343584
Si Si7 0.311654 0.088102 0.342829
Si Si8 0.049108 0.674016 0.179445
O O1 0.571069 0.205999 0.975920
O O2 0.389217 0.387369 0.929217
O O3 0.366218 0.091199 0.969918
O O4 0.420402 0.275114 0.096664
O O5 0.694084 0.105255 0.845626
O O6 0.795882 0.127932 0.995024
O O7 0.587734 0.262668 0.212490
O O8 0.818377 0.301942 0.211117
O O9 0.711876 0.094473 0.315074
O O10 0.381553 0.166712 0.262065
O O11 0.500000 0.000000 0.154271
O O12 0.958768 0.214118 0.577445
O O13 0.000000 0.500000 0.529980
O O14 0.984240 0.291196 0.408379
O O15 0.188247 0.170579 0.358448
O O16 0.024486 0.211367 0.242841
O O17 0.000000 0.000000 0.363996
O O18 0.000000 0.500000 0.196394
#
# Coordination Sequence:
#
# PCOD9342245 Si02
#       8
#     4   4   4   4   4   4   4   4
#     4  11  23  40  71 100 140 172 239 288 356 433
#     4  11  22  42  70  99 135 188 223 294 355 424
#     4  11  23  45  74  97 145 183 232 293 359 419
#     4  10  21  41  68 102 137 183 233 288 358 427
#     4  12  26  44  71 101 140 193 244 293 363 431
#     4  12  24  45  68 101 144 186 233 295 353 430
#     4  11  24  40  72 101 137 187 231 293 352 429
#     4  12  27  45  70 101 141 191 240 299 360 433
#
# _framework density 21.672087000000001
#
# number of rings (size 3 to 8) (size 9 to 14) (size 15 to 20)
#    0.000    0.750    5.000    2.625    3.500    1.000 
#    0.000    0.000    5.500    0.000    0.000    0.000 
#    0.000    0.000    0.000    0.000    0.000    0.000 
#
# Total GULP energy -179162.763689 kJ/mol
# GULP energy per Si atom -5598.836365 kJ/mol
# Density = 2.162276 g / cm^3
# Si number density = 21.672087 Si / 1000 Ang^3
#
#
#
# Elastic Constant Matrix: (Units=GPa)
#
#
# Indices 1 2 3 4 5 6 
#
# 1 150.4626 38.0629 28.3848 0.0000 0.0000 0.0000
# 2 38.0629 58.0210 14.2276 0.0000 0.0000 0.0000
# 3 28.3848 14.2276 104.7408 0.0000 0.0000 0.0000
# 4 0.0000 0.0000 0.0000 27.7909 0.0000 0.0000
# 5 0.0000 0.0000 0.0000 0.0000 44.4126 0.0000
# 6 0.0000 0.0000 0.0000 0.0000 0.0000 28.6118
#
#
#
# Elastic Compliance Matrix: (Units=1/GPa)
#
#
# Indices 1 2 3 4 5 6 
#
# 1 0.008203 -0.005003 -0.001543 0.000000 0.000000 0.000000
# 2 -0.005003 0.020880 -0.001481 0.000000 0.000000 0.000000
# 3 -0.001543 -0.001481 0.010167 0.000000 0.000000 0.000000
# 4 0.000000 0.000000 0.000000 0.035983 0.000000 0.000000
# 5 0.000000 0.000000 0.000000 0.000000 0.022516 0.000000
# 6 0.000000 0.000000 0.000000 0.000000 0.000000 0.034951
#
#
# Mechanical properties :
#
#
# Convention : Reuss Voigt Hill
#
# Bulk Modulus (GPa) = 43.11032 52.73056 47.92044
# Shear Modulus (GPa) = 31.95190 35.66632 33.80911
#
# Velocity S-wave (km/s) = 3.84387 4.06116 3.95401
# Velocity P-wave (km/s) = 6.29569 6.80989 6.55783
#
# Compressibility (1/GPa) = 0.02319630
#
# Stress axis : x y z
#
# Youngs Moduli (GPa) = 121.90787 47.89239 98.35978
#
# Poissons Ratio (x) = 0.23960 0.15181
# Poissons Ratio (y) = 0.60988 0.14562
# Poissons Ratio (z) = 0.18816 0.07091
#
# Static dielectric constant tensor:
#      x y z
#    x 1.771390 0.000000 0.000000 
#    y 0.000000 1.758000 0.000000 
#    z 0.000000 0.000000 1.762370 
# 
# From -- ./inp_files/5516.got.cif
#   From: 2010.05.17/outbox.cif.g08.bks.cpg/sg30_3_cif.got.tgz:5516.got - 2010.06.03 17:03:02.
