data_PCOD9342362
_publ_section_title
;
Structure prediction by ZEFSAII (Michael W. Deem and Ramdas Pophale) SiO2 
 PCOD9342362
Probable space group: P N C 2
;
_chemical_formula_sum "Si O2"
_cell_formula_units_Z 30
_cell_length_a 11.833024
_cell_length_b 8.813385
_cell_length_c 14.724148
_cell_angle_alpha 90.000000
_cell_angle_beta 90.000000
_cell_angle_gamma 90.000000
_cell_volume 1535.566615
_symmetry_space_group_name_H-M "P N C 2"
_symmetry_group_IT_number 30
_symmetry_cell_setting 'orthorhombic'
loop_
_space_group_symop_operation_xyz
x,y,z
-x,-y,z
-x,1/2+y,1/2+z
x,1/2-y,1/2+z
loop_
_atom_site_type_symbol
_atom_site_label
_atom_site_fract_x
_atom_site_fract_y
_atom_site_fract_z
Si Si1 0.335964 0.371953 0.395570
Si Si2 0.124486 0.554332 0.754230
Si Si3 0.578373 0.318527 0.469169
Si Si4 0.500000 0.500000 0.638877
Si Si5 0.951777 0.166786 0.063388
Si Si6 0.302430 0.292548 0.709065
Si Si7 0.812111 0.689200 0.030772
Si Si8 0.786929 0.361245 0.943213
O O1 0.451722 0.296303 0.433426
O O2 0.361063 0.549455 0.409733
O O3 0.317303 0.319569 0.293274
O O4 0.234128 0.311968 0.458040
O O5 0.104332 0.649620 0.662610
O O6 0.200216 0.408886 0.729281
O O7 0.183986 0.638691 0.836974
O O8 0.000000 0.500000 0.784616
O O9 0.568834 0.390159 0.569855
O O10 0.656478 0.174146 0.461949
O O11 0.413227 0.396559 0.694192
O O12 0.062050 0.271950 0.063125
O O13 0.861730 0.235619 0.994387
O O14 0.000000 0.000000 0.039726
O O15 0.270683 0.204675 0.616996
O O16 0.812587 0.526506 0.983434
#
# Coordination Sequence:
#
# PCOD9342362 Si02
#       8
#     4   4   4   2   4   4   4   4
#     4  10  23  42  67  94 129 179 221 272 329 402
#     4  11  23  43  67  96 132 174 221 269 334 399
#     4  10  22  47  61  93 138 174 221 270 338 399
#     4  10  22  42  72  90 134 180 224 266 346 392
#     4  11  23  43  69  93 131 176 218 265 339 393
#     4  12  22  41  70  98 132 180 222 280 335 398
#     4  12  22  42  66  97 131 170 223 279 326 398
#     4  12  26  41  69 100 134 169 223 278 333 396
#
# _framework density 19.536762
#
# number of rings (size 3 to 8) (size 9 to 14) (size 15 to 20)
#    0.000    1.067    6.667    2.800    1.867    1.600 
#    4.800    1.333    0.000    0.000    0.000    0.000 
#    0.000    0.000    0.000    0.000    0.000    0.000 
#
# Total GULP energy -167642.857116 kJ/mol
# GULP energy per Si atom -5588.095237 kJ/mol
# Density = 1.949230 g / cm^3
# Si number density = 19.536762 Si / 1000 Ang^3
#
#
#
# Elastic Constant Matrix: (Units=GPa)
#
#
# Indices 1 2 3 4 5 6 
#
# 1 60.6868 20.5151 6.4585 0.0000 0.0000 0.0000
# 2 20.5151 47.8567 14.3245 0.0000 0.0000 0.0000
# 3 6.4585 14.3245 78.2927 0.0000 0.0000 0.0000
# 4 0.0000 0.0000 0.0000 29.2791 0.0000 0.0000
# 5 0.0000 0.0000 0.0000 0.0000 10.8543 0.0000
# 6 0.0000 0.0000 0.0000 0.0000 0.0000 34.8389
#
#
#
# Elastic Compliance Matrix: (Units=1/GPa)
#
#
# Indices 1 2 3 4 5 6 
#
# 1 0.019271 -0.008236 -0.000083 0.000000 0.000000 0.000000
# 2 -0.008236 0.025627 -0.004009 0.000000 0.000000 0.000000
# 3 -0.000083 -0.004009 0.013513 0.000000 0.000000 0.000000
# 4 0.000000 0.000000 0.000000 0.034154 0.000000 0.000000
# 5 0.000000 0.000000 0.000000 0.000000 0.092129 0.000000
# 6 0.000000 0.000000 0.000000 0.000000 0.000000 0.028704
#
#
# Mechanical properties :
#
#
# Convention : Reuss Voigt Hill
#
# Bulk Modulus (GPa) = 29.62618 29.93692 29.78155
# Shear Modulus (GPa) = 20.05572 24.69700 22.37636
#
# Velocity S-wave (km/s) = 3.20748 3.55932 3.38797
# Velocity P-wave (km/s) = 5.37722 5.67876 5.53004
#
# Compressibility (1/GPa) = 0.03375393
#
# Stress axis : x y z
#
# Youngs Moduli (GPa) = 51.89104 39.02206 74.00311
#
# Poissons Ratio (x) = 0.32140 0.00613
# Poissons Ratio (y) = 0.42739 0.29670
# Poissons Ratio (z) = 0.00430 0.15645
#
# Static dielectric constant tensor:
#      x y z
#    x 1.671330 0.000000 0.000000 
#    y 0.000000 1.665070 0.000000 
#    z 0.000000 0.000000 1.672370 
# 
# From -- ./inp_files/5493.got.cif
#   From: 2010.05.17/outbox.cif.g08.bks.cpg/sg30_3_cif.got.tgz:5493.got - 2010.06.03 17:03:02.
