data_PCOD9342331
_publ_section_title
;
Structure prediction by ZEFSAII (Michael W. Deem and Ramdas Pophale) SiO2 
 PCOD9342331
Probable space group: P N C 2
;
_chemical_formula_sum "Si O2"
_cell_formula_units_Z 28
_cell_length_a 10.796300
_cell_length_b 14.106692
_cell_length_c 9.547531
_cell_angle_alpha 90.000000
_cell_angle_beta 90.000000
_cell_angle_gamma 90.000000
_cell_volume 1454.089724
_symmetry_space_group_name_H-M "P N C 2"
_symmetry_group_IT_number 30
_symmetry_cell_setting 'orthorhombic'
loop_
_space_group_symop_operation_xyz
x,y,z
-x,-y,z
-x,1/2+y,1/2+z
x,1/2-y,1/2+z
loop_
_atom_site_type_symbol
_atom_site_label
_atom_site_fract_x
_atom_site_fract_y
_atom_site_fract_z
Si Si1 0.620040 0.136338 0.371210
Si Si2 0.341744 0.424301 0.943372
Si Si3 0.000000 0.500000 0.947581
Si Si4 0.000000 0.500000 0.406229
Si Si5 0.265341 0.777973 0.650683
Si Si6 0.793888 0.485748 0.182856
Si Si7 0.112251 0.179995 0.321956
Si Si8 0.007221 0.692684 0.549450
O O1 0.476389 0.116704 0.408130
O O2 0.675482 0.194111 0.502118
O O3 0.657524 0.199656 0.237255
O O4 0.671654 0.027835 0.368044
O O5 0.243541 0.349105 0.885038
O O6 0.310979 0.449103 0.107675
O O7 0.031578 0.413241 0.850342
O O8 0.110966 0.526177 0.052566
O O9 0.881743 0.524324 0.306536
O O10 0.964395 0.413360 0.504435
O O11 0.254721 0.881499 0.724909
O O12 0.127411 0.739880 0.619131
O O13 0.040431 0.257983 0.409765
O O14 0.104775 0.201946 0.159538
#
# Coordination Sequence:
#
# PCOD9342331 Si02
#       8
#     4   4   2   2   4   4   4   4
#     4  10  22  41  65  87 120 166 220 251 304 375
#     4   9  22  41  64  86 120 172 213 250 315 376
#     4   9  17  34  58  84 120 162 190 240 326 364
#     4  11  23  36  56  96 130 160 196 266 320 376
#     4  11  21  38  63  90 119 161 206 259 299 384
#     4   9  18  36  61  87 122 158 203 252 308 374
#     4  11  23  38  59  90 127 161 198 263 312 384
#     4  12  25  36  60  96 129 158 209 251 333 376
#
# _framework density 19.256034
#
# number of rings (size 3 to 8) (size 9 to 14) (size 15 to 20)
#    0.000    1.714    1.429    3.000   10.000    1.143 
#    0.000    0.000    0.000    1.714    0.000    0.000 
#    0.000    0.000    0.000    0.000    0.000    0.000 
#
# Total GULP energy -156110.287679 kJ/mol
# GULP energy per Si atom -5575.367417 kJ/mol
# Density = 1.921221 g / cm^3
# Si number density = 19.256034 Si / 1000 Ang^3
#
#
#
# Elastic Constant Matrix: (Units=GPa)
#
#
# Indices 1 2 3 4 5 6 
#
# 1 80.5430 33.2992 17.4729 0.0000 0.0000 0.0000
# 2 33.2992 69.9391 19.2914 0.0000 0.0000 0.0000
# 3 17.4729 19.2914 63.0894 0.0000 0.0000 0.0000
# 4 0.0000 0.0000 0.0000 25.1529 0.0000 0.0000
# 5 0.0000 0.0000 0.0000 0.0000 26.3451 0.0000
# 6 0.0000 0.0000 0.0000 0.0000 0.0000 30.6333
#
#
#
# Elastic Compliance Matrix: (Units=1/GPa)
#
#
# Indices 1 2 3 4 5 6 
#
# 1 0.015748 -0.006875 -0.002259 0.000000 0.000000 0.000000
# 2 -0.006875 0.018616 -0.003788 0.000000 0.000000 0.000000
# 3 -0.002259 -0.003788 0.017635 0.000000 0.000000 0.000000
# 4 0.000000 0.000000 0.000000 0.039757 0.000000 0.000000
# 5 0.000000 0.000000 0.000000 0.000000 0.037958 0.000000
# 6 0.000000 0.000000 0.000000 0.000000 0.000000 0.032644
#
#
# Mechanical properties :
#
#
# Convention : Reuss Voigt Hill
#
# Bulk Modulus (GPa) = 38.23511 39.29981 38.76746
# Shear Modulus (GPa) = 25.39088 25.99346 25.69217
#
# Velocity S-wave (km/s) = 3.63518 3.67807 3.65669
# Velocity P-wave (km/s) = 6.12525 6.20411 6.16481
#
# Compressibility (1/GPa) = 0.02615397
#
# Stress axis : x y z
#
# Youngs Moduli (GPa) = 63.49967 53.71633 56.70635
#
# Poissons Ratio (x) = 0.36929 0.12812
# Poissons Ratio (y) = 0.43654 0.21483
# Poissons Ratio (z) = 0.14347 0.20350
#
# Static dielectric constant tensor:
#      x y z
#    x 1.704570 0.000000 0.000000 
#    y 0.000000 1.733170 0.000000 
#    z 0.000000 0.000000 1.664440 
# 
# From -- ./inp_files/2437.got.cif
#   From: 2010.05.17/outbox.cif.g08.bks.cpg/sg30_2_cif.got.tgz:2437.got - 2010.06.03 17:03:02.
