data_PCOD9342108
_publ_section_title
;
Structure prediction by ZEFSAII (Michael W. Deem and Ramdas Pophale) SiO2 
 PCOD9342108
Probable space group: P N C 2
;
_chemical_formula_sum "Si O2"
_cell_formula_units_Z 20
_cell_length_a 8.341342
_cell_length_b 7.060292
_cell_length_c 14.548158
_cell_angle_alpha 90.000000
_cell_angle_beta 90.000000
_cell_angle_gamma 90.000000
_cell_volume 856.774634
_symmetry_space_group_name_H-M "P N C 2"
_symmetry_group_IT_number 30
_symmetry_cell_setting 'orthorhombic'
loop_
_space_group_symop_operation_xyz
x,y,z
-x,-y,z
-x,1/2+y,1/2+z
x,1/2-y,1/2+z
loop_
_atom_site_type_symbol
_atom_site_label
_atom_site_fract_x
_atom_site_fract_y
_atom_site_fract_z
Si Si1 0.000000 0.500000 0.679220
Si Si2 0.152827 0.381729 0.153251
Si Si3 0.391644 0.286456 0.312286
Si Si4 0.500000 0.500000 0.486612
Si Si5 0.269929 0.859002 0.311062
Si Si6 0.656627 0.367458 0.010762
O O1 0.100031 0.334616 0.627988
O O2 0.120045 0.621637 0.744284
O O3 0.279433 0.372062 0.235290
O O4 0.000000 0.500000 0.184580
O O5 0.230991 0.506273 0.073362
O O6 0.390599 0.385074 0.412320
O O7 0.330274 0.073899 0.319081
O O8 0.422248 0.732287 0.281708
O O9 0.411004 0.662987 0.544444
O O10 0.247390 0.810098 0.418189
O O11 0.500000 0.500000 0.993691
#
# Coordination Sequence:
#
# PCOD9342108 Si02
#       6
#     2   4   4   2   4   4
#     4  10  24  44  70  98 146 188 234 294 376 436
#     4  11  27  42  63 107 145 186 233 302 375 433
#     4   9  19  40  70  98 127 179 248 285 347 431
#     4  10  20  40  74  96 126 188 242 294 358 424
#     4   9  18  42  73  98 128 185 241 294 348 441
#     4  11  23  42  66 101 141 179 242 300 361 432
#
# _framework density 23.343361000000002
#
# number of rings (size 3 to 8) (size 9 to 14) (size 15 to 20)
#    0.000    2.000    4.000    0.000    8.400    1.600 
#    0.000    2.000    4.400    0.000    0.000    0.000 
#    0.000    0.000    0.000    0.000    0.000    0.000 
#
# Total GULP energy -111632.791300 kJ/mol
# GULP energy per Si atom -5581.639565 kJ/mol
# Density = 2.329023 g / cm^3
# Si number density = 23.343361 Si / 1000 Ang^3
#
#
#
# Elastic Constant Matrix: (Units=GPa)
#
#
# Indices 1 2 3 4 5 6 
#
# 1 102.0447 52.1610 57.4721 0.0000 0.0000 0.0000
# 2 52.1610 171.8325 38.6896 0.0000 0.0000 0.0000
# 3 57.4721 38.6896 58.3647 0.0000 0.0000 0.0000
# 4 0.0000 0.0000 0.0000 22.3848 0.0000 0.0000
# 5 0.0000 0.0000 0.0000 0.0000 12.0655 0.0000
# 6 0.0000 0.0000 0.0000 0.0000 0.0000 50.5283
#
#
#
# Elastic Compliance Matrix: (Units=1/GPa)
#
#
# Indices 1 2 3 4 5 6 
#
# 1 0.022676 -0.002181 -0.020884 0.000000 0.000000 0.000000
# 2 -0.002181 0.007050 -0.002526 0.000000 0.000000 0.000000
# 3 -0.020884 -0.002526 0.039372 0.000000 0.000000 0.000000
# 4 0.000000 0.000000 0.000000 0.044673 0.000000 0.000000
# 5 0.000000 0.000000 0.000000 0.000000 0.082881 0.000000
# 6 0.000000 0.000000 0.000000 0.000000 0.000000 0.019791
#
#
# Mechanical properties :
#
#
# Convention : Reuss Voigt Hill
#
# Bulk Modulus (GPa) = 55.81083 69.87639 62.84361
# Shear Modulus (GPa) = 18.27499 29.25698 23.76599
#
# Velocity S-wave (km/s) = 2.80103 3.54408 3.19424
# Velocity P-wave (km/s) = 5.86699 6.83714 6.37056
#
# Compressibility (1/GPa) = 0.01791767
#
# Stress axis : x y z
#
# Youngs Moduli (GPa) = 44.09859 141.83415 25.39874
#
# Poissons Ratio (x) = 0.30941 0.53042
# Poissons Ratio (y) = 0.09620 0.06415
# Poissons Ratio (z) = 0.92094 0.35822
#
# Static dielectric constant tensor:
#      x y z
#    x 1.957600 0.000000 0.000000 
#    y 0.000000 1.942980 0.000000 
#    z 0.000000 0.000000 1.919600 
# 
# From -- ./inp_files/5393.got.cif
#   From: 2010.05.17/outbox.cif.g08.bks.cpg/sg30_3_cif.got.tgz:5393.got - 2010.06.03 17:03:02.
