data_PCOD9342779
_publ_section_title
;
Structure prediction by ZEFSAII (Michael W. Deem and Ramdas Pophale) SiO2 
 PCOD9342779
Probable space group: P M N 21
;
_chemical_formula_sum "Si O2"
_cell_formula_units_Z 24
_cell_length_a 7.595589
_cell_length_b 7.563197
_cell_length_c 18.647873
_cell_angle_alpha 90.000000
_cell_angle_beta 90.000000
_cell_angle_gamma 90.000000
_cell_volume 1071.263166
_symmetry_space_group_name_H-M "P M N 21"
_symmetry_group_IT_number 31
_symmetry_cell_setting 'orthorhombic'
loop_
_space_group_symop_operation_xyz
x,y,z
1/2-x,-y,1/2+z
-x,y,z
1/2+x,-y,1/2+z
loop_
_atom_site_type_symbol
_atom_site_label
_atom_site_fract_x
_atom_site_fract_y
_atom_site_fract_z
Si Si1 0.288852 0.837023 0.810910
Si Si2 0.715895 0.681219 0.961596
Si Si3 0.295626 0.561601 0.695659
Si Si4 0.797802 0.649875 0.541252
Si Si5 0.208982 0.180003 0.734701
Si Si6 0.715253 0.964691 0.081396
O O1 0.500000 0.817615 0.810900
O O2 0.224517 0.755546 0.885355
O O3 0.221427 0.719810 0.744268
O O4 0.249059 0.042097 0.797582
O O5 0.500000 0.676527 0.961128
O O6 0.779290 0.486153 0.983793
O O7 0.766362 0.817424 0.023980
O O8 0.500000 0.596978 0.680358
O O9 0.203987 0.552294 0.618574
O O10 0.282825 0.377309 0.737937
O O11 0.720462 0.842865 0.556344
O O12 0.000000 0.680450 0.519440
O O13 0.000000 0.198838 0.729330
O O14 0.275493 0.090668 0.660622
O O15 0.500000 0.971484 0.084202
#
# Coordination Sequence:
#
# PCOD9342779 Si02
#       6
#     4   4   4   4   4   4
#     4  10  22  38  57  85 119 150 183 232 292 343
#     4   9  18  34  56  83 112 143 186 235 281 332
#     4  11  22  35  55  86 118 150 185 231 287 341
#     4  10  18  33  58  84 107 142 191 237 276 330
#     4  11  21  36  60  86 111 148 195 236 276 332
#     4   9  17  30  56  86 105 135 188 239 274 316
#
# _framework density 22.403458000000001
#
# number of rings (size 3 to 8) (size 9 to 14) (size 15 to 20)
#    0.000    2.000    3.333    1.000    0.000    2.000 
#    0.000    5.833    0.000    2.000    0.000    0.000 
#    0.000    0.000    0.000    0.000    0.000    0.000 
#
# Total GULP energy -134101.895089 kJ/mol
# GULP energy per Si atom -5587.578962 kJ/mol
# Density = 2.235247 g / cm^3
# Si number density = 22.403458 Si / 1000 Ang^3
#
#
#
# Elastic Constant Matrix: (Units=GPa)
#
#
# Indices 1 2 3 4 5 6 
#
# 1 55.0758 -5.7598 -0.9568 0.0000 0.0000 0.0000
# 2 -5.7598 85.2121 -27.4850 0.0000 0.0000 0.0000
# 3 -0.9568 -27.4850 23.4302 0.0000 0.0000 0.0000
# 4 0.0000 0.0000 0.0000 25.9051 0.0000 0.0000
# 5 0.0000 0.0000 0.0000 0.0000 6.5947 0.0000
# 6 0.0000 0.0000 0.0000 0.0000 0.0000 13.7648
#
#
#
# Elastic Compliance Matrix: (Units=1/GPa)
#
#
# Indices 1 2 3 4 5 6 
#
# 1 0.018470 0.002400 0.003569 0.000000 0.000000 0.000000
# 2 0.002400 0.019190 0.022609 0.000000 0.000000 0.000000
# 3 0.003569 0.022609 0.069348 0.000000 0.000000 0.000000
# 4 0.000000 0.000000 0.000000 0.038602 0.000000 0.000000
# 5 0.000000 0.000000 0.000000 0.000000 0.151638 0.000000
# 6 0.000000 0.000000 0.000000 0.000000 0.000000 0.072649
#
#
# Mechanical properties :
#
#
# Convention : Reuss Voigt Hill
#
# Bulk Modulus (GPa) = 6.09147 10.59055 8.34101
# Shear Modulus (GPa) = 13.60686 22.44757 18.02721
#
# Velocity S-wave (km/s) = 2.46713 3.16882 2.83973
# Velocity P-wave (km/s) = 3.29250 4.25747 3.80569
#
# Compressibility (1/GPa) = 0.16416406
#
# Stress axis : x y z
#
# Youngs Moduli (GPa) = 54.14260 52.10989 14.42006
#
# Poissons Ratio (x) = -0.12505 -0.05147
# Poissons Ratio (y) = -0.12992 -0.32603
# Poissons Ratio (z) = -0.19324 -1.17817
#
# Static dielectric constant tensor:
#      x y z
#    x 1.849050 0.000000 0.000000 
#    y 0.000000 1.827350 0.000000 
#    z 0.000000 0.000000 1.801040 
# 
# From -- ./inp_files/5706.got.cif
#   From: 2010.05.17/outbox.cif.g08.bks.cpg/sg31_3_cif.got.tgz:5706.got - 2010.06.03 17:08:30.
