data_PCOD9342315
_publ_section_title
;
Structure prediction by ZEFSAII (Michael W. Deem and Ramdas Pophale) SiO2 
 PCOD9342315
Probable space group: P N C 2
;
_chemical_formula_sum "Si O2"
_cell_formula_units_Z 26
_cell_length_a 6.254686
_cell_length_b 17.275518
_cell_length_c 11.197494
_cell_angle_alpha 90.000000
_cell_angle_beta 90.000000
_cell_angle_gamma 90.000000
_cell_volume 1209.922154
_symmetry_space_group_name_H-M "P N C 2"
_symmetry_group_IT_number 30
_symmetry_cell_setting 'orthorhombic'
loop_
_space_group_symop_operation_xyz
x,y,z
-x,-y,z
-x,1/2+y,1/2+z
x,1/2-y,1/2+z
loop_
_atom_site_type_symbol
_atom_site_label
_atom_site_fract_x
_atom_site_fract_y
_atom_site_fract_z
Si Si1 0.305690 0.632641 0.414500
Si Si2 0.718701 0.829794 0.338122
Si Si3 0.373343 0.430210 0.615062
Si Si4 0.648979 0.677880 0.221848
Si Si5 0.968892 0.592074 0.053915
Si Si6 0.000000 0.500000 0.453704
Si Si7 0.653498 0.295331 0.009747
O O1 0.452201 0.603276 0.523986
O O2 0.467737 0.640590 0.304513
O O3 0.233832 0.717498 0.461063
O O4 0.123415 0.569641 0.387705
O O5 0.712927 0.873530 0.214001
O O6 0.769229 0.740805 0.304387
O O7 0.866680 0.874383 0.431361
O O8 0.484188 0.827163 0.398681
O O9 0.500000 0.500000 0.678532
O O10 0.177528 0.460145 0.536328
O O11 0.808598 0.618277 0.159198
O O12 0.521331 0.720401 0.113630
O O13 0.000000 0.500000 0.051001
O O14 0.187416 0.640670 0.061125
#
# Coordination Sequence:
#
# PCOD9342315 Si02
#       7
#     4   4   4   4   4   2   4
#     4  10  22  44  68  97 137 178 227 279 342 408
#     4  10  23  41  71  96 133 178 229 284 337 411
#     4  10  22  40  64  99 136 171 220 282 342 401
#     4  10  23  46  70  94 136 185 225 284 339 415
#     4  11  27  45  70 106 138 182 234 287 348 423
#     4  10  24  38  66 104 134 170 218 284 338 412
#     4  10  23  43  67  95 132 182 228 275 345 405
#
# _framework density 21.488986000000001
#
# number of rings (size 3 to 8) (size 9 to 14) (size 15 to 20)
#    0.000    1.846    1.538    0.000    5.385    6.769 
#   11.077    0.000    0.000    0.000    0.000    0.000 
#    0.000    0.000    0.000    0.000    0.000    0.000 
#
# Total GULP energy -145241.073881 kJ/mol
# GULP energy per Si atom -5586.195149 kJ/mol
# Density = 2.144008 g / cm^3
# Si number density = 21.488986 Si / 1000 Ang^3
#
#
#
# Elastic Constant Matrix: (Units=GPa)
#
#
# Indices 1 2 3 4 5 6 
#
# 1 61.3542 71.7714 25.4125 0.0000 0.0000 0.0000
# 2 71.7714 163.7186 52.8075 0.0000 0.0000 0.0000
# 3 25.4125 52.8075 89.9555 0.0000 0.0000 0.0000
# 4 0.0000 0.0000 0.0000 35.0676 0.0000 0.0000
# 5 0.0000 0.0000 0.0000 0.0000 12.8717 0.0000
# 6 0.0000 0.0000 0.0000 0.0000 0.0000 20.8708
#
#
#
# Elastic Compliance Matrix: (Units=1/GPa)
#
#
# Indices 1 2 3 4 5 6 
#
# 1 0.033534 -0.014365 -0.001040 0.000000 0.000000 0.000000
# 2 -0.014365 0.013688 -0.003977 0.000000 0.000000 0.000000
# 3 -0.001040 -0.003977 0.013745 0.000000 0.000000 0.000000
# 4 0.000000 0.000000 0.000000 0.028516 0.000000 0.000000
# 5 0.000000 0.000000 0.000000 0.000000 0.077690 0.000000
# 6 0.000000 0.000000 0.000000 0.000000 0.000000 0.047914
#
#
# Mechanical properties :
#
#
# Convention : Reuss Voigt Hill
#
# Bulk Modulus (GPa) = 45.04170 68.33456 56.68813
# Shear Modulus (GPa) = 19.13848 24.76449 21.95149
#
# Velocity S-wave (km/s) = 2.98756 3.39842 3.19959
# Velocity P-wave (km/s) = 5.73642 6.87517 6.33145
#
# Compressibility (1/GPa) = 0.02220165
#
# Stress axis : x y z
#
# Youngs Moduli (GPa) = 29.82073 73.05490 72.75111
#
# Poissons Ratio (x) = 1.04943 0.07570
# Poissons Ratio (y) = 0.42837 0.28937
# Poissons Ratio (z) = 0.03103 0.29057
#
# Static dielectric constant tensor:
#      x y z
#    x 1.765270 0.000000 0.000000 
#    y 0.000000 1.808260 0.000000 
#    z 0.000000 0.000000 1.756050 
# 
# From -- ./inp_files/3173.got.cif
#   From: 2010.05.17/outbox.cif.g08.bks.cpg/sg30_2_cif.got.tgz:3173.got - 2010.06.03 17:03:02.
