data_PCOD9342751
_publ_section_title
;
Structure prediction by ZEFSAII (Michael W. Deem and Ramdas Pophale) SiO2 
 PCOD9342751
Probable space group: P M N 21
;
_chemical_formula_sum "Si O2"
_cell_formula_units_Z 28
_cell_length_a 12.720352
_cell_length_b 5.201093
_cell_length_c 20.632049
_cell_angle_alpha 90.000000
_cell_angle_beta 90.000000
_cell_angle_gamma 90.000000
_cell_volume 1365.010868
_symmetry_space_group_name_H-M "P M N 21"
_symmetry_group_IT_number 31
_symmetry_cell_setting 'orthorhombic'
loop_
_space_group_symop_operation_xyz
x,y,z
1/2-x,-y,1/2+z
-x,y,z
1/2+x,-y,1/2+z
loop_
_atom_site_type_symbol
_atom_site_label
_atom_site_fract_x
_atom_site_fract_y
_atom_site_fract_z
Si Si1 0.711368 0.265944 0.841430
Si Si2 0.626213 0.097860 0.030434
Si Si3 0.618565 0.022371 0.281198
Si Si4 0.000000 0.445851 0.225404
Si Si5 0.000000 0.958128 0.309378
Si Si6 0.871850 0.401031 0.452144
Si Si7 0.616443 0.743632 0.145709
Si Si8 0.272213 0.575140 0.711172
O O1 0.606404 0.094469 0.848700
O O2 0.691734 0.501580 0.889591
O O3 0.708226 0.364897 0.767494
O O4 0.821512 0.114058 0.841024
O O5 0.500000 0.098605 0.029560
O O6 0.652101 0.979379 0.100799
O O7 0.659608 0.875047 0.980130
O O8 0.655083 0.379609 0.005853
O O9 0.500000 0.120563 0.295888
O O10 0.701531 0.222306 0.250578
O O11 0.604734 0.832323 0.219971
O O12 0.108540 0.367189 0.190453
O O13 0.000000 0.742243 0.251263
O O14 0.000000 0.250502 0.286354
O O15 0.000000 0.405513 0.441432
O O16 0.500000 0.653558 0.123464
O O17 0.704082 0.528402 0.151847
#
# Coordination Sequence:
#
# PCOD9342751 Si02
#       8
#     4   4   4   2   2   4   4   4
#     4  10  20  33  51  79 113 141 175 220 278 329
#     4   9  20  34  52  80 109 142 180 218 271 329
#     4  10  20  33  53  79 109 147 187 224 275 330
#     4  10  20  32  50  78 110 136 182 210 269 322
#     4  10  18  32  50  76 110 144 162 212 263 330
#     4  10  20  33  53  82 113 141 174 219 274 335
#     4   9  19  35  53  79 112 143 179 228 274 326
#     4  10  20  32  53  79 109 147 179 225 278 328
#
# _framework density 20.512654999999999
#
# number of rings (size 3 to 8) (size 9 to 14) (size 15 to 20)
#    0.000    2.286    2.143    0.429    4.000    0.571 
#    0.000    0.000    0.000    0.000    3.714    0.000 
#    0.000    0.000    0.000    0.000    0.000    0.000 
#
# Total GULP energy -155969.568330 kJ/mol
# GULP energy per Si atom -5570.341726 kJ/mol
# Density = 2.046597 g / cm^3
# Si number density = 20.512655 Si / 1000 Ang^3
#
#
#
# Elastic Constant Matrix: (Units=GPa)
#
#
# Indices 1 2 3 4 5 6 
#
# 1 139.6383 21.3561 11.1898 0.0000 0.0000 0.0000
# 2 21.3561 52.5494 7.5724 0.0000 0.0000 0.0000
# 3 11.1898 7.5724 54.5763 0.0000 0.0000 0.0000
# 4 0.0000 0.0000 0.0000 28.2946 0.0000 0.0000
# 5 0.0000 0.0000 0.0000 0.0000 17.7657 0.0000
# 6 0.0000 0.0000 0.0000 0.0000 0.0000 18.3444
#
#
#
# Elastic Compliance Matrix: (Units=1/GPa)
#
#
# Indices 1 2 3 4 5 6 
#
# 1 0.007708 -0.002964 -0.001169 0.000000 0.000000 0.000000
# 2 -0.002964 0.020558 -0.002245 0.000000 0.000000 0.000000
# 3 -0.001169 -0.002245 0.018874 0.000000 0.000000 0.000000
# 4 0.000000 0.000000 0.000000 0.035342 0.000000 0.000000
# 5 0.000000 0.000000 0.000000 0.000000 0.056288 0.000000
# 6 0.000000 0.000000 0.000000 0.000000 0.000000 0.054512
#
#
# Mechanical properties :
#
#
# Convention : Reuss Voigt Hill
#
# Bulk Modulus (GPa) = 29.08303 36.33340 32.70821
# Shear Modulus (GPa) = 22.98839 26.65731 24.82285
#
# Velocity S-wave (km/s) = 3.35131 3.60884 3.48246
# Velocity P-wave (km/s) = 5.40221 5.92589 5.67010
#
# Compressibility (1/GPa) = 0.03438432
#
# Stress axis : x y z
#
# Youngs Moduli (GPa) = 129.72868 48.64328 52.98255
#
# Poissons Ratio (x) = 0.14419 0.06195
# Poissons Ratio (y) = 0.38454 0.11893
# Poissons Ratio (z) = 0.15167 0.10919
#
# Static dielectric constant tensor:
#      x y z
#    x 1.861390 0.000000 0.000000 
#    y 0.000000 1.838350 0.000000 
#    z 0.000000 0.000000 1.772120 
# 
# From -- ./inp_files/6312.got.cif
#   From: 2010.05.17/outbox.cif.g08.bks.cpg/sg31_4_cif.got.tgz:6312.got - 2010.06.03 17:08:30.
