data_PCOD9342396
_publ_section_title
;
Structure prediction by ZEFSAII (Michael W. Deem and Ramdas Pophale) SiO2 
 PCOD9342396
Probable space group: P N C 2
;
_chemical_formula_sum "Si O2"
_cell_formula_units_Z 16
_cell_length_a 11.847206
_cell_length_b 6.984240
_cell_length_c 9.156562
_cell_angle_alpha 90.000000
_cell_angle_beta 90.000000
_cell_angle_gamma 90.000000
_cell_volume 757.648094
_symmetry_space_group_name_H-M "P N C 2"
_symmetry_group_IT_number 30
_symmetry_cell_setting 'orthorhombic'
loop_
_space_group_symop_operation_xyz
x,y,z
-x,-y,z
-x,1/2+y,1/2+z
x,1/2-y,1/2+z
loop_
_atom_site_type_symbol
_atom_site_label
_atom_site_fract_x
_atom_site_fract_y
_atom_site_fract_z
Si Si1 0.890305 0.366924 0.694230
Si Si2 0.739644 0.642015 0.505224
Si Si3 0.177772 0.946450 0.512756
Si Si4 0.626947 0.567435 0.194254
O O1 0.804072 0.474521 0.586481
O O2 0.906292 0.158659 0.623647
O O3 0.000000 0.500000 0.703375
O O4 0.837958 0.356290 0.854794
O O5 0.689840 0.588135 0.348774
O O6 0.642186 0.730154 0.609735
O O7 0.825988 0.823465 0.491617
O O8 0.300594 0.927108 0.589413
O O9 0.500000 0.500000 0.210562
#
# Coordination Sequence:
#
# PCOD9342396 Si02
#       4
#     4   4   4   4
#     4  12  26  42  71  96 137 186 220 288 343 398
#     4  10  22  46  66  97 140 166 233 283 324 420
#     4  10  24  45  65 103 133 173 238 274 330 419
#     4  10  22  44  72  98 133 182 219 285 347 396
#
# _framework density 21.117984
#
# number of rings (size 3 to 8) (size 9 to 14) (size 15 to 20)
#    1.500    0.000    2.500    1.500    3.500    4.000 
#    0.000    2.500    0.000    0.000    0.000    0.000 
#    0.000    0.000    0.000    0.000    0.000    0.000 
#
# Total GULP energy -89224.338306 kJ/mol
# GULP energy per Si atom -5576.521144 kJ/mol
# Density = 2.106992 g / cm^3
# Si number density = 21.117984 Si / 1000 Ang^3
#
#
#
# Elastic Constant Matrix: (Units=GPa)
#
#
# Indices 1 2 3 4 5 6 
#
# 1 113.1813 54.4210 77.0070 0.0000 0.0000 0.0000
# 2 54.4210 93.7856 55.3452 0.0000 0.0000 0.0000
# 3 77.0070 55.3452 197.0563 0.0000 0.0000 0.0000
# 4 0.0000 0.0000 0.0000 17.7430 0.0000 0.0000
# 5 0.0000 0.0000 0.0000 0.0000 -23.7595 0.0000
# 6 0.0000 0.0000 0.0000 0.0000 0.0000 30.0735
#
#
#
# Elastic Compliance Matrix: (Units=1/GPa)
#
#
# Indices 1 2 3 4 5 6 
#
# 1 0.014421 -0.006044 -0.003938 0.000000 0.000000 0.000000
# 2 -0.006044 0.015314 -0.001939 0.000000 0.000000 0.000000
# 3 -0.003938 -0.001939 0.007158 0.000000 0.000000 0.000000
# 4 0.000000 0.000000 0.000000 0.056360 0.000000 0.000000
# 5 0.000000 0.000000 0.000000 0.000000 -0.042088 0.000000
# 6 0.000000 0.000000 0.000000 0.000000 0.000000 0.033252
#
#
# Mechanical properties :
#
#
# Convention : Reuss Voigt Hill
#
# Bulk Modulus (GPa) = 76.62355 86.39662 81.51008
# Shear Modulus (GPa) = 44.40114 19.29475 31.84795
#
# Velocity S-wave (km/s) = 4.59031 3.02597 3.88763
# Velocity P-wave (km/s) = 8.02850 7.29444 7.67026
#
# Compressibility (1/GPa) = 0.01305082
#
# Stress axis : x y z
#
# Youngs Moduli (GPa) = 69.34379 65.29879 139.69945
#
# Poissons Ratio (x) = 0.39468 0.55013
# Poissons Ratio (y) = 0.41912 0.27090
# Poissons Ratio (z) = 0.27307 0.12663
#
# Static dielectric constant tensor:
#      x y z
#    x 1.776940 0.000000 0.000000 
#    y 0.000000 1.826280 0.000000 
#    z 0.000000 0.000000 1.721180 
# 
# From -- ./inp_files/2215.got.cif
#   From: 2010.05.17/outbox.cif.g08.bks.cpg/sg30_2_cif.got.tgz:2215.got - 2010.06.03 17:03:02.
