data_PCOD9342326
_publ_section_title
;
Structure prediction by ZEFSAII (Michael W. Deem and Ramdas Pophale) SiO2 
 PCOD9342326
Probable space group: P N C 2
;
_chemical_formula_sum "Si O2"
_cell_formula_units_Z 18
_cell_length_a 10.636363
_cell_length_b 9.162237
_cell_length_c 7.939670
_cell_angle_alpha 90.000000
_cell_angle_beta 90.000000
_cell_angle_gamma 90.000000
_cell_volume 773.743697
_symmetry_space_group_name_H-M "P N C 2"
_symmetry_group_IT_number 30
_symmetry_cell_setting 'orthorhombic'
loop_
_space_group_symop_operation_xyz
x,y,z
-x,-y,z
-x,1/2+y,1/2+z
x,1/2-y,1/2+z
loop_
_atom_site_type_symbol
_atom_site_label
_atom_site_fract_x
_atom_site_fract_y
_atom_site_fract_z
Si Si1 0.853401 0.533760 0.526240
Si Si2 0.239426 0.820176 0.791886
Si Si3 0.823772 0.676736 0.882396
Si Si4 0.000000 0.500000 0.123224
Si Si5 0.640293 0.453725 0.975266
O O1 0.770544 0.396675 0.475318
O O2 0.819810 0.613776 0.696804
O O3 0.833342 0.651321 0.379307
O O4 0.000000 0.500000 0.540192
O O5 0.281333 0.656063 0.849124
O O6 0.341138 0.881736 0.659903
O O7 0.104211 0.888964 0.715783
O O8 0.706029 0.610843 0.977591
O O9 0.936263 0.612934 0.993466
O O10 0.500000 0.500000 0.927213
#
# Coordination Sequence:
#
# PCOD9342326 Si02
#       5
#     4   4   4   2   4
#     4  12  26  42  68 107 147 187 233 305 389 451
#     4  11  25  44  75 105 146 192 251 310 377 440
#     4  11  25  41  69 104 146 185 242 305 378 446
#     4  10  22  40  72 110 144 186 238 318 386 440
#     4  11  27  49  74 105 148 202 256 303 365 443
#
# _framework density 23.26352
#
# number of rings (size 3 to 8) (size 9 to 14) (size 15 to 20)
#    0.000    0.889    2.222    4.000    9.333    3.556 
#    0.000    2.222    0.000    0.000    0.000    0.000 
#    0.000    0.000    0.000    0.000    0.000    0.000 
#
# Total GULP energy -100311.406424 kJ/mol
# GULP energy per Si atom -5572.855912 kJ/mol
# Density = 2.321057 g / cm^3
# Si number density = 23.263520 Si / 1000 Ang^3
#
#
#
# Elastic Constant Matrix: (Units=GPa)
#
#
# Indices 1 2 3 4 5 6 
#
# 1 68.0193 58.6960 8.0938 0.0000 0.0000 0.0000
# 2 58.6960 113.5491 -2.2126 0.0000 0.0000 0.0000
# 3 8.0938 -2.2126 91.5401 0.0000 0.0000 0.0000
# 4 0.0000 0.0000 0.0000 27.0073 0.0000 0.0000
# 5 0.0000 0.0000 0.0000 0.0000 -1.3947 0.0000
# 6 0.0000 0.0000 0.0000 0.0000 0.0000 20.2424
#
#
#
# Elastic Compliance Matrix: (Units=1/GPa)
#
#
# Indices 1 2 3 4 5 6 
#
# 1 0.027214 -0.014121 -0.002748 0.000000 0.000000 0.000000
# 2 -0.014121 0.016138 0.001639 0.000000 0.000000 0.000000
# 3 -0.002748 0.001639 0.011207 0.000000 0.000000 0.000000
# 4 0.000000 0.000000 0.000000 0.037027 0.000000 0.000000
# 5 0.000000 0.000000 0.000000 0.000000 -0.716981 0.000000
# 6 0.000000 0.000000 0.000000 0.000000 0.000000 0.049401
#
#
# Mechanical properties :
#
#
# Convention : Reuss Voigt Hill
#
# Bulk Modulus (GPa) = 41.49543 44.69586 43.09564
# Shear Modulus (GPa) = -9.30232 23.07307 6.88538
#
# Velocity S-wave (km/s) = -2.00184 3.15272 1.72225
# Velocity P-wave (km/s) = 3.54016 5.70153 4.74553
#
# Compressibility (1/GPa) = 0.02409904
#
# Stress axis : x y z
#
# Youngs Moduli (GPa) = 36.74542 61.96460 89.23225
#
# Poissons Ratio (x) = 0.87501 0.24517
# Poissons Ratio (y) = 0.51889 -0.14622
# Poissons Ratio (z) = 0.10096 -0.10154
#
# Static dielectric constant tensor:
#      x y z
#    x 1.960610 0.000000 0.000000 
#    y 0.000000 2.107750 0.000000 
#    z 0.000000 0.000000 1.988370 
# 
# From -- ./inp_files/2250.got.cif
#   From: 2010.05.17/outbox.cif.g08.bks.cpg/sg30_2_cif.got.tgz:2250.got - 2010.06.03 17:03:02.
