data_PCOD9342134
_publ_section_title
;
Structure prediction by ZEFSAII (Michael W. Deem and Ramdas Pophale) SiO2 
 PCOD9342134
Probable space group: P N C 2
;
_chemical_formula_sum "Si O2"
_cell_formula_units_Z 18
_cell_length_a 8.440747
_cell_length_b 11.231585
_cell_length_c 8.396821
_cell_angle_alpha 90.000000
_cell_angle_beta 90.000000
_cell_angle_gamma 90.000000
_cell_volume 796.043547
_symmetry_space_group_name_H-M "P N C 2"
_symmetry_group_IT_number 30
_symmetry_cell_setting 'orthorhombic'
loop_
_space_group_symop_operation_xyz
x,y,z
-x,-y,z
-x,1/2+y,1/2+z
x,1/2-y,1/2+z
loop_
_atom_site_type_symbol
_atom_site_label
_atom_site_fract_x
_atom_site_fract_y
_atom_site_fract_z
Si Si1 0.000000 0.000000 0.900651
Si Si2 0.187133 0.831777 0.652130
Si Si3 0.250230 0.187976 0.892533
Si Si4 0.543169 0.631934 0.096226
Si Si5 0.030385 0.632910 0.813605
O O1 0.901550 0.089657 0.784807
O O2 0.137678 0.087052 0.972783
O O3 0.374189 0.832147 0.665901
O O4 0.130128 0.698277 0.679940
O O5 0.128100 0.869988 0.478722
O O6 0.330986 0.124623 0.740419
O O7 0.128671 0.291629 0.840355
O O8 0.383863 0.262529 0.987830
O O9 0.500000 0.500000 0.025208
O O10 0.000000 0.500000 0.768768
#
# Coordination Sequence:
#
# PCOD9342134 Si02
#       5
#     2   4   4   4   4
#     4  10  20  42  72  98 138 190 232 286 344 444
#     4  11  22  43  70  98 139 184 233 287 362 413
#     4  11  24  44  71 105 138 191 239 284 368 417
#     4  12  24  45  71 104 147 184 232 306 360 423
#     4  11  23  44  69  99 136 188 234 287 345 440
#
# _framework density 22.611827999999999
#
# number of rings (size 3 to 8) (size 9 to 14) (size 15 to 20)
#    0.000    0.889    3.333    5.333    0.000    0.000 
#   18.000    1.111    0.000    0.000    0.000    0.000 
#    0.000    0.000    0.000    0.000    0.000    0.000 
#
# Total GULP energy -100566.961762 kJ/mol
# GULP energy per Si atom -5587.053431 kJ/mol
# Density = 2.256036 g / cm^3
# Si number density = 22.611828 Si / 1000 Ang^3
#
#
#
# Elastic Constant Matrix: (Units=GPa)
#
#
# Indices 1 2 3 4 5 6 
#
# 1 107.0586 26.7364 -8.7339 0.0000 0.0000 0.0000
# 2 26.7364 168.4444 7.2487 0.0000 0.0000 0.0000
# 3 -8.7339 7.2487 31.2669 0.0000 0.0000 0.0000
# 4 0.0000 0.0000 0.0000 24.5695 0.0000 0.0000
# 5 0.0000 0.0000 0.0000 0.0000 17.8000 0.0000
# 6 0.0000 0.0000 0.0000 0.0000 0.0000 40.3053
#
#
#
# Elastic Compliance Matrix: (Units=1/GPa)
#
#
# Indices 1 2 3 4 5 6 
#
# 1 0.010034 -0.001731 0.003204 0.000000 0.000000 0.000000
# 2 -0.001731 0.006295 -0.001943 0.000000 0.000000 0.000000
# 3 0.003204 -0.001943 0.033328 0.000000 0.000000 0.000000
# 4 0.000000 0.000000 0.000000 0.040701 0.000000 0.000000
# 5 0.000000 0.000000 0.000000 0.000000 0.056180 0.000000
# 6 0.000000 0.000000 0.000000 0.000000 0.000000 0.024811
#
#
# Mechanical properties :
#
#
# Convention : Reuss Voigt Hill
#
# Bulk Modulus (GPa) = 20.52592 39.69692 30.11142
# Shear Modulus (GPa) = 26.52144 35.30287 30.91215
#
# Velocity S-wave (km/s) = 3.42848 3.95556 3.70141
# Velocity P-wave (km/s) = 4.97693 6.20128 5.62253
#
# Compressibility (1/GPa) = 0.04871889
#
# Stress axis : x y z
#
# Youngs Moduli (GPa) = 99.65855 158.85701 30.00465
#
# Poissons Ratio (x) = 0.27491 -0.09614
# Poissons Ratio (y) = 0.17247 0.05829
# Poissons Ratio (z) = -0.31932 0.30863
#
# Static dielectric constant tensor:
#      x y z
#    x 1.799620 0.000000 0.000000 
#    y 0.000000 1.894810 0.000000 
#    z 0.000000 0.000000 1.909110 
# 
# From -- ./inp_files/1662.got.cif
#   From: 2010.05.17/outbox.cif.g08.bks.cpg/sg30_1_cif.got.tgz:1662.got - 2010.06.03 17:03:02.
