data_PCOD9342387
_publ_section_title
;
Structure prediction by ZEFSAII (Michael W. Deem and Ramdas Pophale) SiO2 
 PCOD9342387
Probable space group: P N C 2
;
_chemical_formula_sum "Si O2"
_cell_formula_units_Z 28
_cell_length_a 5.615120
_cell_length_b 27.732513
_cell_length_c 8.448043
_cell_angle_alpha 90.000000
_cell_angle_beta 90.000000
_cell_angle_gamma 90.000000
_cell_volume 1315.540985
_symmetry_space_group_name_H-M "P N C 2"
_symmetry_group_IT_number 30
_symmetry_cell_setting 'orthorhombic'
loop_
_space_group_symop_operation_xyz
x,y,z
-x,-y,z
-x,1/2+y,1/2+z
x,1/2-y,1/2+z
loop_
_atom_site_type_symbol
_atom_site_label
_atom_site_fract_x
_atom_site_fract_y
_atom_site_fract_z
Si Si1 0.492468 0.131529 0.645430
Si Si2 0.000000 0.000000 0.974451
Si Si3 0.002477 0.600210 0.297875
Si Si4 0.498719 0.891795 0.282264
Si Si5 0.245855 0.193744 0.198237
Si Si6 0.500000 0.000000 0.169657
Si Si7 0.478941 0.221277 0.865654
Si Si8 0.156504 0.829633 0.057985
O O1 0.234982 0.107992 0.691328
O O2 0.548338 0.123999 0.461429
O O3 0.457907 0.185508 0.715167
O O4 0.732503 0.110368 0.727619
O O5 0.995697 0.953114 0.865796
O O6 0.249177 0.999395 0.072978
O O7 0.996014 0.636369 0.447048
O O8 0.738937 0.862611 0.242222
O O9 0.330506 0.866464 0.150111
O O10 0.503522 0.949140 0.263487
O O11 0.400684 0.226251 0.312396
O O12 0.966676 0.202253 0.193593
O O13 0.325773 0.206375 0.019984
O O14 0.733832 0.208908 0.937592
#
# Coordination Sequence:
#
# PCOD9342387 Si02
#       8
#     4   2   4   4   4   2   4   4
#     4  11  25  45  69 101 147 179 229 295 358 417
#     4  12  24  42  76 104 132 188 242 288 352 422
#     4  11  23  44  70 100 138 183 233 290 346 422
#     4  11  26  43  68 103 142 184 233 296 354 421
#     4  11  22  43  69  95 140 180 237 288 358 419
#     4  12  26  42  74 102 140 182 246 286 356 418
#     4  10  23  41  64 103 133 182 237 283 353 429
#     4  10  22  44  68  97 137 184 232 290 348 426
#
# _framework density 21.284020000000002
#
# number of rings (size 3 to 8) (size 9 to 14) (size 15 to 20)
#    0.000    1.143    2.857    2.571    4.000    3.429 
#    2.571    0.000    0.000    0.000    0.000    0.000 
#    0.000    0.000    0.000    0.000    0.000    0.000 
#
# Total GULP energy -155903.134648 kJ/mol
# GULP energy per Si atom -5567.969095 kJ/mol
# Density = 2.123558 g / cm^3
# Si number density = 21.284020 Si / 1000 Ang^3
#
#
#
# Elastic Constant Matrix: (Units=GPa)
#
#
# Indices 1 2 3 4 5 6 
#
# 1 68.8502 44.9080 20.2574 0.0000 0.0000 0.0000
# 2 44.9080 125.4165 40.8667 0.0000 0.0000 0.0000
# 3 20.2574 40.8667 98.6935 0.0000 0.0000 0.0000
# 4 0.0000 0.0000 0.0000 2.9166 0.0000 0.0000
# 5 0.0000 0.0000 0.0000 0.0000 20.1278 0.0000
# 6 0.0000 0.0000 0.0000 0.0000 0.0000 9.4192
#
#
#
# Elastic Compliance Matrix: (Units=1/GPa)
#
#
# Indices 1 2 3 4 5 6 
#
# 1 0.019084 -0.006424 -0.001257 0.000000 0.000000 0.000000
# 2 -0.006424 0.011379 -0.003393 0.000000 0.000000 0.000000
# 3 -0.001257 -0.003393 0.011796 0.000000 0.000000 0.000000
# 4 0.000000 0.000000 0.000000 0.342869 0.000000 0.000000
# 5 0.000000 0.000000 0.000000 0.000000 0.049683 0.000000
# 6 0.000000 0.000000 0.000000 0.000000 0.000000 0.106166
#
#
# Mechanical properties :
#
#
# Convention : Reuss Voigt Hill
#
# Bulk Modulus (GPa) = 49.72590 56.11383 52.91986
# Shear Modulus (GPa) = 8.77458 18.95460 13.86459
#
# Velocity S-wave (km/s) = 2.03262 2.98746 2.55504
# Velocity P-wave (km/s) = 5.37796 6.19043 5.79844
#
# Compressibility (1/GPa) = 0.02011025
#
# Stress axis : x y z
#
# Youngs Moduli (GPa) = 52.39950 87.87857 84.77775
#
# Poissons Ratio (x) = 0.56452 0.10658
# Poissons Ratio (y) = 0.33660 0.28768
# Poissons Ratio (z) = 0.06588 0.29821
#
# Static dielectric constant tensor:
#      x y z
#    x 1.998580 0.000000 0.000000 
#    y 0.000000 1.827750 0.000000 
#    z 0.000000 0.000000 1.789190 
# 
# From -- ./inp_files/1456.got.cif
#   From: 2010.05.17/outbox.cif.g08.bks.cpg/sg30_1_cif.got.tgz:1456.got - 2010.06.03 17:03:02.
