data_PCOD9342752
_publ_section_title
;
Structure prediction by ZEFSAII (Michael W. Deem and Ramdas Pophale) SiO2 
 PCOD9342752
Probable space group: P M N 21
;
_chemical_formula_sum "Si O2"
_cell_formula_units_Z 32
_cell_length_a 14.711840
_cell_length_b 5.102350
_cell_length_c 18.056315
_cell_angle_alpha 90.000000
_cell_angle_beta 90.000000
_cell_angle_gamma 90.000000
_cell_volume 1355.396506
_symmetry_space_group_name_H-M "P M N 21"
_symmetry_group_IT_number 31
_symmetry_cell_setting 'orthorhombic'
loop_
_space_group_symop_operation_xyz
x,y,z
1/2-x,-y,1/2+z
-x,y,z
1/2+x,-y,1/2+z
loop_
_atom_site_type_symbol
_atom_site_label
_atom_site_fract_x
_atom_site_fract_y
_atom_site_fract_z
Si Si1 0.096660 0.742270 0.483910
Si Si2 0.346882 0.736070 0.336614
Si Si3 0.402797 0.616900 0.124650
Si Si4 0.628659 0.236734 0.255890
Si Si5 0.195455 0.730452 0.117323
Si Si6 0.662325 0.779141 0.705619
Si Si7 0.666026 0.535470 0.846680
Si Si8 0.771017 0.923689 0.960002
O O1 0.101180 0.511478 0.543676
O O2 0.102858 0.619063 0.402807
O O3 0.000000 0.882772 0.492901
O O4 0.185741 0.915808 0.492761
O O5 0.389545 0.452622 0.320335
O O6 0.240250 0.676861 0.316682
O O7 0.394551 0.948652 0.283951
O O8 0.336665 0.873854 0.416439
O O9 0.500000 0.760632 0.132542
O O10 0.405913 0.374084 0.182016
O O11 0.304784 0.751812 0.135218
O O12 0.735670 0.213319 0.238983
O O13 0.163486 0.447174 0.143987
O O14 0.144151 0.949502 0.165422
O O15 0.185310 0.777649 0.029695
O O16 0.614426 0.681874 0.780610
O O17 0.725930 0.729271 0.899444
#
# Coordination Sequence:
#
# PCOD9342752 Si02
#       8
#     4   4   4   4   4   4   4   4
#     4  10  22  36  50  76 113 156 192 214 251 316
#     4  10  19  32  52  76  98 135 179 227 277 310
#     4  10  21  36  51  75 115 159 191 214 246 315
#     4  10  18  32  51  72 101 138 184 219 265 306
#     4  11  22  34  53  76 109 141 182 216 273 316
#     4  10  20  33  52  75  99 140 175 231 271 317
#     4  10  20  34  54  73 106 142 184 225 274 311
#     4  11  20  33  53  79 107 145 177 228 269 323
#
# _framework density 23.609328000000001
#
# number of rings (size 3 to 8) (size 9 to 14) (size 15 to 20)
#    0.000    1.750    3.750    3.750    3.500    1.000 
#    0.000    6.875    0.000    0.000    0.000    0.000 
#    0.000    6.000    0.000    0.500    0.000    0.000 
#
# Total GULP energy -178639.766387 kJ/mol
# GULP energy per Si atom -5582.492700 kJ/mol
# Density = 2.355559 g / cm^3
# Si number density = 23.609328 Si / 1000 Ang^3
#
#
#
# Elastic Constant Matrix: (Units=GPa)
#
#
# Indices 1 2 3 4 5 6 
#
# 1 30.7093 1.3793 8.4111 0.0000 0.0000 0.0000
# 2 1.3793 110.9546 24.1934 0.0000 0.0000 0.0000
# 3 8.4111 24.1934 100.3479 0.0000 0.0000 0.0000
# 4 0.0000 0.0000 0.0000 47.4833 0.0000 0.0000
# 5 0.0000 0.0000 0.0000 0.0000 -38.7987 0.0000
# 6 0.0000 0.0000 0.0000 0.0000 0.0000 -2.4025
#
#
#
# Elastic Compliance Matrix: (Units=1/GPa)
#
#
# Indices 1 2 3 4 5 6 
#
# 1 0.033333 0.000206 -0.002844 0.000000 0.000000 0.000000
# 2 0.000206 0.009514 -0.002311 0.000000 0.000000 0.000000
# 3 -0.002844 -0.002311 0.010761 0.000000 0.000000 0.000000
# 4 0.000000 0.000000 0.000000 0.021060 0.000000 0.000000
# 5 0.000000 0.000000 0.000000 0.000000 -0.025774 0.000000
# 6 0.000000 0.000000 0.000000 0.000000 0.000000 -0.416229
#
#
# Mechanical properties :
#
#
# Convention : Reuss Voigt Hill
#
# Bulk Modulus (GPa) = 22.87801 34.44216 28.66009
# Shear Modulus (GPa) = -14.58289 15.12494 0.27102
#
# Velocity S-wave (km/s) = -2.48800 2.53382 0.33918
# Velocity P-wave (km/s) = 1.20737 4.81460 3.50985
#
# Compressibility (1/GPa) = 0.04371009
#
# Stress axis : x y z
#
# Youngs Moduli (GPa) = 30.00027 105.10764 92.92945
#
# Poissons Ratio (x) = -0.02161 0.26425
# Poissons Ratio (y) = -0.00617 0.21476
# Poissons Ratio (z) = 0.08531 0.24291
#
# Static dielectric constant tensor:
#      x y z
#    x 1.926520 0.000000 0.000000 
#    y 0.000000 1.943600 0.000000 
#    z 0.000000 0.000000 1.951270 
# 
# From -- ./inp_files/6151.got.cif
#   From: 2010.05.17/outbox.cif.g08.bks.cpg/sg31_4_cif.got.tgz:6151.got - 2010.06.03 17:08:30.
