data_PCOD9342278
_publ_section_title
;
Structure prediction by ZEFSAII (Michael W. Deem and Ramdas Pophale) SiO2 
 PCOD9342278
Probable space group: P N C 2
;
_chemical_formula_sum "Si O2"
_cell_formula_units_Z 28
_cell_length_a 7.626431
_cell_length_b 21.623910
_cell_length_c 9.144992
_cell_angle_alpha 90.000000
_cell_angle_beta 90.000000
_cell_angle_gamma 90.000000
_cell_volume 1508.130421
_symmetry_space_group_name_H-M "P N C 2"
_symmetry_group_IT_number 30
_symmetry_cell_setting 'orthorhombic'
loop_
_space_group_symop_operation_xyz
x,y,z
-x,-y,z
-x,1/2+y,1/2+z
x,1/2-y,1/2+z
loop_
_atom_site_type_symbol
_atom_site_label
_atom_site_fract_x
_atom_site_fract_y
_atom_site_fract_z
Si Si1 0.459262 0.312078 0.315020
Si Si2 0.389577 0.807356 0.139947
Si Si3 0.937310 0.931259 0.544737
Si Si4 0.098028 0.753184 0.477117
Si Si5 0.526470 0.569165 0.113605
Si Si6 0.066874 0.185029 0.718488
Si Si7 0.253215 0.618523 0.887986
O O1 0.533687 0.250673 0.233044
O O2 0.510041 0.313921 0.485640
O O3 0.506957 0.375359 0.228666
O O4 0.251200 0.310750 0.296164
O O5 0.359160 0.867863 0.239131
O O6 0.194043 0.791361 0.088169
O O7 0.724674 0.925964 0.545513
O O8 0.988169 0.883874 0.674539
O O9 0.943776 0.089792 0.404231
O O10 0.000000 0.000000 0.577948
O O11 0.221870 0.812276 0.450899
O O12 0.930026 0.779689 0.562516
O O13 0.064479 0.717534 0.328940
O O14 0.500000 0.500000 0.175080
O O15 0.380738 0.579084 0.989531
#
# Coordination Sequence:
#
# PCOD9342278 Si02
#       7
#     4   4   4   4   4   4   4
#     4  11  22  38  58  94 124 166 208 263 318 387
#     4  12  21  36  61  86 130 158 206 253 331 375
#     4  10  22  40  66  93 121 166 221 260 304 387
#     4  11  19  36  56  89 124 160 201 253 324 376
#     4  11  22  41  69  91 124 170 220 262 314 382
#     4  10  22  35  59  91 124 161 206 261 321 372
#     4  11  22  38  63  94 121 169 206 266 316 379
#
# _framework density 18.566033999999998
#
# number of rings (size 3 to 8) (size 9 to 14) (size 15 to 20)
#    0.000    1.143    5.714    0.857    2.000    2.286 
#    2.571    0.714    0.000    0.857    0.000    0.000 
#    0.000    0.000    0.000    0.000    0.000    0.000 
#
# Total GULP energy -155890.666463 kJ/mol
# GULP energy per Si atom -5567.523802 kJ/mol
# Density = 1.852378 g / cm^3
# Si number density = 18.566034 Si / 1000 Ang^3
#
#
#
# Elastic Constant Matrix: (Units=GPa)
#
#
# Indices 1 2 3 4 5 6 
#
# 1 69.1855 21.7831 31.1266 0.0000 0.0000 0.0000
# 2 21.7831 100.6237 37.9621 0.0000 0.0000 0.0000
# 3 31.1266 37.9621 101.0044 0.0000 0.0000 0.0000
# 4 0.0000 0.0000 0.0000 21.7653 0.0000 0.0000
# 5 0.0000 0.0000 0.0000 0.0000 34.0358 0.0000
# 6 0.0000 0.0000 0.0000 0.0000 0.0000 27.7703
#
#
#
# Elastic Compliance Matrix: (Units=1/GPa)
#
#
# Indices 1 2 3 4 5 6 
#
# 1 0.017119 -0.001999 -0.004524 0.000000 0.000000 0.000000
# 2 -0.001999 0.011813 -0.003824 0.000000 0.000000 0.000000
# 3 -0.004524 -0.003824 0.012732 0.000000 0.000000 0.000000
# 4 0.000000 0.000000 0.000000 0.045945 0.000000 0.000000
# 5 0.000000 0.000000 0.000000 0.000000 0.029381 0.000000
# 6 0.000000 0.000000 0.000000 0.000000 0.000000 0.036010
#
#
# Mechanical properties :
#
#
# Convention : Reuss Voigt Hill
#
# Bulk Modulus (GPa) = 47.68767 50.28412 48.98589
# Shear Modulus (GPa) = 27.67267 28.71040 28.19154
#
# Velocity S-wave (km/s) = 3.86489 3.93669 3.90095
# Velocity P-wave (km/s) = 6.75705 6.91419 6.83607
#
# Compressibility (1/GPa) = 0.02096978
#
# Stress axis : x y z
#
# Youngs Moduli (GPa) = 58.41558 84.64941 78.54228
#
# Poissons Ratio (x) = 0.16922 0.35534
# Poissons Ratio (y) = 0.11678 0.30034
# Poissons Ratio (z) = 0.26428 0.32370
#
# Static dielectric constant tensor:
#      x y z
#    x 1.697810 0.000000 0.000000 
#    y 0.000000 1.653410 0.000000 
#    z 0.000000 0.000000 1.674880 
# 
# From -- ./inp_files/1994.got.cif
#   From: 2010.05.17/outbox.cif.g08.bks.cpg/sg30_1_cif.got.tgz:1994.got - 2010.06.03 17:03:02.
