data_PCOD9342198
_publ_section_title
;
Structure prediction by ZEFSAII (Michael W. Deem and Ramdas Pophale) SiO2 
 PCOD9342198
Probable space group: P N C 2
;
_chemical_formula_sum "Si O2"
_cell_formula_units_Z 32
_cell_length_a 5.221854
_cell_length_b 18.429413
_cell_length_c 14.398959
_cell_angle_alpha 90.000000
_cell_angle_beta 90.000000
_cell_angle_gamma 90.000000
_cell_volume 1385.693956
_symmetry_space_group_name_H-M "P N C 2"
_symmetry_group_IT_number 30
_symmetry_cell_setting 'orthorhombic'
loop_
_space_group_symop_operation_xyz
x,y,z
-x,-y,z
-x,1/2+y,1/2+z
x,1/2-y,1/2+z
loop_
_atom_site_type_symbol
_atom_site_label
_atom_site_fract_x
_atom_site_fract_y
_atom_site_fract_z
Si Si1 0.759202 0.296471 0.593440
Si Si2 0.740798 0.703528 0.859779
Si Si3 0.518785 0.918342 0.783756
Si Si4 0.249576 0.283580 0.082455
Si Si5 0.246758 0.466724 0.831514
Si Si6 0.746758 0.466723 0.621710
Si Si7 0.749576 0.283579 0.370764
Si Si8 0.981214 0.081658 0.669462
O O1 0.525517 0.242731 0.620602
O O2 0.723442 0.380119 0.621292
O O3 0.771744 0.286593 0.481817
O O4 0.043746 0.273500 0.622192
O O5 0.776558 0.619880 0.831929
O O6 0.456254 0.726500 0.831027
O O7 0.974484 0.757269 0.832617
O O8 0.728256 0.713407 0.971402
O O9 0.392121 0.858921 0.848699
O O10 0.817275 0.911024 0.756174
O O11 0.317275 0.911024 0.697044
O O12 0.500000 0.000000 0.819750
O O13 0.107878 0.358921 0.104519
O O14 0.500000 0.500000 0.876918
O O15 0.250000 0.500002 0.726613
O O16 0.000000 0.500000 0.879757
O O17 0.500000 0.500000 0.573468
O O18 0.000000 0.500000 0.576307
O O19 0.000000 0.000000 0.633468
#
# Coordination Sequence:
#
# PCOD9342198 Si02
#       8
#     4   4   4   4   4   4   4   4
#     4  10  21  39  61  84 124 153 205 250 289 370
#     4  10  21  39  61  84 124 153 205 250 289 370
#     4  10  21  39  58  86 120 147 195 249 300 359
#     4  10  21  39  60  89 114 161 202 246 304 355
#     4  10  21  39  56  83 122 158 194 245 299 359
#     4  10  21  39  56  83 122 158 194 245 299 359
#     4  10  21  39  60  89 114 161 202 246 304 355
#     4  10  21  39  58  86 120 147 195 249 300 359
#
# _framework density 23.093122999999999
#
# number of rings (size 3 to 8) (size 9 to 14) (size 15 to 20)
#    0.000    2.000    0.000    3.000    0.000    1.000 
#   27.000    3.750    0.000    0.000    0.000    0.000 
#    0.000    0.000    0.000    0.000    0.000    0.000 
#
# Total GULP energy -178412.933919 kJ/mol
# GULP energy per Si atom -5575.404185 kJ/mol
# Density = 2.304056 g / cm^3
# Si number density = 23.093123 Si / 1000 Ang^3
#
#
#
# Elastic Constant Matrix: (Units=GPa)
#
#
# Indices 1 2 3 4 5 6 
#
# 1 120.5371 38.4172 -16.5817 0.0000 0.0000 0.0000
# 2 38.4172 142.9554 0.1249 0.0000 0.0000 0.0000
# 3 -16.5817 0.1249 41.2284 0.0000 0.0000 0.0000
# 4 0.0000 0.0000 0.0000 73.2667 0.0000 0.0000
# 5 0.0000 0.0000 0.0000 0.0000 -2.5104 0.0000
# 6 0.0000 0.0000 0.0000 0.0000 0.0000 28.6259
#
#
#
# Elastic Compliance Matrix: (Units=1/GPa)
#
#
# Indices 1 2 3 4 5 6 
#
# 1 0.009660 -0.002599 0.003893 0.000000 0.000000 0.000000
# 2 -0.002599 0.007695 -0.001069 0.000000 0.000000 0.000000
# 3 0.003893 -0.001069 0.025824 0.000000 0.000000 0.000000
# 4 0.000000 0.000000 0.000000 0.013649 0.000000 0.000000
# 5 0.000000 0.000000 0.000000 0.000000 -0.398342 0.000000
# 6 0.000000 0.000000 0.000000 0.000000 0.000000 0.034933
#
#
# Mechanical properties :
#
#
# Convention : Reuss Voigt Hill
#
# Bulk Modulus (GPa) = 22.92056 38.73795 30.82926
# Shear Modulus (GPa) = -17.09474 38.72713 10.81619
#
# Velocity S-wave (km/s) = -2.72371 4.09956 2.16654
# Velocity P-wave (km/s) = 0.23529 6.26256 4.43142
#
# Compressibility (1/GPa) = 0.04362895
#
# Stress axis : x y z
#
# Youngs Moduli (GPa) = 103.51691 129.95981 38.72339
#
# Poissons Ratio (x) = 0.33782 -0.15076
# Poissons Ratio (y) = 0.26909 0.04139
# Poissons Ratio (z) = -0.40301 0.13890
#
# Static dielectric constant tensor:
#      x y z
#    x 1.851990 0.000000 0.000000 
#    y 0.000000 1.846680 0.000000 
#    z 0.000000 0.000000 1.855770 
# 
# From -- ./inp_files/6022.got.cif
#   From: 2010.05.17/outbox.cif.g08.bks.cpg/sg30_4_cif.got.tgz:6022.got - 2010.06.03 17:03:02.
