data_PCOD9342275
_publ_section_title
;
Structure prediction by ZEFSAII (Michael W. Deem and Ramdas Pophale) SiO2 
 PCOD9342275
Probable space group: P N C 2
;
_chemical_formula_sum "Si O2"
_cell_formula_units_Z 22
_cell_length_a 6.344467
_cell_length_b 23.602194
_cell_length_c 5.937805
_cell_angle_alpha 90.000000
_cell_angle_beta 90.000000
_cell_angle_gamma 90.000000
_cell_volume 889.146759
_symmetry_space_group_name_H-M "P N C 2"
_symmetry_group_IT_number 30
_symmetry_cell_setting 'orthorhombic'
loop_
_space_group_symop_operation_xyz
x,y,z
-x,-y,z
-x,1/2+y,1/2+z
x,1/2-y,1/2+z
loop_
_atom_site_type_symbol
_atom_site_label
_atom_site_fract_x
_atom_site_fract_y
_atom_site_fract_z
Si Si1 0.680152 0.862892 0.897860
Si Si2 0.014567 0.903142 0.245521
Si Si3 0.000000 0.500000 0.087435
Si Si4 0.290608 0.919470 0.855069
Si Si5 0.414019 0.731217 0.619621
Si Si6 0.955051 0.184251 0.619999
O O1 0.531639 0.909982 0.788008
O O2 0.514505 0.828868 0.053138
O O3 0.813992 0.821618 0.733051
O O4 0.846151 0.894483 0.051884
O O5 0.937356 0.948408 0.425689
O O6 0.040573 0.843815 0.374327
O O7 0.226517 0.922859 0.118263
O O8 0.181903 0.527377 0.237778
O O9 0.182939 0.861484 0.759915
O O10 0.483593 0.738138 0.881731
O O11 0.173240 0.757010 0.625545
#
# Coordination Sequence:
#
# PCOD9342275 Si02
#       6
#     4   4   2   4   4   4
#     4  11  25  45  74 109 153 195 257 323 386 462
#     4  10  23  45  73 104 144 195 253 322 386 469
#     4  10  22  44  78 100 148 200 248 320 408 454
#     4  10  21  47  68 105 147 189 248 322 380 465
#     4  12  27  47  73 109 153 211 254 313 385 462
#     4  10  24  45  68 104 149 196 251 313 379 461
#
# _framework density 24.742819999999998
#
# number of rings (size 3 to 8) (size 9 to 14) (size 15 to 20)
#    0.000    1.455    1.818    1.636    5.091    4.364 
#    0.000   21.818    0.000    0.000    0.000    0.000 
#    0.000    0.000    0.000    0.000    0.000    0.000 
#
# Total GULP energy -122660.328305 kJ/mol
# GULP energy per Si atom -5575.469468 kJ/mol
# Density = 2.468650 g / cm^3
# Si number density = 24.742820 Si / 1000 Ang^3
#
#
#
# Elastic Constant Matrix: (Units=GPa)
#
#
# Indices 1 2 3 4 5 6 
#
# 1 89.1521 43.9077 28.6497 0.0000 0.0000 0.0000
# 2 43.9077 89.4880 23.2987 0.0000 0.0000 0.0000
# 3 28.6497 23.2987 117.9859 0.0000 0.0000 0.0000
# 4 0.0000 0.0000 0.0000 53.1294 0.0000 0.0000
# 5 0.0000 0.0000 0.0000 0.0000 4.3829 0.0000
# 6 0.0000 0.0000 0.0000 0.0000 0.0000 41.4792
#
#
#
# Elastic Compliance Matrix: (Units=1/GPa)
#
#
# Indices 1 2 3 4 5 6 
#
# 1 0.015394 -0.006937 -0.002368 0.000000 0.000000 0.000000
# 2 -0.006937 0.014906 -0.001259 0.000000 0.000000 0.000000
# 3 -0.002368 -0.001259 0.009299 0.000000 0.000000 0.000000
# 4 0.000000 0.000000 0.000000 0.018822 0.000000 0.000000
# 5 0.000000 0.000000 0.000000 0.000000 0.228158 0.000000
# 6 0.000000 0.000000 0.000000 0.000000 0.000000 0.024108
#
#
# Mechanical properties :
#
#
# Convention : Reuss Voigt Hill
#
# Bulk Modulus (GPa) = 54.13770 54.25978 54.19874
# Shear Modulus (GPa) = 14.79406 33.18297 23.98852
#
# Velocity S-wave (km/s) = 2.44788 3.66610 3.11708
# Velocity P-wave (km/s) = 5.46966 6.31644 5.90824
#
# Compressibility (1/GPa) = 0.01847142
#
# Stress axis : x y z
#
# Youngs Moduli (GPa) = 64.95973 67.08721 107.53495
#
# Poissons Ratio (x) = 0.46536 0.25467
# Poissons Ratio (y) = 0.45060 0.13540
# Poissons Ratio (z) = 0.15384 0.08447
#
# Static dielectric constant tensor:
#      x y z
#    x 2.111470 0.000000 0.000000 
#    y 0.000000 2.016040 0.000000 
#    z 0.000000 0.000000 1.999110 
# 
# From -- ./inp_files/240.got.cif
#   From: 2010.05.17/outbox.cif.g08.bks.cpg/sg30_1_cif.got.tgz:240.got - 2010.06.03 17:03:02.
