data_PCOD9342005
_publ_section_title
;
Structure prediction by ZEFSAII (Michael W. Deem and Ramdas Pophale) SiO2 
 PCOD9342005
Probable space group: P N C 2
;
_chemical_formula_sum "Si O2"
_cell_formula_units_Z 28
_cell_length_a 9.040529
_cell_length_b 12.556767
_cell_length_c 14.070725
_cell_angle_alpha 90.000000
_cell_angle_beta 90.000000
_cell_angle_gamma 90.000000
_cell_volume 1597.306116
_symmetry_space_group_name_H-M "P N C 2"
_symmetry_group_IT_number 30
_symmetry_cell_setting 'orthorhombic'
loop_
_space_group_symop_operation_xyz
x,y,z
-x,-y,z
-x,1/2+y,1/2+z
x,1/2-y,1/2+z
loop_
_atom_site_type_symbol
_atom_site_label
_atom_site_fract_x
_atom_site_fract_y
_atom_site_fract_z
Si Si1 0.326822 0.690113 0.854970
Si Si2 0.790160 0.528805 0.770988
Si Si3 0.392114 0.723320 0.642823
Si Si4 0.122861 0.713338 0.508943
Si Si5 0.500000 0.000000 0.178380
Si Si6 0.900167 0.603658 0.960169
Si Si7 0.557635 0.616181 0.015666
Si Si8 0.000000 0.000000 0.094711
O O1 0.229502 0.586781 0.822334
O O2 0.382230 0.737228 0.755714
O O3 0.225551 0.769891 0.915990
O O4 0.460209 0.650755 0.923105
O O5 0.622046 0.554979 0.745211
O O6 0.875120 0.600951 0.846071
O O7 0.871669 0.528909 0.670296
O O8 0.233230 0.745046 0.594953
O O9 0.427144 0.598072 0.623511
O O10 0.513811 0.797075 0.594220
O O11 0.989222 0.795297 0.496669
O O12 0.057343 0.597785 0.531847
O O13 0.000000 0.500000 0.984532
O O14 0.732215 0.605184 0.998102
O O15 0.500000 0.500000 0.043988
#
# Coordination Sequence:
#
# PCOD9342005 Si02
#       8
#     4   4   4   4   2   4   4   2
#     4  10  19  42  64  87 117 163 204 258 298 343
#     4  11  19  37  65  89 113 155 213 253 289 343
#     4  10  22  39  63  88 119 159 202 259 296 356
#     4  11  23  36  60  89 129 157 195 248 312 361
#     4  10  20  36  66  92 108 154 208 254 294 336
#     4  12  21  36  61  95 119 154 199 258 304 350
#     4  11  22  38  63  91 120 156 210 252 298 362
#     4  12  22  36  58  94 124 164 196 250 308 372
#
# _framework density 17.529515
#
# number of rings (size 3 to 8) (size 9 to 14) (size 15 to 20)
#    0.000    1.143    6.429    2.571    3.000    0.000 
#    0.000    0.000   17.286    0.000    0.000    0.000 
#    0.000    0.000    0.000    0.000    0.000    0.000 
#
# Total GULP energy -156095.591697 kJ/mol
# GULP energy per Si atom -5574.842561 kJ/mol
# Density = 1.748962 g / cm^3
# Si number density = 17.529515 Si / 1000 Ang^3
#
#
#
# Elastic Constant Matrix: (Units=GPa)
#
#
# Indices 1 2 3 4 5 6 
#
# 1 128.9278 45.0888 22.6181 0.0000 0.0000 0.0000
# 2 45.0888 85.7661 41.7644 0.0000 0.0000 0.0000
# 3 22.6181 41.7644 71.7238 0.0000 0.0000 0.0000
# 4 0.0000 0.0000 0.0000 35.1931 0.0000 0.0000
# 5 0.0000 0.0000 0.0000 0.0000 32.4883 0.0000
# 6 0.0000 0.0000 0.0000 0.0000 0.0000 33.7814
#
#
#
# Elastic Compliance Matrix: (Units=1/GPa)
#
#
# Indices 1 2 3 4 5 6 
#
# 1 0.009504 -0.004937 -0.000122 0.000000 0.000000 0.000000
# 2 -0.004937 0.018839 -0.009413 0.000000 0.000000 0.000000
# 3 -0.000122 -0.009413 0.019462 0.000000 0.000000 0.000000
# 4 0.000000 0.000000 0.000000 0.028415 0.000000 0.000000
# 5 0.000000 0.000000 0.000000 0.000000 0.030780 0.000000
# 6 0.000000 0.000000 0.000000 0.000000 0.000000 0.029602
#
#
# Mechanical properties :
#
#
# Convention : Reuss Voigt Hill
#
# Bulk Modulus (GPa) = 53.02047 56.15113 54.58580
# Shear Modulus (GPa) = 29.09796 32.08899 30.59347
#
# Velocity S-wave (km/s) = 4.07866 4.28316 4.18216
# Velocity P-wave (km/s) = 7.24518 7.52080 7.38428
#
# Compressibility (1/GPa) = 0.01886064
#
# Stress axis : x y z
#
# Youngs Moduli (GPa) = 105.21525 53.08220 51.38220
#
# Poissons Ratio (x) = 0.26207 0.00629
# Poissons Ratio (y) = 0.51945 0.48365
# Poissons Ratio (z) = 0.01288 0.49965
#
# Static dielectric constant tensor:
#      x y z
#    x 1.665620 0.000000 0.000000 
#    y 0.000000 1.598190 0.000000 
#    z 0.000000 0.000000 1.604860 
# 
# From -- ./inp_files/5154.got.cif
#   From: 2010.05.17/outbox.cif.g08.bks.cpg/sg30_3_cif.got.tgz:5154.got - 2010.06.03 17:03:02.
