data_PCOD9342341
_publ_section_title
;
Structure prediction by ZEFSAII (Michael W. Deem and Ramdas Pophale) SiO2 
 PCOD9342341
Probable space group: P N C 2
;
_chemical_formula_sum "Si O2"
_cell_formula_units_Z 8
_cell_length_a 4.828720
_cell_length_b 6.551685
_cell_length_c 12.121830
_cell_angle_alpha 90.000000
_cell_angle_beta 90.000000
_cell_angle_gamma 90.000000
_cell_volume 383.489273
_symmetry_space_group_name_H-M "P N C 2"
_symmetry_group_IT_number 30
_symmetry_cell_setting 'orthorhombic'
loop_
_space_group_symop_operation_xyz
x,y,z
-x,-y,z
-x,1/2+y,1/2+z
x,1/2-y,1/2+z
loop_
_atom_site_type_symbol
_atom_site_label
_atom_site_fract_x
_atom_site_fract_y
_atom_site_fract_z
Si Si1 0.735156 0.140884 0.671900
Si Si2 0.500000 0.500000 0.379688
Si Si3 0.000000 0.500000 0.531660
O O1 0.842885 0.334358 0.606372
O O2 0.500000 0.000000 0.613976
O O3 0.393702 0.826748 0.793782
O O4 0.000000 0.000000 0.689418
O O5 0.246498 0.421522 0.453019
#
# Coordination Sequence:
#
# PCOD9342341 Si02
#       3
#     4   2   2
#     4  10  22  44  61 100 143 165 238 285 315 432
#     4  10  22  42  64 104 136 170 238 282 320 434
#     4  12  22  42  76  90 140 194 202 290 370 362
#
# _framework density 20.861076000000001
#
# number of rings (size 3 to 8) (size 9 to 14) (size 15 to 20)
#    1.500    0.000    2.500    3.000    0.000    0.000 
#    4.500    5.000    0.000    0.000    0.000    0.000 
#    0.000    0.000    0.000    0.000    0.000    0.000 
#
# Total GULP energy -44542.244201 kJ/mol
# GULP energy per Si atom -5567.780525 kJ/mol
# Density = 2.081359 g / cm^3
# Si number density = 20.861076 Si / 1000 Ang^3
#
#
#
# Elastic Constant Matrix: (Units=GPa)
#
#
# Indices 1 2 3 4 5 6 
#
# 1 184.8975 63.0642 80.9778 0.0000 0.0000 0.0000
# 2 63.0642 89.6384 77.9505 0.0000 0.0000 0.0000
# 3 80.9778 77.9505 142.8003 0.0000 0.0000 0.0000
# 4 0.0000 0.0000 0.0000 51.9367 0.0000 0.0000
# 5 0.0000 0.0000 0.0000 0.0000 81.3721 0.0000
# 6 0.0000 0.0000 0.0000 0.0000 0.0000 37.2843
#
#
#
# Elastic Compliance Matrix: (Units=1/GPa)
#
#
# Indices 1 2 3 4 5 6 
#
# 1 0.007609 -0.003048 -0.002651 0.000000 0.000000 0.000000
# 2 -0.003048 0.022458 -0.010531 0.000000 0.000000 0.000000
# 3 -0.002651 -0.010531 0.014255 0.000000 0.000000 0.000000
# 4 0.000000 0.000000 0.000000 0.019254 0.000000 0.000000
# 5 0.000000 0.000000 0.000000 0.000000 0.012289 0.000000
# 6 0.000000 0.000000 0.000000 0.000000 0.000000 0.026821
#
#
# Mechanical properties :
#
#
# Convention : Reuss Voigt Hill
#
# Bulk Modulus (GPa) = 84.30235 95.70235 90.00235
# Shear Modulus (GPa) = 35.94554 47.14154 41.54354
#
# Velocity S-wave (km/s) = 4.15552 4.75888 4.46739
# Velocity P-wave (km/s) = 7.97016 8.72763 8.35748
#
# Compressibility (1/GPa) = 0.01186207
#
# Stress axis : x y z
#
# Youngs Moduli (GPa) = 131.42276 44.52786 70.15273
#
# Poissons Ratio (x) = 0.13571 0.18599
# Poissons Ratio (y) = 0.40055 0.73876
# Poissons Ratio (z) = 0.34842 0.46891
#
# Static dielectric constant tensor:
#      x y z
#    x 1.778640 0.000000 0.000000 
#    y 0.000000 1.703820 0.000000 
#    z 0.000000 0.000000 1.808990 
# 
# From -- ./inp_files/2821.got.cif
#   From: 2010.05.17/outbox.cif.g08.bks.cpg/sg30_2_cif.got.tgz:2821.got - 2010.06.03 17:03:02.
