data_PCOD9342758
_publ_section_title
;
Structure prediction by ZEFSAII (Michael W. Deem and Ramdas Pophale) SiO2 
 PCOD9342758
Probable space group: P M N 21
;
_chemical_formula_sum "Si O2"
_cell_formula_units_Z 32
_cell_length_a 7.540026
_cell_length_b 13.899682
_cell_length_c 13.422982
_cell_angle_alpha 90.000000
_cell_angle_beta 90.000000
_cell_angle_gamma 90.000000
_cell_volume 1406.781718
_symmetry_space_group_name_H-M "P M N 21"
_symmetry_group_IT_number 31
_symmetry_cell_setting 'orthorhombic'
loop_
_space_group_symop_operation_xyz
x,y,z
1/2-x,-y,1/2+z
-x,y,z
1/2+x,-y,1/2+z
loop_
_atom_site_type_symbol
_atom_site_label
_atom_site_fract_x
_atom_site_fract_y
_atom_site_fract_z
Si Si1 0.786053 0.177813 0.839710
Si Si2 0.212057 0.101436 0.629975
Si Si3 0.217701 0.756162 0.741159
Si Si4 0.787746 0.521453 0.969345
Si Si5 0.212683 0.388479 0.785545
Si Si6 0.787761 0.895104 0.562409
Si Si7 0.286996 0.259908 0.464139
Si Si8 0.294186 0.448182 0.166888
O O1 0.722788 0.117772 0.743118
O O2 0.717409 0.286104 0.819353
O O3 0.000000 0.178445 0.835430
O O4 0.744876 0.141097 0.950275
O O5 0.243711 0.191598 0.556837
O O6 0.000000 0.092543 0.637323
O O7 0.280971 0.003076 0.581208
O O8 0.277278 0.826048 0.652033
O O9 0.270656 0.779436 0.855003
O O10 0.280430 0.647874 0.715279
O O11 0.000000 0.756125 0.739047
O O12 0.714753 0.445913 0.048851
O O13 0.000000 0.523487 0.980311
O O14 0.751621 0.472579 0.864224
O O15 0.719253 0.630512 0.975164
O O16 0.280483 0.444554 0.688517
O O17 0.000000 0.372894 0.776061
O O18 0.000000 0.897115 0.572898
O O19 0.500000 0.265969 0.459589
O O20 0.500000 0.449756 0.198334
#
# Coordination Sequence:
#
# PCOD9342758 Si02
#       8
#     4   4   4   4   4   4   4   4
#     4  10  21  38  59  83 113 149 189 226 274 343
#     4  10  23  40  58  84 114 146 186 237 290 334
#     4   9  18  35  59  85 112 148 191 230 276 336
#     4  10  19  32  51  80 114 145 180 224 268 313
#     4   9  17  32  53  77 109 145 176 212 261 319
#     4  10  22  39  59  83 113 145 184 240 288 325
#     4  10  20  36  60  86 113 149 193 233 275 338
#     4  10  18  32  55  80 108 147 187 218 262 326
#
# _framework density 22.746953999999999
#
# number of rings (size 3 to 8) (size 9 to 14) (size 15 to 20)
#    0.000    2.250    1.250    1.500    1.750    2.500 
#    0.000    2.500    0.000    0.000    0.000    0.000 
#    0.000    0.000    0.000    0.000    0.000    0.000 
#
# Total GULP energy -178520.447427 kJ/mol
# GULP energy per Si atom -5578.763982 kJ/mol
# Density = 2.269518 g / cm^3
# Si number density = 22.746954 Si / 1000 Ang^3
#
#
#
# Elastic Constant Matrix: (Units=GPa)
#
#
# Indices 1 2 3 4 5 6 
#
# 1 45.1889 13.8634 8.5514 0.0000 0.0000 0.0000
# 2 13.8634 97.1135 24.6479 0.0000 0.0000 0.0000
# 3 8.5514 24.6479 117.7123 0.0000 0.0000 0.0000
# 4 0.0000 0.0000 0.0000 33.0181 0.0000 0.0000
# 5 0.0000 0.0000 0.0000 0.0000 19.7309 0.0000
# 6 0.0000 0.0000 0.0000 0.0000 0.0000 12.4192
#
#
#
# Elastic Compliance Matrix: (Units=1/GPa)
#
#
# Indices 1 2 3 4 5 6 
#
# 1 0.023265 -0.003055 -0.001051 0.000000 0.000000 0.000000
# 2 -0.003055 0.011276 -0.002139 0.000000 0.000000 0.000000
# 3 -0.001051 -0.002139 0.009020 0.000000 0.000000 0.000000
# 4 0.000000 0.000000 0.000000 0.030286 0.000000 0.000000
# 5 0.000000 0.000000 0.000000 0.000000 0.050682 0.000000
# 6 0.000000 0.000000 0.000000 0.000000 0.000000 0.080521
#
#
# Mechanical properties :
#
#
# Convention : Reuss Voigt Hill
#
# Bulk Modulus (GPa) = 32.18303 39.34892 35.76597
# Shear Modulus (GPa) = 21.93981 27.23043 24.58512
#
# Velocity S-wave (km/s) = 3.10904 3.46367 3.29113
# Velocity P-wave (km/s) = 5.20261 5.77340 5.49542
#
# Compressibility (1/GPa) = 0.03107228
#
# Stress axis : x y z
#
# Youngs Moduli (GPa) = 42.98257 88.68205 110.87036
#
# Poissons Ratio (x) = 0.27089 0.11647
# Poissons Ratio (y) = 0.13129 0.23718
# Poissons Ratio (z) = 0.04515 0.18971
#
# Static dielectric constant tensor:
#      x y z
#    x 1.880650 0.000000 0.000000 
#    y 0.000000 1.857100 0.000000 
#    z 0.000000 0.000000 1.844980 
# 
# From -- ./inp_files/3743.got.cif
#   From: 2010.05.17/outbox.cif.g08.bks.cpg/sg31_2_cif.got.tgz:3743.got - 2010.06.03 17:08:30.
