data_PCOD9342410
_publ_section_title
;
Structure prediction by ZEFSAII (Michael W. Deem and Ramdas Pophale) SiO2 
 PCOD9342410
Probable space group: P N C 2
;
_chemical_formula_sum "Si O2"
_cell_formula_units_Z 20
_cell_length_a 16.177051
_cell_length_b 5.206810
_cell_length_c 8.403580
_cell_angle_alpha 90.000000
_cell_angle_beta 90.000000
_cell_angle_gamma 90.000000
_cell_volume 707.840526
_symmetry_space_group_name_H-M "P N C 2"
_symmetry_group_IT_number 30
_symmetry_cell_setting 'orthorhombic'
loop_
_space_group_symop_operation_xyz
x,y,z
-x,-y,z
-x,1/2+y,1/2+z
x,1/2-y,1/2+z
loop_
_atom_site_type_symbol
_atom_site_label
_atom_site_fract_x
_atom_site_fract_y
_atom_site_fract_z
Si Si1 0.102821 0.892084 0.908240
Si Si2 0.000000 0.500000 0.120090
Si Si3 0.348444 0.263909 0.366124
Si Si4 0.636124 0.359438 0.131019
Si Si5 0.209517 0.990027 0.195446
Si Si6 0.500000 0.500000 0.686862
O O1 0.159834 0.677614 0.824024
O O2 0.071235 0.050348 0.753913
O O3 0.032856 0.728615 0.007095
O O4 0.150919 0.045040 0.045317
O O5 0.365133 0.556570 0.317653
O O6 0.426661 0.124632 0.285780
O O7 0.349186 0.120874 0.533959
O O8 0.258788 0.205854 0.290837
O O9 0.715531 0.178436 0.120469
O O10 0.549689 0.221239 0.094912
#
# Coordination Sequence:
#
# PCOD9342410 Si02
#       6
#     4   2   4   4   4   2
#     4  10  22  48  69 110 149 199 254 323 396 487
#     4  10  24  44  76 104 156 196 260 312 404 480
#     4  11  25  44  72 111 146 200 262 318 387 473
#     4  11  25  47  73 114 144 209 255 327 391 477
#     4  10  22  46  70 103 156 197 251 328 394 466
#     4  10  26  46  74  98 162 192 260 320 396 456
#
# _framework density 28.254950999999998
#
# number of rings (size 3 to 8) (size 9 to 14) (size 15 to 20)
#    0.000    1.600    2.000    0.600    5.600    4.800 
#   14.400    0.000    0.000    1.200    0.000    0.000 
#    0.000    0.000    0.000    0.000    0.000    0.000 
#
# Total GULP energy -111998.072859 kJ/mol
# GULP energy per Si atom -5599.903643 kJ/mol
# Density = 2.819064 g / cm^3
# Si number density = 28.254951 Si / 1000 Ang^3
#
#
#
# Elastic Constant Matrix: (Units=GPa)
#
#
# Indices 1 2 3 4 5 6 
#
# 1 163.2612 52.7762 80.6267 0.0000 0.0000 0.0000
# 2 52.7762 73.8840 60.1464 0.0000 0.0000 0.0000
# 3 80.6267 60.1464 179.6439 0.0000 0.0000 0.0000
# 4 0.0000 0.0000 0.0000 44.1186 0.0000 0.0000
# 5 0.0000 0.0000 0.0000 0.0000 80.8550 0.0000
# 6 0.0000 0.0000 0.0000 0.0000 0.0000 22.6564
#
#
#
# Elastic Compliance Matrix: (Units=1/GPa)
#
#
# Indices 1 2 3 4 5 6 
#
# 1 0.008718 -0.004182 -0.002513 0.000000 0.000000 0.000000
# 2 -0.004182 0.020612 -0.005024 0.000000 0.000000 0.000000
# 3 -0.002513 -0.005024 0.008376 0.000000 0.000000 0.000000
# 4 0.000000 0.000000 0.000000 0.022666 0.000000 0.000000
# 5 0.000000 0.000000 0.000000 0.000000 0.012368 0.000000
# 6 0.000000 0.000000 0.000000 0.000000 0.000000 0.044138
#
#
# Mechanical properties :
#
#
# Convention : Reuss Voigt Hill
#
# Bulk Modulus (GPa) = 70.08242 89.32086 79.70164
# Shear Modulus (GPa) = 34.46582 44.40863 39.43723
#
# Velocity S-wave (km/s) = 3.49637 3.96878 3.74004
# Velocity P-wave (km/s) = 6.41537 7.25829 6.84981
#
# Compressibility (1/GPa) = 0.01426891
#
# Stress axis : x y z
#
# Youngs Moduli (GPa) = 114.70750 48.51572 119.38341
#
# Poissons Ratio (x) = 0.20289 0.29996
# Poissons Ratio (y) = 0.47969 0.59980
# Poissons Ratio (z) = 0.28821 0.24375
#
# Static dielectric constant tensor:
#      x y z
#    x 2.171170 0.000000 0.000000 
#    y 0.000000 2.349660 0.000000 
#    z 0.000000 0.000000 2.237140 
# 
# From -- ./inp_files/2753.got.cif
#   From: 2010.05.17/outbox.cif.g08.bks.cpg/sg30_2_cif.got.tgz:2753.got - 2010.06.03 17:03:02.
