data_PCOD9342314
_publ_section_title
;
Structure prediction by ZEFSAII (Michael W. Deem and Ramdas Pophale) SiO2 
 PCOD9342314
Probable space group: P N C 2
;
_chemical_formula_sum "Si O2"
_cell_formula_units_Z 32
_cell_length_a 14.824028
_cell_length_b 11.797467
_cell_length_c 8.692907
_cell_angle_alpha 90.000000
_cell_angle_beta 90.000000
_cell_angle_gamma 90.000000
_cell_volume 1520.267570
_symmetry_space_group_name_H-M "P N C 2"
_symmetry_group_IT_number 30
_symmetry_cell_setting 'orthorhombic'
loop_
_space_group_symop_operation_xyz
x,y,z
-x,-y,z
-x,1/2+y,1/2+z
x,1/2-y,1/2+z
loop_
_atom_site_type_symbol
_atom_site_label
_atom_site_fract_x
_atom_site_fract_y
_atom_site_fract_z
Si Si1 0.252759 0.171034 0.915970
Si Si2 0.408206 0.563382 0.164388
Si Si3 0.810456 0.267452 0.446773
Si Si4 0.899889 0.458447 0.886732
Si Si5 0.251936 0.090713 0.562043
Si Si6 0.107692 0.497946 0.525195
Si Si7 0.318229 0.716060 0.695083
Si Si8 0.394374 0.995459 0.024822
O O1 0.252071 0.141210 0.735028
O O2 0.159708 0.116114 0.978154
O O3 0.334965 0.109116 0.007410
O O4 0.261886 0.303506 0.947948
O O5 0.500000 0.500000 0.125102
O O6 0.332128 0.500059 0.067139
O O7 0.397537 0.697913 0.148409
O O8 0.393297 0.546181 0.347399
O O9 0.885205 0.175550 0.407154
O O10 0.844527 0.396580 0.436447
O O11 0.778656 0.251302 0.621675
O O12 0.714426 0.236129 0.367859
O O13 0.878318 0.486124 0.708429
O O14 0.000000 0.500000 0.916003
O O15 0.834848 0.522565 0.004918
O O16 0.000000 0.500000 0.496395
O O17 0.344761 0.591946 0.638522
O O18 0.500000 0.000000 0.068948
#
# Coordination Sequence:
#
# PCOD9342314 Si02
#       8
#     4   4   4   4   4   4   4   4
#     4  11  23  43  63  92 133 175 212 267 329 385
#     4  10  22  40  64  95 131 172 220 270 324 387
#     4  12  22  42  68  94 127 169 221 275 329 389
#     4  11  25  43  66  97 131 169 221 271 325 393
#     4  11  24  42  65  92 134 174 213 267 327 388
#     4  11  25  44  67  96 129 171 219 272 330 391
#     4  12  21  41  69  94 126 173 220 275 330 387
#     4  10  22  41  66  94 129 173 220 271 326 388
#
# _framework density 21.048928
#
# number of rings (size 3 to 8) (size 9 to 14) (size 15 to 20)
#    0.000    1.000    5.000    1.500    3.500    0.500 
#    0.000    0.625    0.000    0.000    0.000    0.000 
#    0.000    0.000    0.000    0.000    0.000    0.000 
#
# Total GULP energy -178582.523565 kJ/mol
# GULP energy per Si atom -5580.703861 kJ/mol
# Density = 2.100102 g / cm^3
# Si number density = 21.048928 Si / 1000 Ang^3
#
#
#
# Elastic Constant Matrix: (Units=GPa)
#
#
# Indices 1 2 3 4 5 6 
#
# 1 115.9226 28.4256 27.7910 0.0000 0.0000 0.0000
# 2 28.4256 92.6799 17.3238 0.0000 0.0000 0.0000
# 3 27.7910 17.3238 45.4179 0.0000 0.0000 0.0000
# 4 0.0000 0.0000 0.0000 33.0741 0.0000 0.0000
# 5 0.0000 0.0000 0.0000 0.0000 28.6362 0.0000
# 6 0.0000 0.0000 0.0000 0.0000 0.0000 28.6428
#
#
#
# Elastic Compliance Matrix: (Units=1/GPa)
#
#
# Indices 1 2 3 4 5 6 
#
# 1 0.010501 -0.002175 -0.005596 0.000000 0.000000 0.000000
# 2 -0.002175 0.012069 -0.003273 0.000000 0.000000 0.000000
# 3 -0.005596 -0.003273 0.026690 0.000000 0.000000 0.000000
# 4 0.000000 0.000000 0.000000 0.030235 0.000000 0.000000
# 5 0.000000 0.000000 0.000000 0.000000 0.034921 0.000000
# 6 0.000000 0.000000 0.000000 0.000000 0.000000 0.034913
#
#
# Mechanical properties :
#
#
# Convention : Reuss Voigt Hill
#
# Bulk Modulus (GPa) = 36.80115 44.56681 40.68398
# Shear Modulus (GPa) = 27.70488 30.10263 28.90375
#
# Velocity S-wave (km/s) = 3.63190 3.78580 3.70965
# Velocity P-wave (km/s) = 5.92530 6.35049 6.14157
#
# Compressibility (1/GPa) = 0.02717306
#
# Stress axis : x y z
#
# Youngs Moduli (GPa) = 95.22596 82.85985 37.46685
#
# Poissons Ratio (x) = 0.18020 0.20967
# Poissons Ratio (y) = 0.20710 0.12261
# Poissons Ratio (z) = 0.53290 0.27117
#
# Static dielectric constant tensor:
#      x y z
#    x 1.765170 0.000000 0.000000 
#    y 0.000000 1.734560 0.000000 
#    z 0.000000 0.000000 1.753920 
# 
# From -- ./inp_files/2691.got.cif
#   From: 2010.05.17/outbox.cif.g08.bks.cpg/sg30_2_cif.got.tgz:2691.got - 2010.06.03 17:03:02.
