data_PCOD9342682
_publ_section_title
;
Structure prediction by ZEFSAII (Michael W. Deem and Ramdas Pophale) SiO2 
 PCOD9342682
Probable space group: P M N 21
;
_chemical_formula_sum "Si O2"
_cell_formula_units_Z 24
_cell_length_a 16.972108
_cell_length_b 6.999344
_cell_length_c 7.042284
_cell_angle_alpha 90.000000
_cell_angle_beta 90.000000
_cell_angle_gamma 90.000000
_cell_volume 836.578426
_symmetry_space_group_name_H-M "P M N 21"
_symmetry_group_IT_number 31
_symmetry_cell_setting 'orthorhombic'
loop_
_space_group_symop_operation_xyz
x,y,z
1/2-x,-y,1/2+z
-x,y,z
1/2+x,-y,1/2+z
loop_
_atom_site_type_symbol
_atom_site_label
_atom_site_fract_x
_atom_site_fract_y
_atom_site_fract_z
Si Si1 0.667599 0.842016 0.933970
Si Si2 0.164429 0.716105 0.485908
Si Si3 0.338266 0.142584 0.419609
Si Si4 0.332861 0.701643 0.505432
Si Si5 0.500000 0.624289 0.386054
Si Si6 0.000000 0.960683 0.054198
Si Si7 0.500000 0.358398 0.023971
Si Si8 0.500000 0.913873 0.993761
O O1 0.667168 0.749060 0.727876
O O2 0.583171 0.810101 0.035054
O O3 0.754756 0.803767 0.017227
O O4 0.665146 0.070944 0.903063
O O5 0.247864 0.616615 0.450877
O O6 0.084118 0.615219 0.423166
O O7 0.159297 0.758628 0.713459
O O8 0.333626 0.910273 0.403866
O O9 0.421617 0.161234 0.523085
O O10 0.412405 0.588558 0.468191
O O11 0.500000 0.493847 0.202130
O O12 0.500000 0.858905 0.408129
O O13 0.000000 0.869844 0.573282
O O14 0.000000 0.053610 0.263989
#
# Coordination Sequence:
#
# PCOD9342682 Si02
#       8
#     4   4   4   4   2   2   2   2
#     4   9  15  27  47  80 115 141 187 246 322 364
#     4   9  18  29  49  83 119 145 189 256 323 353
#     4   9  16  26  48  82 111 140 189 256 311 373
#     4   9  16  30  53  82 110 152 197 249 306 373
#     4  10  18  32  55  82 110 165 213 242 293 392
#     4  10  17  30  53  82 110 158 199 252 319 378
#     4  10  21  32  50  83 119 161 203 255 303 379
#     4  10  16  30  50  79 119 156 197 257 323 365
#
# _framework density 28.688282999999998
#
# number of rings (size 3 to 8) (size 9 to 14) (size 15 to 20)
#    0.000    2.667    3.333    0.500    0.000    0.000 
#    0.000    0.000    0.000   18.000   17.333    0.000 
#    0.000    0.000    0.000    0.000    0.000    0.000 
#
# Total GULP energy -134274.815706 kJ/mol
# GULP energy per Si atom -5594.783988 kJ/mol
# Density = 2.862299 g / cm^3
# Si number density = 28.688283 Si / 1000 Ang^3
#
#
#
# Elastic Constant Matrix: (Units=GPa)
#
#
# Indices 1 2 3 4 5 6 
#
# 1 390.9069 31.3057 43.4168 0.0000 0.0000 0.0000
# 2 31.3057 135.8626 29.1199 0.0000 0.0000 0.0000
# 3 43.4168 29.1199 102.3936 0.0000 0.0000 0.0000
# 4 0.0000 0.0000 0.0000 34.0129 0.0000 0.0000
# 5 0.0000 0.0000 0.0000 0.0000 32.9075 0.0000
# 6 0.0000 0.0000 0.0000 0.0000 0.0000 -30.5154
#
#
#
# Elastic Compliance Matrix: (Units=1/GPa)
#
#
# Indices 1 2 3 4 5 6 
#
# 1 0.002705 -0.000402 -0.001033 0.000000 0.000000 0.000000
# 2 -0.000402 0.007898 -0.002076 0.000000 0.000000 0.000000
# 3 -0.001033 -0.002076 0.010794 0.000000 0.000000 0.000000
# 4 0.000000 0.000000 0.000000 0.029401 0.000000 0.000000
# 5 0.000000 0.000000 0.000000 0.000000 0.030388 0.000000
# 6 0.000000 0.000000 0.000000 0.000000 0.000000 -0.032770
#
#
# Mechanical properties :
#
#
# Convention : Reuss Voigt Hill
#
# Bulk Modulus (GPa) = 69.55676 92.98311 81.26994
# Shear Modulus (GPa) = 83.01686 42.30236 62.65961
#
# Velocity S-wave (km/s) = 5.38520 3.84416 4.67856
# Velocity P-wave (km/s) = 7.93508 7.22394 7.58784
#
# Compressibility (1/GPa) = 0.01437675
#
# Stress axis : x y z
#
# Youngs Moduli (GPa) = 369.68018 126.61624 92.64060
#
# Poissons Ratio (x) = 0.05090 0.09567
# Poissons Ratio (y) = 0.14860 0.19229
# Poissons Ratio (z) = 0.38176 0.26281
#
# Static dielectric constant tensor:
#      x y z
#    x 2.305530 0.000000 0.000000 
#    y 0.000000 2.143280 0.000000 
#    z 0.000000 0.000000 2.217410 
# 
# From -- ./inp_files/2830.got.cif
#   From: 2010.05.17/outbox.cif.g08.bks.cpg/sg31_2_cif.got.tgz:2830.got - 2010.06.03 17:08:30.
