data_PCOD9342350
_publ_section_title
;
Structure prediction by ZEFSAII (Michael W. Deem and Ramdas Pophale) SiO2 
 PCOD9342350
Probable space group: P N C 2
;
_chemical_formula_sum "Si O2"
_cell_formula_units_Z 30
_cell_length_a 6.731095
_cell_length_b 19.786792
_cell_length_c 10.123406
_cell_angle_alpha 90.000000
_cell_angle_beta 90.000000
_cell_angle_gamma 90.000000
_cell_volume 1348.303814
_symmetry_space_group_name_H-M "P N C 2"
_symmetry_group_IT_number 30
_symmetry_cell_setting 'orthorhombic'
loop_
_space_group_symop_operation_xyz
x,y,z
-x,-y,z
-x,1/2+y,1/2+z
x,1/2-y,1/2+z
loop_
_atom_site_type_symbol
_atom_site_label
_atom_site_fract_x
_atom_site_fract_y
_atom_site_fract_z
Si Si1 0.394112 0.105370 0.466990
Si Si2 0.906546 0.722529 0.040090
Si Si3 0.500000 0.500000 0.744093
Si Si4 0.557172 0.925896 0.757500
Si Si5 0.247783 0.815037 0.349786
Si Si6 0.797606 0.321510 0.267954
Si Si7 0.879214 0.869125 0.964614
Si Si8 0.896440 0.060631 0.185238
O O1 0.241426 0.166947 0.481831
O O2 0.365992 0.067111 0.606146
O O3 0.601799 0.143657 0.439793
O O4 0.394454 0.053955 0.343322
O O5 0.819835 0.798488 0.037317
O O6 0.087866 0.721152 0.939514
O O7 0.015325 0.697775 0.173145
O O8 0.330078 0.536924 0.660111
O O9 0.365794 0.878110 0.737146
O O10 0.713606 0.892722 0.859643
O O11 0.500000 0.000000 0.806584
O O12 0.328451 0.748964 0.274910
O O13 0.137147 0.868576 0.257943
O O14 0.913228 0.353919 0.391390
O O15 0.945345 0.925236 0.070012
O O16 0.000000 0.000000 0.266808
#
# Coordination Sequence:
#
# PCOD9342350 Si02
#       8
#     4   4   2   4   4   4   4   4
#     4  11  21  41  69 102 137 175 231 293 353 422
#     4  11  21  42  71 100 133 177 235 293 348 419
#     4  10  24  44  66 104 136 184 238 290 366 420
#     4  12  26  43  66 103 141 189 237 293 366 437
#     4  10  22  42  67  97 135 175 228 289 352 414
#     4  11  23  43  66 100 136 181 234 292 352 429
#     4  11  26  45  68  98 141 186 236 288 361 433
#     4  11  24  43  68  98 137 181 228 289 353 435
#
# _framework density 22.250178999999999
#
# number of rings (size 3 to 8) (size 9 to 14) (size 15 to 20)
#    0.000    1.067    4.667    1.600    1.867    1.067 
#    0.000    2.667    0.000    0.000    0.000    0.000 
#    0.000    0.000    0.000    0.000    0.000    0.000 
#
# Total GULP energy -167180.435848 kJ/mol
# GULP energy per Si atom -5572.681195 kJ/mol
# Density = 2.219954 g / cm^3
# Si number density = 22.250179 Si / 1000 Ang^3
#
#
#
# Elastic Constant Matrix: (Units=GPa)
#
#
# Indices 1 2 3 4 5 6 
#
# 1 51.9807 24.3526 26.0801 0.0000 0.0000 0.0000
# 2 24.3526 137.5859 25.2186 0.0000 0.0000 0.0000
# 3 26.0801 25.2186 57.2887 0.0000 0.0000 0.0000
# 4 0.0000 0.0000 0.0000 37.6688 0.0000 0.0000
# 5 0.0000 0.0000 0.0000 0.0000 27.8984 0.0000
# 6 0.0000 0.0000 0.0000 0.0000 0.0000 -88.5838
#
#
#
# Elastic Compliance Matrix: (Units=1/GPa)
#
#
# Indices 1 2 3 4 5 6 
#
# 1 0.025775 -0.002623 -0.010579 0.000000 0.000000 0.000000
# 2 -0.002623 0.008173 -0.002404 0.000000 0.000000 0.000000
# 3 -0.010579 -0.002404 0.023329 0.000000 0.000000 0.000000
# 4 0.000000 0.000000 0.000000 0.026547 0.000000 0.000000
# 5 0.000000 0.000000 0.000000 0.000000 0.035844 0.000000
# 6 0.000000 0.000000 0.000000 0.000000 0.000000 -0.011289
#
#
# Mechanical properties :
#
#
# Convention : Reuss Voigt Hill
#
# Bulk Modulus (GPa) = 38.36444 44.23976 41.30210
# Shear Modulus (GPa) = 33.72009 6.81029 20.26519
#
# Velocity S-wave (km/s) = 3.89716 1.75141 3.02120
# Velocity P-wave (km/s) = 6.12619 4.90061 5.54735
#
# Compressibility (1/GPa) = 0.02606580
#
# Stress axis : x y z
#
# Youngs Moduli (GPa) = 38.79801 122.35353 42.86424
#
# Poissons Ratio (x) = 0.32094 0.45346
# Poissons Ratio (y) = 0.10177 0.10303
# Poissons Ratio (z) = 0.41044 0.29410
#
# Static dielectric constant tensor:
#      x y z
#    x 1.798420 0.000000 0.000000 
#    y 0.000000 2.045680 0.000000 
#    z 0.000000 0.000000 1.963950 
# 
# From -- ./inp_files/3247.got.cif
#   From: 2010.05.17/outbox.cif.g08.bks.cpg/sg30_2_cif.got.tgz:3247.got - 2010.06.03 17:03:02.
