data_PCOD9342853
_publ_section_title
;
Structure prediction by ZEFSAII (Michael W. Deem and Ramdas Pophale) SiO2 
 PCOD9342853
Probable space group: P M N 21
;
_chemical_formula_sum "Si O2"
_cell_formula_units_Z 32
_cell_length_a 7.403361
_cell_length_b 11.149014
_cell_length_c 14.513307
_cell_angle_alpha 90.000000
_cell_angle_beta 90.000000
_cell_angle_gamma 90.000000
_cell_volume 1197.930906
_symmetry_space_group_name_H-M "P M N 21"
_symmetry_group_IT_number 31
_symmetry_cell_setting 'orthorhombic'
loop_
_space_group_symop_operation_xyz
x,y,z
1/2-x,-y,1/2+z
-x,y,z
1/2+x,-y,1/2+z
loop_
_atom_site_type_symbol
_atom_site_label
_atom_site_fract_x
_atom_site_fract_y
_atom_site_fract_z
Si Si1 0.718741 0.939846 0.531630
Si Si2 0.717165 0.571627 0.488079
Si Si3 0.782220 0.797736 0.045026
Si Si4 0.783593 0.192818 0.206503
Si Si5 0.784853 0.657147 0.873719
Si Si6 0.718022 0.443913 0.660411
Si Si7 0.210670 0.961421 0.315557
Si Si8 0.215189 0.704927 0.318727
O O1 0.500000 0.932074 0.526839
O O2 0.780927 0.837020 0.603029
O O3 0.780223 0.952730 0.426288
O O4 0.773576 0.069699 0.574287
O O5 0.500000 0.565534 0.493655
O O6 0.785926 0.462206 0.423580
O O7 0.784764 0.546735 0.591099
O O8 0.756859 0.686769 0.427137
O O9 0.743389 0.681316 0.106234
O O10 0.000000 0.803197 0.043537
O O11 0.719761 0.764045 0.941519
O O12 0.751079 0.311174 0.267895
O O13 0.000000 0.189316 0.199953
O O14 0.714647 0.081693 0.269882
O O15 0.000000 0.651589 0.882600
O O16 0.500000 0.460380 0.667167
O O17 0.788629 0.408254 0.760920
O O18 0.288743 0.832542 0.286169
O O19 0.000000 0.961366 0.288359
O O20 0.000000 0.707774 0.303831
#
# Coordination Sequence:
#
# PCOD9342853 Si02
#       8
#     4   4   4   4   4   4   4   4
#     4  10  19  32  52  78 106 142 180 213 256 319
#     4   9  19  36  57  80 104 134 177 226 266 310
#     4   8  13  26  51  76  97 127 173 217 248 297
#     4  10  20  33  52  80 110 139 176 219 262 313
#     4   9  17  32  54  76  99 133 174 217 265 311
#     4   8  15  31  56  80  99 132 181 221 258 308
#     4  10  21  36  53  79 113 143 172 218 271 316
#     4  10  20  36  57  79 106 142 179 217 266 318
#
# _framework density 26.712727000000001
#
# number of rings (size 3 to 8) (size 9 to 14) (size 15 to 20)
#    0.000    2.750    1.250    2.250    0.000    4.500 
#    2.250    0.625    0.000    3.000    0.000    0.000 
#    0.000    0.000    0.000    0.000    0.000    0.000 
#
# Total GULP energy -178718.630012 kJ/mol
# GULP energy per Si atom -5584.957188 kJ/mol
# Density = 2.665193 g / cm^3
# Si number density = 26.712727 Si / 1000 Ang^3
#
#
#
# Elastic Constant Matrix: (Units=GPa)
#
#
# Indices 1 2 3 4 5 6 
#
# 1 91.4106 -6.8726 -14.0960 0.0000 0.0000 0.0000
# 2 -6.8726 63.6632 18.3692 0.0000 0.0000 0.0000
# 3 -14.0960 18.3692 147.1310 0.0000 0.0000 0.0000
# 4 0.0000 0.0000 0.0000 50.7242 0.0000 0.0000
# 5 0.0000 0.0000 0.0000 0.0000 29.0748 0.0000
# 6 0.0000 0.0000 0.0000 0.0000 0.0000 7.0209
#
#
#
# Elastic Compliance Matrix: (Units=1/GPa)
#
#
# Indices 1 2 3 4 5 6 
#
# 1 0.011156 0.000929 0.000953 0.000000 0.000000 0.000000
# 2 0.000929 0.016372 -0.001955 0.000000 0.000000 0.000000
# 3 0.000953 -0.001955 0.007132 0.000000 0.000000 0.000000
# 4 0.000000 0.000000 0.000000 0.019714 0.000000 0.000000
# 5 0.000000 0.000000 0.000000 0.000000 0.034394 0.000000
# 6 0.000000 0.000000 0.000000 0.000000 0.000000 0.142432
#
#
# Mechanical properties :
#
#
# Convention : Reuss Voigt Hill
#
# Bulk Modulus (GPa) = 28.97283 33.00067 30.98675
# Shear Modulus (GPa) = 20.58870 37.68425 29.13648
#
# Velocity S-wave (km/s) = 2.77924 3.76003 3.30621
# Velocity P-wave (km/s) = 4.60093 5.58849 5.11858
#
# Compressibility (1/GPa) = 0.03451509
#
# Stress axis : x y z
#
# Youngs Moduli (GPa) = 89.63423 61.07954 140.21255
#
# Poissons Ratio (x) = -0.05677 -0.13360
# Poissons Ratio (y) = -0.08331 0.27411
# Poissons Ratio (z) = -0.08540 0.11941
#
# Static dielectric constant tensor:
#      x y z
#    x 2.021620 0.000000 0.000000 
#    y 0.000000 2.143190 0.000000 
#    z 0.000000 0.000000 2.122210 
# 
# From -- ./inp_files/5048.got.cif
#   From: 2010.05.17/outbox.cif.g08.bks.cpg/sg31_3_cif.got.tgz:5048.got - 2010.06.03 17:08:30.
