data_PCOD9342491
_publ_section_title
;
Structure prediction by ZEFSAII (Michael W. Deem and Ramdas Pophale) SiO2 
 PCOD9342491
Probable space group: P N C 2
;
_chemical_formula_sum "Si O2"
_cell_formula_units_Z 32
_cell_length_a 10.882859
_cell_length_b 14.294838
_cell_length_c 10.148138
_cell_angle_alpha 90.000000
_cell_angle_beta 90.000000
_cell_angle_gamma 90.000000
_cell_volume 1578.732701
_symmetry_space_group_name_H-M "P N C 2"
_symmetry_group_IT_number 30
_symmetry_cell_setting 'orthorhombic'
loop_
_space_group_symop_operation_xyz
x,y,z
-x,-y,z
-x,1/2+y,1/2+z
x,1/2-y,1/2+z
loop_
_atom_site_type_symbol
_atom_site_label
_atom_site_fract_x
_atom_site_fract_y
_atom_site_fract_z
Si Si1 0.047778 0.217892 0.813430
Si Si2 0.358913 0.789751 0.158786
Si Si3 0.627827 0.056817 0.942580
Si Si4 0.899071 0.217358 0.544969
Si Si5 0.413775 0.589619 0.157722
Si Si6 0.874675 0.556753 0.465920
Si Si7 0.265129 0.918393 0.393420
Si Si8 0.111754 0.426439 0.768606
O O1 0.140719 0.136440 0.855326
O O2 0.098820 0.323466 0.830078
O O3 0.992269 0.203542 0.667277
O O4 0.947062 0.212461 0.931817
O O5 0.224729 0.753220 0.113984
O O6 0.449381 0.699957 0.157479
O O7 0.332643 0.846680 0.293293
O O8 0.395680 0.860220 0.044127
O O9 0.660288 0.089251 0.794612
O O10 0.500000 0.000000 0.943006
O O11 0.750611 0.002296 0.981187
O O12 0.856315 0.128599 0.458329
O O13 0.500000 0.500000 0.172446
O O14 0.347763 0.568581 0.021009
O O15 0.890731 0.595142 0.613369
O O16 0.000000 0.500000 0.433558
O O17 0.227724 0.013479 0.319209
O O18 0.000000 0.500000 0.788082
#
# Coordination Sequence:
#
# PCOD9342491 Si02
#       8
#     4   4   4   4   4   4   4   4
#     4  12  23  39  63  96 139 182 219 283 366 411
#     4  11  21  41  73  97 125 185 242 285 337 422
#     4  11  25  48  69  98 139 184 235 289 353 421
#     4  11  21  36  62 101 133 175 229 279 345 415
#     4  10  24  43  65 100 135 166 229 299 345 400
#     4  11  25  43  69  99 133 179 234 292 348 422
#     4  11  22  38  67  95 134 178 230 282 342 418
#     4  11  21  41  60  93 141 174 219 290 349 410
#
# _framework density 20.269424000000001
#
# number of rings (size 3 to 8) (size 9 to 14) (size 15 to 20)
#    0.000    1.000    5.000    2.250    5.250    1.500 
#    2.250    1.250    0.000    0.000    0.000    0.000 
#    0.000    0.000    0.000    0.000    0.000    0.000 
#
# Total GULP energy -178232.299526 kJ/mol
# GULP energy per Si atom -5569.759360 kJ/mol
# Density = 2.022329 g / cm^3
# Si number density = 20.269424 Si / 1000 Ang^3
#
#
#
# Elastic Constant Matrix: (Units=GPa)
#
#
# Indices 1 2 3 4 5 6 
#
# 1 37.5555 33.1847 12.0509 0.0000 0.0000 0.0000
# 2 33.1847 134.2806 47.4889 0.0000 0.0000 0.0000
# 3 12.0509 47.4889 126.7409 0.0000 0.0000 0.0000
# 4 0.0000 0.0000 0.0000 36.3716 0.0000 0.0000
# 5 0.0000 0.0000 0.0000 0.0000 -23.0805 0.0000
# 6 0.0000 0.0000 0.0000 0.0000 0.0000 20.1909
#
#
#
# Elastic Compliance Matrix: (Units=1/GPa)
#
#
# Indices 1 2 3 4 5 6 
#
# 1 0.034067 -0.008385 -0.000098 0.000000 0.000000 0.000000
# 2 -0.008385 0.010648 -0.003193 0.000000 0.000000 0.000000
# 3 -0.000098 -0.003193 0.009096 0.000000 0.000000 0.000000
# 4 0.000000 0.000000 0.000000 0.027494 0.000000 0.000000
# 5 0.000000 0.000000 0.000000 0.000000 -0.043327 0.000000
# 6 0.000000 0.000000 0.000000 0.000000 0.000000 0.049527
#
#
# Mechanical properties :
#
#
# Convention : Reuss Voigt Hill
#
# Bulk Modulus (GPa) = 32.82804 53.78065 43.30435
# Shear Modulus (GPa) = 41.31918 20.41989 30.86954
#
# Velocity S-wave (km/s) = 4.51987 3.17744 3.90675
# Velocity P-wave (km/s) = 6.59318 6.32866 6.46227
#
# Compressibility (1/GPa) = 0.03046176
#
# Stress axis : x y z
#
# Youngs Moduli (GPa) = 29.35366 93.91235 109.94282
#
# Poissons Ratio (x) = 0.78741 0.01073
# Poissons Ratio (y) = 0.24612 0.35100
# Poissons Ratio (z) = 0.00286 0.29982
#
# Static dielectric constant tensor:
#      x y z
#    x 2.972820 0.000000 0.000000 
#    y 0.000000 1.808820 0.000000 
#    z 0.000000 0.000000 1.742380 
# 
# From -- ./inp_files/2498.got.cif
#   From: 2010.05.17/outbox.cif.g08.bks.cpg/sg30_2_cif.got.tgz:2498.got - 2010.06.03 17:03:02.
