data_PCOD9342943
_publ_section_title
;
Structure prediction by ZEFSAII (Michael W. Deem and Ramdas Pophale) SiO2 
 PCOD9342943
Probable space group: P M N 21
;
_chemical_formula_sum "Si O2"
_cell_formula_units_Z 32
_cell_length_a 7.912729
_cell_length_b 10.828007
_cell_length_c 14.392922
_cell_angle_alpha 90.000000
_cell_angle_beta 90.000000
_cell_angle_gamma 90.000000
_cell_volume 1233.172387
_symmetry_space_group_name_H-M "P M N 21"
_symmetry_group_IT_number 31
_symmetry_cell_setting 'orthorhombic'
loop_
_space_group_symop_operation_xyz
x,y,z
1/2-x,-y,1/2+z
-x,y,z
1/2+x,-y,1/2+z
loop_
_atom_site_type_symbol
_atom_site_label
_atom_site_fract_x
_atom_site_fract_y
_atom_site_fract_z
Si Si1 0.697306 0.027095 0.043210
Si Si2 0.195709 0.792212 0.928224
Si Si3 0.192839 0.352976 0.600750
Si Si4 0.694821 0.442775 0.885558
Si Si5 0.206494 0.932347 0.754795
Si Si6 0.699380 0.795299 0.278193
Si Si7 0.696281 0.581564 0.715442
Si Si8 0.198390 0.284412 0.045918
O O1 0.500000 0.992165 0.047554
O O2 0.716591 0.164596 0.001868
O O3 0.762755 0.053978 0.148119
O O4 0.789249 0.920910 0.986152
O O5 0.000000 0.761434 0.918224
O O6 0.267689 0.826752 0.826122
O O7 0.274829 0.689442 0.995736
O O8 0.211377 0.233253 0.667707
O O9 0.300119 0.458374 0.650964
O O10 0.000000 0.395662 0.609960
O O11 0.500000 0.472527 0.903335
O O12 0.704559 0.315064 0.827484
O O13 0.772372 0.542895 0.814480
O O14 0.780611 0.403668 0.980663
O O15 0.253941 0.065889 0.797088
O O16 0.000000 0.926369 0.753573
O O17 0.500000 0.783108 0.303449
O O18 0.500000 0.611837 0.730852
O O19 0.774867 0.682777 0.647076
O O20 0.000000 0.259776 0.054496
#
# Coordination Sequence:
#
# PCOD9342943 Si02
#       8
#     4   4   4   4   4   4   4   4
#     4  11  22  40  61  86 119 156 200 248 290 345
#     4  11  21  35  58  87 120 158 195 236 294 356
#     4  10  19  34  58  84 112 146 190 242 291 342
#     4  10  20  36  60  90 115 148 197 248 291 341
#     4   9  19  35  54  79 116 155 190 230 285 347
#     4   9  16  32  56  80 112 150 189 236 285 338
#     4   9  21  41  62  84 116 151 195 248 294 345
#     4  11  23  41  61  86 120 158 194 240 300 358
#
# _framework density 25.949331000000001
#
# number of rings (size 3 to 8) (size 9 to 14) (size 15 to 20)
#    0.000    2.000    1.250    2.625    0.000    3.000 
#    2.250    3.125    0.000    0.000    0.000    0.000 
#    0.000    0.000    0.000    0.000    0.000    0.000 
#
# Total GULP energy -178998.643792 kJ/mol
# GULP energy per Si atom -5593.707619 kJ/mol
# Density = 2.589027 g / cm^3
# Si number density = 25.949331 Si / 1000 Ang^3
#
#
#
# Elastic Constant Matrix: (Units=GPa)
#
#
# Indices 1 2 3 4 5 6 
#
# 1 64.7066 4.7849 6.2105 0.0000 0.0000 0.0000
# 2 4.7849 88.0329 14.0211 0.0000 0.0000 0.0000
# 3 6.2105 14.0211 147.0833 0.0000 0.0000 0.0000
# 4 0.0000 0.0000 0.0000 55.7590 0.0000 0.0000
# 5 0.0000 0.0000 0.0000 0.0000 19.8890 0.0000
# 6 0.0000 0.0000 0.0000 0.0000 0.0000 19.8574
#
#
#
# Elastic Compliance Matrix: (Units=1/GPa)
#
#
# Indices 1 2 3 4 5 6 
#
# 1 0.015566 -0.000753 -0.000586 0.000000 0.000000 0.000000
# 2 -0.000753 0.011571 -0.001071 0.000000 0.000000 0.000000
# 3 -0.000586 -0.001071 0.006926 0.000000 0.000000 0.000000
# 4 0.000000 0.000000 0.000000 0.017934 0.000000 0.000000
# 5 0.000000 0.000000 0.000000 0.000000 0.050279 0.000000
# 6 0.000000 0.000000 0.000000 0.000000 0.000000 0.050359
#
#
# Mechanical properties :
#
#
# Convention : Reuss Voigt Hill
#
# Bulk Modulus (GPa) = 34.19538 38.87288 36.53413
# Shear Modulus (GPa) = 29.90390 37.42150 33.66270
#
# Velocity S-wave (km/s) = 3.39838 3.80162 3.60564
# Velocity P-wave (km/s) = 5.34836 5.85513 5.60747
#
# Compressibility (1/GPa) = 0.02924371
#
# Stress axis : x y z
#
# Youngs Moduli (GPa) = 64.24156 86.42354 144.38952
#
# Poissons Ratio (x) = 0.06506 0.08454
# Poissons Ratio (y) = 0.04836 0.15468
# Poissons Ratio (z) = 0.03761 0.09258
#
# Static dielectric constant tensor:
#      x y z
#    x 1.903410 0.000000 0.000000 
#    y 0.000000 2.072630 0.000000 
#    z 0.000000 0.000000 2.130920 
# 
# From -- ./inp_files/5065.got.cif
#   From: 2010.05.17/outbox.cif.g08.bks.cpg/sg31_3_cif.got.tgz:5065.got - 2010.06.03 17:08:30.
