data_PCOD9342637
_publ_section_title
;
Structure prediction by ZEFSAII (Michael W. Deem and Ramdas Pophale) SiO2 
 PCOD9342637
Probable space group: P N C 2
;
_chemical_formula_sum "Si O2"
_cell_formula_units_Z 24
_cell_length_a 16.410633
_cell_length_b 7.305584
_cell_length_c 6.861595
_cell_angle_alpha 90.000000
_cell_angle_beta 90.000000
_cell_angle_gamma 90.000000
_cell_volume 822.631532
_symmetry_space_group_name_H-M "P N C 2"
_symmetry_group_IT_number 30
_symmetry_cell_setting 'orthorhombic'
loop_
_space_group_symop_operation_xyz
x,y,z
-x,-y,z
-x,1/2+y,1/2+z
x,1/2-y,1/2+z
loop_
_atom_site_type_symbol
_atom_site_label
_atom_site_fract_x
_atom_site_fract_y
_atom_site_fract_z
Si Si1 0.599656 0.468849 0.058950
Si Si2 0.468765 0.183363 0.273171
Si Si3 0.980225 0.716824 0.040086
Si Si4 0.751291 0.005713 0.789114
Si Si5 0.810623 0.884217 0.158583
Si Si6 0.896962 0.225887 0.285903
O O1 0.558385 0.618073 0.206510
O O2 0.677617 0.403865 0.171765
O O3 0.612415 0.605816 0.879034
O O4 0.541391 0.321238 0.943897
O O5 0.500000 0.000000 0.158912
O O6 0.079065 0.792563 0.029658
O O7 0.000000 0.500000 0.068741
O O8 0.890278 0.804994 0.041186
O O9 0.998498 0.774790 0.287809
O O10 0.748131 0.994827 0.021756
O O11 0.765469 0.796640 0.727794
O O12 0.832695 0.115669 0.749403
O O13 0.849367 0.032379 0.306135
#
# Coordination Sequence:
#
# PCOD9342637 Si02
#       6
#     4   4   4   4   4   4
#     4   9  20  45  71 107 149 186 243 294 379 460
#     4   8  20  42  71 108 138 194 236 294 370 472
#     4  12  23  43  65  90 139 188 249 303 353 449
#     4  12  25  45  70 106 144 190 237 313 371 440
#     4  12  26  43  70  98 142 193 247 308 380 432
#     4  12  26  43  62 103 132 185 253 299 368 422
#
# _framework density 29.174665000000001
#
# number of rings (size 3 to 8) (size 9 to 14) (size 15 to 20)
#    1.000    0.000    3.333    4.500    0.000    0.000 
#    9.000    3.333    0.000    0.000    0.000    0.000 
#    0.000    0.000    0.000    0.000    0.000    0.000 
#
# Total GULP energy -133660.202829 kJ/mol
# GULP energy per Si atom -5569.175118 kJ/mol
# Density = 2.910826 g / cm^3
# Si number density = 29.174665 Si / 1000 Ang^3
#
#
#
# Elastic Constant Matrix: (Units=GPa)
#
#
# Indices 1 2 3 4 5 6 
#
# 1 106.9701 31.5214 46.0542 0.0000 0.0000 0.0000
# 2 31.5214 135.1692 29.5221 0.0000 0.0000 0.0000
# 3 46.0542 29.5221 120.0698 0.0000 0.0000 0.0000
# 4 0.0000 0.0000 0.0000 564.5532 0.0000 0.0000
# 5 0.0000 0.0000 0.0000 0.0000 56.9568 0.0000
# 6 0.0000 0.0000 0.0000 0.0000 0.0000 45.0358
#
#
#
# Elastic Compliance Matrix: (Units=1/GPa)
#
#
# Indices 1 2 3 4 5 6 
#
# 1 0.011612 -0.001834 -0.004003 0.000000 0.000000 0.000000
# 2 -0.001834 0.008108 -0.001290 0.000000 0.000000 0.000000
# 3 -0.004003 -0.001290 0.010181 0.000000 0.000000 0.000000
# 4 0.000000 0.000000 0.000000 0.001771 0.000000 0.000000
# 5 0.000000 0.000000 0.000000 0.000000 0.017557 0.000000
# 6 0.000000 0.000000 0.000000 0.000000 0.000000 0.022205
#
#
# Mechanical properties :
#
#
# Convention : Reuss Voigt Hill
#
# Bulk Modulus (GPa) = 63.90979 64.04496 63.97737
# Shear Modulus (GPa) = 55.00342 150.31661 102.66002
#
# Velocity S-wave (km/s) = 4.34673 7.18574 5.93839
# Velocity P-wave (km/s) = 6.86626 9.53134 8.30638
#
# Compressibility (1/GPa) = 0.01564705
#
# Stress axis : x y z
#
# Youngs Moduli (GPa) = 86.11607 123.34242 98.22068
#
# Poissons Ratio (x) = 0.22617 0.39319
# Poissons Ratio (y) = 0.15791 0.12672
# Poissons Ratio (z) = 0.34474 0.15913
#
# Static dielectric constant tensor:
#      x y z
#    x 2.311310 0.000000 0.000000 
#    y 0.000000 2.078750 0.000000 
#    z 0.000000 0.000000 2.865890 
# 
# From -- ./inp_files/2635.got.cif
#   From: 2010.05.17/outbox.cif.g08.bks.cpg/sg30_2_cif.got.tgz:2635.got - 2010.06.03 17:03:02.
