data_PCOD9342479
_publ_section_title
;
Structure prediction by ZEFSAII (Michael W. Deem and Ramdas Pophale) SiO2 
 PCOD9342479
Probable space group: P N C 2
;
_chemical_formula_sum "Si O2"
_cell_formula_units_Z 20
_cell_length_a 8.652372
_cell_length_b 9.526138
_cell_length_c 9.015781
_cell_angle_alpha 90.000000
_cell_angle_beta 90.000000
_cell_angle_gamma 90.000000
_cell_volume 743.113936
_symmetry_space_group_name_H-M "P N C 2"
_symmetry_group_IT_number 30
_symmetry_cell_setting 'orthorhombic'
loop_
_space_group_symop_operation_xyz
x,y,z
-x,-y,z
-x,1/2+y,1/2+z
x,1/2-y,1/2+z
loop_
_atom_site_type_symbol
_atom_site_label
_atom_site_fract_x
_atom_site_fract_y
_atom_site_fract_z
Si Si1 0.521986 0.737992 0.606510
Si Si2 0.724046 0.014138 0.155444
Si Si3 0.263198 0.591025 0.959852
Si Si4 0.816767 0.626116 0.199037
Si Si5 0.016887 0.822502 0.983206
O O1 0.381207 0.652639 0.676793
O O2 0.631282 0.604513 0.565654
O O3 0.431905 0.842628 0.495667
O O4 0.637650 0.826142 0.708468
O O5 0.872874 0.070074 0.072325
O O6 0.745780 0.975099 0.328382
O O7 0.907888 0.738076 0.096885
O O8 0.197350 0.518931 0.109030
O O9 0.142255 0.712163 0.918271
O O10 0.910380 0.624885 0.349597
#
# Coordination Sequence:
#
# PCOD9342479 Si02
#       5
#     4   4   4   4   4
#     4  10  25  42  77 117 154 221 273 340 422 496
#     4  10  23  51  77 109 170 220 272 347 417 505
#     4  11  24  49  79 115 170 218 273 349 422 507
#     4  12  25  46  81 120 161 213 276 346 425 500
#     4  11  25  49  78 118 161 216 276 341 422 504
#
# _framework density 26.913772999999999
#
# number of rings (size 3 to 8) (size 9 to 14) (size 15 to 20)
#    0.000    1.200    2.000    2.400    8.400    0.800 
#    7.200    2.000    0.000    0.000    0.000    0.000 
#    0.000    0.000    0.000    0.000    0.000    0.000 
#
# Total GULP energy -111947.528400 kJ/mol
# GULP energy per Si atom -5597.376420 kJ/mol
# Density = 2.685252 g / cm^3
# Si number density = 26.913773 Si / 1000 Ang^3
#
#
#
# Elastic Constant Matrix: (Units=GPa)
#
#
# Indices 1 2 3 4 5 6 
#
# 1 228.0320 66.1537 99.9839 0.0000 0.0000 0.0000
# 2 66.1537 100.7110 71.3666 0.0000 0.0000 0.0000
# 3 99.9839 71.3666 171.2355 0.0000 0.0000 0.0000
# 4 0.0000 0.0000 0.0000 37.5991 0.0000 0.0000
# 5 0.0000 0.0000 0.0000 0.0000 46.5352 0.0000
# 6 0.0000 0.0000 0.0000 0.0000 0.0000 71.0920
#
#
#
# Elastic Compliance Matrix: (Units=1/GPa)
#
#
# Indices 1 2 3 4 5 6 
#
# 1 0.006203 -0.002140 -0.002730 0.000000 0.000000 0.000000
# 2 -0.002140 0.014829 -0.004931 0.000000 0.000000 0.000000
# 3 -0.002730 -0.004931 0.009489 0.000000 0.000000 0.000000
# 4 0.000000 0.000000 0.000000 0.026596 0.000000 0.000000
# 5 0.000000 0.000000 0.000000 0.000000 0.021489 0.000000
# 6 0.000000 0.000000 0.000000 0.000000 0.000000 0.014066
#
#
# Mechanical properties :
#
#
# Convention : Reuss Voigt Hill
#
# Bulk Modulus (GPa) = 91.57958 108.33188 99.95573
# Shear Modulus (GPa) = 43.13487 48.54353 45.83920
#
# Velocity S-wave (km/s) = 4.00772 4.25157 4.13145
# Velocity P-wave (km/s) = 7.45095 8.02745 7.74457
#
# Compressibility (1/GPa) = 0.01091946
#
# Stress axis : x y z
#
# Youngs Moduli (GPa) = 161.20529 67.43402 105.38394
#
# Poissons Ratio (x) = 0.14431 0.28771
# Poissons Ratio (y) = 0.34499 0.51964
# Poissons Ratio (z) = 0.44011 0.33251
#
# Static dielectric constant tensor:
#      x y z
#    x 2.079910 0.000000 0.000000 
#    y 0.000000 2.226280 0.000000 
#    z 0.000000 0.000000 2.092200 
# 
# From -- ./inp_files/1764.got.cif
#   From: 2010.05.17/outbox.cif.g08.bks.cpg/sg30_1_cif.got.tgz:1764.got - 2010.06.03 17:03:02.
