data_PCOD9342765
_publ_section_title
;
Structure prediction by ZEFSAII (Michael W. Deem and Ramdas Pophale) SiO2 
 PCOD9342765
Probable space group: P M N 21
;
_chemical_formula_sum "Si O2"
_cell_formula_units_Z 24
_cell_length_a 13.466859
_cell_length_b 5.493221
_cell_length_c 14.902305
_cell_angle_alpha 90.000000
_cell_angle_beta 90.000000
_cell_angle_gamma 90.000000
_cell_volume 1102.419362
_symmetry_space_group_name_H-M "P M N 21"
_symmetry_group_IT_number 31
_symmetry_cell_setting 'orthorhombic'
loop_
_space_group_symop_operation_xyz
x,y,z
1/2-x,-y,1/2+z
-x,y,z
1/2+x,-y,1/2+z
loop_
_atom_site_type_symbol
_atom_site_label
_atom_site_fract_x
_atom_site_fract_y
_atom_site_fract_z
Si Si1 0.106741 0.000001 0.139320
Si Si2 0.823087 0.499999 0.574946
Si Si3 0.165639 0.999999 0.613019
Si Si4 0.161070 0.500001 0.226965
Si Si5 0.882027 0.999999 0.823594
Si Si6 0.211895 0.499999 0.893188
O O1 0.214785 0.000001 0.090979
O O2 0.109992 0.751130 0.197134
O O3 0.000000 0.000000 0.088818
O O4 0.109992 0.248873 0.197133
O O5 0.878830 0.245989 0.573940
O O6 0.763946 0.499998 0.669700
O O7 0.743099 0.500000 0.495989
O O8 0.878830 0.754010 0.573941
O O9 0.155713 1.000000 0.720522
O O10 0.190195 0.500001 0.330460
O O11 0.844581 0.249755 0.869189
O O12 0.000000 0.999998 0.822217
O O13 0.844581 0.750243 0.869189
#
# Coordination Sequence:
#
# PCOD9342765 Si02
#       6
#     4   4   4   4   4   4
#     4  10  18  32  58  83 110 150 192 243 299 358
#     4  10  20  35  64  83 118 161 204 246 304 368
#     4  10  19  40  57  90 116 163 206 243 310 366
#     4  10  19  37  55  84 114 155 196 239 309 362
#     4  12  23  40  65  91 128 169 210 258 313 376
#     4  12  21  40  61  91 122 166 206 261 313 368
#
# _framework density 21.770299000000001
#
# number of rings (size 3 to 8) (size 9 to 14) (size 15 to 20)
#    0.000    1.333    6.667    2.000    0.000    0.000 
#    0.000   20.000    0.000    6.000    0.000    0.000 
#    0.000    0.000    0.000    0.000    0.000    0.000 
#
# Total GULP energy -133895.582327 kJ/mol
# GULP energy per Si atom -5578.982597 kJ/mol
# Density = 2.172075 g / cm^3
# Si number density = 21.770299 Si / 1000 Ang^3
#
#
#
# Elastic Constant Matrix: (Units=GPa)
#
#
# Indices 1 2 3 4 5 6 
#
# 1 67.9837 30.8105 3.7905 0.0000 0.0000 0.0000
# 2 30.8105 266.6945 38.9925 0.0000 0.0000 0.0000
# 3 3.7905 38.9925 57.3351 0.0000 0.0000 0.0000
# 4 0.0000 0.0000 0.0000 27.9839 0.0000 0.0000
# 5 0.0000 0.0000 0.0000 0.0000 -9.4808 0.0000
# 6 0.0000 0.0000 0.0000 0.0000 0.0000 -39.1032
#
#
#
# Elastic Compliance Matrix: (Units=1/GPa)
#
#
# Indices 1 2 3 4 5 6 
#
# 1 0.015524 -0.001825 0.000215 0.000000 0.000000 0.000000
# 2 -0.001825 0.004378 -0.002857 0.000000 0.000000 0.000000
# 3 0.000215 -0.002857 0.019370 0.000000 0.000000 0.000000
# 4 0.000000 0.000000 0.000000 0.035735 0.000000 0.000000
# 5 0.000000 0.000000 0.000000 0.000000 -0.105476 0.000000
# 6 0.000000 0.000000 0.000000 0.000000 0.000000 -0.025573
#
#
# Mechanical properties :
#
#
# Convention : Reuss Voigt Hill
#
# Bulk Modulus (GPa) = 32.96127 59.91114 46.43620
# Shear Modulus (GPa) = -135.15331 17.10797 -59.02267
#
# Velocity S-wave (km/s) = -7.88773 2.80632 -5.21252
# Velocity P-wave (km/s) = 8.23296 6.17090 3.85368
#
# Compressibility (1/GPa) = 0.03033864
#
# Stress axis : x y z
#
# Youngs Moduli (GPa) = 64.41431 228.40837 51.62620
#
# Poissons Ratio (x) = 0.41682 -0.01109
# Poissons Ratio (y) = 0.11755 0.14749
# Poissons Ratio (z) = -0.01383 0.65252
#
# Static dielectric constant tensor:
#      x y z
#    x 1.788540 0.000000 0.000000 
#    y 0.000000 1.884730 0.000000 
#    z 0.000000 0.000000 1.748710 
# 
# From -- ./inp_files/5404.got.cif
#   From: 2010.05.17/outbox.cif.g08.bks.cpg/sg31_3_cif.got.tgz:5404.got - 2010.06.03 17:08:30.
