data_PCOD9342565
_publ_section_title
;
Structure prediction by ZEFSAII (Michael W. Deem and Ramdas Pophale) SiO2 
 PCOD9342565
Probable space group: P N C 2
;
_chemical_formula_sum "Si O2"
_cell_formula_units_Z 24
_cell_length_a 4.967693
_cell_length_b 15.551177
_cell_length_c 16.221419
_cell_angle_alpha 90.000000
_cell_angle_beta 90.000000
_cell_angle_gamma 90.000000
_cell_volume 1253.160957
_symmetry_space_group_name_H-M "P N C 2"
_symmetry_group_IT_number 30
_symmetry_cell_setting 'orthorhombic'
loop_
_space_group_symop_operation_xyz
x,y,z
-x,-y,z
-x,1/2+y,1/2+z
x,1/2-y,1/2+z
loop_
_atom_site_type_symbol
_atom_site_label
_atom_site_fract_x
_atom_site_fract_y
_atom_site_fract_z
Si Si1 0.482564 0.178572 0.951660
Si Si2 0.741244 0.558032 0.594678
Si Si3 0.552167 0.311045 0.087213
Si Si4 0.064957 0.232098 0.176368
Si Si5 0.015281 0.826469 0.838559
Si Si6 0.500000 0.500000 0.124213
Si Si7 0.000000 0.500000 0.240537
O O1 0.282480 0.174681 0.875264
O O2 0.780885 0.177835 0.914947
O O3 0.397156 0.103327 0.015178
O O4 0.452332 0.264852 0.004811
O O5 0.500000 0.500000 0.631924
O O6 0.852558 0.634815 0.652927
O O7 0.000000 0.500000 0.572614
O O8 0.332191 0.287319 0.156789
O O9 0.573013 0.412900 0.076856
O O10 0.830008 0.266910 0.116113
O O11 0.966683 0.252667 0.268849
O O12 0.068039 0.916955 0.794099
O O13 0.249750 0.479587 0.182584
#
# Coordination Sequence:
#
# PCOD9342565 Si02
#       7
#     4   4   4   4   4   2   2
#     4  11  25  38  60  90 128 158 190 249 317 363
#     4  11  23  41  63  90 118 163 214 254 296 363
#     4  11  21  41  61  90 119 163 204 244 299 366
#     4  11  22  41  63  85 123 163 204 247 300 364
#     4  12  23  40  60  91 129 156 192 250 315 371
#     4  12  20  40  66  90 116 154 214 252 286 372
#     4  12  24  36  60  98 122 150 196 254 316 364
#
# _framework density 19.151571000000001
#
# number of rings (size 3 to 8) (size 9 to 14) (size 15 to 20)
#    0.000    0.667    3.333    7.000    3.500    0.000 
#    0.000    0.000    5.500    0.000    0.000    0.000 
#    0.000    0.000    0.000    0.000    0.000    0.000 
#
# Total GULP energy -134080.912487 kJ/mol
# GULP energy per Si atom -5586.704687 kJ/mol
# Density = 1.910798 g / cm^3
# Si number density = 19.151571 Si / 1000 Ang^3
#
#
#
# Elastic Constant Matrix: (Units=GPa)
#
#
# Indices 1 2 3 4 5 6 
#
# 1 83.5101 19.5122 -5.6855 0.0000 0.0000 0.0000
# 2 19.5122 143.7905 41.6631 0.0000 0.0000 0.0000
# 3 -5.6855 41.6631 42.9547 0.0000 0.0000 0.0000
# 4 0.0000 0.0000 0.0000 22.0372 0.0000 0.0000
# 5 0.0000 0.0000 0.0000 0.0000 24.9157 0.0000
# 6 0.0000 0.0000 0.0000 0.0000 0.0000 21.3190
#
#
#
# Elastic Compliance Matrix: (Units=1/GPa)
#
#
# Indices 1 2 3 4 5 6 
#
# 1 0.013038 -0.003156 0.004787 0.000000 0.000000 0.000000
# 2 -0.003156 0.010437 -0.010541 0.000000 0.000000 0.000000
# 3 0.004787 -0.010541 0.034138 0.000000 0.000000 0.000000
# 4 0.000000 0.000000 0.000000 0.045378 0.000000 0.000000
# 5 0.000000 0.000000 0.000000 0.000000 0.040135 0.000000
# 6 0.000000 0.000000 0.000000 0.000000 0.000000 0.046906
#
#
# Mechanical properties :
#
#
# Convention : Reuss Voigt Hill
#
# Bulk Modulus (GPa) = 25.13029 42.35943 33.74486
# Shear Modulus (GPa) = 22.61243 27.97210 25.29226
#
# Velocity S-wave (km/s) = 3.43987 3.82588 3.63800
# Velocity P-wave (km/s) = 5.37840 6.45620 5.94179
#
# Compressibility (1/GPa) = 0.03979262
#
# Stress axis : x y z
#
# Youngs Moduli (GPa) = 76.69907 95.81195 29.29285
#
# Poissons Ratio (x) = 0.30241 -0.14023
# Poissons Ratio (y) = 0.24208 0.30878
# Poissons Ratio (z) = -0.36716 1.00996
#
# Static dielectric constant tensor:
#      x y z
#    x 1.686250 0.000000 0.000000 
#    y 0.000000 1.702780 0.000000 
#    z 0.000000 0.000000 1.648540 
# 
# From -- ./inp_files/4692.got.cif
#   From: 2010.05.17/outbox.cif.g08.bks.cpg/sg30_3_cif.got.tgz:4692.got - 2010.06.03 17:03:02.
