data_PCOD9342908
_publ_section_title
;
Structure prediction by ZEFSAII (Michael W. Deem and Ramdas Pophale) SiO2 
 PCOD9342908
Probable space group: P M N 21
;
_chemical_formula_sum "Si O2"
_cell_formula_units_Z 32
_cell_length_a 7.742812
_cell_length_b 13.883533
_cell_length_c 13.955934
_cell_angle_alpha 90.000000
_cell_angle_beta 90.000000
_cell_angle_gamma 90.000000
_cell_volume 1500.229214
_symmetry_space_group_name_H-M "P M N 21"
_symmetry_group_IT_number 31
_symmetry_cell_setting 'orthorhombic'
loop_
_space_group_symop_operation_xyz
x,y,z
1/2-x,-y,1/2+z
-x,y,z
1/2+x,-y,1/2+z
loop_
_atom_site_type_symbol
_atom_site_label
_atom_site_fract_x
_atom_site_fract_y
_atom_site_fract_z
Si Si1 0.211928 0.160532 0.832310
Si Si2 0.204529 0.106182 0.618466
Si Si3 0.207780 0.754205 0.724847
Si Si4 0.793341 0.536981 0.978983
Si Si5 0.210815 0.380888 0.832310
Si Si6 0.704530 0.893822 0.546153
Si Si7 0.292221 0.245795 0.439770
Si Si8 0.293343 0.463019 0.185639
O O1 0.271642 0.120443 0.728183
O O2 0.266877 0.271897 0.832311
O O3 0.000000 0.153407 0.832310
O O4 0.271642 0.120441 0.936436
O O5 0.253246 0.181127 0.533409
O O6 0.000000 0.115063 0.626904
O O7 0.249995 0.000001 0.582310
O O8 0.246760 0.818873 0.631209
O O9 0.266578 0.787377 0.832309
O O10 0.271990 0.644173 0.709227
O O11 0.000000 0.751672 0.729275
O O12 0.749993 0.500000 0.082310
O O13 0.000000 0.542473 0.964089
O O14 0.728732 0.447316 0.918019
O O15 0.728011 0.644173 0.955391
O O16 0.271268 0.447314 0.746599
O O17 0.000000 0.376032 0.832311
O O18 0.500000 0.884946 0.537715
O O19 0.500000 0.248329 0.435340
O O20 0.500000 0.457526 0.200540
#
# Coordination Sequence:
#
# PCOD9342908 Si02
#       8
#     4   4   4   4   4   4   4   4
#     4   9  20  38  60  85 118 154 197 245 298 361
#     4  11  24  42  64  91 117 155 203 255 310 364
#     4  10  21  39  61  89 125 164 203 246 301 364
#     4  10  19  33  56  85 118 157 198 239 287 345
#     4   9  16  32  56  81 110 152 193 225 274 347
#     4  11  24  42  64  91 117 155 203 255 310 364
#     4  10  21  39  61  89 125 164 203 246 301 364
#     4  10  19  33  56  85 118 157 198 239 287 345
#
# _framework density 21.330074
#
# number of rings (size 3 to 8) (size 9 to 14) (size 15 to 20)
#    0.000    2.000    1.250    2.250    1.750    3.500 
#    0.000    2.500    0.000    6.000    0.000    0.000 
#    0.000    0.000    0.000    0.000    0.000    0.000 
#
# Total GULP energy -178300.815032 kJ/mol
# GULP energy per Si atom -5571.900470 kJ/mol
# Density = 2.128153 g / cm^3
# Si number density = 21.330074 Si / 1000 Ang^3
#
#
#
# Elastic Constant Matrix: (Units=GPa)
#
#
# Indices 1 2 3 4 5 6 
#
# 1 34.1746 3.8221 8.9271 0.0000 0.0000 0.0000
# 2 3.8221 163.5376 115.2491 0.0000 0.0000 0.0000
# 3 8.9271 115.2491 257.5676 0.0000 0.0000 0.0000
# 4 0.0000 0.0000 0.0000 37.4239 0.0000 0.0000
# 5 0.0000 0.0000 0.0000 0.0000 27.7025 0.0000
# 6 0.0000 0.0000 0.0000 0.0000 0.0000 20.4555
#
#
#
# Elastic Compliance Matrix: (Units=1/GPa)
#
#
# Indices 1 2 3 4 5 6 
#
# 1 0.029529 0.000045 -0.001044 0.000000 0.000000 0.000000
# 2 0.000045 0.008931 -0.003998 0.000000 0.000000 0.000000
# 3 -0.001044 -0.003998 0.005707 0.000000 0.000000 0.000000
# 4 0.000000 0.000000 0.000000 0.026721 0.000000 0.000000
# 5 0.000000 0.000000 0.000000 0.000000 0.036098 0.000000
# 6 0.000000 0.000000 0.000000 0.000000 0.000000 0.048887
#
#
# Mechanical properties :
#
#
# Convention : Reuss Voigt Hill
#
# Bulk Modulus (GPa) = 29.26088 79.03072 54.14580
# Shear Modulus (GPa) = 28.20761 38.93514 33.57137
#
# Velocity S-wave (km/s) = 3.64047 4.27706 3.97154
# Velocity P-wave (km/s) = 5.60523 7.84364 6.81694
#
# Compressibility (1/GPa) = 0.03417532
#
# Stress axis : x y z
#
# Youngs Moduli (GPa) = 33.86496 111.96832 175.20861
#
# Poissons Ratio (x) = -0.00509 0.18288
# Poissons Ratio (y) = -0.00154 0.70045
# Poissons Ratio (z) = 0.03535 0.44763
#
# Static dielectric constant tensor:
#      x y z
#    x 1.826300 0.000000 0.000000 
#    y 0.000000 1.712980 0.000000 
#    z 0.000000 0.000000 1.758650 
# 
# From -- ./inp_files/3744.got.cif
#   From: 2010.05.17/outbox.cif.g08.bks.cpg/sg31_2_cif.got.tgz:3744.got - 2010.06.03 17:08:30.
