data_PCOD9342881
_publ_section_title
;
Structure prediction by ZEFSAII (Michael W. Deem and Ramdas Pophale) SiO2 
 PCOD9342881
Probable space group: P M N 21
;
_chemical_formula_sum "Si O2"
_cell_formula_units_Z 32
_cell_length_a 7.776145
_cell_length_b 15.378854
_cell_length_c 10.364269
_cell_angle_alpha 90.000000
_cell_angle_beta 90.000000
_cell_angle_gamma 90.000000
_cell_volume 1239.444260
_symmetry_space_group_name_H-M "P M N 21"
_symmetry_group_IT_number 31
_symmetry_cell_setting 'orthorhombic'
loop_
_space_group_symop_operation_xyz
x,y,z
1/2-x,-y,1/2+z
-x,y,z
1/2+x,-y,1/2+z
loop_
_atom_site_type_symbol
_atom_site_label
_atom_site_fract_x
_atom_site_fract_y
_atom_site_fract_z
Si Si1 0.293935 0.060019 0.750000
Si Si2 0.205827 0.726459 0.964008
Si Si3 0.799524 0.434683 0.097964
Si Si4 0.208529 0.546928 0.862660
Si Si5 0.798681 0.742603 0.525310
Si Si6 0.207645 0.932707 0.583869
Si Si7 0.710773 0.257321 0.746836
Si Si8 0.706272 0.927616 0.919608
O O1 0.500000 0.065707 0.746027
O O2 0.225565 0.157634 0.750498
O O3 0.256831 0.042571 0.583671
O O4 0.249418 0.950226 0.751865
O O5 0.270050 0.709130 0.109617
O O6 0.000000 0.717813 0.964559
O O7 0.272962 0.645835 0.882027
O O8 0.233496 0.826925 0.924597
O O9 0.772973 0.488239 0.227471
O O10 0.714459 0.340669 0.114023
O O11 0.000000 0.419148 0.078036
O O12 0.728297 0.487974 0.978854
O O13 0.000000 0.546416 0.862900
O O14 0.721029 0.833750 0.573242
O O15 0.732316 0.709581 0.386130
O O16 0.000000 0.763159 0.507964
O O17 0.000000 0.931840 0.592446
O O18 0.237031 0.958784 0.416285
O O19 0.500000 0.260019 0.742787
O O20 0.500000 0.921110 0.921842
#
# Coordination Sequence:
#
# PCOD9342881 Si02
#       8
#     4   4   4   4   4   4   4   4
#     4  10  19  33  52  76 114 161 210 261 309 359
#     4  10  21  38  62  88 118 160 212 258 309 385
#     4  11  26  47  72 102 131 164 211 267 326 388
#     4  10  25  48  71  99 131 166 212 263 323 398
#     4  10  21  39  64  89 123 169 213 259 319 384
#     4  10  20  34  52  80 117 160 207 251 301 366
#     4   9  17  33  59  87 115 162 217 258 308 374
#     4  10  20  34  52  81 119 158 202 255 307 358
#
# _framework density 25.818021000000002
#
# number of rings (size 3 to 8) (size 9 to 14) (size 15 to 20)
#    0.000    2.000    2.500    0.375    3.500    2.500 
#    0.000    1.250    0.000    0.000    0.000    0.000 
#    0.000    0.000    0.000    0.000    0.000    0.000 
#
# Total GULP energy -178395.510325 kJ/mol
# GULP energy per Si atom -5574.859698 kJ/mol
# Density = 2.575926 g / cm^3
# Si number density = 25.818021 Si / 1000 Ang^3
#
#
#
# Elastic Constant Matrix: (Units=GPa)
#
#
# Indices 1 2 3 4 5 6 
#
# 1 38.5516 2.2678 3.8137 0.0000 0.0000 0.0000
# 2 2.2678 111.4522 57.3392 0.0000 0.0000 0.0000
# 3 3.8137 57.3392 198.1739 0.0000 0.0000 0.0000
# 4 0.0000 0.0000 0.0000 42.1016 0.0000 0.0000
# 5 0.0000 0.0000 0.0000 0.0000 35.4655 0.0000
# 6 0.0000 0.0000 0.0000 0.0000 0.0000 -4.6655
#
#
#
# Elastic Compliance Matrix: (Units=1/GPa)
#
#
# Indices 1 2 3 4 5 6 
#
# 1 0.025998 -0.000319 -0.000408 0.000000 0.000000 0.000000
# 2 -0.000319 0.010546 -0.003045 0.000000 0.000000 0.000000
# 3 -0.000408 -0.003045 0.005935 0.000000 0.000000 0.000000
# 4 0.000000 0.000000 0.000000 0.023752 0.000000 0.000000
# 5 0.000000 0.000000 0.000000 0.000000 0.028196 0.000000
# 6 0.000000 0.000000 0.000000 0.000000 0.000000 -0.214337
#
#
# Mechanical properties :
#
#
# Convention : Reuss Voigt Hill
#
# Bulk Modulus (GPa) = 28.62496 52.77990 40.70243
# Shear Modulus (GPa) = -49.64229 33.56413 -8.03908
#
# Velocity S-wave (km/s) = -4.38971 3.60950 -1.76650
# Velocity P-wave (km/s) = 3.81856 6.15295 3.41155
#
# Compressibility (1/GPa) = 0.03493455
#
# Stress axis : x y z
#
# Youngs Moduli (GPa) = 38.46395 94.82656 168.49247
#
# Poissons Ratio (x) = 0.03026 0.06874
# Poissons Ratio (y) = 0.01227 0.51307
# Poissons Ratio (z) = 0.01569 0.28876
#
# Static dielectric constant tensor:
#      x y z
#    x 1.893040 0.000000 0.000000 
#    y 0.000000 1.974160 0.000000 
#    z 0.000000 0.000000 2.482640 
# 
# From -- ./inp_files/3622.got.cif
#   From: 2010.05.17/outbox.cif.g08.bks.cpg/sg31_2_cif.got.tgz:3622.got - 2010.06.03 17:08:30.
