data_PCOD9342266
_publ_section_title
;
Structure prediction by ZEFSAII (Michael W. Deem and Ramdas Pophale) SiO2 
 PCOD9342266
Probable space group: P N C 2
;
_chemical_formula_sum "Si O2"
_cell_formula_units_Z 32
_cell_length_a 9.474563
_cell_length_b 14.143397
_cell_length_c 11.880862
_cell_angle_alpha 90.000000
_cell_angle_beta 90.000000
_cell_angle_gamma 90.000000
_cell_volume 1592.065280
_symmetry_space_group_name_H-M "P N C 2"
_symmetry_group_IT_number 30
_symmetry_cell_setting 'orthorhombic'
loop_
_space_group_symop_operation_xyz
x,y,z
-x,-y,z
-x,1/2+y,1/2+z
x,1/2-y,1/2+z
loop_
_atom_site_type_symbol
_atom_site_label
_atom_site_fract_x
_atom_site_fract_y
_atom_site_fract_z
Si Si1 0.764085 0.329286 0.558090
Si Si2 0.861806 0.941525 0.362512
Si Si3 0.466080 0.733744 0.918142
Si Si4 0.402105 0.409201 0.291598
Si Si5 0.152361 0.474070 0.447354
Si Si6 0.924503 0.675256 0.641815
Si Si7 0.616612 0.071837 0.258369
Si Si8 0.712276 0.833968 0.567302
O O1 0.682090 0.258372 0.476893
O O2 0.784617 0.427543 0.491322
O O3 0.668392 0.355758 0.664389
O O4 0.916332 0.298987 0.605300
O O5 0.910431 0.867030 0.266642
O O6 0.790023 0.890288 0.467816
O O7 0.748333 0.011723 0.304743
O O8 0.000000 0.000000 0.396632
O O9 0.514560 0.816149 0.833069
O O10 0.453866 0.633609 0.856274
O O11 0.587377 0.726345 0.011277
O O12 0.500000 0.500000 0.309013
O O13 0.261094 0.423096 0.365491
O O14 0.356126 0.399235 0.162500
O O15 0.121954 0.407438 0.554906
O O16 0.000000 0.500000 0.394869
O O17 0.822061 0.763359 0.625957
O O18 0.500000 0.000000 0.211270
#
# Coordination Sequence:
#
# PCOD9342266 Si02
#       8
#     4   4   4   4   4   4   4   4
#     4  11  24  42  72 105 135 176 235 292 347 415
#     4  12  25  49  73  99 139 187 238 291 353 419
#     4  12  26  45  67 106 138 188 233 286 351 417
#     4  12  26  46  67 101 144 185 227 287 348 423
#     4  10  21  43  70  98 131 176 229 283 341 411
#     4  11  23  45  72 105 134 174 240 294 343 416
#     4  12  26  44  70 101 141 184 236 289 342 422
#     4  12  28  44  70 100 143 184 230 288 354 420
#
# _framework density 20.099678999999998
#
# number of rings (size 3 to 8) (size 9 to 14) (size 15 to 20)
#    0.000    0.500    6.250    1.875    7.000    0.500 
#    2.250    0.000    0.000    0.000    0.000    0.000 
#    0.000    0.000    0.000    0.000    0.000    0.000 
#
# Total GULP energy -179045.097046 kJ/mol
# GULP energy per Si atom -5595.159283 kJ/mol
# Density = 2.005393 g / cm^3
# Si number density = 20.099679 Si / 1000 Ang^3
#
#
#
# Elastic Constant Matrix: (Units=GPa)
#
#
# Indices 1 2 3 4 5 6 
#
# 1 97.2168 11.7513 28.8689 0.0000 0.0000 0.0000
# 2 11.7513 20.3825 3.0884 0.0000 0.0000 0.0000
# 3 28.8689 3.0884 84.5000 0.0000 0.0000 0.0000
# 4 0.0000 0.0000 0.0000 14.4148 0.0000 0.0000
# 5 0.0000 0.0000 0.0000 0.0000 30.4875 0.0000
# 6 0.0000 0.0000 0.0000 0.0000 0.0000 26.5893
#
#
#
# Elastic Compliance Matrix: (Units=1/GPa)
#
#
# Indices 1 2 3 4 5 6 
#
# 1 0.012238 -0.006458 -0.003945 0.000000 0.000000 0.000000
# 2 -0.006458 0.052743 0.000279 0.000000 0.000000 0.000000
# 3 -0.003945 0.000279 0.013172 0.000000 0.000000 0.000000
# 4 0.000000 0.000000 0.000000 0.069373 0.000000 0.000000
# 5 0.000000 0.000000 0.000000 0.000000 0.032800 0.000000
# 6 0.000000 0.000000 0.000000 0.000000 0.000000 0.037609
#
#
# Mechanical properties :
#
#
# Convention : Reuss Voigt Hill
#
# Bulk Modulus (GPa) = 17.26994 32.16851 24.71923
# Shear Modulus (GPa) = 19.41848 24.85768 22.13808
#
# Velocity S-wave (km/s) = 3.11160 3.52052 3.32236
# Velocity P-wave (km/s) = 4.63899 5.70654 5.20023
#
# Compressibility (1/GPa) = 0.05790407
#
# Stress axis : x y z
#
# Youngs Moduli (GPa) = 81.70957 18.95987 75.91874
#
# Poissons Ratio (x) = 0.12245 0.29951
# Poissons Ratio (y) = 0.52770 -0.02116
# Poissons Ratio (z) = 0.32236 -0.00528
#
# Static dielectric constant tensor:
#      x y z
#    x 1.709060 0.000000 0.000000 
#    y 0.000000 1.694330 0.000000 
#    z 0.000000 0.000000 1.692240 
# 
# From -- ./inp_files/3776.got.cif
#   From: 2010.05.17/outbox.cif.g08.bks.cpg/sg30_2_cif.got.tgz:3776.got - 2010.06.03 17:03:02.
