data_PCOD9342616
_publ_section_title
;
Structure prediction by ZEFSAII (Michael W. Deem and Ramdas Pophale) SiO2 
 PCOD9342616
Probable space group: P N C 2
;
_chemical_formula_sum "Si O2"
_cell_formula_units_Z 20
_cell_length_a 16.245144
_cell_length_b 5.214271
_cell_length_c 10.211432
_cell_angle_alpha 90.000000
_cell_angle_beta 90.000000
_cell_angle_gamma 90.000000
_cell_volume 864.975515
_symmetry_space_group_name_H-M "P N C 2"
_symmetry_group_IT_number 30
_symmetry_cell_setting 'orthorhombic'
loop_
_space_group_symop_operation_xyz
x,y,z
-x,-y,z
-x,1/2+y,1/2+z
x,1/2-y,1/2+z
loop_
_atom_site_type_symbol
_atom_site_label
_atom_site_fract_x
_atom_site_fract_y
_atom_site_fract_z
Si Si1 0.303517 0.540005 0.304530
Si Si2 0.944742 0.760184 0.426783
Si Si3 0.552708 0.762226 0.241258
Si Si4 0.832996 0.767824 0.180967
Si Si5 0.328012 0.570733 0.591916
O O1 0.363864 0.296428 0.321910
O O2 0.213484 0.472248 0.250299
O O3 0.306681 0.663595 0.446653
O O4 0.345027 0.697608 0.188921
O O5 0.900960 0.832704 0.289596
O O6 0.877122 0.748543 0.541485
O O7 0.000000 0.500000 0.417510
O O8 0.000000 0.000000 0.464901
O O9 0.500000 0.500000 0.235081
O O10 0.594428 0.878203 0.108123
O O11 0.500000 0.000000 0.296171
O O12 0.755228 0.947887 0.150662
#
# Coordination Sequence:
#
# PCOD9342616 Si02
#       5
#     4   4   4   4   4
#     4  11  26  46  77 109 149 206 249 304 375 440
#     4  12  28  48  76 110 148 194 244 306 376 436
#     4  11  24  50  72 115 150 192 248 317 370 438
#     4  11  26  46  72 109 150 196 248 303 364 454
#     4  11  26  46  77 109 149 206 249 304 375 440
#
# _framework density 23.122039999999998
#
# number of rings (size 3 to 8) (size 9 to 14) (size 15 to 20)
#    0.000    0.800    4.000    1.200    8.400    3.200 
#    0.000    0.000    0.000    0.000    0.000    0.000 
#    0.000    0.000    0.000    0.000    0.000    0.000 
#
# Total GULP energy -111533.925525 kJ/mol
# GULP energy per Si atom -5576.696276 kJ/mol
# Density = 2.306941 g / cm^3
# Si number density = 23.122040 Si / 1000 Ang^3
#
#
#
# Elastic Constant Matrix: (Units=GPa)
#
#
# Indices 1 2 3 4 5 6 
#
# 1 91.6454 18.1300 -23.8573 0.0000 0.0000 0.0000
# 2 18.1300 70.6989 -15.1593 0.0000 0.0000 0.0000
# 3 -23.8573 -15.1593 101.3498 0.0000 0.0000 0.0000
# 4 0.0000 0.0000 0.0000 22.9512 0.0000 0.0000
# 5 0.0000 0.0000 0.0000 0.0000 17.3776 0.0000
# 6 0.0000 0.0000 0.0000 0.0000 0.0000 23.4692
#
#
#
# Elastic Compliance Matrix: (Units=1/GPa)
#
#
# Indices 1 2 3 4 5 6 
#
# 1 0.012058 -0.002566 0.002455 0.000000 0.000000 0.000000
# 2 -0.002566 0.015159 0.001663 0.000000 0.000000 0.000000
# 3 0.002455 0.001663 0.010693 0.000000 0.000000 0.000000
# 4 0.000000 0.000000 0.000000 0.043571 0.000000 0.000000
# 5 0.000000 0.000000 0.000000 0.000000 0.057545 0.000000
# 6 0.000000 0.000000 0.000000 0.000000 0.000000 0.042609
#
#
# Mechanical properties :
#
#
# Convention : Reuss Voigt Hill
#
# Bulk Modulus (GPa) = 24.38119 24.65789 24.51954
# Shear Modulus (GPa) = 26.01413 31.73165 28.87289
#
# Velocity S-wave (km/s) = 3.35786 3.70855 3.53755
# Velocity P-wave (km/s) = 5.05975 5.38750 5.22620
#
# Compressibility (1/GPa) = 0.04101522
#
# Stress axis : x y z
#
# Youngs Moduli (GPa) = 82.93096 65.96670 93.51529
#
# Poissons Ratio (x) = 0.16926 -0.22955
# Poissons Ratio (y) = 0.21279 -0.15556
# Poissons Ratio (z) = -0.20357 -0.10973
#
# Static dielectric constant tensor:
#      x y z
#    x 2.021410 0.000000 0.000000 
#    y 0.000000 1.921860 0.000000 
#    z 0.000000 0.000000 1.888110 
# 
# From -- ./inp_files/2741.got.cif
#   From: 2010.05.17/outbox.cif.g08.bks.cpg/sg30_2_cif.got.tgz:2741.got - 2010.06.03 17:03:02.
