data_PCOD9342850
_publ_section_title
;
Structure prediction by ZEFSAII (Michael W. Deem and Ramdas Pophale) SiO2 
 PCOD9342850
Probable space group: P M N 21
;
_chemical_formula_sum "Si O2"
_cell_formula_units_Z 28
_cell_length_a 12.806937
_cell_length_b 24.185265
_cell_length_c 5.164253
_cell_angle_alpha 90.000000
_cell_angle_beta 90.000000
_cell_angle_gamma 90.000000
_cell_volume 1599.571413
_symmetry_space_group_name_H-M "P M N 21"
_symmetry_group_IT_number 31
_symmetry_cell_setting 'orthorhombic'
loop_
_space_group_symop_operation_xyz
x,y,z
1/2-x,-y,1/2+z
-x,y,z
1/2+x,-y,1/2+z
loop_
_atom_site_type_symbol
_atom_site_label
_atom_site_fract_x
_atom_site_fract_y
_atom_site_fract_z
Si Si1 0.311749 0.010830 0.134470
Si Si2 0.623449 0.240464 0.144827
Si Si3 0.876035 0.686683 0.145999
Si Si4 0.124847 0.462137 0.211529
Si Si5 0.746739 0.128034 0.234400
Si Si6 0.883565 0.105373 0.734740
Si Si7 0.252452 0.574842 0.211694
O O1 0.330127 0.074891 0.199538
O O2 0.215661 0.996040 0.331319
O O3 0.388077 0.961357 0.207110
O O4 0.500000 0.227587 0.154249
O O5 0.644249 0.285158 0.369594
O O6 0.687810 0.185153 0.194062
O O7 0.646278 0.268569 0.869572
O O8 0.807250 0.632501 0.188176
O O9 0.000000 0.673022 0.161842
O O10 0.167291 0.525255 0.206113
O O11 0.169452 0.435500 0.473390
O O12 0.000000 0.460354 0.196545
O O13 0.180793 0.431706 0.972483
O O14 0.804776 0.124852 0.509814
O O15 0.833259 0.119760 0.010433
O O16 0.000000 0.128130 0.705463
#
# Coordination Sequence:
#
# PCOD9342850 Si02
#       7
#     4   4   4   4   4   4   4
#     4   8  16  29  46  69  95 124 158 199 249 299
#     4  10  21  35  55  78 100 133 172 216 264 301
#     4  10  20  36  56  79 104 132 173 215 256 307
#     4  10  20  34  54  83 112 139 174 210 253 307
#     4  10  19  34  52  74 104 131 166 214 256 303
#     4  10  19  32  52  75 101 135 168 203 253 310
#     4  10  20  34  56  80 108 144 172 209 260 301
#
# _framework density 17.50469
#
# number of rings (size 3 to 8) (size 9 to 14) (size 15 to 20)
#    0.000    2.286    0.000    3.000    0.000    0.571 
#    0.000    4.286    0.000   25.714    0.000    0.000 
#    0.000    0.000    0.000    0.000    0.000    0.000 
#
# Total GULP energy -156124.448692 kJ/mol
# GULP energy per Si atom -5575.873168 kJ/mol
# Density = 1.746485 g / cm^3
# Si number density = 17.504690 Si / 1000 Ang^3
#
#
#
# Elastic Constant Matrix: (Units=GPa)
#
#
# Indices 1 2 3 4 5 6 
#
# 1 58.9355 25.3675 -5.4319 0.0000 0.0000 0.0000
# 2 25.3675 62.5468 -20.2118 0.0000 0.0000 0.0000
# 3 -5.4319 -20.2118 65.0110 0.0000 0.0000 0.0000
# 4 0.0000 0.0000 0.0000 8.3443 0.0000 0.0000
# 5 0.0000 0.0000 0.0000 0.0000 10.9340 0.0000
# 6 0.0000 0.0000 0.0000 0.0000 0.0000 14.5413
#
#
#
# Elastic Compliance Matrix: (Units=1/GPa)
#
#
# Indices 1 2 3 4 5 6 
#
# 1 0.020612 -0.008675 -0.000975 0.000000 0.000000 0.000000
# 2 -0.008675 0.021424 0.005936 0.000000 0.000000 0.000000
# 3 -0.000975 0.005936 0.017146 0.000000 0.000000 0.000000
# 4 0.000000 0.000000 0.000000 0.119842 0.000000 0.000000
# 5 0.000000 0.000000 0.000000 0.000000 0.091458 0.000000
# 6 0.000000 0.000000 0.000000 0.000000 0.000000 0.068770
#
#
# Mechanical properties :
#
#
# Convention : Reuss Voigt Hill
#
# Bulk Modulus (GPa) = 19.32160 20.66011 19.99086
# Shear Modulus (GPa) = 13.73890 19.21522 16.47706
#
# Velocity S-wave (km/s) = 2.80459 3.31678 3.07138
# Velocity P-wave (km/s) = 4.64215 5.14745 4.90132
#
# Compressibility (1/GPa) = 0.05175554
#
# Stress axis : x y z
#
# Youngs Moduli (GPa) = 48.51620 46.67567 58.32244
#
# Poissons Ratio (x) = 0.40489 0.05685
# Poissons Ratio (y) = 0.42086 -0.34620
# Poissons Ratio (z) = 0.04729 -0.27707
#
# Static dielectric constant tensor:
#      x y z
#    x 1.570650 0.000000 0.000000 
#    y 0.000000 1.580380 0.000000 
#    z 0.000000 0.000000 1.592310 
# 
# From -- ./inp_files/411.got.cif
#   From: 2010.05.17/outbox.cif.g08.bks.cpg/sg31_1_cif.got.tgz:411.got - 2010.06.03 17:08:30.
