data_PCOD9342639
_publ_section_title
;
Structure prediction by ZEFSAII (Michael W. Deem and Ramdas Pophale) SiO2 
 PCOD9342639
Probable space group: P N C 2
;
_chemical_formula_sum "Si O2"
_cell_formula_units_Z 24
_cell_length_a 8.538092
_cell_length_b 16.070856
_cell_length_c 8.430008
_cell_angle_alpha 90.000000
_cell_angle_beta 90.000000
_cell_angle_gamma 90.000000
_cell_volume 1156.718886
_symmetry_space_group_name_H-M "P N C 2"
_symmetry_group_IT_number 30
_symmetry_cell_setting 'orthorhombic'
loop_
_space_group_symop_operation_xyz
x,y,z
-x,-y,z
-x,1/2+y,1/2+z
x,1/2-y,1/2+z
loop_
_atom_site_type_symbol
_atom_site_label
_atom_site_fract_x
_atom_site_fract_y
_atom_site_fract_z
Si Si1 0.569035 0.342066 0.494740
Si Si2 0.906746 0.804298 0.760685
Si Si3 0.000000 0.500000 0.804129
Si Si4 0.249999 0.438187 0.041071
Si Si5 0.593256 0.695703 0.821457
Si Si6 0.500000 0.000000 0.778012
Si Si7 0.930962 0.157934 0.087402
O O1 0.467700 0.338516 0.655040
O O2 0.532761 0.257628 0.398842
O O3 0.516281 0.418898 0.386544
O O4 0.749998 0.349322 0.541074
O O5 0.864647 0.877691 0.639878
O O6 0.750000 0.750001 0.791073
O O7 0.032760 0.742371 0.683299
O O8 0.967707 0.838517 0.927100
O O9 0.983718 0.418898 0.695597
O O10 0.849658 0.509092 0.917004
O O11 0.349658 0.490908 0.165137
O O12 0.364644 0.377691 0.942263
#
# Coordination Sequence:
#
# PCOD9342639 Si02
#       7
#     4   4   2   4   4   2   4
#     4  12  27  45  75 110 146 186 247 305 365 429
#     4  12  23  49  77 102 143 199 245 290 360 451
#     4  12  30  46  70 110 148 192 238 312 372 432
#     4  12  28  48  74 104 150 192 244 294 376 434
#     4  12  23  49  77 102 143 199 245 290 360 451
#     4  12  30  46  70 110 148 192 238 312 372 432
#     4  12  27  45  75 110 146 186 247 305 365 429
#
# _framework density 20.748343999999999
#
# number of rings (size 3 to 8) (size 9 to 14) (size 15 to 20)
#    0.000    0.000    6.667    1.000    9.333    0.000 
#    3.000    0.000    0.000    0.000    0.000    0.000 
#    0.000    0.000    0.000    0.000    0.000    0.000 
#
# Total GULP energy -134505.253224 kJ/mol
# GULP energy per Si atom -5604.385551 kJ/mol
# Density = 2.070112 g / cm^3
# Si number density = 20.748344 Si / 1000 Ang^3
#
#
#
# Elastic Constant Matrix: (Units=GPa)
#
#
# Indices 1 2 3 4 5 6 
#
# 1 101.5657 20.5274 59.4064 0.0000 0.0000 0.0000
# 2 20.5274 84.7444 80.2766 0.0000 0.0000 0.0000
# 3 59.4064 80.2766 187.1844 0.0000 0.0000 0.0000
# 4 0.0000 0.0000 0.0000 -88.5211 0.0000 0.0000
# 5 0.0000 0.0000 0.0000 0.0000 45.2835 0.0000
# 6 0.0000 0.0000 0.0000 0.0000 0.0000 6.2465
#
#
#
# Elastic Compliance Matrix: (Units=1/GPa)
#
#
# Indices 1 2 3 4 5 6 
#
# 1 0.012162 0.001196 -0.004373 0.000000 0.000000 0.000000
# 2 0.001196 0.019992 -0.008953 0.000000 0.000000 0.000000
# 3 -0.004373 -0.008953 0.010570 0.000000 0.000000 0.000000
# 4 0.000000 0.000000 0.000000 -0.011297 0.000000 0.000000
# 5 0.000000 0.000000 0.000000 0.000000 0.022083 0.000000
# 6 0.000000 0.000000 0.000000 0.000000 0.000000 0.160091
#
#
# Mechanical properties :
#
#
# Convention : Reuss Voigt Hill
#
# Bulk Modulus (GPa) = 54.16035 77.10171 65.63103
# Shear Modulus (GPa) = 20.49053 6.82070 13.65561
#
# Velocity S-wave (km/s) = 3.14598 1.81507 2.56824
# Velocity P-wave (km/s) = 6.27347 6.45242 6.36357
#
# Compressibility (1/GPa) = 0.01846369
#
# Stress axis : x y z
#
# Youngs Moduli (GPa) = 82.22503 50.02045 94.60782
#
# Poissons Ratio (x) = -0.05984 0.41371
# Poissons Ratio (y) = -0.09837 0.84707
# Poissons Ratio (z) = 0.35956 0.44786
#
# Static dielectric constant tensor:
#      x y z
#    x 1.727170 0.000000 0.000000 
#    y 0.000000 1.705370 0.000000 
#    z 0.000000 0.000000 1.716390 
# 
# From -- ./inp_files/1853.got.cif
#   From: 2010.05.17/outbox.cif.g08.bks.cpg/sg30_1_cif.got.tgz:1853.got - 2010.06.03 17:03:02.
