data_PCOD9342365
_publ_section_title
;
Structure prediction by ZEFSAII (Michael W. Deem and Ramdas Pophale) SiO2 
 PCOD9342365
Probable space group: P N C 2
;
_chemical_formula_sum "Si O2"
_cell_formula_units_Z 28
_cell_length_a 19.550718
_cell_length_b 5.075510
_cell_length_c 11.205933
_cell_angle_alpha 90.000000
_cell_angle_beta 90.000000
_cell_angle_gamma 90.000000
_cell_volume 1111.963216
_symmetry_space_group_name_H-M "P N C 2"
_symmetry_group_IT_number 30
_symmetry_cell_setting 'orthorhombic'
loop_
_space_group_symop_operation_xyz
x,y,z
-x,-y,z
-x,1/2+y,1/2+z
x,1/2-y,1/2+z
loop_
_atom_site_type_symbol
_atom_site_label
_atom_site_fract_x
_atom_site_fract_y
_atom_site_fract_z
Si Si1 0.203662 0.206663 0.698050
Si Si2 0.381597 0.636386 0.401389
Si Si3 0.500000 0.000000 0.055269
Si Si4 0.069662 0.407876 0.715726
Si Si5 0.140914 0.834264 0.885983
Si Si6 0.575295 0.607480 0.771842
Si Si7 0.000000 0.500000 0.402271
Si Si8 0.744175 0.219812 0.075542
O O1 0.126520 0.242710 0.643303
O O2 0.239108 0.481870 0.666094
O O3 0.179811 0.087255 0.826362
O O4 0.255347 0.989750 0.648096
O O5 0.450108 0.678442 0.478992
O O6 0.376815 0.859902 0.300330
O O7 0.319810 0.652509 0.493101
O O8 0.395090 0.356797 0.339092
O O9 0.445257 0.163102 0.135122
O O10 0.114805 0.637726 0.780017
O O11 0.000000 0.500000 0.653085
O O12 0.035366 0.221844 0.817120
O O13 0.069569 0.881527 0.953889
O O14 0.194191 0.731906 0.981599
O O15 0.500000 0.500000 0.807677
#
# Coordination Sequence:
#
# PCOD9342365 Si02
#       8
#     4   4   2   4   4   4   2   4
#     4  11  24  46  62 100 134 181 234 273 348 415
#     4  12  24  46  65 102 140 169 225 283 328 413
#     4  10  22  42  74  94 134 170 222 282 332 402
#     4   9  18  41  68  94 132 184 229 302 343 391
#     4  10  22  44  67  91 145 174 232 293 341 402
#     4  10  23  41  69  99 127 173 222 271 345 389
#     4   8  18  36  68  96 124 182 228 284 350 384
#     4  12  28  41  70 100 139 187 224 276 351 420
#
# _framework density 25.180688
#
# number of rings (size 3 to 8) (size 9 to 14) (size 15 to 20)
#    0.429    1.143    2.857    0.857    4.000    4.571 
#    1.286    0.000    0.000    0.000    0.000    0.000 
#    0.000    0.000    0.000    0.000    0.000    0.000 
#
# Total GULP energy -156118.102535 kJ/mol
# GULP energy per Si atom -5575.646519 kJ/mol
# Density = 2.512338 g / cm^3
# Si number density = 25.180688 Si / 1000 Ang^3
#
#
#
# Elastic Constant Matrix: (Units=GPa)
#
#
# Indices 1 2 3 4 5 6 
#
# 1 117.9658 18.9794 27.5712 0.0000 0.0000 0.0000
# 2 18.9794 130.3979 16.1901 0.0000 0.0000 0.0000
# 3 27.5712 16.1901 46.5982 0.0000 0.0000 0.0000
# 4 0.0000 0.0000 0.0000 14.1256 0.0000 0.0000
# 5 0.0000 0.0000 0.0000 0.0000 57.9418 0.0000
# 6 0.0000 0.0000 0.0000 0.0000 0.0000 36.7562
#
#
#
# Elastic Compliance Matrix: (Units=1/GPa)
#
#
# Indices 1 2 3 4 5 6 
#
# 1 0.009906 -0.000746 -0.005602 0.000000 0.000000 0.000000
# 2 -0.000746 0.008071 -0.002363 0.000000 0.000000 0.000000
# 3 -0.005602 -0.002363 0.025596 0.000000 0.000000 0.000000
# 4 0.000000 0.000000 0.000000 0.070793 0.000000 0.000000
# 5 0.000000 0.000000 0.000000 0.000000 0.017259 0.000000
# 6 0.000000 0.000000 0.000000 0.000000 0.000000 0.027206
#
#
# Mechanical properties :
#
#
# Convention : Reuss Voigt Hill
#
# Bulk Modulus (GPa) = 38.23972 46.71591 42.47781
# Shear Modulus (GPa) = 27.03141 37.24614 32.13878
#
# Velocity S-wave (km/s) = 3.27998 3.85015 3.57645
# Velocity P-wave (km/s) = 5.43723 6.19334 5.82756
#
# Compressibility (1/GPa) = 0.02615082
#
# Stress axis : x y z
#
# Youngs Moduli (GPa) = 100.94435 123.90355 39.06923
#
# Poissons Ratio (x) = 0.09247 0.21887
# Poissons Ratio (y) = 0.07534 0.09230
# Poissons Ratio (z) = 0.56550 0.29273
#
# Static dielectric constant tensor:
#      x y z
#    x 1.997240 0.000000 0.000000 
#    y 0.000000 4.422160 0.000000 
#    z 0.000000 0.000000 2.128340 
# 
# From -- ./inp_files/4462.got.cif
#   From: 2010.05.17/outbox.cif.g08.bks.cpg/sg30_3_cif.got.tgz:4462.got - 2010.06.03 17:03:02.
