data_PCOD9342274
_publ_section_title
;
Structure prediction by ZEFSAII (Michael W. Deem and Ramdas Pophale) SiO2 
 PCOD9342274
Probable space group: P N C 2
;
_chemical_formula_sum "Si O2"
_cell_formula_units_Z 30
_cell_length_a 10.327982
_cell_length_b 9.216406
_cell_length_c 13.848662
_cell_angle_alpha 90.000000
_cell_angle_beta 90.000000
_cell_angle_gamma 90.000000
_cell_volume 1318.210862
_symmetry_space_group_name_H-M "P N C 2"
_symmetry_group_IT_number 30
_symmetry_cell_setting 'orthorhombic'
loop_
_space_group_symop_operation_xyz
x,y,z
-x,-y,z
-x,1/2+y,1/2+z
x,1/2-y,1/2+z
loop_
_atom_site_type_symbol
_atom_site_label
_atom_site_fract_x
_atom_site_fract_y
_atom_site_fract_z
Si Si1 0.829610 0.885793 0.668540
Si Si2 0.773618 0.609584 0.385163
Si Si3 0.746555 0.568434 0.690092
Si Si4 0.624399 0.597147 0.884846
Si Si5 0.359582 0.942040 0.560745
Si Si6 0.728110 0.360310 0.512307
Si Si7 0.010258 0.274629 0.993230
Si Si8 0.000000 0.000000 0.317782
O O1 0.850449 0.893315 0.783612
O O2 0.746759 0.736513 0.659306
O O3 0.942997 0.856864 0.590902
O O4 0.743624 0.025947 0.644075
O O5 0.660792 0.732963 0.383525
O O6 0.714844 0.456026 0.416193
O O7 0.879034 0.658391 0.464944
O O8 0.649757 0.546800 0.777728
O O9 0.713505 0.466673 0.602179
O O10 0.881436 0.530318 0.744879
O O11 0.500000 0.500000 0.912684
O O12 0.708776 0.534928 0.973509
O O13 0.365050 0.776853 0.525982
O O14 0.500000 0.000000 0.593880
O O15 0.873500 0.298567 0.513812
O O16 0.992328 0.368432 0.894951
#
# Coordination Sequence:
#
# PCOD9342274 Si02
#       8
#     4   4   4   4   4   4   4   2
#     4  11  22  45  70  98 144 187 232 291 361 417
#     4  11  24  44  70 105 148 181 231 303 348 421
#     4  11  22  40  68 101 134 182 234 288 355 420
#     4  10  21  44  72  96 132 185 235 289 351 414
#     4  11  25  47  69  95 140 191 240 296 353 421
#     4  12  26  41  68 105 143 183 239 288 354 432
#     4  12  22  41  68 102 145 185 230 287 355 429
#     4  12  22  40  68  98 138 192 234 288 358 422
#
# _framework density 22.758120000000002
#
# number of rings (size 3 to 8) (size 9 to 14) (size 15 to 20)
#    0.000    0.800    5.333    2.800    0.000    4.267 
#    4.800    8.000    0.000    0.000    0.000    0.000 
#    0.000    0.000    0.000    0.000    0.000    0.000 
#
# Total GULP energy -167315.024926 kJ/mol
# GULP energy per Si atom -5577.167498 kJ/mol
# Density = 2.270632 g / cm^3
# Si number density = 22.758120 Si / 1000 Ang^3
#
#
#
# Elastic Constant Matrix: (Units=GPa)
#
#
# Indices 1 2 3 4 5 6 
#
# 1 60.8156 19.4171 -7.6799 0.0000 0.0000 0.0000
# 2 19.4171 104.1569 18.3090 0.0000 0.0000 0.0000
# 3 -7.6799 18.3090 97.2553 0.0000 0.0000 0.0000
# 4 0.0000 0.0000 0.0000 74.2660 0.0000 0.0000
# 5 0.0000 0.0000 0.0000 0.0000 17.1253 0.0000
# 6 0.0000 0.0000 0.0000 0.0000 0.0000 20.7119
#
#
#
# Elastic Compliance Matrix: (Units=1/GPa)
#
#
# Indices 1 2 3 4 5 6 
#
# 1 0.017893 -0.003707 0.002111 0.000000 0.000000 0.000000
# 2 -0.003707 0.010697 -0.002307 0.000000 0.000000 0.000000
# 3 0.002111 -0.002307 0.010883 0.000000 0.000000 0.000000
# 4 0.000000 0.000000 0.000000 0.013465 0.000000 0.000000
# 5 0.000000 0.000000 0.000000 0.000000 0.058393 0.000000
# 6 0.000000 0.000000 0.000000 0.000000 0.000000 0.048281
#
#
# Mechanical properties :
#
#
# Convention : Reuss Voigt Hill
#
# Bulk Modulus (GPa) = 31.57696 35.81336 33.69516
# Shear Modulus (GPa) = 28.09391 37.89941 32.99666
#
# Velocity S-wave (km/s) = 3.51729 4.08525 3.81187
# Velocity P-wave (km/s) = 5.51365 6.16628 5.84908
#
# Compressibility (1/GPa) = 0.03166865
#
# Stress axis : x y z
#
# Youngs Moduli (GPa) = 55.88725 93.48099 91.88540
#
# Poissons Ratio (x) = 0.34651 -0.19395
# Poissons Ratio (y) = 0.20716 0.21194
# Poissons Ratio (z) = -0.11797 0.21562
#
# Static dielectric constant tensor:
#      x y z
#    x 1.941470 0.000000 0.000000 
#    y 0.000000 1.864780 0.000000 
#    z 0.000000 0.000000 1.839900 
# 
# From -- ./inp_files/5500.got.cif
#   From: 2010.05.17/outbox.cif.g08.bks.cpg/sg30_3_cif.got.tgz:5500.got - 2010.06.03 17:03:02.
