data_PCOD9342753
_publ_section_title
;
Structure prediction by ZEFSAII (Michael W. Deem and Ramdas Pophale) SiO2 
 PCOD9342753
Probable space group: P M N 21
;
_chemical_formula_sum "Si O2"
_cell_formula_units_Z 32
_cell_length_a 7.246514
_cell_length_b 7.534641
_cell_length_c 21.762897
_cell_angle_alpha 90.000000
_cell_angle_beta 90.000000
_cell_angle_gamma 90.000000
_cell_volume 1188.251597
_symmetry_space_group_name_H-M "P M N 21"
_symmetry_group_IT_number 31
_symmetry_cell_setting 'orthorhombic'
loop_
_space_group_symop_operation_xyz
x,y,z
1/2-x,-y,1/2+z
-x,y,z
1/2+x,-y,1/2+z
loop_
_atom_site_type_symbol
_atom_site_label
_atom_site_fract_x
_atom_site_fract_y
_atom_site_fract_z
Si Si1 0.708028 0.804146 0.848300
Si Si2 0.275377 0.171222 0.883846
Si Si3 0.775247 0.554522 0.488972
Si Si4 0.273937 0.453657 0.788539
Si Si5 0.277531 0.042547 0.215923
Si Si6 0.707458 0.801194 0.032109
Si Si7 0.224769 0.831472 0.586106
Si Si8 0.710126 0.343522 0.662953
O O1 0.500000 0.770011 0.870640
O O2 0.790012 0.612690 0.832823
O O3 0.788595 0.967602 0.887340
O O4 0.700894 0.888825 0.779770
O O5 0.500000 0.162231 0.884774
O O6 0.220135 0.270415 0.821269
O O7 0.219523 0.307384 0.936657
O O8 0.711085 0.350600 0.488061
O O9 0.000000 0.545665 0.487003
O O10 0.720393 0.655041 0.551240
O O11 0.500000 0.459734 0.787077
O O12 0.211687 0.465949 0.717738
O O13 0.500000 0.042134 0.220147
O O14 0.220529 0.158066 0.156730
O O15 0.212613 0.847369 0.196966
O O16 0.500000 0.839966 0.010654
O O17 0.789647 0.991969 0.049444
O O18 0.697047 0.698586 0.098081
O O19 0.000000 0.839937 0.585266
O O20 0.500000 0.393802 0.650062
#
# Coordination Sequence:
#
# PCOD9342753 Si02
#       8
#     4   4   4   4   4   4   4   4
#     4  10  19  32  51  74 103 135 168 211 257 304
#     4   9  17  31  49  73 102 132 171 214 255 300
#     4   9  17  29  49  73 101 135 167 208 257 300
#     4   9  18  30  47  75 104 131 169 212 252 302
#     4  10  19  32  51  76 107 136 168 211 259 311
#     4   9  18  31  48  73 103 131 166 211 255 303
#     4   8  16  29  43  68 101 127 159 203 249 298
#     4  10  18  32  52  74 107 139 168 210 256 306
#
# _framework density 26.930326000000001
#
# number of rings (size 3 to 8) (size 9 to 14) (size 15 to 20)
#    0.000    2.750    1.250    1.500    1.750    1.000 
#    0.000    5.625    0.000    0.750    0.000    3.500 
#    0.000    0.000    0.000    0.000    0.000    0.000 
#
# Total GULP energy -178934.083353 kJ/mol
# GULP energy per Si atom -5591.690105 kJ/mol
# Density = 2.686903 g / cm^3
# Si number density = 26.930326 Si / 1000 Ang^3
#
#
#
# Elastic Constant Matrix: (Units=GPa)
#
#
# Indices 1 2 3 4 5 6 
#
# 1 139.8411 -6.3028 -2.5290 0.0000 0.0000 0.0000
# 2 -6.3028 164.9208 13.2286 0.0000 0.0000 0.0000
# 3 -2.5290 13.2286 67.8472 0.0000 0.0000 0.0000
# 4 0.0000 0.0000 0.0000 58.6074 0.0000 0.0000
# 5 0.0000 0.0000 0.0000 0.0000 7.6407 0.0000
# 6 0.0000 0.0000 0.0000 0.0000 0.0000 -9.9786
#
#
#
# Elastic Compliance Matrix: (Units=1/GPa)
#
#
# Indices 1 2 3 4 5 6 
#
# 1 0.007166 0.000256 0.000217 0.000000 0.000000 0.000000
# 2 0.000256 0.006169 -0.001193 0.000000 0.000000 0.000000
# 3 0.000217 -0.001193 0.014980 0.000000 0.000000 0.000000
# 4 0.000000 0.000000 0.000000 0.017063 0.000000 0.000000
# 5 0.000000 0.000000 0.000000 0.000000 0.130879 0.000000
# 6 0.000000 0.000000 0.000000 0.000000 0.000000 -0.100214
#
#
# Mechanical properties :
#
#
# Convention : Reuss Voigt Hill
#
# Bulk Modulus (GPa) = 37.20805 42.37809 39.79307
# Shear Modulus (GPa) = 57.84326 35.80137 46.82231
#
# Velocity S-wave (km/s) = 4.63956 3.65006 4.17423
# Velocity P-wave (km/s) = 6.52281 5.79088 6.16771
#
# Compressibility (1/GPa) = 0.02687591
#
# Stress axis : x y z
#
# Youngs Moduli (GPa) = 139.53893 162.09999 66.75676
#
# Poissons Ratio (x) = -0.04157 -0.01449
# Poissons Ratio (y) = -0.03579 0.07966
# Poissons Ratio (z) = -0.03030 0.19343
#
# Static dielectric constant tensor:
#      x y z
#    x 2.005830 0.000000 0.000000 
#    y 0.000000 2.085050 0.000000 
#    z 0.000000 0.000000 2.132340 
# 
# From -- ./inp_files/6500.got.cif
#   From: 2010.05.17/outbox.cif.g08.bks.cpg/sg31_4_cif.got.tgz:6500.got - 2010.06.03 17:08:30.
