data_PCOD9342373
_publ_section_title
;
Structure prediction by ZEFSAII (Michael W. Deem and Ramdas Pophale) SiO2 
 PCOD9342373
Probable space group: P N C 2
;
_chemical_formula_sum "Si O2"
_cell_formula_units_Z 32
_cell_length_a 14.085721
_cell_length_b 11.840537
_cell_length_c 9.118930
_cell_angle_alpha 90.000000
_cell_angle_beta 90.000000
_cell_angle_gamma 90.000000
_cell_volume 1520.877949
_symmetry_space_group_name_H-M "P N C 2"
_symmetry_group_IT_number 30
_symmetry_cell_setting 'orthorhombic'
loop_
_space_group_symop_operation_xyz
x,y,z
-x,-y,z
-x,1/2+y,1/2+z
x,1/2-y,1/2+z
loop_
_atom_site_type_symbol
_atom_site_label
_atom_site_fract_x
_atom_site_fract_y
_atom_site_fract_z
Si Si1 0.333378 0.661511 0.526290
Si Si2 0.094895 0.304230 0.601568
Si Si3 0.280090 0.095075 0.982436
Si Si4 0.219911 0.404926 0.150845
Si Si5 0.166622 0.838489 0.606990
Si Si6 0.405105 0.304232 0.031713
Si Si7 0.964708 0.267240 0.855993
Si Si8 0.464709 0.732763 0.777287
O O1 0.297533 0.536883 0.494347
O O2 0.250000 0.750000 0.566640
O O3 0.404503 0.659265 0.664253
O O4 0.391928 0.704367 0.385354
O O5 0.191075 0.373050 0.584009
O O6 0.130380 0.173523 0.610172
O O7 0.036612 0.330596 0.747532
O O8 0.027053 0.314646 0.460351
O O9 0.250002 0.125589 0.816640
O O10 0.369620 0.173524 0.023112
O O11 0.202467 0.536884 0.138936
O O12 0.308924 0.373051 0.049269
O O13 0.108071 0.795631 0.747924
O O14 0.095498 0.840738 0.469025
O O15 0.472946 0.314650 0.172930
O O16 0.463388 0.330594 0.885748
#
# Coordination Sequence:
#
# PCOD9342373 Si02
#       8
#     4   4   4   4   4   4   4   4
#     4  11  24  46  65  97 138 182 219 270 346 403
#     4  10  22  44  68 103 129 172 226 283 328 396
#     4  11  22  42  73  95 136 178 223 270 349 396
#     4  11  22  42  73  95 136 178 223 270 349 396
#     4  11  24  46  65  97 138 182 219 270 346 403
#     4  10  22  44  68 103 129 172 226 283 328 396
#     4  10  22  43  68  97 136 168 227 275 325 398
#     4  10  22  43  68  97 136 168 227 275 325 398
#
# _framework density 21.040479999999999
#
# number of rings (size 3 to 8) (size 9 to 14) (size 15 to 20)
#    0.000    1.500    2.500    2.250    0.000    4.000 
#   18.000    2.500    0.000    0.000    0.000    0.000 
#    0.000    0.000    0.000    0.000    0.000    0.000 
#
# Total GULP energy -178906.294272 kJ/mol
# GULP energy per Si atom -5590.821696 kJ/mol
# Density = 2.099259 g / cm^3
# Si number density = 21.040480 Si / 1000 Ang^3
#
#
#
# Elastic Constant Matrix: (Units=GPa)
#
#
# Indices 1 2 3 4 5 6 
#
# 1 97.3995 16.8859 43.5507 0.0000 0.0000 0.0000
# 2 16.8859 64.7075 8.5705 0.0000 0.0000 0.0000
# 3 43.5507 8.5705 132.2302 0.0000 0.0000 0.0000
# 4 0.0000 0.0000 0.0000 9.8417 0.0000 0.0000
# 5 0.0000 0.0000 0.0000 0.0000 47.8740 0.0000
# 6 0.0000 0.0000 0.0000 0.0000 0.0000 9.9198
#
#
#
# Elastic Compliance Matrix: (Units=1/GPa)
#
#
# Indices 1 2 3 4 5 6 
#
# 1 0.012504 -0.002741 -0.003941 0.000000 0.000000 0.000000
# 2 -0.002741 0.016189 -0.000146 0.000000 0.000000 0.000000
# 3 -0.003941 -0.000146 0.008870 0.000000 0.000000 0.000000
# 4 0.000000 0.000000 0.000000 0.101609 0.000000 0.000000
# 5 0.000000 0.000000 0.000000 0.000000 0.020888 0.000000
# 6 0.000000 0.000000 0.000000 0.000000 0.000000 0.100808
#
#
# Mechanical properties :
#
#
# Convention : Reuss Voigt Hill
#
# Bulk Modulus (GPa) = 41.82964 48.03907 44.93435
# Shear Modulus (GPa) = 17.69951 28.54910 23.12430
#
# Velocity S-wave (km/s) = 2.90351 3.68756 3.31877
# Velocity P-wave (km/s) = 5.58249 6.40407 6.00734
#
# Compressibility (1/GPa) = 0.02390649
#
# Stress axis : x y z
#
# Youngs Moduli (GPa) = 79.97299 61.77085 112.74033
#
# Poissons Ratio (x) = 0.16932 0.44427
# Poissons Ratio (y) = 0.21922 0.01651
# Poissons Ratio (z) = 0.31515 0.00905
#
# Static dielectric constant tensor:
#      x y z
#    x 1.793420 0.000000 0.000000 
#    y 0.000000 1.715560 0.000000 
#    z 0.000000 0.000000 1.754170 
# 
# From -- ./inp_files/2693.got.cif
#   From: 2010.05.17/outbox.cif.g08.bks.cpg/sg30_2_cif.got.tgz:2693.got - 2010.06.03 17:03:02.
