data_PCOD9342190
_publ_section_title
;
Structure prediction by ZEFSAII (Michael W. Deem and Ramdas Pophale) SiO2 
 PCOD9342190
Probable space group: P N C 2
;
_chemical_formula_sum "Si O2"
_cell_formula_units_Z 24
_cell_length_a 8.221523
_cell_length_b 25.479762
_cell_length_c 5.022615
_cell_angle_alpha 90.000000
_cell_angle_beta 90.000000
_cell_angle_gamma 90.000000
_cell_volume 1052.149692
_symmetry_space_group_name_H-M "P N C 2"
_symmetry_group_IT_number 30
_symmetry_cell_setting 'orthorhombic'
loop_
_space_group_symop_operation_xyz
x,y,z
-x,-y,z
-x,1/2+y,1/2+z
x,1/2-y,1/2+z
loop_
_atom_site_type_symbol
_atom_site_label
_atom_site_fract_x
_atom_site_fract_y
_atom_site_fract_z
Si Si1 0.760563 0.100460 0.356130
Si Si2 0.731506 0.900532 0.595465
Si Si3 0.855786 0.217588 0.497977
Si Si4 0.059825 0.559803 0.338204
Si Si5 0.563664 0.558903 0.615435
Si Si6 0.249265 0.217644 0.458829
O O1 0.788141 0.160868 0.428682
O O2 0.581818 0.091917 0.242898
O O3 0.797464 0.066036 0.619372
O O4 0.881032 0.082163 0.119500
O O5 0.911859 0.906595 0.715406
O O6 0.710939 0.933806 0.324952
O O7 0.693262 0.840249 0.530325
O O8 0.615513 0.921997 0.826286
O O9 0.806974 0.262162 0.287191
O O10 0.052247 0.214443 0.474548
O O11 0.000000 0.500000 0.361838
O O12 0.500000 0.500000 0.602985
O O13 0.299175 0.238314 0.171171
#
# Coordination Sequence:
#
# PCOD9342190 Si02
#       6
#     4   4   4   4   4   4
#     4  12  24  43  65  97 131 173 220 271 332 392
#     4  12  24  43  67  97 129 175 222 271 330 393
#     4  10  21  38  64  95 127 168 214 271 332 387
#     4  12  24  41  68  98 128 166 231 282 315 383
#     4  12  26  45  66  94 140 182 213 265 343 399
#     4  10  21  38  64  97 127 166 214 276 332 384
#
# _framework density 22.810442999999999
#
# number of rings (size 3 to 8) (size 9 to 14) (size 15 to 20)
#    0.000    0.667    1.667    7.000    4.667    0.000 
#    0.000    5.000    0.000    0.000    0.000    0.000 
#    0.000    0.000    0.000    0.000    0.000    0.000 
#
# Total GULP energy -134526.545181 kJ/mol
# GULP energy per Si atom -5605.272716 kJ/mol
# Density = 2.275853 g / cm^3
# Si number density = 22.810443 Si / 1000 Ang^3
#
#
#
# Elastic Constant Matrix: (Units=GPa)
#
#
# Indices 1 2 3 4 5 6 
#
# 1 37.4388 0.3683 8.3936 0.0000 0.0000 0.0000
# 2 0.3683 102.7473 35.1416 0.0000 0.0000 0.0000
# 3 8.3936 35.1416 97.4711 0.0000 0.0000 0.0000
# 4 0.0000 0.0000 0.0000 44.6347 0.0000 0.0000
# 5 0.0000 0.0000 0.0000 0.0000 55.5539 0.0000
# 6 0.0000 0.0000 0.0000 0.0000 0.0000 28.1284
#
#
#
# Elastic Compliance Matrix: (Units=1/GPa)
#
#
# Indices 1 2 3 4 5 6 
#
# 1 0.027294 0.000805 -0.002641 0.000000 0.000000 0.000000
# 2 0.000805 0.011125 -0.004080 0.000000 0.000000 0.000000
# 3 -0.002641 -0.004080 0.011958 0.000000 0.000000 0.000000
# 4 0.000000 0.000000 0.000000 0.022404 0.000000 0.000000
# 5 0.000000 0.000000 0.000000 0.000000 0.018001 0.000000
# 6 0.000000 0.000000 0.000000 0.000000 0.000000 0.035551
#
#
# Mechanical properties :
#
#
# Convention : Reuss Voigt Hill
#
# Bulk Modulus (GPa) = 25.94302 36.16269 31.05285
# Shear Modulus (GPa) = 33.10956 38.58033 35.84495
#
# Velocity S-wave (km/s) = 3.81400 4.11706 3.96842
# Velocity P-wave (km/s) = 5.54919 6.20389 5.88565
#
# Compressibility (1/GPa) = 0.03854601
#
# Stress axis : x y z
#
# Youngs Moduli (GPa) = 36.63760 89.88520 83.62618
#
# Poissons Ratio (x) = -0.07239 0.22084
# Poissons Ratio (y) = -0.02951 0.34123
# Poissons Ratio (z) = 0.09675 0.36677
#
# Static dielectric constant tensor:
#      x y z
#    x 1.875280 0.000000 0.000000 
#    y 0.000000 1.788730 0.000000 
#    z 0.000000 0.000000 1.806150 
# 
# From -- ./inp_files/411.got.cif
#   From: 2010.05.17/outbox.cif.g08.bks.cpg/sg30_1_cif.got.tgz:411.got - 2010.06.03 17:03:02.
