data_PCOD9342890
_publ_section_title
;
Structure prediction by ZEFSAII (Michael W. Deem and Ramdas Pophale) SiO2 
 PCOD9342890
Probable space group: P M N 21
;
_chemical_formula_sum "Si O2"
_cell_formula_units_Z 32
_cell_length_a 7.723413
_cell_length_b 12.835615
_cell_length_c 12.704488
_cell_angle_alpha 90.000000
_cell_angle_beta 90.000000
_cell_angle_gamma 90.000000
_cell_volume 1259.456315
_symmetry_space_group_name_H-M "P M N 21"
_symmetry_group_IT_number 31
_symmetry_cell_setting 'orthorhombic'
loop_
_space_group_symop_operation_xyz
x,y,z
1/2-x,-y,1/2+z
-x,y,z
1/2+x,-y,1/2+z
loop_
_atom_site_type_symbol
_atom_site_label
_atom_site_fract_x
_atom_site_fract_y
_atom_site_fract_z
Si Si1 0.208811 0.164990 0.978790
Si Si2 0.303030 0.889042 0.249976
Si Si3 0.296552 0.388915 0.977368
Si Si4 0.701249 0.658222 0.790586
Si Si5 0.287964 0.431296 0.741430
Si Si6 0.199397 0.117354 0.302355
Si Si7 0.299223 0.065188 0.526454
Si Si8 0.696126 0.386804 0.524134
O O1 0.275930 0.155703 0.857812
O O2 0.266824 0.275161 0.024415
O O3 0.000000 0.167068 0.976380
O O4 0.258772 0.056345 0.033925
O O5 0.500000 0.853830 0.242580
O O6 0.216978 0.876984 0.136922
O O7 0.297276 0.013648 0.270083
O O8 0.500000 0.414810 0.981997
O O9 0.242294 0.384650 0.854357
O O10 0.194815 0.486563 0.023215
O O11 0.500000 0.661714 0.759437
O O12 0.777009 0.551354 0.744797
O O13 0.774600 0.772028 0.766783
O O14 0.709328 0.644133 0.917492
O O15 0.500000 0.432984 0.736278
O O16 0.227980 0.367323 0.639896
O O17 0.199985 0.116460 0.429686
O O18 0.000000 0.107128 0.264879
O O19 0.500000 0.063641 0.495469
O O20 0.500000 0.346163 0.516281
#
# Coordination Sequence:
#
# PCOD9342890 Si02
#       8
#     4   4   4   4   4   4   4   4
#     4   9  20  37  54  76 106 139 175 217 264 314
#     4  10  21  37  56  80 110 140 177 225 270 321
#     4  10  20  35  54  77 105 136 172 215 262 315
#     4   9  19  36  54  74 104 139 174 215 262 314
#     4   8  17  34  52  72 101 135 169 206 254 310
#     4  10  20  35  56  80 107 142 181 223 272 321
#     4  10  21  37  56  78 108 144 181 223 268 319
#     4  10  19  33  54  77 103 137 175 216 260 310
#
# _framework density 25.407788
#
# number of rings (size 3 to 8) (size 9 to 14) (size 15 to 20)
#    0.000    2.500    0.000    3.375    0.000    6.000 
#    0.000   11.250    0.000    0.000    0.000    0.000 
#    0.000    0.000    0.000    0.000    0.000    0.000 
#
# Total GULP energy -178895.677886 kJ/mol
# GULP energy per Si atom -5590.489934 kJ/mol
# Density = 2.534996 g / cm^3
# Si number density = 25.407788 Si / 1000 Ang^3
#
#
#
# Elastic Constant Matrix: (Units=GPa)
#
#
# Indices 1 2 3 4 5 6 
#
# 1 59.5874 -7.3523 -7.9869 0.0000 0.0000 0.0000
# 2 -7.3523 137.9606 -19.0342 0.0000 0.0000 0.0000
# 3 -7.9869 -19.0342 87.5287 0.0000 0.0000 0.0000
# 4 0.0000 0.0000 0.0000 -11.3056 0.0000 0.0000
# 5 0.0000 0.0000 0.0000 0.0000 50.3461 0.0000
# 6 0.0000 0.0000 0.0000 0.0000 0.0000 -16.3596
#
#
#
# Elastic Compliance Matrix: (Units=1/GPa)
#
#
# Indices 1 2 3 4 5 6 
#
# 1 0.017170 0.001166 0.001820 0.000000 0.000000 0.000000
# 2 0.001166 0.007552 0.001749 0.000000 0.000000 0.000000
# 3 0.001820 0.001749 0.011971 0.000000 0.000000 0.000000
# 4 0.000000 0.000000 0.000000 -0.088451 0.000000 0.000000
# 5 0.000000 0.000000 0.000000 0.000000 0.019863 0.000000
# 6 0.000000 0.000000 0.000000 0.000000 0.000000 -0.061126
#
#
# Mechanical properties :
#
#
# Convention : Reuss Voigt Hill
#
# Bulk Modulus (GPa) = 21.66218 24.03665 22.84941
# Shear Modulus (GPa) = -57.40229 25.83283 -15.78473
#
# Velocity S-wave (km/s) = -4.75830 3.19208 -2.49520
# Velocity P-wave (km/s) = 4.65234 4.80278 0.84333
#
# Compressibility (1/GPa) = 0.04616340
#
# Stress axis : x y z
#
# Youngs Moduli (GPa) = 58.24124 132.41778 83.53382
#
# Poissons Ratio (x) = -0.15442 -0.15206
# Poissons Ratio (y) = -0.06792 -0.14607
# Poissons Ratio (z) = -0.10602 -0.23155
#
# Static dielectric constant tensor:
#      x y z
#    x 1.890320 0.000000 0.000000 
#    y 0.000000 2.008710 0.000000 
#    z 0.000000 0.000000 2.035710 
# 
# From -- ./inp_files/5111.got.cif
#   From: 2010.05.17/outbox.cif.g08.bks.cpg/sg31_3_cif.got.tgz:5111.got - 2010.06.03 17:08:30.
