data_PCOD9342400
_publ_section_title
;
Structure prediction by ZEFSAII (Michael W. Deem and Ramdas Pophale) SiO2 
 PCOD9342400
Probable space group: P N C 2
;
_chemical_formula_sum "Si O2"
_cell_formula_units_Z 22
_cell_length_a 15.114037
_cell_length_b 5.081297
_cell_length_c 11.005933
_cell_angle_alpha 90.000000
_cell_angle_beta 90.000000
_cell_angle_gamma 90.000000
_cell_volume 845.243667
_symmetry_space_group_name_H-M "P N C 2"
_symmetry_group_IT_number 30
_symmetry_cell_setting 'orthorhombic'
loop_
_space_group_symop_operation_xyz
x,y,z
-x,-y,z
-x,1/2+y,1/2+z
x,1/2-y,1/2+z
loop_
_atom_site_type_symbol
_atom_site_label
_atom_site_fract_x
_atom_site_fract_y
_atom_site_fract_z
Si Si1 0.324194 0.278030 0.127460
Si Si2 0.063086 0.249718 0.667662
Si Si3 0.405892 0.595176 0.812708
Si Si4 0.894956 0.552967 0.910547
Si Si5 0.260185 0.769365 0.999962
Si Si6 0.500000 0.500000 0.128398
O O1 0.273264 0.551606 0.107192
O O2 0.422726 0.322530 0.071417
O O3 0.500000 0.000000 0.362429
O O4 0.350346 0.148027 0.255952
O O5 0.107129 0.204256 0.537812
O O6 0.000000 0.500000 0.650619
O O7 0.126136 0.303593 0.783299
O O8 0.000000 0.000000 0.694852
O O9 0.272774 0.446715 0.555507
O O10 0.440091 0.799972 0.709664
O O11 0.341356 0.728796 0.907832
O O12 0.830807 0.304964 0.931855
O O13 0.000000 0.500000 0.898250
#
# Coordination Sequence:
#
# PCOD9342400 Si02
#       6
#     4   4   4   4   4   2
#     4  11  26  46  68 110 144 196 245 317 377 470
#     4  10  22  44  78 108 148 203 268 320 398 468
#     4  10  25  44  73 105 147 191 250 310 387 465
#     4  10  25  50  75 113 155 212 260 330 393 465
#     4  12  28  43  75 109 151 197 259 318 387 465
#     4  10  22  48  74 100 158 192 246 316 394 474
#
# _framework density 26.027995000000001
#
# number of rings (size 3 to 8) (size 9 to 14) (size 15 to 20)
#    0.000    1.455    1.818    0.545    8.909    5.818 
#    6.545    0.000    0.000    0.000    0.000    0.000 
#    0.000    0.000    0.000    0.000    0.000    0.000 
#
# Total GULP energy -123063.605554 kJ/mol
# GULP energy per Si atom -5593.800252 kJ/mol
# Density = 2.596875 g / cm^3
# Si number density = 26.027995 Si / 1000 Ang^3
#
#
#
# Elastic Constant Matrix: (Units=GPa)
#
#
# Indices 1 2 3 4 5 6 
#
# 1 119.5741 37.5441 15.9794 0.0000 0.0000 0.0000
# 2 37.5441 134.4865 12.4437 0.0000 0.0000 0.0000
# 3 15.9794 12.4437 115.5045 0.0000 0.0000 0.0000
# 4 0.0000 0.0000 0.0000 23.4854 0.0000 0.0000
# 5 0.0000 0.0000 0.0000 0.0000 -5.6535 0.0000
# 6 0.0000 0.0000 0.0000 0.0000 0.0000 53.9974
#
#
#
# Elastic Compliance Matrix: (Units=1/GPa)
#
#
# Indices 1 2 3 4 5 6 
#
# 1 0.009283 -0.002498 -0.001015 0.000000 0.000000 0.000000
# 2 -0.002498 0.008183 -0.000536 0.000000 0.000000 0.000000
# 3 -0.001015 -0.000536 0.008856 0.000000 0.000000 0.000000
# 4 0.000000 0.000000 0.000000 0.042580 0.000000 0.000000
# 5 0.000000 0.000000 0.000000 0.000000 -0.176882 0.000000
# 6 0.000000 0.000000 0.000000 0.000000 0.000000 0.018519
#
#
# Mechanical properties :
#
#
# Convention : Reuss Voigt Hill
#
# Bulk Modulus (GPa) = 54.87325 55.72217 55.29771
# Shear Modulus (GPa) = -66.41013 34.60572 -15.90220
#
# Velocity S-wave (km/s) = -5.05671 3.65027 -2.47445
# Velocity P-wave (km/s) = 3.60077 6.26266 3.62322
#
# Compressibility (1/GPa) = 0.01822382
#
# Stress axis : x y z
#
# Youngs Moduli (GPa) = 107.72544 122.21188 112.91958
#
# Poissons Ratio (x) = 0.30523 0.11463
# Poissons Ratio (y) = 0.26905 0.06053
# Poissons Ratio (z) = 0.10936 0.06551
#
# Static dielectric constant tensor:
#      x y z
#    x 2.066110 0.000000 0.000000 
#    y 0.000000 2.052820 0.000000 
#    z 0.000000 0.000000 2.195810 
# 
# From -- ./inp_files/4295.got.cif
#   From: 2010.05.17/outbox.cif.g08.bks.cpg/sg30_3_cif.got.tgz:4295.got - 2010.06.03 17:03:02.
