data_PCOD9342986
_publ_section_title
;
Structure prediction by ZEFSAII (Michael W. Deem and Ramdas Pophale) SiO2 
 PCOD9342986
Probable space group: P M N 21
;
_chemical_formula_sum "Si O2"
_cell_formula_units_Z 24
_cell_length_a 7.637372
_cell_length_b 10.270526
_cell_length_c 14.538510
_cell_angle_alpha 90.000000
_cell_angle_beta 90.000000
_cell_angle_gamma 90.000000
_cell_volume 1140.398219
_symmetry_space_group_name_H-M "P M N 21"
_symmetry_group_IT_number 31
_symmetry_cell_setting 'orthorhombic'
loop_
_space_group_symop_operation_xyz
x,y,z
1/2-x,-y,1/2+z
-x,y,z
1/2+x,-y,1/2+z
loop_
_atom_site_type_symbol
_atom_site_label
_atom_site_fract_x
_atom_site_fract_y
_atom_site_fract_z
Si Si1 0.211503 0.891395 0.729290
Si Si2 0.787427 0.138824 0.846810
Si Si3 0.797344 0.597932 0.249113
Si Si4 0.295714 0.341293 0.356158
Si Si5 0.714826 0.280908 0.558603
Si Si6 0.705929 0.983558 0.536120
O O1 0.278926 0.774780 0.793261
O O2 0.271319 0.893296 0.624589
O O3 0.000000 0.886581 0.728561
O O4 0.264044 0.028630 0.773666
O O5 0.717504 0.276919 0.814782
O O6 0.000000 0.148016 0.847926
O O7 0.724216 0.086222 0.945211
O O8 0.716195 0.474985 0.300628
O O9 0.723796 0.642959 0.149728
O O10 0.000000 0.563828 0.235381
O O11 0.500000 0.308196 0.367738
O O12 0.228418 0.342705 0.461015
O O13 0.500000 0.281440 0.564740
O O14 0.774182 0.129475 0.556193
O O15 0.500000 0.002667 0.518385
#
# Coordination Sequence:
#
# PCOD9342986 Si02
#       6
#     4   4   4   4   4   4
#     4  10  20  35  58  87 114 143 188 241 284 326
#     4  10  20  36  59  85 112 148 192 229 278 346
#     4  11  23  38  58  86 118 148 189 240 287 331
#     4  10  21  40  61  81 114 156 193 229 281 347
#     4   9  18  36  60  81 107 150 192 230 279 338
#     4  10  19  35  60  86 113 151 194 231 279 342
#
# _framework density 21.045280000000002
#
# number of rings (size 3 to 8) (size 9 to 14) (size 15 to 20)
#    0.000    2.000    3.333    0.500    0.000    2.667 
#    0.000    7.500    0.000    0.000    0.000    0.000 
#    0.000    0.000    0.000    0.000    0.000    0.000 
#
# Total GULP energy -133997.230539 kJ/mol
# GULP energy per Si atom -5583.217939 kJ/mol
# Density = 2.099738 g / cm^3
# Si number density = 21.045280 Si / 1000 Ang^3
#
#
#
# Elastic Constant Matrix: (Units=GPa)
#
#
# Indices 1 2 3 4 5 6 
#
# 1 35.0422 -12.1613 -7.6169 0.0000 0.0000 0.0000
# 2 -12.1613 90.6512 32.6299 0.0000 0.0000 0.0000
# 3 -7.6169 32.6299 148.3758 0.0000 0.0000 0.0000
# 4 0.0000 0.0000 0.0000 33.0384 0.0000 0.0000
# 5 0.0000 0.0000 0.0000 0.0000 14.5056 0.0000
# 6 0.0000 0.0000 0.0000 0.0000 0.0000 -29.1011
#
#
#
# Elastic Compliance Matrix: (Units=1/GPa)
#
#
# Indices 1 2 3 4 5 6 
#
# 1 0.029999 0.003769 0.000711 0.000000 0.000000 0.000000
# 2 0.003769 0.012453 -0.002545 0.000000 0.000000 0.000000
# 3 0.000711 -0.002545 0.007336 0.000000 0.000000 0.000000
# 4 0.000000 0.000000 0.000000 0.030268 0.000000 0.000000
# 5 0.000000 0.000000 0.000000 0.000000 0.068939 0.000000
# 6 0.000000 0.000000 0.000000 0.000000 0.000000 -0.034363
#
#
# Mechanical properties :
#
#
# Convention : Reuss Voigt Hill
#
# Bulk Modulus (GPa) = 18.63663 33.30805 25.97234
# Shear Modulus (GPa) = 38.86559 21.10309 29.98434
#
# Velocity S-wave (km/s) = 4.30206 3.17005 3.77869
# Velocity P-wave (km/s) = 5.79238 5.40927 5.60410
#
# Compressibility (1/GPa) = 0.05365776
#
# Stress axis : x y z
#
# Youngs Moduli (GPa) = 33.33392 80.30200 136.31656
#
# Poissons Ratio (x) = -0.30262 -0.09696
# Poissons Ratio (y) = -0.12562 0.34694
# Poissons Ratio (z) = -0.02371 0.20438
#
# Static dielectric constant tensor:
#      x y z
#    x 1.875280 0.000000 0.000000 
#    y 0.000000 1.705190 0.000000 
#    z 0.000000 0.000000 1.757570 
# 
# From -- ./inp_files/3925.got.cif
#   From: 2010.05.17/outbox.cif.g08.bks.cpg/sg31_2_cif.got.tgz:3925.got - 2010.06.03 17:08:30.
