data_PCOD9342372
_publ_section_title
;
Structure prediction by ZEFSAII (Michael W. Deem and Ramdas Pophale) SiO2 
 PCOD9342372
Probable space group: P N C 2
;
_chemical_formula_sum "Si O2"
_cell_formula_units_Z 16
_cell_length_a 8.478818
_cell_length_b 7.086363
_cell_length_c 9.507518
_cell_angle_alpha 90.000000
_cell_angle_beta 90.000000
_cell_angle_gamma 90.000000
_cell_volume 571.249542
_symmetry_space_group_name_H-M "P N C 2"
_symmetry_group_IT_number 30
_symmetry_cell_setting 'orthorhombic'
loop_
_space_group_symop_operation_xyz
x,y,z
-x,-y,z
-x,1/2+y,1/2+z
x,1/2-y,1/2+z
loop_
_atom_site_type_symbol
_atom_site_label
_atom_site_fract_x
_atom_site_fract_y
_atom_site_fract_z
Si Si1 0.257197 0.858250 0.430530
Si Si2 0.250005 0.206102 0.837299
Si Si3 0.443434 0.190838 0.086888
Si Si4 0.059290 0.718946 0.681432
O O1 0.420375 0.790759 0.497965
O O2 0.113714 0.804704 0.534871
O O3 0.211802 0.766788 0.281735
O O4 0.254233 0.079728 0.397488
O O5 0.311750 0.106991 0.977570
O O6 0.369858 0.183108 0.708243
O O7 0.082850 0.180610 0.763849
O O8 0.500000 0.000000 0.161351
O O9 0.000000 0.500000 0.666585
#
# Coordination Sequence:
#
# PCOD9342372 Si02
#       4
#     4   4   4   4
#     4  11  23  44  72 101 138 183 232 288 349 415
#     4  11  25  45  68 100 139 181 234 290 345 414
#     4  12  24  42  66  99 139 183 232 288 344 412
#     4  10  22  43  68 100 136 179 232 292 348 413
#
# _framework density 28.008773999999999
#
# number of rings (size 3 to 8) (size 9 to 14) (size 15 to 20)
#    0.000    1.000    0.000    8.250    0.000    4.000 
#    0.000    6.250    0.000    0.000    0.000    0.000 
#    0.000    0.000    0.000    0.000    0.000    0.000 
#
# Total GULP energy -89840.431768 kJ/mol
# GULP energy per Si atom -5615.026986 kJ/mol
# Density = 2.794503 g / cm^3
# Si number density = 28.008774 Si / 1000 Ang^3
#
#
#
# Elastic Constant Matrix: (Units=GPa)
#
#
# Indices 1 2 3 4 5 6 
#
# 1 141.7183 45.6688 45.3786 0.0000 0.0000 0.0000
# 2 45.6688 96.9702 21.1457 0.0000 0.0000 0.0000
# 3 45.3786 21.1457 161.5333 0.0000 0.0000 0.0000
# 4 0.0000 0.0000 0.0000 42.4129 0.0000 0.0000
# 5 0.0000 0.0000 0.0000 0.0000 81.2622 0.0000
# 6 0.0000 0.0000 0.0000 0.0000 0.0000 45.7094
#
#
#
# Elastic Compliance Matrix: (Units=1/GPa)
#
#
# Indices 1 2 3 4 5 6 
#
# 1 0.008911 -0.003758 -0.002011 0.000000 0.000000 0.000000
# 2 -0.003758 0.012200 -0.000541 0.000000 0.000000 0.000000
# 3 -0.002011 -0.000541 0.006827 0.000000 0.000000 0.000000
# 4 0.000000 0.000000 0.000000 0.023578 0.000000 0.000000
# 5 0.000000 0.000000 0.000000 0.000000 0.012306 0.000000
# 6 0.000000 0.000000 0.000000 0.000000 0.000000 0.021877
#
#
# Mechanical properties :
#
#
# Convention : Reuss Voigt Hill
#
# Bulk Modulus (GPa) = 65.28952 69.40091 67.34522
# Shear Modulus (GPa) = 48.34326 53.07879 50.71103
#
# Velocity S-wave (km/s) = 4.15903 4.35797 4.25966
# Velocity P-wave (km/s) = 6.81354 7.08199 6.94906
#
# Compressibility (1/GPa) = 0.01531639
#
# Stress axis : x y z
#
# Youngs Moduli (GPa) = 112.21539 81.96400 146.48575
#
# Poissons Ratio (x) = 0.30804 0.29465
# Poissons Ratio (y) = 0.42174 0.07930
# Poissons Ratio (z) = 0.22572 0.04437
#
# Static dielectric constant tensor:
#      x y z
#    x 2.240770 0.000000 0.000000 
#    y 0.000000 2.232930 0.000000 
#    z 0.000000 0.000000 2.070350 
# 
# From -- ./inp_files/1555.got.cif
#   From: 2010.05.17/outbox.cif.g08.bks.cpg/sg30_1_cif.got.tgz:1555.got - 2010.06.03 17:03:02.
