data_PCOD9342633
_publ_section_title
;
Structure prediction by ZEFSAII (Michael W. Deem and Ramdas Pophale) SiO2 
 PCOD9342633
Probable space group: P N C 2
;
_chemical_formula_sum "Si O2"
_cell_formula_units_Z 18
_cell_length_a 7.518553
_cell_length_b 6.525654
_cell_length_c 13.829967
_cell_angle_alpha 90.000000
_cell_angle_beta 90.000000
_cell_angle_gamma 90.000000
_cell_volume 678.546246
_symmetry_space_group_name_H-M "P N C 2"
_symmetry_group_IT_number 30
_symmetry_cell_setting 'orthorhombic'
loop_
_space_group_symop_operation_xyz
x,y,z
-x,-y,z
-x,1/2+y,1/2+z
x,1/2-y,1/2+z
loop_
_atom_site_type_symbol
_atom_site_label
_atom_site_fract_x
_atom_site_fract_y
_atom_site_fract_z
Si Si1 0.631827 0.844273 0.815390
Si Si2 0.873257 0.329903 0.352063
Si Si3 0.500000 0.500000 0.963234
Si Si4 0.284495 0.984913 0.196850
Si Si5 0.863088 0.166588 0.550102
O O1 0.555580 0.678881 0.889128
O O2 0.747225 0.712640 0.738839
O O3 0.500000 0.000000 0.758291
O O4 0.720780 0.012668 0.883948
O O5 0.786996 0.163554 0.282496
O O6 0.950096 0.228292 0.447109
O O7 0.000000 0.500000 0.306052
O O8 0.327978 0.564111 0.025083
O O9 0.184618 0.873955 0.108811
O O10 0.500000 0.000000 0.182024
O O11 0.000000 0.000000 0.592677
#
# Coordination Sequence:
#
# PCOD9342633 Si02
#       5
#     4   4   2   4   4
#     4  12  21  48  81 113 151 218 283 331 415 500
#     4  12  27  50  80 116 166 221 282 354 422 501
#     4  12  24  50  88 110 158 224 280 344 424 500
#     4  12  26  50  80 124 162 222 278 347 425 513
#     4  12  28  52  80 129 168 218 281 354 430 508
#
# _framework density 26.527297999999998
#
# number of rings (size 3 to 8) (size 9 to 14) (size 15 to 20)
#    0.000    0.000    7.778    2.000    3.111    1.778 
#    8.000    0.000    0.000    0.000    0.000    0.000 
#    0.000    0.000    0.000    0.000    0.000    0.000 
#
# Total GULP energy -100477.114032 kJ/mol
# GULP energy per Si atom -5582.061891 kJ/mol
# Density = 2.646692 g / cm^3
# Si number density = 26.527298 Si / 1000 Ang^3
#
#
#
# Elastic Constant Matrix: (Units=GPa)
#
#
# Indices 1 2 3 4 5 6 
#
# 1 98.4845 75.4738 36.0216 0.0000 0.0000 0.0000
# 2 75.4738 217.9838 63.0434 0.0000 0.0000 0.0000
# 3 36.0216 63.0434 133.0270 0.0000 0.0000 0.0000
# 4 0.0000 0.0000 0.0000 38.0649 0.0000 0.0000
# 5 0.0000 0.0000 0.0000 0.0000 -124.1200 0.0000
# 6 0.0000 0.0000 0.0000 0.0000 0.0000 84.4401
#
#
#
# Elastic Compliance Matrix: (Units=1/GPa)
#
#
# Indices 1 2 3 4 5 6 
#
# 1 0.014165 -0.004398 -0.001751 0.000000 0.000000 0.000000
# 2 -0.004398 0.006682 -0.001976 0.000000 0.000000 0.000000
# 3 -0.001751 -0.001976 0.008928 0.000000 0.000000 0.000000
# 4 0.000000 0.000000 0.000000 0.026271 0.000000 0.000000
# 5 0.000000 0.000000 0.000000 0.000000 -0.008057 0.000000
# 6 0.000000 0.000000 0.000000 0.000000 0.000000 0.011843
#
#
# Mechanical properties :
#
#
# Convention : Reuss Voigt Hill
#
# Bulk Modulus (GPa) = 73.94036 88.73033 81.33535
# Shear Modulus (GPa) = 62.04330 18.00743 40.02536
#
# Velocity S-wave (km/s) = 4.84141 2.60826 3.88859
# Velocity P-wave (km/s) = 7.69325 6.52625 7.13366
#
# Compressibility (1/GPa) = 0.01352441
#
# Stress axis : x y z
#
# Youngs Moduli (GPa) = 70.59775 149.66575 112.00965
#
# Poissons Ratio (x) = 0.65820 0.19617
# Poissons Ratio (y) = 0.31048 0.22129
# Poissons Ratio (z) = 0.12365 0.29568
#
# Static dielectric constant tensor:
#      x y z
#    x 2.644990 0.000000 0.000000 
#    y 0.000000 2.002660 0.000000 
#    z 0.000000 0.000000 2.097380 
# 
# From -- ./inp_files/6134.got.cif
#   From: 2010.05.17/outbox.cif.g08.bks.cpg/sg30_4_cif.got.tgz:6134.got - 2010.06.03 17:03:02.
