data_PCOD9342998
_publ_section_title
;
Structure prediction by ZEFSAII (Michael W. Deem and Ramdas Pophale) SiO2 
 PCOD9342998
Probable space group: P M N 21
;
_chemical_formula_sum "Si O2"
_cell_formula_units_Z 32
_cell_length_a 30.211609
_cell_length_b 10.324954
_cell_length_c 5.246924
_cell_angle_alpha 90.000000
_cell_angle_beta 90.000000
_cell_angle_gamma 90.000000
_cell_volume 1636.691227
_symmetry_space_group_name_H-M "P M N 21"
_symmetry_group_IT_number 31
_symmetry_cell_setting 'orthorhombic'
loop_
_space_group_symop_operation_xyz
x,y,z
1/2-x,-y,1/2+z
-x,y,z
1/2+x,-y,1/2+z
loop_
_atom_site_type_symbol
_atom_site_label
_atom_site_fract_x
_atom_site_fract_y
_atom_site_fract_z
Si Si1 0.257757 0.422256 0.389990
Si Si2 0.447657 0.258704 0.152805
Si Si3 0.550071 0.795625 0.268600
Si Si4 0.896292 0.133613 0.268810
Si Si5 0.650873 0.400439 0.627492
Si Si6 0.902398 0.842793 0.171788
Si Si7 0.332703 0.650070 0.949902
Si Si8 0.409888 0.531272 0.258284
O O1 0.250247 0.538503 0.596429
O O2 0.308822 0.382559 0.428370
O O3 0.219333 0.323092 0.482195
O O4 0.500000 0.270473 0.202661
O O5 0.423543 0.189679 0.394543
O O6 0.426152 0.402389 0.113589
O O7 0.438253 0.180551 0.894243
O O8 0.500000 0.842143 0.256681
O O9 0.571483 0.824498 0.540985
O O10 0.552790 0.639469 0.246788
O O11 0.577943 0.856559 0.037498
O O12 0.856340 0.236275 0.293254
O O13 0.884168 0.987107 0.201709
O O14 0.636279 0.261214 0.722718
O O15 0.667459 0.509024 0.818750
O O16 0.606313 0.467700 0.519692
O O17 0.366191 0.614866 0.178372
#
# Coordination Sequence:
#
# PCOD9342998 Si02
#       8
#     4   4   4   4   4   4   4   4
#     4  10  20  32  60  92 114 140 186 240 282 336
#     4  11  23  38  59  84 116 153 199 244 286 337
#     4  11  23  38  59  84 116 153 199 244 286 337
#     4  11  24  39  59  84 118 158 192 235 290 345
#     4  10  19  37  59  85 118 145 191 233 286 342
#     4  11  24  39  59  84 118 158 192 235 290 345
#     4  10  19  37  59  85 118 145 191 233 286 342
#     4  10  19  36  56  88 114 152 184 246 287 342
#
# _framework density 19.551642000000001
#
# number of rings (size 3 to 8) (size 9 to 14) (size 15 to 20)
#    0.000    1.500    3.750    1.875    0.000    3.000 
#    0.000    3.750    0.000   12.000    0.000    0.000 
#    0.000    0.000    0.000    0.000    0.000    0.000 
#
# Total GULP energy -178198.230602 kJ/mol
# GULP energy per Si atom -5568.694706 kJ/mol
# Density = 1.950714 g / cm^3
# Si number density = 19.551642 Si / 1000 Ang^3
#
#
#
# Elastic Constant Matrix: (Units=GPa)
#
#
# Indices 1 2 3 4 5 6 
#
# 1 56.8564 20.7027 -0.8473 0.0000 0.0000 0.0000
# 2 20.7027 118.8635 9.3890 0.0000 0.0000 0.0000
# 3 -0.8473 9.3890 53.3536 0.0000 0.0000 0.0000
# 4 0.0000 0.0000 0.0000 19.6202 0.0000 0.0000
# 5 0.0000 0.0000 0.0000 0.0000 23.3262 0.0000
# 6 0.0000 0.0000 0.0000 0.0000 0.0000 3.5765
#
#
#
# Elastic Compliance Matrix: (Units=1/GPa)
#
#
# Indices 1 2 3 4 5 6 
#
# 1 0.018821 -0.003348 0.000888 0.000000 0.000000 0.000000
# 2 -0.003348 0.009127 -0.001659 0.000000 0.000000 0.000000
# 3 0.000888 -0.001659 0.019049 0.000000 0.000000 0.000000
# 4 0.000000 0.000000 0.000000 0.050968 0.000000 0.000000
# 5 0.000000 0.000000 0.000000 0.000000 0.042870 0.000000
# 6 0.000000 0.000000 0.000000 0.000000 0.000000 0.279603
#
#
# Mechanical properties :
#
#
# Convention : Reuss Voigt Hill
#
# Bulk Modulus (GPa) = 25.80118 31.95135 28.87626
# Shear Modulus (GPa) = 11.32255 22.62652 16.97454
#
# Velocity S-wave (km/s) = 2.40908 3.40556 2.94970
# Velocity P-wave (km/s) = 4.57857 5.64281 5.13832
#
# Compressibility (1/GPa) = 0.03875792
#
# Stress axis : x y z
#
# Youngs Moduli (GPa) = 53.13341 109.56217 52.49623
#
# Poissons Ratio (x) = 0.36683 -0.04662
# Poissons Ratio (y) = 0.17790 0.08711
# Poissons Ratio (z) = -0.04719 0.18180
#
# Static dielectric constant tensor:
#      x y z
#    x 1.789110 0.000000 0.000000 
#    y 0.000000 1.716370 0.000000 
#    z 0.000000 0.000000 1.738450 
# 
# From -- ./inp_files/1351.got.cif
#   From: 2010.05.17/outbox.cif.g08.bks.cpg/sg31_1_cif.got.tgz:1351.got - 2010.06.03 17:08:30.
