data_PCOD9342604
_publ_section_title
;
Structure prediction by ZEFSAII (Michael W. Deem and Ramdas Pophale) SiO2 
 PCOD9342604
Probable space group: P N C 2
;
_chemical_formula_sum "Si O2"
_cell_formula_units_Z 32
_cell_length_a 13.341616
_cell_length_b 11.650121
_cell_length_c 9.618388
_cell_angle_alpha 90.000000
_cell_angle_beta 90.000000
_cell_angle_gamma 90.000000
_cell_volume 1494.999904
_symmetry_space_group_name_H-M "P N C 2"
_symmetry_group_IT_number 30
_symmetry_cell_setting 'orthorhombic'
loop_
_space_group_symop_operation_xyz
x,y,z
-x,-y,z
-x,1/2+y,1/2+z
x,1/2-y,1/2+z
loop_
_atom_site_type_symbol
_atom_site_label
_atom_site_fract_x
_atom_site_fract_y
_atom_site_fract_z
Si Si1 0.277440 0.553204 0.321650
Si Si2 0.083600 0.096702 0.752637
Si Si3 0.413440 0.070690 0.612436
Si Si4 0.739799 0.549827 0.872084
Si Si5 0.668418 0.303579 0.849473
Si Si6 0.324526 0.098074 0.063550
Si Si7 0.527682 0.208886 0.097247
Si Si8 0.862246 0.761406 0.484218
O O1 0.185864 0.477493 0.265084
O O2 0.372301 0.507495 0.235307
O O3 0.270930 0.689254 0.306501
O O4 0.295498 0.516671 0.480420
O O5 0.093745 0.187191 0.626441
O O6 0.073204 0.171397 0.894010
O O7 0.000000 0.000000 0.733364
O O8 0.328337 0.088364 0.500576
O O9 0.459928 0.188822 0.662104
O O10 0.500000 0.000000 0.536602
O O11 0.739077 0.411800 0.881772
O O12 0.691019 0.584599 0.726928
O O13 0.838835 0.625508 0.891586
O O14 0.595026 0.337647 0.722444
O O15 0.599124 0.263607 0.979155
O O16 0.440599 0.128386 0.035948
O O17 0.241992 0.191627 0.012812
#
# Coordination Sequence:
#
# PCOD9342604 Si02
#       8
#     4   4   4   4   4   4   4   4
#     4  11  24  43  65  94 135 183 223 284 344 400
#     4  11  25  51  80 106 133 172 225 285 351 418
#     4  12  21  38  61  90 136 189 233 276 335 398
#     4  12  23  40  62  93 132 181 226 278 332 397
#     4  12  25  37  54  89 139 182 230 273 333 389
#     4  11  24  38  65  94 132 179 232 282 326 390
#     4  12  23  34  56  91 132 185 238 280 318 389
#     4  11  23  47  75 104 133 172 221 279 346 419
#
# _framework density 21.404682999999999
#
# number of rings (size 3 to 8) (size 9 to 14) (size 15 to 20)
#    0.000    0.500    6.250    2.250    1.750    1.000 
#    2.250    1.875    0.000    0.000    0.000    0.000 
#    0.000    0.000    0.000    0.000    0.000    0.000 
#
# Total GULP energy -178786.294198 kJ/mol
# GULP energy per Si atom -5587.071694 kJ/mol
# Density = 2.135597 g / cm^3
# Si number density = 21.404683 Si / 1000 Ang^3
#
#
#
# Elastic Constant Matrix: (Units=GPa)
#
#
# Indices 1 2 3 4 5 6 
#
# 1 32.5924 34.4109 14.6400 0.0000 0.0000 0.0000
# 2 34.4109 121.6906 19.5949 0.0000 0.0000 0.0000
# 3 14.6400 19.5949 89.4693 0.0000 0.0000 0.0000
# 4 0.0000 0.0000 0.0000 33.1810 0.0000 0.0000
# 5 0.0000 0.0000 0.0000 0.0000 9.7656 0.0000
# 6 0.0000 0.0000 0.0000 0.0000 0.0000 20.0486
#
#
#
# Elastic Compliance Matrix: (Units=1/GPa)
#
#
# Indices 1 2 3 4 5 6 
#
# 1 0.045656 -0.012135 -0.004813 0.000000 0.000000 0.000000
# 2 -0.012135 0.011744 -0.000586 0.000000 0.000000 0.000000
# 3 -0.004813 -0.000586 0.012093 0.000000 0.000000 0.000000
# 4 0.000000 0.000000 0.000000 0.030138 0.000000 0.000000
# 5 0.000000 0.000000 0.000000 0.000000 0.102400 0.000000
# 6 0.000000 0.000000 0.000000 0.000000 0.000000 0.049879
#
#
# Mechanical properties :
#
#
# Convention : Reuss Voigt Hill
#
# Bulk Modulus (GPa) = 29.04987 42.33821 35.69404
# Shear Modulus (GPa) = 16.75304 24.27282 20.51293
#
# Velocity S-wave (km/s) = 2.80068 3.37114 3.09906
# Velocity P-wave (km/s) = 4.90506 5.91402 5.43301
#
# Compressibility (1/GPa) = 0.03442356
#
# Stress axis : x y z
#
# Youngs Moduli (GPa) = 21.90272 85.15321 82.69262
#
# Poissons Ratio (x) = 1.03337 0.39800
# Poissons Ratio (y) = 0.26580 0.04848
# Poissons Ratio (z) = 0.10542 0.04992
#
# Static dielectric constant tensor:
#      x y z
#    x 1.830170 0.000000 0.000000 
#    y 0.000000 1.823840 0.000000 
#    z 0.000000 0.000000 1.766440 
# 
# From -- ./inp_files/2706.got.cif
#   From: 2010.05.17/outbox.cif.g08.bks.cpg/sg30_2_cif.got.tgz:2706.got - 2010.06.03 17:03:02.
