data_PCOD9342463
_publ_section_title
;
Structure prediction by ZEFSAII (Michael W. Deem and Ramdas Pophale) SiO2 
 PCOD9342463
Probable space group: P N C 2
;
_chemical_formula_sum "Si O2"
_cell_formula_units_Z 20
_cell_length_a 10.017808
_cell_length_b 9.657086
_cell_length_c 9.274032
_cell_angle_alpha 90.000000
_cell_angle_beta 90.000000
_cell_angle_gamma 90.000000
_cell_volume 897.196133
_symmetry_space_group_name_H-M "P N C 2"
_symmetry_group_IT_number 30
_symmetry_cell_setting 'orthorhombic'
loop_
_space_group_symop_operation_xyz
x,y,z
-x,-y,z
-x,1/2+y,1/2+z
x,1/2-y,1/2+z
loop_
_atom_site_type_symbol
_atom_site_label
_atom_site_fract_x
_atom_site_fract_y
_atom_site_fract_z
Si Si1 0.867186 0.580985 0.913220
Si Si2 0.593764 0.883286 0.269721
Si Si3 0.510673 0.342179 0.088387
Si Si4 0.029940 0.845262 0.949750
Si Si5 0.188152 0.642192 0.153019
O O1 0.738153 0.561733 0.814096
O O2 0.000000 0.500000 0.862989
O O3 0.903917 0.744020 0.916113
O O4 0.831660 0.503450 0.065300
O O5 0.596133 0.753828 0.165291
O O6 0.518128 0.840360 0.418019
O O7 0.500000 0.000000 0.200840
O O8 0.500000 0.500000 0.136155
O O9 0.660351 0.306675 0.135852
O O10 0.127430 0.863347 0.811919
O O11 0.102596 0.755580 0.069482
O O12 0.000000 0.000000 0.998307
#
# Coordination Sequence:
#
# PCOD9342463 Si02
#       5
#     4   4   4   4   4
#     4  10  23  44  71  96 140 181 220 282 346 406
#     4  11  24  46  70 103 133 180 229 284 347 410
#     4  11  24  44  74  97 137 178 229 286 347 409
#     4  11  25  41  70 100 137 180 235 280 343 411
#     4  11  23  47  68  99 141 183 225 287 349 408
#
# _framework density 22.291668999999999
#
# number of rings (size 3 to 8) (size 9 to 14) (size 15 to 20)
#    0.000    1.200    4.000    3.000    5.600    6.400 
#    3.600    0.000    0.000    0.000    0.000    0.000 
#    0.000    0.000    0.000    0.000    0.000    0.000 
#
# Total GULP energy -111815.566744 kJ/mol
# GULP energy per Si atom -5590.778337 kJ/mol
# Density = 2.224093 g / cm^3
# Si number density = 22.291669 Si / 1000 Ang^3
#
#
#
# Elastic Constant Matrix: (Units=GPa)
#
#
# Indices 1 2 3 4 5 6 
#
# 1 77.3075 -9.9199 -10.7587 0.0000 0.0000 0.0000
# 2 -9.9199 119.7905 7.7810 0.0000 0.0000 0.0000
# 3 -10.7587 7.7810 35.1702 0.0000 0.0000 0.0000
# 4 0.0000 0.0000 0.0000 128.2342 0.0000 0.0000
# 5 0.0000 0.0000 0.0000 0.0000 26.2221 0.0000
# 6 0.0000 0.0000 0.0000 0.0000 0.0000 27.5379
#
#
#
# Elastic Compliance Matrix: (Units=1/GPa)
#
#
# Indices 1 2 3 4 5 6 
#
# 1 0.013599 0.000868 0.003968 0.000000 0.000000 0.000000
# 2 0.000868 0.008525 -0.001620 0.000000 0.000000 0.000000
# 3 0.003968 -0.001620 0.030005 0.000000 0.000000 0.000000
# 4 0.000000 0.000000 0.000000 0.007798 0.000000 0.000000
# 5 0.000000 0.000000 0.000000 0.000000 0.038136 0.000000
# 6 0.000000 0.000000 0.000000 0.000000 0.000000 0.036314
#
#
# Mechanical properties :
#
#
# Convention : Reuss Voigt Hill
#
# Bulk Modulus (GPa) = 17.07614 22.94145 20.00880
# Shear Modulus (GPa) = 33.90614 52.74322 43.32468
#
# Velocity S-wave (km/s) = 3.90426 4.86948 4.41334
# Velocity P-wave (km/s) = 5.29162 6.47531 5.91316
#
# Compressibility (1/GPa) = 0.05856123
#
# Stress axis : x y z
#
# Youngs Moduli (GPa) = 73.53485 117.30104 33.32726
#
# Poissons Ratio (x) = -0.10186 -0.13224
# Poissons Ratio (y) = -0.06386 0.05400
# Poissons Ratio (z) = -0.29178 0.19008
#
# Static dielectric constant tensor:
#      x y z
#    x 1.899790 0.000000 0.000000 
#    y 0.000000 1.834830 0.000000 
#    z 0.000000 0.000000 1.800680 
# 
# From -- ./inp_files/2265.got.cif
#   From: 2010.05.17/outbox.cif.g08.bks.cpg/sg30_2_cif.got.tgz:2265.got - 2010.06.03 17:03:02.
