data_PCOD9342087
_publ_section_title
;
Structure prediction by ZEFSAII (Michael W. Deem and Ramdas Pophale) SiO2 
 PCOD9342087
Probable space group: P N C 2
;
_chemical_formula_sum "Si O2"
_cell_formula_units_Z 24
_cell_length_a 10.745412
_cell_length_b 17.623215
_cell_length_c 5.194155
_cell_angle_alpha 90.000000
_cell_angle_beta 90.000000
_cell_angle_gamma 90.000000
_cell_volume 983.610411
_symmetry_space_group_name_H-M "P N C 2"
_symmetry_group_IT_number 30
_symmetry_cell_setting 'orthorhombic'
loop_
_space_group_symop_operation_xyz
x,y,z
-x,-y,z
-x,1/2+y,1/2+z
x,1/2-y,1/2+z
loop_
_atom_site_type_symbol
_atom_site_label
_atom_site_fract_x
_atom_site_fract_y
_atom_site_fract_z
Si Si1 0.890407 0.727158 0.312290
Si Si2 0.891668 0.558550 0.464827
Si Si3 0.162933 0.792446 0.296499
Si Si4 0.633666 0.404076 0.783648
Si Si5 0.509346 0.592422 0.275285
Si Si6 0.262456 0.054852 0.479591
O O1 0.817633 0.755912 0.556314
O O2 0.929580 0.639956 0.342398
O O3 0.013491 0.781605 0.301029
O O4 0.820903 0.578609 0.733659
O O5 0.000000 0.500000 0.530230
O O6 0.817529 0.521434 0.220268
O O7 0.204909 0.763830 0.572958
O O8 0.227883 0.871616 0.236196
O O9 0.539832 0.383087 0.554365
O O10 0.651248 0.493484 0.832409
O O11 0.582396 0.376799 0.056771
O O12 0.500000 0.500000 0.290009
O O13 0.645160 0.607062 0.151807
#
# Coordination Sequence:
#
# PCOD9342087 Si02
#       6
#     4   4   4   4   4   4
#     4  10  23  42  64  87 134 183 231 273 354 410
#     4  12  26  40  67 100 141 183 239 291 334 412
#     4  10  22  36  61  89 129 169 220 268 358 399
#     4  11  21  37  68  95 130 170 216 288 342 411
#     4  10  20  39  62  96 129 168 210 271 350 416
#     4  11  24  40  66  98 141 176 229 280 357 400
#
# _framework density 24.399903999999999
#
# number of rings (size 3 to 8) (size 9 to 14) (size 15 to 20)
#    0.000    1.333    0.000    7.000    9.333    0.000 
#    0.000    0.000    0.000   20.000    0.000    0.000 
#    0.000    0.000    0.000    0.000    0.000    0.000 
#
# Total GULP energy -133774.968012 kJ/mol
# GULP energy per Si atom -5573.957000 kJ/mol
# Density = 2.434437 g / cm^3
# Si number density = 24.399904 Si / 1000 Ang^3
#
#
#
# Elastic Constant Matrix: (Units=GPa)
#
#
# Indices 1 2 3 4 5 6 
#
# 1 58.7507 23.4120 40.2805 0.0000 0.0000 0.0000
# 2 23.4120 36.2005 19.1609 0.0000 0.0000 0.0000
# 3 40.2805 19.1609 214.4949 0.0000 0.0000 0.0000
# 4 0.0000 0.0000 0.0000 22.5419 0.0000 0.0000
# 5 0.0000 0.0000 0.0000 0.0000 -14.9206 0.0000
# 6 0.0000 0.0000 0.0000 0.0000 0.0000 31.1828
#
#
#
# Elastic Compliance Matrix: (Units=1/GPa)
#
#
# Indices 1 2 3 4 5 6 
#
# 1 0.025123 -0.014433 -0.003429 0.000000 0.000000 0.000000
# 2 -0.014433 0.037287 -0.000620 0.000000 0.000000 0.000000
# 3 -0.003429 -0.000620 0.005361 0.000000 0.000000 0.000000
# 4 0.000000 0.000000 0.000000 0.044362 0.000000 0.000000
# 5 0.000000 0.000000 0.000000 0.000000 -0.067021 0.000000
# 6 0.000000 0.000000 0.000000 0.000000 0.000000 0.032069
#
#
# Mechanical properties :
#
#
# Convention : Reuss Voigt Hill
#
# Bulk Modulus (GPa) = 32.46021 52.79475 42.62748
# Shear Modulus (GPa) = 40.18811 22.86698 31.52755
#
# Velocity S-wave (km/s) = 4.06280 3.06465 3.59850
# Velocity P-wave (km/s) = 5.94481 5.84868 5.89694
#
# Compressibility (1/GPa) = 0.03080695
#
# Stress axis : x y z
#
# Youngs Moduli (GPa) = 39.80343 26.81913 186.51812
#
# Poissons Ratio (x) = 0.38709 0.63951
# Poissons Ratio (y) = 0.57450 0.11571
# Poissons Ratio (z) = 0.13647 0.01664
#
# Static dielectric constant tensor:
#      x y z
#    x 2.050850 0.000000 0.000000 
#    y 0.000000 1.964160 0.000000 
#    z 0.000000 0.000000 2.080410 
# 
# From -- ./inp_files/695.got.cif
#   From: 2010.05.17/outbox.cif.g08.bks.cpg/sg30_1_cif.got.tgz:695.got - 2010.06.03 17:03:02.
