data_PCOD9342136
_publ_section_title
;
Structure prediction by ZEFSAII (Michael W. Deem and Ramdas Pophale) SiO2 
 PCOD9342136
Probable space group: P N C 2
;
_chemical_formula_sum "Si O2"
_cell_formula_units_Z 16
_cell_length_a 8.794636
_cell_length_b 5.127371
_cell_length_c 14.342347
_cell_angle_alpha 90.000000
_cell_angle_beta 90.000000
_cell_angle_gamma 90.000000
_cell_volume 646.744639
_symmetry_space_group_name_H-M "P N C 2"
_symmetry_group_IT_number 30
_symmetry_cell_setting 'orthorhombic'
loop_
_space_group_symop_operation_xyz
x,y,z
-x,-y,z
-x,1/2+y,1/2+z
x,1/2-y,1/2+z
loop_
_atom_site_type_symbol
_atom_site_label
_atom_site_fract_x
_atom_site_fract_y
_atom_site_fract_z
Si Si1 0.890172 0.744392 0.571620
Si Si2 0.500000 0.000000 0.382528
Si Si3 0.251622 0.631737 0.420920
Si Si4 0.000000 0.500000 0.858225
Si Si5 0.743378 0.802898 0.757844
O O1 0.798134 0.622615 0.480542
O O2 0.757494 0.793478 0.647944
O O3 0.000000 0.500000 0.595618
O O4 0.000000 0.000000 0.580786
O O5 0.403881 0.791964 0.443806
O O6 0.614289 0.853874 0.312714
O O7 0.268379 0.577525 0.309998
O O8 0.109662 0.826315 0.422032
O O9 0.097927 0.313015 0.794269
#
# Coordination Sequence:
#
# PCOD9342136 Si02
#       5
#     4   2   4   2   4
#     4  12  28  45  78 123 155 200 271 342 399 468
#     4  10  26  48  76 106 160 220 262 314 410 488
#     4  11  25  46  80 112 158 208 267 328 403 479
#     4  10  20  42  78 104 144 202 254 332 390 464
#     4  11  23  47  73 110 154 205 260 325 397 477
#
# _framework density 24.739284999999999
#
# number of rings (size 3 to 8) (size 9 to 14) (size 15 to 20)
#    0.000    1.000    1.250    4.500   14.000    0.000 
#    4.500    0.000    0.000    0.000    0.000    0.000 
#    0.000    0.000    0.000    0.000    0.000    0.000 
#
# Total GULP energy -89314.408625 kJ/mol
# GULP energy per Si atom -5582.150539 kJ/mol
# Density = 2.468298 g / cm^3
# Si number density = 24.739285 Si / 1000 Ang^3
#
#
#
# Elastic Constant Matrix: (Units=GPa)
#
#
# Indices 1 2 3 4 5 6 
#
# 1 127.8666 56.1657 25.2497 0.0000 0.0000 0.0000
# 2 56.1657 160.9854 36.3170 0.0000 0.0000 0.0000
# 3 25.2497 36.3170 124.6702 0.0000 0.0000 0.0000
# 4 0.0000 0.0000 0.0000 11.8073 0.0000 0.0000
# 5 0.0000 0.0000 0.0000 0.0000 6.4403 0.0000
# 6 0.0000 0.0000 0.0000 0.0000 0.0000 55.4668
#
#
#
# Elastic Compliance Matrix: (Units=1/GPa)
#
#
# Indices 1 2 3 4 5 6 
#
# 1 0.009353 -0.003035 -0.001010 0.000000 0.000000 0.000000
# 2 -0.003035 0.007634 -0.001609 0.000000 0.000000 0.000000
# 3 -0.001010 -0.001609 0.008694 0.000000 0.000000 0.000000
# 4 0.000000 0.000000 0.000000 0.084693 0.000000 0.000000
# 5 0.000000 0.000000 0.000000 0.000000 0.155272 0.000000
# 6 0.000000 0.000000 0.000000 0.000000 0.000000 0.018029
#
#
# Mechanical properties :
#
#
# Convention : Reuss Voigt Hill
#
# Bulk Modulus (GPa) = 69.57700 72.10966 70.84333
# Shear Modulus (GPa) = 16.67916 34.46220 25.57068
#
# Velocity S-wave (km/s) = 2.59935 3.73636 3.21846
# Velocity P-wave (km/s) = 6.09869 6.91556 6.51993
#
# Compressibility (1/GPa) = 0.01437257
#
# Stress axis : x y z
#
# Youngs Moduli (GPa) = 106.91257 130.99752 115.01592
#
# Poissons Ratio (x) = 0.39763 0.11618
# Poissons Ratio (y) = 0.32452 0.18506
# Poissons Ratio (z) = 0.10800 0.21077
#
# Static dielectric constant tensor:
#      x y z
#    x 2.056540 0.000000 0.000000 
#    y 0.000000 2.142280 0.000000 
#    z 0.000000 0.000000 2.038350 
# 
# From -- ./inp_files/6099.got.cif
#   From: 2010.05.17/outbox.cif.g08.bks.cpg/sg30_4_cif.got.tgz:6099.got - 2010.06.03 17:03:02.
