data_PCOD9342527
_publ_section_title
;
Structure prediction by ZEFSAII (Michael W. Deem and Ramdas Pophale) SiO2 
 PCOD9342527
Probable space group: P N C 2
;
_chemical_formula_sum "Si O2"
_cell_formula_units_Z 12
_cell_length_a 5.263622
_cell_length_b 5.151484
_cell_length_c 17.789767
_cell_angle_alpha 90.000000
_cell_angle_beta 90.000000
_cell_angle_gamma 90.000000
_cell_volume 482.377796
_symmetry_space_group_name_H-M "P N C 2"
_symmetry_group_IT_number 30
_symmetry_cell_setting 'orthorhombic'
loop_
_space_group_symop_operation_xyz
x,y,z
-x,-y,z
-x,1/2+y,1/2+z
x,1/2-y,1/2+z
loop_
_atom_site_type_symbol
_atom_site_label
_atom_site_fract_x
_atom_site_fract_y
_atom_site_fract_z
Si Si1 0.752411 0.841779 0.661550
Si Si2 0.680530 0.250776 0.890882
Si Si3 0.000000 0.000000 0.268515
Si Si4 0.000000 0.000000 0.518033
O O1 0.778709 0.587998 0.711344
O O2 0.500000 0.000000 0.674642
O O3 0.811559 0.834276 0.572278
O O4 0.000000 0.000000 0.687063
O O5 0.500000 0.500000 0.882433
O O6 0.885847 0.283863 0.824532
O O7 0.838257 0.303910 0.967072
O O8 0.500000 0.000000 0.889582
#
# Coordination Sequence:
#
# PCOD9342527 Si02
#       4
#     4   4   2   2
#     4  10  25  45  77 112 153 205 266 332 400 474
#     4  11  27  47  78 112 163 211 268 329 407 486
#     4  11  28  44  78 117 162 210 272 335 410 482
#     4   9  24  46  74 111 154 208 274 331 402 480
#
# _framework density 24.876771000000002
#
# number of rings (size 3 to 8) (size 9 to 14) (size 15 to 20)
#    1.000    0.667    0.000    1.000    9.333    9.333 
#    0.000    0.000    0.000    0.000    0.000    0.000 
#    0.000    0.000    0.000    0.000    0.000    0.000 
#
# Total GULP energy -67094.457889 kJ/mol
# GULP energy per Si atom -5591.204824 kJ/mol
# Density = 2.482015 g / cm^3
# Si number density = 24.876771 Si / 1000 Ang^3
#
#
#
# Elastic Constant Matrix: (Units=GPa)
#
#
# Indices 1 2 3 4 5 6 
#
# 1 177.2350 75.1429 68.7753 0.0000 0.0000 0.0000
# 2 75.1429 152.8478 72.7148 0.0000 0.0000 0.0000
# 3 68.7753 72.7148 198.3289 0.0000 0.0000 0.0000
# 4 0.0000 0.0000 0.0000 32.1955 0.0000 0.0000
# 5 0.0000 0.0000 0.0000 0.0000 -53.2014 0.0000
# 6 0.0000 0.0000 0.0000 0.0000 0.0000 55.9934
#
#
#
# Elastic Compliance Matrix: (Units=1/GPa)
#
#
# Indices 1 2 3 4 5 6 
#
# 1 0.007483 -0.002961 -0.001509 0.000000 0.000000 0.000000
# 2 -0.002961 0.009096 -0.002308 0.000000 0.000000 0.000000
# 3 -0.001509 -0.002308 0.006412 0.000000 0.000000 0.000000
# 4 0.000000 0.000000 0.000000 0.031060 0.000000 0.000000
# 5 0.000000 0.000000 0.000000 0.000000 -0.018796 0.000000
# 6 0.000000 0.000000 0.000000 0.000000 0.000000 0.017859
#
#
# Mechanical properties :
#
#
# Convention : Reuss Voigt Hill
#
# Bulk Modulus (GPa) = 105.99699 106.85309 106.42504
# Shear Modulus (GPa) = 71.61670 27.78274 49.69972
#
# Velocity S-wave (km/s) = 5.37132 3.34550 4.47457
# Velocity P-wave (km/s) = 9.00941 7.61376 8.34083
#
# Compressibility (1/GPa) = 0.00943423
#
# Stress axis : x y z
#
# Youngs Moduli (GPa) = 133.63138 109.93632 155.96090
#
# Poissons Ratio (x) = 0.32550 0.23542
# Poissons Ratio (y) = 0.39566 0.36000
# Poissons Ratio (z) = 0.20171 0.25376
#
# Static dielectric constant tensor:
#      x y z
#    x 2.614870 0.000000 0.000000 
#    y 0.000000 2.066890 0.000000 
#    z 0.000000 0.000000 1.994950 
# 
# From -- ./inp_files/5694.got.cif
#   From: 2010.05.17/outbox.cif.g08.bks.cpg/sg30_3_cif.got.tgz:5694.got - 2010.06.03 17:03:02.
