data_PCOD9342030
_publ_section_title
;
Structure prediction by ZEFSAII (Michael W. Deem and Ramdas Pophale) SiO2 
 PCOD9342030
Probable space group: P N C 2
;
_chemical_formula_sum "Si O2"
_cell_formula_units_Z 22
_cell_length_a 5.261548
_cell_length_b 12.262152
_cell_length_c 14.739332
_cell_angle_alpha 90.000000
_cell_angle_beta 90.000000
_cell_angle_gamma 90.000000
_cell_volume 950.950768
_symmetry_space_group_name_H-M "P N C 2"
_symmetry_group_IT_number 30
_symmetry_cell_setting 'orthorhombic'
loop_
_space_group_symop_operation_xyz
x,y,z
-x,-y,z
-x,1/2+y,1/2+z
x,1/2-y,1/2+z
loop_
_atom_site_type_symbol
_atom_site_label
_atom_site_fract_x
_atom_site_fract_y
_atom_site_fract_z
Si Si1 0.993404 0.172679 0.392430
Si Si2 0.000000 0.000000 0.004449
Si Si3 0.412864 0.745977 0.250122
Si Si4 0.247031 0.435894 0.749554
Si Si5 0.618277 0.632353 0.409181
Si Si6 0.221786 0.773067 0.053404
O O1 0.764856 0.181075 0.318534
O O2 0.894734 0.174774 0.494208
O O3 0.188181 0.081825 0.356792
O O4 0.143460 0.287002 0.389458
O O5 0.753277 0.977294 0.942643
O O6 0.053345 0.884845 0.054104
O O7 0.670953 0.812882 0.224652
O O8 0.470380 0.642767 0.313833
O O9 0.278128 0.734818 0.154372
O O10 0.500000 0.500000 0.724101
O O11 0.000000 0.500000 0.715625
O O12 0.462773 0.687976 0.492041
#
# Coordination Sequence:
#
# PCOD9342030 Si02
#       6
#     4   2   4   4   4   4
#     4   9  20  38  57  89 119 168 208 259 322 388
#     4  10  20  36  58  92 132 164 222 276 332 384
#     4  10  21  38  61  95 127 168 211 262 336 390
#     4  11  21  36  59  90 126 168 207 261 324 391
#     4   9  20  37  57  89 125 168 211 262 327 387
#     4  10  21  37  60  94 124 165 215 274 323 394
#
# _framework density 23.134739
#
# number of rings (size 3 to 8) (size 9 to 14) (size 15 to 20)
#    0.000    2.182    1.818    0.545    0.000    8.727 
#    1.636    0.000    0.000    0.000  137.091    0.000 
#    0.000    0.000    0.000    0.000    0.000    0.000 
#
# Total GULP energy -122535.240368 kJ/mol
# GULP energy per Si atom -5569.783653 kJ/mol
# Density = 2.308208 g / cm^3
# Si number density = 23.134739 Si / 1000 Ang^3
#
#
#
# Elastic Constant Matrix: (Units=GPa)
#
#
# Indices 1 2 3 4 5 6 
#
# 1 96.1618 -1.3728 28.3617 0.0000 0.0000 0.0000
# 2 -1.3728 16.2686 12.9455 0.0000 0.0000 0.0000
# 3 28.3617 12.9455 185.6847 0.0000 0.0000 0.0000
# 4 0.0000 0.0000 0.0000 29.1039 0.0000 0.0000
# 5 0.0000 0.0000 0.0000 0.0000 22.5326 0.0000
# 6 0.0000 0.0000 0.0000 0.0000 0.0000 38.8333
#
#
#
# Elastic Compliance Matrix: (Units=1/GPa)
#
#
# Indices 1 2 3 4 5 6 
#
# 1 0.010977 0.002393 -0.001843 0.000000 0.000000 0.000000
# 2 0.002393 0.065600 -0.004939 0.000000 0.000000 0.000000
# 3 -0.001843 -0.004939 0.006011 0.000000 0.000000 0.000000
# 4 0.000000 0.000000 0.000000 0.034360 0.000000 0.000000
# 5 0.000000 0.000000 0.000000 0.000000 0.044380 0.000000
# 6 0.000000 0.000000 0.000000 0.000000 0.000000 0.025751
#
#
# Mechanical properties :
#
#
# Convention : Reuss Voigt Hill
#
# Bulk Modulus (GPa) = 13.54834 41.99822 27.77328
# Shear Modulus (GPa) = 22.67972 35.30600 28.99286
#
# Velocity S-wave (km/s) = 3.13442 3.91078 3.54392
# Velocity P-wave (km/s) = 4.35528 6.21171 5.36441
#
# Compressibility (1/GPa) = 0.07380977
#
# Stress axis : x y z
#
# Youngs Moduli (GPa) = 91.09946 15.24390 166.35096
#
# Poissons Ratio (x) = -0.03648 0.30667
# Poissons Ratio (y) = -0.21802 0.82161
# Poissons Ratio (z) = 0.16794 0.07529
#
# Static dielectric constant tensor:
#      x y z
#    x 2.062530 0.000000 0.000000 
#    y 0.000000 1.981290 0.000000 
#    z 0.000000 0.000000 1.898990 
# 
# From -- ./inp_files/3098.got.cif
#   From: 2010.05.17/outbox.cif.g08.bks.cpg/sg30_2_cif.got.tgz:3098.got - 2010.06.03 17:03:02.
