data_PCOD9342814
_publ_section_title
;
Structure prediction by ZEFSAII (Michael W. Deem and Ramdas Pophale) SiO2 
 PCOD9342814
Probable space group: P M N 21
;
_chemical_formula_sum "Si O2"
_cell_formula_units_Z 24
_cell_length_a 16.694820
_cell_length_b 10.706372
_cell_length_c 5.589824
_cell_angle_alpha 90.000000
_cell_angle_beta 90.000000
_cell_angle_gamma 90.000000
_cell_volume 999.130471
_symmetry_space_group_name_H-M "P M N 21"
_symmetry_group_IT_number 31
_symmetry_cell_setting 'orthorhombic'
loop_
_space_group_symop_operation_xyz
x,y,z
1/2-x,-y,1/2+z
-x,y,z
1/2+x,-y,1/2+z
loop_
_atom_site_type_symbol
_atom_site_label
_atom_site_fract_x
_atom_site_fract_y
_atom_site_fract_z
Si Si1 0.815246 0.351076 0.522820
Si Si2 0.291849 0.766766 0.522820
Si Si3 0.633338 0.305600 0.522820
Si Si4 0.500000 0.891302 0.772466
Si Si5 0.362807 0.016973 0.522820
Si Si6 0.000000 0.108698 0.773175
Si Si7 0.621592 0.372595 0.022820
O O1 0.831024 0.278414 0.273451
O O2 0.718685 0.379391 0.522820
O O3 0.861067 0.480846 0.522820
O O4 0.831024 0.278415 0.772189
O O5 0.292071 0.916769 0.522820
O O6 0.205003 0.705421 0.522820
O O7 0.587629 0.335988 0.279717
O O8 0.658439 0.160170 0.522820
O O9 0.587629 0.335988 0.765924
O O10 0.500000 0.824015 0.022820
O O11 0.422356 0.980001 0.741296
O O12 0.500000 0.815095 0.522820
O O13 0.422356 0.980000 0.304344
#
# Coordination Sequence:
#
# PCOD9342814 Si02
#       7
#     4   4   4   2   4   2   4
#     4  10  20  33  47  74 108 143 169 191 230 283
#     4  10  19  30  52  71 107 133 165 206 232 304
#     4  10  19  30  52  71 107 133 165 206 232 304
#     4   8  20  36  52  66 104 124 160 216 246 324
#     4   9  22  32  54  82  96 126 170 197 280 284
#     4   8  20  36  52  66 104 124 160 216 246 324
#     4  10  20  33  47  74 108 143 169 191 230 283
#
# _framework density 24.020886999999998
#
# number of rings (size 3 to 8) (size 9 to 14) (size 15 to 20)
#    1.000    1.333    0.000    5.000    4.667    5.333 
#    0.000    0.000    0.000    0.000    0.000   51.333 
#    0.000    0.000    0.000    0.000    0.000    0.000 
#
# Total GULP energy -133848.021173 kJ/mol
# GULP energy per Si atom -5577.000882 kJ/mol
# Density = 2.396621 g / cm^3
# Si number density = 24.020887 Si / 1000 Ang^3
#
#
#
# Elastic Constant Matrix: (Units=GPa)
#
#
# Indices 1 2 3 4 5 6 
#
# 1 23.5605 29.5515 22.1204 0.0000 0.0000 0.0000
# 2 29.5515 113.7565 49.0905 0.0000 0.0000 0.0000
# 3 22.1204 49.0905 282.7805 0.0000 0.0000 0.0000
# 4 0.0000 0.0000 0.0000 28.8682 0.0000 0.0000
# 5 0.0000 0.0000 0.0000 0.0000 -34.2498 0.0000
# 6 0.0000 0.0000 0.0000 0.0000 0.0000 -50.3664
#
#
#
# Elastic Compliance Matrix: (Units=1/GPa)
#
#
# Indices 1 2 3 4 5 6 
#
# 1 0.064316 -0.015714 -0.002303 0.000000 0.000000 0.000000
# 2 -0.015714 0.013342 -0.001087 0.000000 0.000000 0.000000
# 3 -0.002303 -0.001087 0.003905 0.000000 0.000000 0.000000
# 4 0.000000 0.000000 0.000000 0.034640 0.000000 0.000000
# 5 0.000000 0.000000 0.000000 0.000000 -0.029197 0.000000
# 6 0.000000 0.000000 0.000000 0.000000 0.000000 -0.019855
#
#
# Mechanical properties :
#
#
# Convention : Reuss Voigt Hill
#
# Bulk Modulus (GPa) = 23.06538 69.06914 46.06726
# Shear Modulus (GPa) = 41.73216 10.13941 25.93578
#
# Velocity S-wave (km/s) = 4.17265 2.05676 3.28947
# Velocity P-wave (km/s) = 5.73042 5.86997 5.80061
#
# Compressibility (1/GPa) = 0.04335502
#
# Stress axis : x y z
#
# Youngs Moduli (GPa) = 15.54818 74.95167 256.07102
#
# Poissons Ratio (x) = 1.17779 0.58978
# Poissons Ratio (y) = 0.24432 0.27833
# Poissons Ratio (z) = 0.03581 0.08147
#
# Static dielectric constant tensor:
#      x y z
#    x 1.918160 0.000000 0.000000 
#    y 0.000000 1.827690 0.000000 
#    z 0.000000 0.000000 2.032530 
# 
# From -- ./inp_files/1101.got.cif
#   From: 2010.05.17/outbox.cif.g08.bks.cpg/sg31_1_cif.got.tgz:1101.got - 2010.06.03 17:08:30.
