data_PCOD9342435
_publ_section_title
;
Structure prediction by ZEFSAII (Michael W. Deem and Ramdas Pophale) SiO2 
 PCOD9342435
Probable space group: P N C 2
;
_chemical_formula_sum "Si O2"
_cell_formula_units_Z 28
_cell_length_a 9.893728
_cell_length_b 26.879675
_cell_length_c 5.005481
_cell_angle_alpha 90.000000
_cell_angle_beta 90.000000
_cell_angle_gamma 90.000000
_cell_volume 1331.158584
_symmetry_space_group_name_H-M "P N C 2"
_symmetry_group_IT_number 30
_symmetry_cell_setting 'orthorhombic'
loop_
_space_group_symop_operation_xyz
x,y,z
-x,-y,z
-x,1/2+y,1/2+z
x,1/2-y,1/2+z
loop_
_atom_site_type_symbol
_atom_site_label
_atom_site_fract_x
_atom_site_fract_y
_atom_site_fract_z
Si Si1 0.249725 0.049437 0.019080
Si Si2 0.596975 0.395313 0.117616
Si Si3 0.949860 0.868015 0.889745
Si Si4 0.500000 0.000000 0.715859
Si Si5 0.900886 0.104112 0.417984
Si Si6 0.758187 0.783095 0.082819
Si Si7 0.552828 0.866680 0.145262
Si Si8 0.000000 0.000000 0.325714
O O1 0.335940 0.089555 0.188842
O O2 0.134286 0.016979 0.162504
O O3 0.162819 0.088811 0.845738
O O4 0.365334 0.016481 0.879386
O O5 0.546885 0.451517 0.056930
O O6 0.555907 0.385350 0.424686
O O7 0.749039 0.391686 0.017893
O O8 0.514009 0.358398 0.929859
O O9 0.015058 0.858872 0.604255
O O10 0.880851 0.819708 0.011638
O O11 0.059522 0.887465 0.108628
O O12 0.951050 0.048173 0.484681
O O13 0.760458 0.763042 0.382355
O O14 0.627233 0.817786 0.043458
#
# Coordination Sequence:
#
# PCOD9342435 Si02
#       8
#     4   4   4   2   4   4   4   2
#     4   9  22  38  58  86 128 166 210 272 300 363
#     4  11  24  38  62  86 131 178 211 256 307 374
#     4  10  23  42  60  94 127 158 206 270 324 365
#     4  10  24  34  62  86 128 174 238 250 302 360
#     4  11  24  38  62  86 131 178 211 256 307 374
#     4  11  22  42  76  98 118 154 208 270 338 397
#     4  10  23  42  60  94 127 158 206 270 324 365
#     4  10  24  34  62  86 128 174 238 250 302 360
#
# _framework density 21.034306000000001
#
# number of rings (size 3 to 8) (size 9 to 14) (size 15 to 20)
#    0.000    1.714    0.000    2.571   12.000    9.143 
#    0.000    0.000    0.000   17.143    0.000    0.000 
#    0.000    0.000    0.000    0.000    0.000    0.000 
#
# Total GULP energy -156269.278225 kJ/mol
# GULP energy per Si atom -5581.045651 kJ/mol
# Density = 2.098643 g / cm^3
# Si number density = 21.034306 Si / 1000 Ang^3
#
#
#
# Elastic Constant Matrix: (Units=GPa)
#
#
# Indices 1 2 3 4 5 6 
#
# 1 135.9743 24.7090 25.7147 0.0000 0.0000 0.0000
# 2 24.7090 57.2281 -4.0128 0.0000 0.0000 0.0000
# 3 25.7147 -4.0128 62.0214 0.0000 0.0000 0.0000
# 4 0.0000 0.0000 0.0000 33.0819 0.0000 0.0000
# 5 0.0000 0.0000 0.0000 0.0000 23.0196 0.0000
# 6 0.0000 0.0000 0.0000 0.0000 0.0000 12.9725
#
#
#
# Elastic Compliance Matrix: (Units=1/GPa)
#
#
# Indices 1 2 3 4 5 6 
#
# 1 0.008841 -0.004093 -0.003931 0.000000 0.000000 0.000000
# 2 -0.004093 0.019448 0.002955 0.000000 0.000000 0.000000
# 3 -0.003931 0.002955 0.017944 0.000000 0.000000 0.000000
# 4 0.000000 0.000000 0.000000 0.030228 0.000000 0.000000
# 5 0.000000 0.000000 0.000000 0.000000 0.043441 0.000000
# 6 0.000000 0.000000 0.000000 0.000000 0.000000 0.077086
#
#
# Mechanical properties :
#
#
# Convention : Reuss Voigt Hill
#
# Bulk Modulus (GPa) = 27.70267 38.67174 33.18720
# Shear Modulus (GPa) = 22.81451 27.73567 25.27509
#
# Velocity S-wave (km/s) = 3.29695 3.63518 3.47019
# Velocity P-wave (km/s) = 5.26232 6.00370 5.64519
#
# Compressibility (1/GPa) = 0.03609760
#
# Stress axis : x y z
#
# Youngs Moduli (GPa) = 113.10388 51.41823 55.72794
#
# Poissons Ratio (x) = 0.21046 0.21904
# Poissons Ratio (y) = 0.46294 -0.16469
# Poissons Ratio (z) = 0.44456 -0.15196
#
# Static dielectric constant tensor:
#      x y z
#    x 1.794880 0.000000 0.000000 
#    y 0.000000 1.737280 0.000000 
#    z 0.000000 0.000000 1.775870 
# 
# From -- ./inp_files/517.got.cif
#   From: 2010.05.17/outbox.cif.g08.bks.cpg/sg30_1_cif.got.tgz:517.got - 2010.06.03 17:03:02.
