data_PCOD9342384
_publ_section_title
;
Structure prediction by ZEFSAII (Michael W. Deem and Ramdas Pophale) SiO2 
 PCOD9342384
Probable space group: P N C 2
;
_chemical_formula_sum "Si O2"
_cell_formula_units_Z 26
_cell_length_a 11.469357
_cell_length_b 12.346822
_cell_length_c 8.723580
_cell_angle_alpha 90.000000
_cell_angle_beta 90.000000
_cell_angle_gamma 90.000000
_cell_volume 1235.347118
_symmetry_space_group_name_H-M "P N C 2"
_symmetry_group_IT_number 30
_symmetry_cell_setting 'orthorhombic'
loop_
_space_group_symop_operation_xyz
x,y,z
-x,-y,z
-x,1/2+y,1/2+z
x,1/2-y,1/2+z
loop_
_atom_site_type_symbol
_atom_site_label
_atom_site_fract_x
_atom_site_fract_y
_atom_site_fract_z
Si Si1 0.000000 0.500000 0.679570
Si Si2 0.000000 0.500000 0.174791
Si Si3 0.636574 0.917925 0.914288
Si Si4 0.883158 0.629550 0.422737
Si Si5 0.500000 0.500000 0.131105
Si Si6 0.591955 0.371481 0.565448
Si Si7 0.656654 0.150308 0.420104
Si Si8 0.069186 0.826548 0.427055
O O1 0.906471 0.559479 0.573786
O O2 0.949293 0.404453 0.782088
O O3 0.100044 0.454801 0.284196
O O4 0.031949 0.601631 0.071626
O O5 0.747709 0.840138 0.917041
O O6 0.567956 0.921133 0.752169
O O7 0.545435 0.895763 0.050191
O O8 0.664020 0.043373 0.959355
O O9 0.983107 0.722562 0.415325
O O10 0.401214 0.555392 0.023937
O O11 0.596147 0.256784 0.483160
O O12 0.634041 0.370349 0.740223
O O13 0.792358 0.182598 0.441936
#
# Coordination Sequence:
#
# PCOD9342384 Si02
#       8
#     2   2   4   4   2   4   4   4
#     4  10  24  44  60 104 130 180 224 280 348 398
#     4  10  24  42  64 102 130 180 226 276 354 394
#     4  10  22  45  66  98 136 170 227 280 343 413
#     4  11  23  42  72  97 137 184 225 285 352 407
#     4  10  22  44  68 102 130 180 222 286 348 400
#     4  10  23  41  66  98 130 176 221 278 343 400
#     4  12  24  41  70  97 133 173 229 279 340 418
#     4  11  25  43  66 102 136 180 233 282 346 417
#
# _framework density 21.046717000000001
#
# number of rings (size 3 to 8) (size 9 to 14) (size 15 to 20)
#    0.000    1.538    0.000    5.538    8.615    0.000 
#   16.615    0.000    0.000    0.000    0.000    0.000 
#    0.000    0.000    0.000    0.000    0.000    0.000 
#
# Total GULP energy -144930.227274 kJ/mol
# GULP energy per Si atom -5574.239511 kJ/mol
# Density = 2.099881 g / cm^3
# Si number density = 21.046717 Si / 1000 Ang^3
#
#
#
# Elastic Constant Matrix: (Units=GPa)
#
#
# Indices 1 2 3 4 5 6 
#
# 1 131.4626 32.8270 17.7902 0.0000 0.0000 0.0000
# 2 32.8270 53.0893 20.9209 0.0000 0.0000 0.0000
# 3 17.7902 20.9209 105.6491 0.0000 0.0000 0.0000
# 4 0.0000 0.0000 0.0000 1.7688 0.0000 0.0000
# 5 0.0000 0.0000 0.0000 0.0000 206.8368 0.0000
# 6 0.0000 0.0000 0.0000 0.0000 0.0000 26.8107
#
#
#
# Elastic Compliance Matrix: (Units=1/GPa)
#
#
# Indices 1 2 3 4 5 6 
#
# 1 0.009015 -0.005397 -0.000449 0.000000 0.000000 0.000000
# 2 -0.005397 0.023662 -0.003777 0.000000 0.000000 0.000000
# 3 -0.000449 -0.003777 0.010289 0.000000 0.000000 0.000000
# 4 0.000000 0.000000 0.000000 0.565360 0.000000 0.000000
# 5 0.000000 0.000000 0.000000 0.000000 0.004835 0.000000
# 6 0.000000 0.000000 0.000000 0.000000 0.000000 0.037299
#
#
# Mechanical properties :
#
#
# Convention : Reuss Voigt Hill
#
# Bulk Modulus (GPa) = 42.15999 48.14194 45.15096
# Shear Modulus (GPa) = 7.37885 61.66078 34.51981
#
# Velocity S-wave (km/s) = 1.87445 5.41855 4.05427
# Velocity P-wave (km/s) = 4.97593 7.87852 6.58904
#
# Compressibility (1/GPa) = 0.02371917
#
# Stress axis : x y z
#
# Youngs Moduli (GPa) = 110.92257 42.26201 97.19286
#
# Poissons Ratio (x) = 0.22811 0.04367
# Poissons Ratio (y) = 0.59870 0.36707
# Poissons Ratio (z) = 0.04983 0.15961
#
# Static dielectric constant tensor:
#      x y z
#    x 1.891510 0.000000 0.000000 
#    y 0.000000 1.825420 0.000000 
#    z 0.000000 0.000000 1.760420 
# 
# From -- ./inp_files/2397.got.cif
#   From: 2010.05.17/outbox.cif.g08.bks.cpg/sg30_2_cif.got.tgz:2397.got - 2010.06.03 17:03:02.
