data_PCOD9342947
_publ_section_title
;
Structure prediction by ZEFSAII (Michael W. Deem and Ramdas Pophale) SiO2 
 PCOD9342947
Probable space group: P M N 21
;
_chemical_formula_sum "Si O2"
_cell_formula_units_Z 32
_cell_length_a 7.673196
_cell_length_b 16.376003
_cell_length_c 11.344937
_cell_angle_alpha 90.000000
_cell_angle_beta 90.000000
_cell_angle_gamma 90.000000
_cell_volume 1425.562588
_symmetry_space_group_name_H-M "P M N 21"
_symmetry_group_IT_number 31
_symmetry_cell_setting 'orthorhombic'
loop_
_space_group_symop_operation_xyz
x,y,z
1/2-x,-y,1/2+z
-x,y,z
1/2+x,-y,1/2+z
loop_
_atom_site_type_symbol
_atom_site_label
_atom_site_fract_x
_atom_site_fract_y
_atom_site_fract_z
Si Si1 0.208790 0.154772 0.916320
Si Si2 0.196590 0.134708 0.543198
Si Si3 0.709613 0.454585 0.684345
Si Si4 0.785874 0.016861 0.733278
Si Si5 0.704090 0.160357 0.187326
Si Si6 0.204173 0.730262 0.222152
Si Si7 0.790038 0.448423 0.417903
Si Si8 0.702893 0.732891 0.876538
O O1 0.268789 0.076875 0.838477
O O2 0.276421 0.237224 0.854441
O O3 0.000000 0.155486 0.913129
O O4 0.269337 0.150867 0.049110
O O5 0.275470 0.056793 0.609171
O O6 0.193649 0.202830 0.646583
O O7 0.284281 0.188316 0.441713
O O8 0.000000 0.112100 0.507626
O O9 0.500000 0.454168 0.691824
O O10 0.769399 0.360694 0.699236
O O11 0.751904 0.481580 0.549884
O O12 0.772548 0.504397 0.799929
O O13 0.000000 0.017088 0.730220
O O14 0.726418 0.924169 0.743317
O O15 0.500000 0.166532 0.210644
O O16 0.788179 0.241618 0.240827
O O17 0.000000 0.734221 0.189158
O O18 0.722563 0.354811 0.409310
O O19 0.000000 0.445906 0.408625
O O20 0.500000 0.730785 0.912678
#
# Coordination Sequence:
#
# PCOD9342947 Si02
#       8
#     4   4   4   4   4   4   4   4
#     4  10  21  39  58  79 112 151 194 236 284 350
#     4   9  17  34  59  82 108 145 189 231 272 335
#     4  10  22  39  61  92 125 155 197 253 304 360
#     4   8  18  35  55  80 110 145 186 234 285 339
#     4  11  23  37  55  82 117 151 189 241 298 346
#     4  10  19  34  58  86 113 142 183 235 291 341
#     4  10  22  41  63  89 122 160 206 248 299 368
#     4  10  21  37  59  84 113 153 196 236 283 349
#
# _framework density 22.447277
#
# number of rings (size 3 to 8) (size 9 to 14) (size 15 to 20)
#    0.000    2.250    1.250    1.875    1.750    3.000 
#    0.000    8.125    0.000    0.000    0.000    0.000 
#    0.000    0.000    0.000    0.000    0.000    0.000 
#
# Total GULP energy -178537.794845 kJ/mol
# GULP energy per Si atom -5579.306089 kJ/mol
# Density = 2.239619 g / cm^3
# Si number density = 22.447277 Si / 1000 Ang^3
#
#
#
# Elastic Constant Matrix: (Units=GPa)
#
#
# Indices 1 2 3 4 5 6 
#
# 1 58.0709 1.6416 -1.4048 0.0000 0.0000 0.0000
# 2 1.6416 76.0247 52.0072 0.0000 0.0000 0.0000
# 3 -1.4048 52.0072 133.8296 0.0000 0.0000 0.0000
# 4 0.0000 0.0000 0.0000 30.3873 0.0000 0.0000
# 5 0.0000 0.0000 0.0000 0.0000 24.7257 0.0000
# 6 0.0000 0.0000 0.0000 0.0000 0.0000 6.2801
#
#
#
# Elastic Compliance Matrix: (Units=1/GPa)
#
#
# Indices 1 2 3 4 5 6 
#
# 1 0.017250 -0.000676 0.000444 0.000000 0.000000 0.000000
# 2 -0.000676 0.017943 -0.006980 0.000000 0.000000 0.000000
# 3 0.000444 -0.006980 0.010189 0.000000 0.000000 0.000000
# 4 0.000000 0.000000 0.000000 0.032909 0.000000 0.000000
# 5 0.000000 0.000000 0.000000 0.000000 0.040444 0.000000
# 6 0.000000 0.000000 0.000000 0.000000 0.000000 0.159233
#
#
# Mechanical properties :
#
#
# Convention : Reuss Voigt Hill
#
# Bulk Modulus (GPa) = 32.30166 41.37923 36.84045
# Shear Modulus (GPa) = 16.51740 26.65736 21.58738
#
# Velocity S-wave (km/s) = 2.71556 3.44983 3.10448
# Velocity P-wave (km/s) = 4.92480 5.86024 5.41276
#
# Compressibility (1/GPa) = 0.03095816
#
# Stress axis : x y z
#
# Youngs Moduli (GPa) = 57.97045 55.73188 98.14232
#
# Poissons Ratio (x) = 0.03768 -0.04356
# Poissons Ratio (y) = 0.03919 0.68502
# Poissons Ratio (z) = -0.02573 0.38900
#
# Static dielectric constant tensor:
#      x y z
#    x 1.828830 0.000000 0.000000 
#    y 0.000000 1.826370 0.000000 
#    z 0.000000 0.000000 1.914880 
# 
# From -- ./inp_files/3593.got.cif
#   From: 2010.05.17/outbox.cif.g08.bks.cpg/sg31_2_cif.got.tgz:3593.got - 2010.06.03 17:08:30.
