data_PCOD9342490
_publ_section_title
;
Structure prediction by ZEFSAII (Michael W. Deem and Ramdas Pophale) SiO2 
 PCOD9342490
Probable space group: P N C 2
;
_chemical_formula_sum "Si O2"
_cell_formula_units_Z 32
_cell_length_a 10.826620
_cell_length_b 10.079841
_cell_length_c 14.215772
_cell_angle_alpha 90.000000
_cell_angle_beta 90.000000
_cell_angle_gamma 90.000000
_cell_volume 1551.375844
_symmetry_space_group_name_H-M "P N C 2"
_symmetry_group_IT_number 30
_symmetry_cell_setting 'orthorhombic'
loop_
_space_group_symop_operation_xyz
x,y,z
-x,-y,z
-x,1/2+y,1/2+z
x,1/2-y,1/2+z
loop_
_atom_site_type_symbol
_atom_site_label
_atom_site_fract_x
_atom_site_fract_y
_atom_site_fract_z
Si Si1 0.161529 0.086213 0.707930
Si Si2 0.252811 0.677288 0.567060
Si Si3 0.870684 0.636506 0.989144
Si Si4 0.495109 0.155301 0.177607
Si Si5 0.088068 0.717500 0.230953
Si Si6 0.305130 0.121921 0.011608
Si Si7 0.418990 0.126578 0.810530
Si Si8 0.848173 0.365197 0.918164
O O1 0.153826 0.084527 0.594833
O O2 0.289500 0.119661 0.755988
O O3 0.059286 0.196442 0.735211
O O4 0.132064 0.935269 0.737967
O O5 0.379473 0.695369 0.624274
O O6 0.140374 0.715928 0.636416
O O7 0.253371 0.525013 0.532421
O O8 0.243570 0.776532 0.479494
O O9 0.802878 0.776413 0.984928
O O10 0.818031 0.521190 0.921620
O O11 0.015465 0.647313 0.965954
O O12 0.481531 0.241778 0.270619
O O13 0.500000 0.000000 0.199848
O O14 0.382083 0.169616 0.103011
O O15 0.138195 0.805346 0.315501
O O16 0.395220 0.120476 0.921727
O O17 0.500000 0.000000 0.783064
#
# Coordination Sequence:
#
# PCOD9342490 Si02
#       8
#     4   4   4   4   4   4   4   4
#     4  11  21  43  70  97 136 179 222 279 345 403
#     4  11  22  42  66  98 133 174 227 286 334 405
#     4  11  22  45  65  93 140 177 213 281 341 405
#     4  10  24  43  64  92 134 172 222 287 342 397
#     4  11  22  40  69 100 135 179 222 280 334 409
#     4  11  25  44  66  96 138 174 222 286 344 402
#     4  12  24  42  71  99 127 179 233 274 339 414
#     4  11  23  41  66  98 134 175 226 272 337 408
#
# _framework density 20.626852
#
# number of rings (size 3 to 8) (size 9 to 14) (size 15 to 20)
#    0.000    1.000    3.750    4.125    0.000    4.500 
#    4.500    0.625    0.000    0.000    0.000    0.000 
#    0.000    0.000    0.000    0.000    0.000    0.000 
#
# Total GULP energy -178884.025146 kJ/mol
# GULP energy per Si atom -5590.125786 kJ/mol
# Density = 2.057990 g / cm^3
# Si number density = 20.626852 Si / 1000 Ang^3
#
#
#
# Elastic Constant Matrix: (Units=GPa)
#
#
# Indices 1 2 3 4 5 6 
#
# 1 50.6877 28.5683 -8.7975 0.0000 0.0000 0.0000
# 2 28.5683 99.6944 30.1727 0.0000 0.0000 0.0000
# 3 -8.7975 30.1727 86.1218 0.0000 0.0000 0.0000
# 4 0.0000 0.0000 0.0000 -474.2786 0.0000 0.0000
# 5 0.0000 0.0000 0.0000 0.0000 33.8429 0.0000
# 6 0.0000 0.0000 0.0000 0.0000 0.0000 30.4047
#
#
#
# Elastic Compliance Matrix: (Units=1/GPa)
#
#
# Indices 1 2 3 4 5 6 
#
# 1 0.025941 -0.009212 0.005877 0.000000 0.000000 0.000000
# 2 -0.009212 0.014492 -0.006018 0.000000 0.000000 0.000000
# 3 0.005877 -0.006018 0.014320 0.000000 0.000000 0.000000
# 4 0.000000 0.000000 0.000000 -0.002108 0.000000 0.000000
# 5 0.000000 0.000000 0.000000 0.000000 0.029548 0.000000
# 6 0.000000 0.000000 0.000000 0.000000 0.000000 0.032890
#
#
# Mechanical properties :
#
#
# Convention : Reuss Voigt Hill
#
# Bulk Modulus (GPa) = 27.74172 37.37677 32.55924
# Shear Modulus (GPa) = 34.29236 -69.56885 -17.63824
#
# Velocity S-wave (km/s) = 4.08181 -5.81382 -2.92740
# Velocity P-wave (km/s) = 5.97440 5.18725 2.09593
#
# Compressibility (1/GPa) = 0.03604679
#
# Stress axis : x y z
#
# Youngs Moduli (GPa) = 38.54902 69.00350 69.83062
#
# Poissons Ratio (x) = 0.63569 -0.41043
# Poissons Ratio (y) = 0.35513 0.42026
# Poissons Ratio (z) = -0.22657 0.41529
#
# Static dielectric constant tensor:
#      x y z
#    x 1.758020 0.000000 0.000000 
#    y 0.000000 1.730240 0.000000 
#    z 0.000000 0.000000 1.729350 
# 
# From -- ./inp_files/5529.got.cif
#   From: 2010.05.17/outbox.cif.g08.bks.cpg/sg30_3_cif.got.tgz:5529.got - 2010.06.03 17:03:02.
