data_PCOD9342783
_publ_section_title
;
Structure prediction by ZEFSAII (Michael W. Deem and Ramdas Pophale) SiO2 
 PCOD9342783
Probable space group: P M N 21
;
_chemical_formula_sum "Si O2"
_cell_formula_units_Z 32
_cell_length_a 25.352114
_cell_length_b 6.444486
_cell_length_c 9.923996
_cell_angle_alpha 90.000000
_cell_angle_beta 90.000000
_cell_angle_gamma 90.000000
_cell_volume 1621.395802
_symmetry_space_group_name_H-M "P M N 21"
_symmetry_group_IT_number 31
_symmetry_cell_setting 'orthorhombic'
loop_
_space_group_symop_operation_xyz
x,y,z
1/2-x,-y,1/2+z
-x,y,z
1/2+x,-y,1/2+z
loop_
_atom_site_type_symbol
_atom_site_label
_atom_site_fract_x
_atom_site_fract_y
_atom_site_fract_z
Si Si1 0.769793 0.638062 0.235400
Si Si2 0.155752 0.250323 0.653216
Si Si3 0.838830 0.252764 0.149929
Si Si4 0.940891 0.514759 0.709214
Si Si5 0.197816 0.892444 0.972280
Si Si6 0.401857 0.089081 0.335604
Si Si7 0.942121 0.279954 0.996015
Si Si8 0.194223 0.006899 0.387468
O O1 0.706080 0.638641 0.224534
O O2 0.799914 0.425291 0.208311
O O3 0.784640 0.772685 0.104349
O O4 0.794291 0.761749 0.363971
O O5 0.108269 0.414721 0.628857
O O6 0.130175 0.081844 0.751840
O O7 0.174242 0.112700 0.524863
O O8 0.843835 0.086336 0.270046
O O9 0.814278 0.125102 0.024922
O O10 0.894803 0.331156 0.096669
O O11 0.939027 0.414245 0.859217
O O12 0.000000 0.473320 0.654997
O O13 0.932567 0.757943 0.737956
O O14 0.246229 0.902767 0.869681
O O15 0.145092 0.793489 0.913291
O O16 0.435293 0.957857 0.443226
O O17 0.000000 0.309231 0.055654
#
# Coordination Sequence:
#
# PCOD9342783 Si02
#       8
#     4   4   4   4   4   4   4   4
#     4  10  20  34  54  80 109 147 184 224 281 340
#     4  10  22  35  53  81 114 149 184 231 279 332
#     4  10  21  34  55  80 109 148 186 229 282 333
#     4  10  21  35  57  84 108 142 191 233 282 338
#     4   9  19  33  50  78 111 139 180 232 276 334
#     4  10  18  34  57  80 110 144 183 232 285 333
#     4   9  19  37  57  83 111 139 184 241 287 328
#     4  10  21  36  51  78 116 148 183 224 270 342
#
# _framework density 19.736083000000001
#
# number of rings (size 3 to 8) (size 9 to 14) (size 15 to 20)
#    0.000    2.250    1.250    1.125    1.750    3.500 
#    0.000    0.625    0.000    0.750    0.000    0.000 
#    0.000    0.000    0.000    0.000    0.000    0.000 
#
# Total GULP energy -178239.765347 kJ/mol
# GULP energy per Si atom -5569.992667 kJ/mol
# Density = 1.969116 g / cm^3
# Si number density = 19.736083 Si / 1000 Ang^3
#
#
#
# Elastic Constant Matrix: (Units=GPa)
#
#
# Indices 1 2 3 4 5 6 
#
# 1 125.1335 43.8063 19.6154 0.0000 0.0000 0.0000
# 2 43.8063 65.1662 6.7262 0.0000 0.0000 0.0000
# 3 19.6154 6.7262 39.9021 0.0000 0.0000 0.0000
# 4 0.0000 0.0000 0.0000 22.7281 0.0000 0.0000
# 5 0.0000 0.0000 0.0000 0.0000 23.7089 0.0000
# 6 0.0000 0.0000 0.0000 0.0000 0.0000 20.2691
#
#
#
# Elastic Compliance Matrix: (Units=1/GPa)
#
#
# Indices 1 2 3 4 5 6 
#
# 1 0.011127 -0.007037 -0.004283 0.000000 0.000000 0.000000
# 2 -0.007037 0.020068 0.000077 0.000000 0.000000 0.000000
# 3 -0.004283 0.000077 0.027154 0.000000 0.000000 0.000000
# 4 0.000000 0.000000 0.000000 0.043998 0.000000 0.000000
# 5 0.000000 0.000000 0.000000 0.000000 0.042178 0.000000
# 6 0.000000 0.000000 0.000000 0.000000 0.000000 0.049336
#
#
# Mechanical properties :
#
#
# Convention : Reuss Voigt Hill
#
# Bulk Modulus (GPa) = 27.88582 41.16641 34.52612
# Shear Modulus (GPa) = 21.90068 24.01149 22.95608
#
# Velocity S-wave (km/s) = 3.33480 3.49180 3.41420
# Velocity P-wave (km/s) = 5.38404 6.09595 5.75102
#
# Compressibility (1/GPa) = 0.03586052
#
# Stress axis : x y z
#
# Youngs Moduli (GPa) = 89.87514 49.83011 36.82687
#
# Poissons Ratio (x) = 0.35068 0.15774
# Poissons Ratio (y) = 0.63249 -0.00282
# Poissons Ratio (z) = 0.38497 -0.00382
#
# Static dielectric constant tensor:
#      x y z
#    x 1.740920 0.000000 0.000000 
#    y 0.000000 1.783390 0.000000 
#    z 0.000000 0.000000 1.704190 
# 
# From -- ./inp_files/4555.got.cif
#   From: 2010.05.17/outbox.cif.g08.bks.cpg/sg31_3_cif.got.tgz:4555.got - 2010.06.03 17:08:30.
