data_PCOD9342713
_publ_section_title
;
Structure prediction by ZEFSAII (Michael W. Deem and Ramdas Pophale) SiO2 
 PCOD9342713
Probable space group: P M N 21
;
_chemical_formula_sum "Si O2"
_cell_formula_units_Z 32
_cell_length_a 7.554585
_cell_length_b 10.958807
_cell_length_c 14.457759
_cell_angle_alpha 90.000000
_cell_angle_beta 90.000000
_cell_angle_gamma 90.000000
_cell_volume 1196.946865
_symmetry_space_group_name_H-M "P M N 21"
_symmetry_group_IT_number 31
_symmetry_cell_setting 'orthorhombic'
loop_
_space_group_symop_operation_xyz
x,y,z
1/2-x,-y,1/2+z
-x,y,z
1/2+x,-y,1/2+z
loop_
_atom_site_type_symbol
_atom_site_label
_atom_site_fract_x
_atom_site_fract_y
_atom_site_fract_z
Si Si1 0.286601 0.076839 0.337640
Si Si2 0.297106 0.473590 0.179637
Si Si3 0.289478 0.285223 0.899903
Si Si4 0.792696 0.449113 0.391014
Si Si5 0.290680 0.788973 0.664760
Si Si6 0.284710 0.700537 0.053656
Si Si7 0.712299 0.846772 0.220444
Si Si8 0.297001 0.954914 0.512499
O O1 0.500000 0.069955 0.343593
O O2 0.216963 0.964312 0.274599
O O3 0.216816 0.053828 0.441406
O O4 0.240066 0.189856 0.273454
O O5 0.500000 0.504426 0.197873
O O6 0.214817 0.453402 0.280423
O O7 0.287172 0.339691 0.133872
O O8 0.231354 0.580478 0.113531
O O9 0.500000 0.279149 0.916829
O O10 0.203584 0.171076 0.952027
O O11 0.218860 0.419451 0.922833
O O12 0.257444 0.262710 0.790707
O O13 0.720820 0.334940 0.450661
O O14 0.000000 0.452638 0.414999
O O15 0.500000 0.784724 0.649054
O O16 0.213514 0.903793 0.606906
O O17 0.500000 0.711239 0.053090
O O18 0.223194 0.813389 0.117680
O O19 0.500000 0.858154 0.217472
O O20 0.500000 0.988096 0.530256
#
# Coordination Sequence:
#
# PCOD9342713 Si02
#       8
#     4   4   4   4   4   4   4   4
#     4   9  19  37  60  83 110 145 190 239 284 339
#     4  11  22  38  60  85 117 156 192 231 282 344
#     4  10  18  29  52  83 115 146 185 237 278 322
#     4  10  20  34  52  81 119 153 188 232 280 335
#     4  11  23  40  60  84 116 152 190 239 290 338
#     4   9  18  34  57  82 113 152 189 227 280 340
#     4   9  17  34  57  78 106 144 187 231 280 336
#     4   9  20  38  60  84 112 150 193 236 286 340
#
# _framework density 26.734684999999999
#
# number of rings (size 3 to 8) (size 9 to 14) (size 15 to 20)
#    0.000    2.250    1.250    2.625    0.000    4.500 
#    2.250    1.875    0.000    0.000    0.000    0.000 
#    0.000    0.000    0.000    0.000    0.000    0.000 
#
# Total GULP energy -178912.440163 kJ/mol
# GULP energy per Si atom -5591.013755 kJ/mol
# Density = 2.667384 g / cm^3
# Si number density = 26.734685 Si / 1000 Ang^3
#
#
#
# Elastic Constant Matrix: (Units=GPa)
#
#
# Indices 1 2 3 4 5 6 
#
# 1 90.2922 7.1702 2.0749 0.0000 0.0000 0.0000
# 2 7.1702 75.5065 12.8628 0.0000 0.0000 0.0000
# 3 2.0749 12.8628 153.1206 0.0000 0.0000 0.0000
# 4 0.0000 0.0000 0.0000 57.2260 0.0000 0.0000
# 5 0.0000 0.0000 0.0000 0.0000 19.0718 0.0000
# 6 0.0000 0.0000 0.0000 0.0000 0.0000 20.6253
#
#
#
# Elastic Compliance Matrix: (Units=1/GPa)
#
#
# Indices 1 2 3 4 5 6 
#
# 1 0.011160 -0.001049 -0.000063 0.000000 0.000000 0.000000
# 2 -0.001049 0.013535 -0.001123 0.000000 0.000000 0.000000
# 3 -0.000063 -0.001123 0.006626 0.000000 0.000000 0.000000
# 4 0.000000 0.000000 0.000000 0.017475 0.000000 0.000000
# 5 0.000000 0.000000 0.000000 0.000000 0.052433 0.000000
# 6 0.000000 0.000000 0.000000 0.000000 0.000000 0.048484
#
#
# Mechanical properties :
#
#
# Convention : Reuss Voigt Hill
#
# Bulk Modulus (GPa) = 37.24270 40.34834 38.79552
# Shear Modulus (GPa) = 30.64987 39.17205 34.91096
#
# Velocity S-wave (km/s) = 3.38959 3.83196 3.61755
# Velocity P-wave (km/s) = 5.41109 5.89097 5.65612
#
# Compressibility (1/GPa) = 0.02685090
#
# Stress axis : x y z
#
# Youngs Moduli (GPa) = 89.60649 73.88375 150.92128
#
# Poissons Ratio (x) = 0.07751 0.00952
# Poissons Ratio (y) = 0.09400 0.16945
# Poissons Ratio (z) = 0.00565 0.08295
#
# Static dielectric constant tensor:
#      x y z
#    x 1.977420 0.000000 0.000000 
#    y 0.000000 2.139360 0.000000 
#    z 0.000000 0.000000 2.175010 
# 
# From -- ./inp_files/5083.got.cif
#   From: 2010.05.17/outbox.cif.g08.bks.cpg/sg31_3_cif.got.tgz:5083.got - 2010.06.03 17:08:30.
