data_PCOD9342587
_publ_section_title
;
Structure prediction by ZEFSAII (Michael W. Deem and Ramdas Pophale) SiO2 
 PCOD9342587
Probable space group: P N C 2
;
_chemical_formula_sum "Si O2"
_cell_formula_units_Z 30
_cell_length_a 6.540599
_cell_length_b 19.866948
_cell_length_c 10.867194
_cell_angle_alpha 90.000000
_cell_angle_beta 90.000000
_cell_angle_gamma 90.000000
_cell_volume 1412.102100
_symmetry_space_group_name_H-M "P N C 2"
_symmetry_group_IT_number 30
_symmetry_cell_setting 'orthorhombic'
loop_
_space_group_symop_operation_xyz
x,y,z
-x,-y,z
-x,1/2+y,1/2+z
x,1/2-y,1/2+z
loop_
_atom_site_type_symbol
_atom_site_label
_atom_site_fract_x
_atom_site_fract_y
_atom_site_fract_z
Si Si1 0.500000 0.500000 0.375000
Si Si2 0.669870 0.363889 0.244799
Si Si3 0.466157 0.073155 0.283271
Si Si4 0.134135 0.359968 0.618986
Si Si5 0.612047 0.791666 0.929950
Si Si6 0.983655 0.247749 0.306861
Si Si7 0.344923 0.673892 0.971147
Si Si8 0.192768 0.543384 0.578105
O O1 0.583016 0.436730 0.292889
O O2 0.307089 0.501655 0.471442
O O3 0.499014 0.316438 0.307238
O O4 0.873453 0.320285 0.284372
O O5 0.690428 0.364310 0.098068
O O6 0.250094 0.094573 0.222801
O O7 0.518826 0.129571 0.380759
O O8 0.637998 0.065746 0.176090
O O9 0.500000 0.000000 0.344453
O O10 0.314385 0.348987 0.521448
O O11 0.053759 0.291629 0.683659
O O12 0.935866 0.389565 0.548410
O O13 0.464714 0.742167 0.003195
O O14 0.816713 0.756758 0.887492
O O15 0.840651 0.198248 0.386186
O O16 0.000000 0.500000 0.624209
#
# Coordination Sequence:
#
# PCOD9342587 Si02
#       8
#     2   4   4   4   4   4   4   4
#     4  12  26  46  66  98 138 188 232 286 360 422
#     4  11  26  44  65  99 141 185 227 286 352 432
#     4  12  24  42  68 102 134 179 228 290 352 414
#     4  12  23  40  72 104 133 176 237 300 348 418
#     4  11  23  42  69  98 134 177 227 291 351 412
#     4  11  23  43  69 102 137 176 233 291 353 410
#     4  11  25  42  67  99 136 179 230 281 350 424
#     4  12  22  41  69 100 133 175 234 289 348 417
#
# _framework density 21.244921000000001
#
# number of rings (size 3 to 8) (size 9 to 14) (size 15 to 20)
#    0.000    0.533    4.667    4.000    2.800    2.133 
#    0.000    0.000    0.000    2.400    0.000    0.000 
#    0.000    0.000    0.000    0.000    0.000    0.000 
#
# Total GULP energy -167018.650195 kJ/mol
# GULP energy per Si atom -5567.288340 kJ/mol
# Density = 2.119657 g / cm^3
# Si number density = 21.244921 Si / 1000 Ang^3
#
#
#
# Elastic Constant Matrix: (Units=GPa)
#
#
# Indices 1 2 3 4 5 6 
#
# 1 64.3626 10.8266 11.7256 0.0000 0.0000 0.0000
# 2 10.8266 70.4442 15.9731 0.0000 0.0000 0.0000
# 3 11.7256 15.9731 85.6780 0.0000 0.0000 0.0000
# 4 0.0000 0.0000 0.0000 -9.7927 0.0000 0.0000
# 5 0.0000 0.0000 0.0000 0.0000 19.9913 0.0000
# 6 0.0000 0.0000 0.0000 0.0000 0.0000 42.6976
#
#
#
# Elastic Compliance Matrix: (Units=1/GPa)
#
#
# Indices 1 2 3 4 5 6 
#
# 1 0.016220 -0.002077 -0.001833 0.000000 0.000000 0.000000
# 2 -0.002077 0.015088 -0.002529 0.000000 0.000000 0.000000
# 3 -0.001833 -0.002529 0.012394 0.000000 0.000000 0.000000
# 4 0.000000 0.000000 0.000000 -0.102117 0.000000 0.000000
# 5 0.000000 0.000000 0.000000 0.000000 0.050022 0.000000
# 6 0.000000 0.000000 0.000000 0.000000 0.000000 0.023421
#
#
# Mechanical properties :
#
#
# Convention : Reuss Voigt Hill
#
# Bulk Modulus (GPa) = 32.44097 33.05950 32.75023
# Shear Modulus (GPa) = 130.95918 22.70987 76.83452
#
# Velocity S-wave (km/s) = 7.85980 3.27304 6.02035
# Velocity P-wave (km/s) = 9.88290 5.46613 7.98593
#
# Compressibility (1/GPa) = 0.03082522
#
# Stress axis : x y z
#
# Youngs Moduli (GPa) = 61.65124 66.27668 80.68539
#
# Poissons Ratio (x) = 0.13768 0.14786
# Poissons Ratio (y) = 0.12807 0.20402
# Poissons Ratio (z) = 0.11298 0.16759
#
# Static dielectric constant tensor:
#      x y z
#    x 1.759560 0.000000 0.000000 
#    y 0.000000 1.937230 0.000000 
#    z 0.000000 0.000000 1.792740 
# 
# From -- ./inp_files/3234.got.cif
#   From: 2010.05.17/outbox.cif.g08.bks.cpg/sg30_2_cif.got.tgz:3234.got - 2010.06.03 17:03:02.
