data_PCOD9342248
_publ_section_title
;
Structure prediction by ZEFSAII (Michael W. Deem and Ramdas Pophale) SiO2 
 PCOD9342248
Probable space group: P N C 2
;
_chemical_formula_sum "Si O2"
_cell_formula_units_Z 16
_cell_length_a 6.555221
_cell_length_b 10.522676
_cell_length_c 9.644774
_cell_angle_alpha 90.000000
_cell_angle_beta 90.000000
_cell_angle_gamma 90.000000
_cell_volume 665.281722
_symmetry_space_group_name_H-M "P N C 2"
_symmetry_group_IT_number 30
_symmetry_cell_setting 'orthorhombic'
loop_
_space_group_symop_operation_xyz
x,y,z
-x,-y,z
-x,1/2+y,1/2+z
x,1/2-y,1/2+z
loop_
_atom_site_type_symbol
_atom_site_label
_atom_site_fract_x
_atom_site_fract_y
_atom_site_fract_z
Si Si1 0.329681 0.687810 0.797390
Si Si2 0.283088 0.329386 0.198765
Si Si3 0.054928 0.245644 0.942930
Si Si4 0.500000 0.000000 0.520513
Si Si5 0.000000 0.000000 0.285215
O O1 0.498551 0.758058 0.706921
O O2 0.191017 0.578224 0.720887
O O3 0.171845 0.776579 0.883627
O O4 0.444572 0.614142 0.919922
O O5 0.202002 0.342313 0.353402
O O6 0.318878 0.461690 0.123172
O O7 0.121949 0.251995 0.102303
O O8 0.091476 0.388646 0.881695
#
# Coordination Sequence:
#
# PCOD9342248 Si02
#       5
#     4   4   4   2   2
#     4  10  21  41  70 101 134 184 232 284 351 425
#     4  12  22  41  69 100 136 183 237 280 357 416
#     4  10  23  39  68  99 134 179 233 284 348 421
#     4  12  22  44  70 100 136 186 220 296 350 414
#     4   8  18  42  64  96 132 182 218 288 354 400
#
# _framework density 24.049965
#
# number of rings (size 3 to 8) (size 9 to 14) (size 15 to 20)
#    1.500    0.000    5.000    0.000    3.500    0.000 
#    0.000    3.750    0.000    0.000    0.000    0.000 
#    0.000    0.000    0.000    0.000    0.000    0.000 
#
# Total GULP energy -89106.296573 kJ/mol
# GULP energy per Si atom -5569.143536 kJ/mol
# Density = 2.399523 g / cm^3
# Si number density = 24.049965 Si / 1000 Ang^3
#
#
#
# Elastic Constant Matrix: (Units=GPa)
#
#
# Indices 1 2 3 4 5 6 
#
# 1 93.4591 5.1697 3.6386 0.0000 0.0000 0.0000
# 2 5.1697 32.1684 11.1804 0.0000 0.0000 0.0000
# 3 3.6386 11.1804 79.5454 0.0000 0.0000 0.0000
# 4 0.0000 0.0000 0.0000 18.1104 0.0000 0.0000
# 5 0.0000 0.0000 0.0000 0.0000 31.1681 0.0000
# 6 0.0000 0.0000 0.0000 0.0000 0.0000 32.5530
#
#
#
# Elastic Compliance Matrix: (Units=1/GPa)
#
#
# Indices 1 2 3 4 5 6 
#
# 1 0.010801 -0.001644 -0.000263 0.000000 0.000000 0.000000
# 2 -0.001644 0.032933 -0.004554 0.000000 0.000000 0.000000
# 3 -0.000263 -0.004554 0.013224 0.000000 0.000000 0.000000
# 4 0.000000 0.000000 0.000000 0.055217 0.000000 0.000000
# 5 0.000000 0.000000 0.000000 0.000000 0.032084 0.000000
# 6 0.000000 0.000000 0.000000 0.000000 0.000000 0.030719
#
#
# Mechanical properties :
#
#
# Convention : Reuss Voigt Hill
#
# Bulk Modulus (GPa) = 22.70880 27.23894 24.97387
# Shear Modulus (GPa) = 24.68177 28.71192 26.69684
#
# Velocity S-wave (km/s) = 3.20702 3.45895 3.33537
# Velocity P-wave (km/s) = 4.81416 5.22523 5.02390
#
# Compressibility (1/GPa) = 0.04403579
#
# Stress axis : x y z
#
# Youngs Moduli (GPa) = 92.58345 30.36435 75.62293
#
# Poissons Ratio (x) = 0.04993 0.01988
# Poissons Ratio (y) = 0.15225 0.34436
# Poissons Ratio (z) = 0.02434 0.13827
#
# Static dielectric constant tensor:
#      x y z
#    x 2.059380 0.000000 0.000000 
#    y 0.000000 1.943520 0.000000 
#    z 0.000000 0.000000 1.875340 
# 
# From -- ./inp_files/1635.got.cif
#   From: 2010.05.17/outbox.cif.g08.bks.cpg/sg30_1_cif.got.tgz:1635.got - 2010.06.03 17:03:02.
