data_PCOD9342759
_publ_section_title
;
Structure prediction by ZEFSAII (Michael W. Deem and Ramdas Pophale) SiO2 
 PCOD9342759
Probable space group: P M N 21
;
_chemical_formula_sum "Si O2"
_cell_formula_units_Z 32
_cell_length_a 7.971968
_cell_length_b 10.857691
_cell_length_c 14.434913
_cell_angle_alpha 90.000000
_cell_angle_beta 90.000000
_cell_angle_gamma 90.000000
_cell_volume 1249.445149
_symmetry_space_group_name_H-M "P M N 21"
_symmetry_group_IT_number 31
_symmetry_cell_setting 'orthorhombic'
loop_
_space_group_symop_operation_xyz
x,y,z
1/2-x,-y,1/2+z
-x,y,z
1/2+x,-y,1/2+z
loop_
_atom_site_type_symbol
_atom_site_label
_atom_site_fract_x
_atom_site_fract_y
_atom_site_fract_z
Si Si1 0.698058 0.295842 0.442770
Si Si2 0.195910 0.804616 0.556411
Si Si3 0.695291 0.428857 0.269277
Si Si4 0.690512 0.922835 0.386461
Si Si5 0.704074 0.468982 0.060670
Si Si6 0.305875 0.315950 0.785724
Si Si7 0.704834 0.160212 0.615006
Si Si8 0.800181 0.080058 0.230620
O O1 0.500000 0.269583 0.429638
O O2 0.771864 0.331307 0.342214
O O3 0.715525 0.420799 0.503688
O O4 0.768007 0.192266 0.512587
O O5 0.291812 0.907113 0.496417
O O6 0.240173 0.667923 0.522332
O O7 0.231917 0.811826 0.666167
O O8 0.000000 0.824711 0.542553
O O9 0.500000 0.396784 0.256666
O O10 0.764999 0.456609 0.167180
O O11 0.706421 0.564157 0.316390
O O12 0.500000 0.899434 0.361173
O O13 0.795107 0.808880 0.345425
O O14 0.740802 0.047632 0.333797
O O15 0.500000 0.484867 0.059194
O O16 0.500000 0.352564 0.782840
O O17 0.246682 0.270702 0.684412
O O18 0.500000 0.157640 0.612624
O O19 0.758822 0.038200 0.669062
O O20 0.000000 0.084917 0.231004
#
# Coordination Sequence:
#
# PCOD9342759 Si02
#       8
#     4   4   4   4   4   4   4   4
#     4  10  19  34  56  82 111 149 192 234 287 358
#     4  11  23  41  61  86 123 162 203 249 302 360
#     4  10  20  33  52  81 115 150 192 237 289 353
#     4  11  22  38  62  91 117 154 204 251 301 355
#     4  10  22  38  55  83 121 157 192 243 297 348
#     4  10  18  32  55  81 113 150 191 240 290 343
#     4   8  16  32  54  79 105 140 184 234 288 342
#     4  10  21  40  63  89 119 152 198 252 306 361
#
# _framework density 25.611370000000001
#
# number of rings (size 3 to 8) (size 9 to 14) (size 15 to 20)
#    0.000    2.000    1.250    3.750    0.000    3.500 
#    2.250    0.625    0.000    0.000    0.000    0.000 
#    0.000    0.000    0.000    0.000    0.000    0.000 
#
# Total GULP energy -178918.556365 kJ/mol
# GULP energy per Si atom -5591.204886 kJ/mol
# Density = 2.555308 g / cm^3
# Si number density = 25.611370 Si / 1000 Ang^3
#
#
#
# Elastic Constant Matrix: (Units=GPa)
#
#
# Indices 1 2 3 4 5 6 
#
# 1 57.8946 0.9325 -1.7792 0.0000 0.0000 0.0000
# 2 0.9325 67.1489 3.0199 0.0000 0.0000 0.0000
# 3 -1.7792 3.0199 135.3796 0.0000 0.0000 0.0000
# 4 0.0000 0.0000 0.0000 51.3412 0.0000 0.0000
# 5 0.0000 0.0000 0.0000 0.0000 -22.1543 0.0000
# 6 0.0000 0.0000 0.0000 0.0000 0.0000 21.6588
#
#
#
# Elastic Compliance Matrix: (Units=1/GPa)
#
#
# Indices 1 2 3 4 5 6 
#
# 1 0.017284 -0.000250 0.000233 0.000000 0.000000 0.000000
# 2 -0.000250 0.014911 -0.000336 0.000000 0.000000 0.000000
# 3 0.000233 -0.000336 0.007397 0.000000 0.000000 0.000000
# 4 0.000000 0.000000 0.000000 0.019478 0.000000 0.000000
# 5 0.000000 0.000000 0.000000 0.000000 -0.045138 0.000000
# 6 0.000000 0.000000 0.000000 0.000000 0.000000 0.046171
#
#
# Mechanical properties :
#
#
# Convention : Reuss Voigt Hill
#
# Bulk Modulus (GPa) = 25.71705 29.41883 27.56794
# Shear Modulus (GPa) = 67.77735 27.38581 47.58158
#
# Velocity S-wave (km/s) = 5.14988 3.27354 4.31493
# Velocity P-wave (km/s) = 6.73978 5.07933 5.96759
#
# Compressibility (1/GPa) = 0.03888471
#
# Stress axis : x y z
#
# Youngs Moduli (GPa) = 57.85708 67.06525 135.18648
#
# Poissons Ratio (x) = 0.01680 -0.03146
# Poissons Ratio (y) = 0.01449 0.04541
# Poissons Ratio (z) = -0.01347 0.02253
#
# Static dielectric constant tensor:
#      x y z
#    x 1.981780 0.000000 0.000000 
#    y 0.000000 2.067930 0.000000 
#    z 0.000000 0.000000 2.102920 
# 
# From -- ./inp_files/4930.got.cif
#   From: 2010.05.17/outbox.cif.g08.bks.cpg/sg31_3_cif.got.tgz:4930.got - 2010.06.03 17:08:30.
