data_PCOD9342355
_publ_section_title
;
Structure prediction by ZEFSAII (Michael W. Deem and Ramdas Pophale) SiO2 
 PCOD9342355
Probable space group: P N C 2
;
_chemical_formula_sum "Si O2"
_cell_formula_units_Z 20
_cell_length_a 14.181959
_cell_length_b 4.741822
_cell_length_c 11.212173
_cell_angle_alpha 90.000000
_cell_angle_beta 90.000000
_cell_angle_gamma 90.000000
_cell_volume 753.999856
_symmetry_space_group_name_H-M "P N C 2"
_symmetry_group_IT_number 30
_symmetry_cell_setting 'orthorhombic'
loop_
_space_group_symop_operation_xyz
x,y,z
-x,-y,z
-x,1/2+y,1/2+z
x,1/2-y,1/2+z
loop_
_atom_site_type_symbol
_atom_site_label
_atom_site_fract_x
_atom_site_fract_y
_atom_site_fract_z
Si Si1 0.192254 0.118459 0.513780
Si Si2 0.612988 0.565162 0.222273
Si Si3 0.570998 0.749887 0.479812
Si Si4 0.778077 0.344356 0.349895
Si Si5 0.105172 0.611079 0.651499
O O1 0.258877 0.871832 0.451464
O O2 0.174797 0.350806 0.618747
O O3 0.118979 0.877126 0.562282
O O4 0.192847 0.354784 0.406697
O O5 0.500000 0.500000 0.211094
O O6 0.616294 0.700979 0.352454
O O7 0.634780 0.711401 0.096335
O O8 0.697067 0.346997 0.245937
O O9 0.500000 0.500000 0.511439
O O10 0.500000 0.000000 0.459634
O O11 0.867752 0.216909 0.282917
O O12 0.000000 0.500000 0.643148
#
# Coordination Sequence:
#
# PCOD9342355 Si02
#       5
#     4   4   4   4   4
#     4  10  25  46  70 111 148 199 252 332 394 489
#     4  10  24  46  73 110 162 213 271 329 411 482
#     4  10  22  42  69 105 149 210 271 327 400 483
#     4  11  25  45  76 113 156 202 269 332 408 498
#     4  11  24  47  77 111 155 202 260 332 416 496
#
# _framework density 26.525202
#
# number of rings (size 3 to 8) (size 9 to 14) (size 15 to 20)
#    0.000    1.600    0.000    2.400    2.800    9.600 
#   21.600    0.000    0.000    0.000    0.000    0.000 
#    0.000    0.000    0.000    0.000    0.000    0.000 
#
# Total GULP energy -111354.168706 kJ/mol
# GULP energy per Si atom -5567.708435 kJ/mol
# Density = 2.646483 g / cm^3
# Si number density = 26.525202 Si / 1000 Ang^3
#
#
#
# Elastic Constant Matrix: (Units=GPa)
#
#
# Indices 1 2 3 4 5 6 
#
# 1 35.1936 26.3333 14.5295 0.0000 0.0000 0.0000
# 2 26.3333 163.8178 33.8527 0.0000 0.0000 0.0000
# 3 14.5295 33.8527 199.5563 0.0000 0.0000 0.0000
# 4 0.0000 0.0000 0.0000 53.2155 0.0000 0.0000
# 5 0.0000 0.0000 0.0000 0.0000 28.7838 0.0000
# 6 0.0000 0.0000 0.0000 0.0000 0.0000 46.0277
#
#
#
# Elastic Compliance Matrix: (Units=1/GPa)
#
#
# Indices 1 2 3 4 5 6 
#
# 1 0.032753 -0.004946 -0.001546 0.000000 0.000000 0.000000
# 2 -0.004946 0.007073 -0.000840 0.000000 0.000000 0.000000
# 3 -0.001546 -0.000840 0.005266 0.000000 0.000000 0.000000
# 4 0.000000 0.000000 0.000000 0.018792 0.000000 0.000000
# 5 0.000000 0.000000 0.000000 0.000000 0.034742 0.000000
# 6 0.000000 0.000000 0.000000 0.000000 0.000000 0.021726
#
#
# Mechanical properties :
#
#
# Convention : Reuss Voigt Hill
#
# Bulk Modulus (GPa) = 32.86252 60.88876 46.87564
# Shear Modulus (GPa) = 34.44558 47.19555 40.82056
#
# Velocity S-wave (km/s) = 3.60752 4.22272 3.92718
# Velocity P-wave (km/s) = 5.45603 6.83959 6.18661
#
# Compressibility (1/GPa) = 0.03042980
#
# Stress axis : x y z
#
# Youngs Moduli (GPa) = 30.53165 141.38558 189.89322
#
# Poissons Ratio (x) = 0.69923 0.29353
# Poissons Ratio (y) = 0.15099 0.15946
# Poissons Ratio (z) = 0.04719 0.11873
#
# Static dielectric constant tensor:
#      x y z
#    x 2.202660 0.000000 0.000000 
#    y 0.000000 2.129200 0.000000 
#    z 0.000000 0.000000 2.210180 
# 
# From -- ./inp_files/4197.got.cif
#   From: 2010.05.17/outbox.cif.g08.bks.cpg/sg30_3_cif.got.tgz:4197.got - 2010.06.03 17:03:02.
