data_PCOD9342723
_publ_section_title
;
Structure prediction by ZEFSAII (Michael W. Deem and Ramdas Pophale) SiO2 
 PCOD9342723
Probable space group: P M N 21
;
_chemical_formula_sum "Si O2"
_cell_formula_units_Z 32
_cell_length_a 8.757350
_cell_length_b 21.647493
_cell_length_c 9.289526
_cell_angle_alpha 90.000000
_cell_angle_beta 90.000000
_cell_angle_gamma 90.000000
_cell_volume 1761.058852
_symmetry_space_group_name_H-M "P M N 21"
_symmetry_group_IT_number 31
_symmetry_cell_setting 'orthorhombic'
loop_
_space_group_symop_operation_xyz
x,y,z
1/2-x,-y,1/2+z
-x,y,z
1/2+x,-y,1/2+z
loop_
_atom_site_type_symbol
_atom_site_label
_atom_site_fract_x
_atom_site_fract_y
_atom_site_fract_z
Si Si1 0.182326 0.447587 0.106770
Si Si2 0.184912 0.178071 0.100324
Si Si3 0.817077 0.937634 0.101495
Si Si4 0.315329 0.687262 0.614481
Si Si5 0.319277 0.564086 0.947501
Si Si6 0.316737 0.820417 0.936881
Si Si7 0.815174 0.059672 0.920270
Si Si8 0.818759 0.691630 0.936937
O O1 0.224848 0.379103 0.047734
O O2 0.215329 0.445962 0.277814
O O3 0.000000 0.455629 0.088603
O O4 0.267125 0.503697 0.032146
O O5 0.226977 0.246917 0.045373
O O6 0.231089 0.172702 0.268281
O O7 0.000000 0.175355 0.100082
O O8 0.238529 0.121118 0.004597
O O9 0.755829 0.943271 0.262899
O O10 0.000000 0.932708 0.102316
O O11 0.746399 0.877681 0.025872
O O12 0.775180 0.998956 0.011753
O O13 0.500000 0.686765 0.633746
O O14 0.240453 0.688841 0.772002
O O15 0.500000 0.573383 0.959535
O O16 0.237767 0.626644 0.001012
O O17 0.500000 0.819332 0.940888
O O18 0.254259 0.754943 0.994540
O O19 0.000000 0.062074 0.908436
O O20 0.000000 0.695508 0.942194
#
# Coordination Sequence:
#
# PCOD9342723 Si02
#       8
#     4   4   4   4   4   4   4   4
#     4   9  18  32  50  74 103 136 177 225 268 310
#     4   8  15  31  56  80 101 133 176 216 256 311
#     4  11  23  37  54  80 110 140 179 222 262 309
#     4   8  15  30  51  75 104 137 175 216 260 314
#     4  10  20  34  52  75 104 140 180 219 265 319
#     4  10  19  35  58  80 105 139 176 215 264 317
#     4  10  21  37  56  78 107 142 177 215 263 315
#     4  10  18  30  51  78 106 135 172 218 264 313
#
# _framework density 18.170885999999999
#
# number of rings (size 3 to 8) (size 9 to 14) (size 15 to 20)
#    0.000    2.500    0.000    4.500    0.000    4.500 
#    0.000    4.375    0.000    4.500    0.000    0.000 
#    0.000    0.000    0.000    0.000    0.000    0.000 
#
# Total GULP energy -178405.039090 kJ/mol
# GULP energy per Si atom -5575.157472 kJ/mol
# Density = 1.812953 g / cm^3
# Si number density = 18.170886 Si / 1000 Ang^3
#
#
#
# Elastic Constant Matrix: (Units=GPa)
#
#
# Indices 1 2 3 4 5 6 
#
# 1 38.6374 65.9979 29.4534 0.0000 0.0000 0.0000
# 2 65.9979 219.1990 76.4677 0.0000 0.0000 0.0000
# 3 29.4534 76.4677 68.5920 0.0000 0.0000 0.0000
# 4 0.0000 0.0000 0.0000 29.6698 0.0000 0.0000
# 5 0.0000 0.0000 0.0000 0.0000 24.2054 0.0000
# 6 0.0000 0.0000 0.0000 0.0000 0.0000 26.3343
#
#
#
# Elastic Compliance Matrix: (Units=1/GPa)
#
#
# Indices 1 2 3 4 5 6 
#
# 1 0.056243 -0.013924 -0.008628 0.000000 0.000000 0.000000
# 2 -0.013924 0.010913 -0.006187 0.000000 0.000000 0.000000
# 3 -0.008628 -0.006187 0.025181 0.000000 0.000000 0.000000
# 4 0.000000 0.000000 0.000000 0.033704 0.000000 0.000000
# 5 0.000000 0.000000 0.000000 0.000000 0.041313 0.000000
# 6 0.000000 0.000000 0.000000 0.000000 0.000000 0.037973
#
#
# Mechanical properties :
#
#
# Convention : Reuss Voigt Hill
#
# Bulk Modulus (GPa) = 28.68681 74.47405 51.58043
# Shear Modulus (GPa) = 18.21998 26.34252 22.28125
#
# Velocity S-wave (km/s) = 3.16998 3.81164 3.50552
# Velocity P-wave (km/s) = 5.40554 7.77469 6.69573
#
# Compressibility (1/GPa) = 0.03485923
#
# Stress axis : x y z
#
# Youngs Moduli (GPa) = 17.77997 91.63662 39.71308
#
# Poissons Ratio (x) = 1.27597 0.34263
# Poissons Ratio (y) = 0.24757 0.24569
# Poissons Ratio (z) = 0.15340 0.56692
#
# Static dielectric constant tensor:
#      x y z
#    x 1.605600 0.000000 0.000000 
#    y 0.000000 1.658450 0.000000 
#    z 0.000000 0.000000 1.605910 
# 
# From -- ./inp_files/1857.got.cif
#   From: 2010.05.17/outbox.cif.g08.bks.cpg/sg31_1_cif.got.tgz:1857.got - 2010.06.03 17:08:30.
