data_PCOD9342846
_publ_section_title
;
Structure prediction by ZEFSAII (Michael W. Deem and Ramdas Pophale) SiO2 
 PCOD9342846
Probable space group: P M N 21
;
_chemical_formula_sum "Si O2"
_cell_formula_units_Z 32
_cell_length_a 7.515276
_cell_length_b 11.676181
_cell_length_c 17.244951
_cell_angle_alpha 90.000000
_cell_angle_beta 90.000000
_cell_angle_gamma 90.000000
_cell_volume 1513.239671
_symmetry_space_group_name_H-M "P M N 21"
_symmetry_group_IT_number 31
_symmetry_cell_setting 'orthorhombic'
loop_
_space_group_symop_operation_xyz
x,y,z
1/2-x,-y,1/2+z
-x,y,z
1/2+x,-y,1/2+z
loop_
_atom_site_type_symbol
_atom_site_label
_atom_site_fract_x
_atom_site_fract_y
_atom_site_fract_z
Si Si1 0.216169 0.946174 0.807440
Si Si2 0.217398 0.714948 0.188392
Si Si3 0.214969 0.571810 0.040044
Si Si4 0.712260 0.306882 0.015916
Si Si5 0.289048 0.209382 0.852552
Si Si6 0.801314 0.848280 0.645602
Si Si7 0.790874 0.773193 0.935103
Si Si8 0.708283 0.073265 0.586582
O O1 0.277459 0.907518 0.722038
O O2 0.281971 0.844346 0.863313
O O3 0.000000 0.948236 0.808540
O O4 0.267144 0.073826 0.834891
O O5 0.274318 0.619974 0.124810
O O6 0.278743 0.718933 0.277479
O O7 0.270741 0.837275 0.151583
O O8 0.000000 0.712707 0.188679
O O9 0.261875 0.442288 0.021460
O O10 0.000000 0.582535 0.040959
O O11 0.282086 0.655949 0.971533
O O12 0.500000 0.283476 0.017774
O O13 0.787043 0.250380 0.094872
O O14 0.782609 0.251370 0.935849
O O15 0.500000 0.230921 0.855044
O O16 0.000000 0.809605 0.668568
O O17 0.808951 0.955051 0.587047
O O18 0.000000 0.752275 0.917941
O O19 0.778531 0.860928 0.006348
O O20 0.500000 0.049283 0.599483
#
# Coordination Sequence:
#
# PCOD9342846 Si02
#       8
#     4   4   4   4   4   4   4   4
#     4  10  19  32  51  77 107 132 163 205 252 309
#     4   8  15  30  53  76  96 126 166 212 255 288
#     4   9  18  36  57  73  94 129 179 219 246 292
#     4  10  22  37  50  72 108 143 167 202 261 311
#     4  10  19  34  55  76 104 136 168 208 256 308
#     4  10  20  32  46  70 108 140 158 192 254 313
#     4   8  16  31  52  75  96 126 163 208 255 289
#     4   9  15  28  52  75  95 122 164 206 245 294
#
# _framework density 21.146682999999999
#
# number of rings (size 3 to 8) (size 9 to 14) (size 15 to 20)
#    0.000    2.750    1.250    2.250    0.000    1.000 
#    2.250    3.750    0.000    0.000    0.000    0.000 
#    0.000    0.000    0.000    0.000    0.000    0.000 
#
# Total GULP energy -178316.201579 kJ/mol
# GULP energy per Si atom -5572.381299 kJ/mol
# Density = 2.109855 g / cm^3
# Si number density = 21.146683 Si / 1000 Ang^3
#
#
#
# Elastic Constant Matrix: (Units=GPa)
#
#
# Indices 1 2 3 4 5 6 
#
# 1 48.7979 -3.5576 7.2654 0.0000 0.0000 0.0000
# 2 -3.5576 140.0006 82.8062 0.0000 0.0000 0.0000
# 3 7.2654 82.8062 113.2426 0.0000 0.0000 0.0000
# 4 0.0000 0.0000 0.0000 25.7124 0.0000 0.0000
# 5 0.0000 0.0000 0.0000 0.0000 0.2640 0.0000
# 6 0.0000 0.0000 0.0000 0.0000 0.0000 12.8560
#
#
#
# Elastic Compliance Matrix: (Units=1/GPa)
#
#
# Indices 1 2 3 4 5 6 
#
# 1 0.021123 0.002358 -0.003080 0.000000 0.000000 0.000000
# 2 0.002358 0.012850 -0.009547 0.000000 0.000000 0.000000
# 3 -0.003080 -0.009547 0.016010 0.000000 0.000000 0.000000
# 4 0.000000 0.000000 0.000000 0.038892 0.000000 0.000000
# 5 0.000000 0.000000 0.000000 0.000000 3.787844 0.000000
# 6 0.000000 0.000000 0.000000 0.000000 0.000000 0.077785
#
#
# Mechanical properties :
#
#
# Convention : Reuss Voigt Hill
#
# Bulk Modulus (GPa) = 33.96176 52.78544 43.37360
# Shear Modulus (GPa) = 1.25475 22.13497 11.69486
#
# Velocity S-wave (km/s) = 0.77113 3.23884 2.35422
# Velocity P-wave (km/s) = 4.10948 6.24520 5.28632
#
# Compressibility (1/GPa) = 0.02944488
#
# Stress axis : x y z
#
# Youngs Moduli (GPa) = 47.34143 77.82244 62.46282
#
# Poissons Ratio (x) = -0.18353 0.19236
# Poissons Ratio (y) = -0.11165 0.59636
# Poissons Ratio (z) = 0.14580 0.74300
#
# Static dielectric constant tensor:
#      x y z
#    x 1.803410 0.000000 0.000000 
#    y 0.000000 1.724870 0.000000 
#    z 0.000000 0.000000 1.832540 
# 
# From -- ./inp_files/5876.got.cif
#   From: 2010.05.17/outbox.cif.g08.bks.cpg/sg31_3_cif.got.tgz:5876.got - 2010.06.03 17:08:30.
