data_PCOD9342647
_publ_section_title
;
Structure prediction by ZEFSAII (Michael W. Deem and Ramdas Pophale) SiO2 
 PCOD9342647
Probable space group: P N C 2
;
_chemical_formula_sum "Si O2"
_cell_formula_units_Z 22
_cell_length_a 4.963723
_cell_length_b 13.538613
_cell_length_c 13.444904
_cell_angle_alpha 90.000000
_cell_angle_beta 90.000000
_cell_angle_gamma 90.000000
_cell_volume 903.523427
_symmetry_space_group_name_H-M "P N C 2"
_symmetry_group_IT_number 30
_symmetry_cell_setting 'orthorhombic'
loop_
_space_group_symop_operation_xyz
x,y,z
-x,-y,z
-x,1/2+y,1/2+z
x,1/2-y,1/2+z
loop_
_atom_site_type_symbol
_atom_site_label
_atom_site_fract_x
_atom_site_fract_y
_atom_site_fract_z
Si Si1 0.311440 0.877524 0.885080
Si Si2 0.372656 0.206253 0.609039
Si Si3 0.654432 0.896674 0.209161
Si Si4 0.000000 0.000000 0.047331
Si Si5 0.815716 0.758121 0.388574
Si Si6 0.126207 0.595781 0.171545
O O1 0.120370 0.780816 0.888421
O O2 0.613726 0.836628 0.877209
O O3 0.232078 0.928261 0.781769
O O4 0.219643 0.946831 0.976262
O O5 0.499555 0.306678 0.654591
O O6 0.258310 0.210148 0.499394
O O7 0.615512 0.131097 0.613442
O O8 0.115076 0.175098 0.675256
O O9 0.762208 0.845731 0.309832
O O10 0.500000 0.000000 0.226844
O O11 0.871242 0.921785 0.123281
O O12 0.000000 0.500000 0.123356
#
# Coordination Sequence:
#
# PCOD9342647 Si02
#       6
#     4   4   4   2   4   4
#     4  12  24  46  76 109 141 195 254 312 379 445
#     4  12  26  49  74 107 154 200 251 317 382 453
#     4  12  28  46  75 113 159 202 256 319 388 466
#     4  12  28  46  80 116 156 198 268 328 386 460
#     4  12  27  47  74 103 152 202 246 304 390 458
#     4  12  25  47  77 108 143 191 259 318 374 446
#
# _framework density 24.349118000000001
#
# number of rings (size 3 to 8) (size 9 to 14) (size 15 to 20)
#    0.000    0.000    6.364    2.727    5.091    1.455 
#    1.636    0.000    0.000    0.000    0.000    0.000 
#    0.000    0.000    0.000    0.000    0.000    0.000 
#
# Total GULP energy -123210.853015 kJ/mol
# GULP energy per Si atom -5600.493319 kJ/mol
# Density = 2.429370 g / cm^3
# Si number density = 24.349118 Si / 1000 Ang^3
#
#
#
# Elastic Constant Matrix: (Units=GPa)
#
#
# Indices 1 2 3 4 5 6 
#
# 1 76.5285 13.0320 10.7121 0.0000 0.0000 0.0000
# 2 13.0320 92.4919 48.3527 0.0000 0.0000 0.0000
# 3 10.7121 48.3527 118.0206 0.0000 0.0000 0.0000
# 4 0.0000 0.0000 0.0000 42.3699 0.0000 0.0000
# 5 0.0000 0.0000 0.0000 0.0000 22.1914 0.0000
# 6 0.0000 0.0000 0.0000 0.0000 0.0000 46.7037
#
#
#
# Elastic Compliance Matrix: (Units=1/GPa)
#
#
# Indices 1 2 3 4 5 6 
#
# 1 0.013418 -0.001596 -0.000564 0.000000 0.000000 0.000000
# 2 -0.001596 0.013948 -0.005570 0.000000 0.000000 0.000000
# 3 -0.000564 -0.005570 0.010806 0.000000 0.000000 0.000000
# 4 0.000000 0.000000 0.000000 0.023602 0.000000 0.000000
# 5 0.000000 0.000000 0.000000 0.000000 0.045062 0.000000
# 6 0.000000 0.000000 0.000000 0.000000 0.000000 0.021412
#
#
# Mechanical properties :
#
#
# Convention : Reuss Voigt Hill
#
# Bulk Modulus (GPa) = 44.02724 47.91497 45.97110
# Shear Modulus (GPa) = 33.05174 36.58263 34.81719
#
# Velocity S-wave (km/s) = 3.68830 3.88031 3.78552
# Velocity P-wave (km/s) = 6.02154 6.30847 6.16668
#
# Compressibility (1/GPa) = 0.02271321
#
# Stress axis : x y z
#
# Youngs Moduli (GPa) = 74.52837 71.69325 92.53941
#
# Poissons Ratio (x) = 0.11440 0.05220
# Poissons Ratio (y) = 0.11892 0.51542
# Poissons Ratio (z) = 0.04204 0.39931
#
# Static dielectric constant tensor:
#      x y z
#    x 2.008690 0.000000 0.000000 
#    y 0.000000 2.074480 0.000000 
#    z 0.000000 0.000000 1.932570 
# 
# From -- ./inp_files/4634.got.cif
#   From: 2010.05.17/outbox.cif.g08.bks.cpg/sg30_3_cif.got.tgz:4634.got - 2010.06.03 17:03:02.
