data_PCOD9342885
_publ_section_title
;
Structure prediction by ZEFSAII (Michael W. Deem and Ramdas Pophale) SiO2 
 PCOD9342885
Probable space group: P M N 21
;
_chemical_formula_sum "Si O2"
_cell_formula_units_Z 24
_cell_length_a 7.801344
_cell_length_b 7.868017
_cell_length_c 14.419726
_cell_angle_alpha 90.000000
_cell_angle_beta 90.000000
_cell_angle_gamma 90.000000
_cell_volume 885.098748
_symmetry_space_group_name_H-M "P M N 21"
_symmetry_group_IT_number 31
_symmetry_cell_setting 'orthorhombic'
loop_
_space_group_symop_operation_xyz
x,y,z
1/2-x,-y,1/2+z
-x,y,z
1/2+x,-y,1/2+z
loop_
_atom_site_type_symbol
_atom_site_label
_atom_site_fract_x
_atom_site_fract_y
_atom_site_fract_z
Si Si1 0.296479 0.582466 0.492430
Si Si2 0.707666 0.910521 0.615447
Si Si3 0.703557 0.303526 0.280433
Si Si4 0.698665 0.127742 0.454542
Si Si5 0.694859 0.185776 0.836179
Si Si6 0.795262 0.376110 0.662380
O O1 0.500000 0.583829 0.480781
O O2 0.242440 0.742647 0.556293
O O3 0.221433 0.637882 0.393422
O O4 0.253359 0.419152 0.556163
O O5 0.500000 0.920328 0.617806
O O6 0.772277 0.863002 0.716669
O O7 0.775976 0.065352 0.552248
O O8 0.500000 0.332506 0.291931
O O9 0.773486 0.458581 0.219913
O O10 0.775925 0.262229 0.382014
O O11 0.500000 0.172142 0.471544
O O12 0.696450 0.954332 0.391451
O O13 0.500000 0.128994 0.845763
O O14 0.729670 0.224716 0.728168
O O15 0.000000 0.372924 0.666523
#
# Coordination Sequence:
#
# PCOD9342885 Si02
#       6
#     4   4   4   4   4   4
#     4   9  17  32  52  73  98 132 169 207 249 299
#     4   8  15  28  48  70  95 127 162 198 241 292
#     4   9  18  32  52  74  97 127 164 203 249 298
#     4   9  18  34  52  72  99 131 164 204 250 296
#     4  11  21  33  51  76 102 134 172 208 248 298
#     4  10  19  33  53  77 103 133 167 208 253 301
#
# _framework density 27.115615999999999
#
# number of rings (size 3 to 8) (size 9 to 14) (size 15 to 20)
#    0.000    2.667    0.000    3.500    0.000    5.333 
#    0.000    1.667    0.000    6.000    0.000    0.000 
#    0.000    0.000    0.000    0.000    0.000    0.000 
#
# Total GULP energy -134229.829914 kJ/mol
# GULP energy per Si atom -5592.909580 kJ/mol
# Density = 2.705390 g / cm^3
# Si number density = 27.115616 Si / 1000 Ang^3
#
#
#
# Elastic Constant Matrix: (Units=GPa)
#
#
# Indices 1 2 3 4 5 6 
#
# 1 68.6369 -13.8832 -5.5170 0.0000 0.0000 0.0000
# 2 -13.8832 91.2104 0.6195 0.0000 0.0000 0.0000
# 3 -5.5170 0.6195 211.5034 0.0000 0.0000 0.0000
# 4 0.0000 0.0000 0.0000 48.1060 0.0000 0.0000
# 5 0.0000 0.0000 0.0000 0.0000 25.4101 0.0000
# 6 0.0000 0.0000 0.0000 0.0000 0.0000 15.3443
#
#
#
# Elastic Compliance Matrix: (Units=1/GPa)
#
#
# Indices 1 2 3 4 5 6 
#
# 1 0.015064 0.002290 0.000386 0.000000 0.000000 0.000000
# 2 0.002290 0.011312 0.000027 0.000000 0.000000 0.000000
# 3 0.000386 0.000027 0.004738 0.000000 0.000000 0.000000
# 4 0.000000 0.000000 0.000000 0.020787 0.000000 0.000000
# 5 0.000000 0.000000 0.000000 0.000000 0.039354 0.000000
# 6 0.000000 0.000000 0.000000 0.000000 0.000000 0.065171
#
#
# Mechanical properties :
#
#
# Convention : Reuss Voigt Hill
#
# Bulk Modulus (GPa) = 27.38226 37.08770 32.23498
# Shear Modulus (GPa) = 30.63844 43.78084 37.20964
#
# Velocity S-wave (km/s) = 3.36507 4.02257 3.70842
# Velocity P-wave (km/s) = 5.02181 5.93987 5.50003
#
# Compressibility (1/GPa) = 0.03651999
#
# Stress axis : x y z
#
# Youngs Moduli (GPa) = 66.38471 88.40103 211.05720
#
# Poissons Ratio (x) = -0.20246 -0.08152
# Poissons Ratio (y) = -0.15204 -0.00562
# Poissons Ratio (z) = -0.02564 -0.00235
#
# Static dielectric constant tensor:
#      x y z
#    x 1.934260 0.000000 0.000000 
#    y 0.000000 2.297540 0.000000 
#    z 0.000000 0.000000 2.144850 
# 
# From -- ./inp_files/3457.got.cif
#   From: 2010.05.17/outbox.cif.g08.bks.cpg/sg31_2_cif.got.tgz:3457.got - 2010.06.03 17:08:30.
