data_PCOD9342259
_publ_section_title
;
Structure prediction by ZEFSAII (Michael W. Deem and Ramdas Pophale) SiO2 
 PCOD9342259
Probable space group: P N C 2
;
_chemical_formula_sum "Si O2"
_cell_formula_units_Z 30
_cell_length_a 9.221733
_cell_length_b 14.301347
_cell_length_c 9.214409
_cell_angle_alpha 90.000000
_cell_angle_beta 90.000000
_cell_angle_gamma 90.000000
_cell_volume 1215.225778
_symmetry_space_group_name_H-M "P N C 2"
_symmetry_group_IT_number 30
_symmetry_cell_setting 'orthorhombic'
loop_
_space_group_symop_operation_xyz
x,y,z
-x,-y,z
-x,1/2+y,1/2+z
x,1/2-y,1/2+z
loop_
_atom_site_type_symbol
_atom_site_label
_atom_site_fract_x
_atom_site_fract_y
_atom_site_fract_z
Si Si1 0.000000 0.000000 0.312770
Si Si2 0.630951 0.802264 0.105786
Si Si3 0.661548 0.119822 0.015438
Si Si4 0.671158 0.519768 0.783449
Si Si5 0.650755 0.041495 0.701501
Si Si6 0.821109 0.290390 0.075363
Si Si7 0.015605 0.702381 0.811919
Si Si8 0.759976 0.849269 0.788747
O O1 0.990963 0.898549 0.236849
O O2 0.825430 0.000614 0.367207
O O3 0.461908 0.815582 0.083957
O O4 0.673035 0.872029 0.236606
O O5 0.665824 0.699916 0.162400
O O6 0.699148 0.834482 0.952423
O O7 0.785931 0.194239 0.992024
O O8 0.686865 0.038638 0.132365
O O9 0.613716 0.081813 0.860800
O O10 0.500000 0.500000 0.829054
O O11 0.714725 0.123152 0.601181
O O12 0.500000 0.000000 0.644317
O O13 0.763018 0.957471 0.741353
O O14 0.848065 0.244630 0.230004
O O15 0.958987 0.323894 0.980223
O O16 0.901471 0.784586 0.791497
#
# Coordination Sequence:
#
# PCOD9342259 Si02
#       8
#     2   4   4   4   4   4   4   4
#     4  12  24  48  74 106 160 202 256 332 390 472
#     4  11  23  42  72 113 147 192 254 317 388 472
#     4  11  21  44  77 105 148 195 258 320 391 483
#     4  10  21  42  75 109 143 194 257 315 390 478
#     4  12  24  49  78 113 151 204 264 330 409 484
#     4  12  27  48  72 111 151 202 260 325 392 478
#     4  12  28  46  72 107 152 206 261 321 401 469
#     4  12  25  44  74 111 151 203 257 324 391 473
#
# _framework density 24.686769000000002
#
# number of rings (size 3 to 8) (size 9 to 14) (size 15 to 20)
#    0.000    0.533    6.667    2.000    0.000    2.667 
#    0.000    0.667    0.000    0.000    0.000    0.000 
#    0.000    0.000    0.000    0.000    0.000    0.000 
#
# Total GULP energy -167063.515467 kJ/mol
# GULP energy per Si atom -5568.783849 kJ/mol
# Density = 2.463058 g / cm^3
# Si number density = 24.686769 Si / 1000 Ang^3
#
#
#
# Elastic Constant Matrix: (Units=GPa)
#
#
# Indices 1 2 3 4 5 6 
#
# 1 46.3647 22.7804 3.2112 0.0000 0.0000 0.0000
# 2 22.7804 120.2351 14.3772 0.0000 0.0000 0.0000
# 3 3.2112 14.3772 84.0493 0.0000 0.0000 0.0000
# 4 0.0000 0.0000 0.0000 -11.4118 0.0000 0.0000
# 5 0.0000 0.0000 0.0000 0.0000 14.1328 0.0000
# 6 0.0000 0.0000 0.0000 0.0000 0.0000 39.8746
#
#
#
# Elastic Compliance Matrix: (Units=1/GPa)
#
#
# Indices 1 2 3 4 5 6 
#
# 1 0.023784 -0.004489 -0.000141 0.000000 0.000000 0.000000
# 2 -0.004489 0.009338 -0.001426 0.000000 0.000000 0.000000
# 3 -0.000141 -0.001426 0.012147 0.000000 0.000000 0.000000
# 4 0.000000 0.000000 0.000000 -0.087629 0.000000 0.000000
# 5 0.000000 0.000000 0.000000 0.000000 0.070757 0.000000
# 6 0.000000 0.000000 0.000000 0.000000 0.000000 0.025079
#
#
# Mechanical properties :
#
#
# Convention : Reuss Voigt Hill
#
# Bulk Modulus (GPa) = 30.15961 36.82076 33.49019
# Shear Modulus (GPa) = 65.24013 22.53782 43.88898
#
# Velocity S-wave (km/s) = 5.14631 3.02479 4.22101
# Velocity P-wave (km/s) = 6.89610 5.21025 6.11158
#
# Compressibility (1/GPa) = 0.03315693
#
# Stress axis : x y z
#
# Youngs Moduli (GPa) = 42.04573 107.08805 82.32452
#
# Poissons Ratio (x) = 0.48076 0.01159
# Poissons Ratio (y) = 0.18876 0.11738
# Poissons Ratio (z) = 0.00592 0.15269
#
# Static dielectric constant tensor:
#      x y z
#    x 2.156060 0.000000 0.000000 
#    y 0.000000 2.096650 0.000000 
#    z 0.000000 0.000000 1.989680 
# 
# From -- ./inp_files/3767.got.cif
#   From: 2010.05.17/outbox.cif.g08.bks.cpg/sg30_2_cif.got.tgz:3767.got - 2010.06.03 17:03:02.
