data_PCOD9342241
_publ_section_title
;
Structure prediction by ZEFSAII (Michael W. Deem and Ramdas Pophale) SiO2 
 PCOD9342241
Probable space group: P N C 2
;
_chemical_formula_sum "Si O2"
_cell_formula_units_Z 32
_cell_length_a 12.009745
_cell_length_b 7.960744
_cell_length_c 14.849745
_cell_angle_alpha 90.000000
_cell_angle_beta 90.000000
_cell_angle_gamma 90.000000
_cell_volume 1419.732226
_symmetry_space_group_name_H-M "P N C 2"
_symmetry_group_IT_number 30
_symmetry_cell_setting 'orthorhombic'
loop_
_space_group_symop_operation_xyz
x,y,z
-x,-y,z
-x,1/2+y,1/2+z
x,1/2-y,1/2+z
loop_
_atom_site_type_symbol
_atom_site_label
_atom_site_fract_x
_atom_site_fract_y
_atom_site_fract_z
Si Si1 0.226050 0.151698 0.397810
Si Si2 0.188021 0.221221 0.603518
Si Si3 0.045281 0.691225 0.061032
Si Si4 0.448137 0.316662 0.323075
Si Si5 0.340679 0.654342 0.814066
Si Si6 0.818098 0.112929 0.715178
Si Si7 0.596220 0.599221 0.656591
Si Si8 0.009049 0.811393 0.871355
O O1 0.209041 0.145020 0.504563
O O2 0.330064 0.270564 0.368377
O O3 0.111129 0.225457 0.357349
O O4 0.255855 0.965422 0.365433
O O5 0.287850 0.351815 0.612597
O O6 0.062728 0.293351 0.596688
O O7 0.194115 0.079118 0.681736
O O8 0.152519 0.711924 0.123248
O O9 0.000000 0.500000 0.076032
O O10 0.063072 0.715210 0.955574
O O11 0.500000 0.500000 0.331902
O O12 0.545751 0.198993 0.364703
O O13 0.440082 0.260864 0.217208
O O14 0.285490 0.819676 0.771609
O O15 0.375522 0.538169 0.731354
O O16 0.920932 0.159359 0.780976
O O17 0.500000 0.500000 0.601470
O O18 0.000000 0.000000 0.908296
#
# Coordination Sequence:
#
# PCOD9342241 Si02
#       8
#     4   4   4   4   4   4   4   4
#     4  10  24  43  65  94 138 177 219 283 344 405
#     4  10  21  42  65  94 134 177 219 281 340 401
#     4   9  22  42  61  93 138 171 222 278 332 413
#     4  10  21  41  67  94 128 174 229 281 328 412
#     4  10  23  40  65  97 127 176 221 272 337 405
#     4  11  24  38  69  96 129 182 222 272 338 413
#     4   9  20  39  63  91 130 166 223 273 330 394
#     4  11  25  40  62  98 130 176 220 278 334 404
#
# _framework density 22.539462
#
# number of rings (size 3 to 8) (size 9 to 14) (size 15 to 20)
#    0.000    2.000    0.000    3.000   14.000    2.500 
#    0.000    7.500    0.000    0.000    0.000    0.000 
#    0.000    0.000    0.000    0.000    0.000    0.000 
#
# Total GULP energy -178447.079719 kJ/mol
# GULP energy per Si atom -5576.471241 kJ/mol
# Density = 2.248816 g / cm^3
# Si number density = 22.539462 Si / 1000 Ang^3
#
#
#
# Elastic Constant Matrix: (Units=GPa)
#
#
# Indices 1 2 3 4 5 6 
#
# 1 131.1591 27.8344 32.3391 0.0000 0.0000 0.0000
# 2 27.8344 50.5282 15.6015 0.0000 0.0000 0.0000
# 3 32.3391 15.6015 68.8530 0.0000 0.0000 0.0000
# 4 0.0000 0.0000 0.0000 15.2865 0.0000 0.0000
# 5 0.0000 0.0000 0.0000 0.0000 14.0223 0.0000
# 6 0.0000 0.0000 0.0000 0.0000 0.0000 47.4026
#
#
#
# Elastic Compliance Matrix: (Units=1/GPa)
#
#
# Indices 1 2 3 4 5 6 
#
# 1 0.009344 -0.004077 -0.003465 0.000000 0.000000 0.000000
# 2 -0.004077 0.023059 -0.003310 0.000000 0.000000 0.000000
# 3 -0.003465 -0.003310 0.016901 0.000000 0.000000 0.000000
# 4 0.000000 0.000000 0.000000 0.065417 0.000000 0.000000
# 5 0.000000 0.000000 0.000000 0.000000 0.071315 0.000000
# 6 0.000000 0.000000 0.000000 0.000000 0.000000 0.021096
#
#
# Mechanical properties :
#
#
# Convention : Reuss Voigt Hill
#
# Bulk Modulus (GPa) = 36.23213 44.67670 40.45442
# Shear Modulus (GPa) = 21.00521 26.99331 23.99926
#
# Velocity S-wave (km/s) = 3.05606 3.46439 3.26662
# Velocity P-wave (km/s) = 5.34440 5.98893 5.67582
#
# Compressibility (1/GPa) = 0.02759981
#
# Stress axis : x y z
#
# Youngs Moduli (GPa) = 107.02134 43.36690 59.16807
#
# Poissons Ratio (x) = 0.17683 0.20500
# Poissons Ratio (y) = 0.43638 0.19584
# Poissons Ratio (z) = 0.37080 0.14354
#
# Static dielectric constant tensor:
#      x y z
#    x 1.983050 0.000000 0.000000 
#    y 0.000000 1.903530 0.000000 
#    z 0.000000 0.000000 1.824540 
# 
# From -- ./inp_files/5527.got.cif
#   From: 2010.05.17/outbox.cif.g08.bks.cpg/sg30_3_cif.got.tgz:5527.got - 2010.06.03 17:03:02.
