data_PCOD9342748
_publ_section_title
;
Structure prediction by ZEFSAII (Michael W. Deem and Ramdas Pophale) SiO2 
 PCOD9342748
Probable space group: P M N 21
;
_chemical_formula_sum "Si O2"
_cell_formula_units_Z 32
_cell_length_a 8.804932
_cell_length_b 11.700061
_cell_length_c 16.248119
_cell_angle_alpha 90.000000
_cell_angle_beta 90.000000
_cell_angle_gamma 90.000000
_cell_volume 1673.852647
_symmetry_space_group_name_H-M "P M N 21"
_symmetry_group_IT_number 31
_symmetry_cell_setting 'orthorhombic'
loop_
_space_group_symop_operation_xyz
x,y,z
1/2-x,-y,1/2+z
-x,y,z
1/2+x,-y,1/2+z
loop_
_atom_site_type_symbol
_atom_site_label
_atom_site_fract_x
_atom_site_fract_y
_atom_site_fract_z
Si Si1 0.327892 0.747291 0.332680
Si Si2 0.181236 0.936748 0.439320
Si Si3 0.819211 0.813449 0.921865
Si Si4 0.819911 0.781278 0.595935
Si Si5 0.329137 0.589648 0.492604
Si Si6 0.182613 0.449392 0.712723
Si Si7 0.318747 0.696867 0.758947
Si Si8 0.320248 0.628942 0.025941
O O1 0.500000 0.784739 0.310215
O O2 0.230040 0.852870 0.364970
O O3 0.339555 0.665452 0.411729
O O4 0.265680 0.662543 0.263316
O O5 0.223348 0.875514 0.526741
O O6 0.000000 0.950928 0.439647
O O7 0.262790 0.056809 0.427281
O O8 0.749498 0.749498 0.842369
O O9 0.000000 0.807964 0.917784
O O10 0.757363 0.746679 0.001797
O O11 0.777962 0.660336 0.553744
O O12 0.733532 0.777128 0.682423
O O13 0.000000 0.788459 0.609993
O O14 0.500000 0.576247 0.527010
O O15 0.256312 0.469064 0.470875
O O16 0.257667 0.568406 0.740343
O O17 0.208667 0.416715 0.617836
O O18 0.000000 0.460890 0.725555
O O19 0.500000 0.693876 0.764120
O O20 0.500000 0.636337 0.012850
#
# Coordination Sequence:
#
# PCOD9342748 Si02
#       8
#     4   4   4   4   4   4   4   4
#     4   9  19  36  59  87 118 158 199 241 297 359
#     4  10  22  42  65  89 119 157 207 256 302 362
#     4  12  26  44  64  86 121 166 212 258 312 371
#     4  10  20  37  62  90 122 161 202 250 306 364
#     4  10  18  31  56  88 121 157 200 246 297 358
#     4  10  21  38  61  92 129 164 200 246 307 372
#     4  12  24  39  64  95 127 159 206 260 310 371
#     4  11  22  37  59  87 125 164 202 251 307 365
#
# _framework density 19.117573
#
# number of rings (size 3 to 8) (size 9 to 14) (size 15 to 20)
#    0.000    1.500    1.250    4.500    0.000    4.000 
#    2.250    0.000    0.000    0.000    0.000    0.000 
#    0.000    0.000    0.000    0.000    0.000    0.000 
#
# Total GULP energy -178667.572642 kJ/mol
# GULP energy per Si atom -5583.361645 kJ/mol
# Density = 1.907406 g / cm^3
# Si number density = 19.117573 Si / 1000 Ang^3
#
#
#
# Elastic Constant Matrix: (Units=GPa)
#
#
# Indices 1 2 3 4 5 6 
#
# 1 111.1345 70.0819 40.6847 0.0000 0.0000 0.0000
# 2 70.0819 141.4811 52.9312 0.0000 0.0000 0.0000
# 3 40.6847 52.9312 63.1047 0.0000 0.0000 0.0000
# 4 0.0000 0.0000 0.0000 24.8245 0.0000 0.0000
# 5 0.0000 0.0000 0.0000 0.0000 25.3004 0.0000
# 6 0.0000 0.0000 0.0000 0.0000 0.0000 29.1961
#
#
#
# Elastic Compliance Matrix: (Units=1/GPa)
#
#
# Indices 1 2 3 4 5 6 
#
# 1 0.013969 -0.005174 -0.004666 0.000000 0.000000 0.000000
# 2 -0.005174 0.012217 -0.006912 0.000000 0.000000 0.000000
# 3 -0.004666 -0.006912 0.024652 0.000000 0.000000 0.000000
# 4 0.000000 0.000000 0.000000 0.040283 0.000000 0.000000
# 5 0.000000 0.000000 0.000000 0.000000 0.039525 0.000000
# 6 0.000000 0.000000 0.000000 0.000000 0.000000 0.034251
#
#
# Mechanical properties :
#
#
# Convention : Reuss Voigt Hill
#
# Bulk Modulus (GPa) = 57.68752 71.45731 64.57242
# Shear Modulus (GPa) = 24.48840 25.99905 25.24373
#
# Velocity S-wave (km/s) = 3.58290 3.69176 3.63774
# Velocity P-wave (km/s) = 6.88163 7.45862 7.17593
#
# Compressibility (1/GPa) = 0.01733477
#
# Stress axis : x y z
#
# Youngs Moduli (GPa) = 71.58753 81.85616 40.56385
#
# Poissons Ratio (x) = 0.42349 0.18929
# Poissons Ratio (y) = 0.37036 0.28036
# Poissons Ratio (z) = 0.33406 0.56575
#
# Static dielectric constant tensor:
#      x y z
#    x 1.664710 0.000000 0.000000 
#    y 0.000000 1.659120 0.000000 
#    z 0.000000 0.000000 1.713520 
# 
# From -- ./inp_files/5100.got.cif
#   From: 2010.05.17/outbox.cif.g08.bks.cpg/sg31_3_cif.got.tgz:5100.got - 2010.06.03 17:08:30.
