data_PCOD9342863
_publ_section_title
;
Structure prediction by ZEFSAII (Michael W. Deem and Ramdas Pophale) SiO2 
 PCOD9342863
Probable space group: P M N 21
;
_chemical_formula_sum "Si O2"
_cell_formula_units_Z 24
_cell_length_a 7.821460
_cell_length_b 10.004712
_cell_length_c 11.912036
_cell_angle_alpha 90.000000
_cell_angle_beta 90.000000
_cell_angle_gamma 90.000000
_cell_volume 932.134146
_symmetry_space_group_name_H-M "P M N 21"
_symmetry_group_IT_number 31
_symmetry_cell_setting 'orthorhombic'
loop_
_space_group_symop_operation_xyz
x,y,z
1/2-x,-y,1/2+z
-x,y,z
1/2+x,-y,1/2+z
loop_
_atom_site_type_symbol
_atom_site_label
_atom_site_fract_x
_atom_site_fract_y
_atom_site_fract_z
Si Si1 0.307662 0.632126 0.558750
Si Si2 0.205173 0.996520 0.281331
Si Si3 0.695824 0.663026 0.104425
Si Si4 0.706756 0.928737 0.542132
Si Si5 0.707144 0.719317 0.862698
Si Si6 0.695913 0.420445 0.827074
O O1 0.500000 0.618668 0.607402
O O2 0.204617 0.498002 0.584678
O O3 0.237442 0.779009 0.578456
O O4 0.316906 0.628445 0.424100
O O5 0.262926 0.974634 0.148435
O O6 0.263549 0.149473 0.301385
O O7 0.000000 0.985626 0.275412
O O8 0.245155 0.942979 0.409338
O O9 0.500000 0.702877 0.117930
O O10 0.772836 0.720498 0.990614
O O11 0.791409 0.676001 0.221064
O O12 0.500000 0.929735 0.543247
O O13 0.500000 0.725808 0.870643
O O14 0.745509 0.576188 0.808103
O O15 0.500000 0.420529 0.865956
#
# Coordination Sequence:
#
# PCOD9342863 Si02
#       6
#     4   4   4   4   4   4
#     4  10  20  36  56  78 110 149 189 234 286 343
#     4  10  21  40  63  83 110 152 198 241 291 352
#     4  10  19  32  53  83 115 145 184 230 283 346
#     4  10  23  41  60  85 116 152 196 247 302 354
#     4   8  17  34  54  76 105 144 184 225 277 338
#     4  10  19  33  54  81 114 148 185 229 283 345
#
# _framework density 25.747364999999999
#
# number of rings (size 3 to 8) (size 9 to 14) (size 15 to 20)
#    0.000    2.333    0.000    3.500    0.000    6.000 
#    0.000   11.667    0.000    0.000    0.000    0.000 
#    0.000    0.000    0.000    0.000    0.000    0.000 
#
# Total GULP energy -133768.989446 kJ/mol
# GULP energy per Si atom -5573.707894 kJ/mol
# Density = 2.568876 g / cm^3
# Si number density = 25.747365 Si / 1000 Ang^3
#
#
#
# Elastic Constant Matrix: (Units=GPa)
#
#
# Indices 1 2 3 4 5 6 
#
# 1 53.3003 -1.4942 15.0501 0.0000 0.0000 0.0000
# 2 -1.4942 43.3419 -10.9380 0.0000 0.0000 0.0000
# 3 15.0501 -10.9380 138.5802 0.0000 0.0000 0.0000
# 4 0.0000 0.0000 0.0000 26.9478 0.0000 0.0000
# 5 0.0000 0.0000 0.0000 0.0000 60.0152 0.0000
# 6 0.0000 0.0000 0.0000 0.0000 0.0000 16.4340
#
#
#
# Elastic Compliance Matrix: (Units=1/GPa)
#
#
# Indices 1 2 3 4 5 6 
#
# 1 0.019356 0.000140 -0.002091 0.000000 0.000000 0.000000
# 2 0.000140 0.023542 0.001843 0.000000 0.000000 0.000000
# 3 -0.002091 0.001843 0.007589 0.000000 0.000000 0.000000
# 4 0.000000 0.000000 0.000000 0.037109 0.000000 0.000000
# 5 0.000000 0.000000 0.000000 0.000000 0.016662 0.000000
# 6 0.000000 0.000000 0.000000 0.000000 0.000000 0.060849
#
#
# Mechanical properties :
#
#
# Convention : Reuss Voigt Hill
#
# Bulk Modulus (GPa) = 19.89262 26.71758 23.30510
# Shear Modulus (GPa) = 27.46028 36.18636 31.82332
#
# Velocity S-wave (km/s) = 3.26932 3.75299 3.51947
# Velocity P-wave (km/s) = 4.68979 5.40178 5.05833
#
# Compressibility (1/GPa) = 0.05026989
#
# Stress axis : x y z
#
# Youngs Moduli (GPa) = 51.66362 42.47673 131.77658
#
# Poissons Ratio (x) = -0.00593 0.27556
# Poissons Ratio (y) = -0.00721 -0.24286
# Poissons Ratio (z) = 0.10803 -0.07828
#
# Static dielectric constant tensor:
#      x y z
#    x 1.890130 0.000000 0.000000 
#    y 0.000000 2.089540 0.000000 
#    z 0.000000 0.000000 2.164380 
# 
# From -- ./inp_files/3454.got.cif
#   From: 2010.05.17/outbox.cif.g08.bks.cpg/sg31_2_cif.got.tgz:3454.got - 2010.06.03 17:08:30.
