data_PCOD9342152
_publ_section_title
;
Structure prediction by ZEFSAII (Michael W. Deem and Ramdas Pophale) SiO2 
 PCOD9342152
Probable space group: P N C 2
;
_chemical_formula_sum "Si O2"
_cell_formula_units_Z 24
_cell_length_a 10.147272
_cell_length_b 19.058348
_cell_length_c 5.512928
_cell_angle_alpha 90.000000
_cell_angle_beta 90.000000
_cell_angle_gamma 90.000000
_cell_volume 1066.146475
_symmetry_space_group_name_H-M "P N C 2"
_symmetry_group_IT_number 30
_symmetry_cell_setting 'orthorhombic'
loop_
_space_group_symop_operation_xyz
x,y,z
-x,-y,z
-x,1/2+y,1/2+z
x,1/2-y,1/2+z
loop_
_atom_site_type_symbol
_atom_site_label
_atom_site_fract_x
_atom_site_fract_y
_atom_site_fract_z
Si Si1 0.069068 0.075111 0.228190
Si Si2 0.387988 0.561034 0.158278
Si Si3 0.685402 0.710077 0.670158
Si Si4 0.992742 0.214464 0.159213
Si Si5 0.516839 0.086043 0.159749
Si Si6 0.141350 0.463599 0.223171
O O1 0.957760 0.133155 0.187729
O O2 0.138676 0.086748 0.488745
O O3 0.156250 0.071711 0.984615
O O4 0.000000 0.000000 0.250171
O O5 0.500000 0.500000 0.150754
O O6 0.415237 0.603242 0.403560
O O7 0.251162 0.521026 0.179743
O O8 0.400511 0.600013 0.903336
O O9 0.647800 0.747996 0.416337
O O10 0.846083 0.710227 0.667021
O O11 0.611667 0.634972 0.680106
O O12 0.951545 0.256002 0.399401
O O13 0.500000 0.000000 0.153644
O O14 0.000000 0.500000 0.238655
#
# Coordination Sequence:
#
# PCOD9342152 Si02
#       6
#     4   4   4   4   4   4
#     4  10  21  36  59  85 119 161 203 253 307 364
#     4  10  21  32  53  86 115 152 189 247 305 340
#     4  10  21  36  55  82 124 164 195 241 313 376
#     4  10  21  35  55  86 120 160 196 249 314 371
#     4  10  21  35  53  87 120 156 193 245 295 361
#     4  10  21  36  55  86 121 153 195 249 301 354
#
# _framework density 22.510977
#
# number of rings (size 3 to 8) (size 9 to 14) (size 15 to 20)
#    0.000    2.000    0.000    3.000    9.333    0.000 
#    0.000    0.000    0.000    0.000    0.000   93.333 
#    0.000    0.000    0.000    0.000    0.000    0.000 
#
# Total GULP energy -133906.794115 kJ/mol
# GULP energy per Si atom -5579.449755 kJ/mol
# Density = 2.245974 g / cm^3
# Si number density = 22.510977 Si / 1000 Ang^3
#
#
#
# Elastic Constant Matrix: (Units=GPa)
#
#
# Indices 1 2 3 4 5 6 
#
# 1 61.2372 1.5781 3.2432 0.0000 0.0000 0.0000
# 2 1.5781 71.4515 13.3292 0.0000 0.0000 0.0000
# 3 3.2432 13.3292 111.9174 0.0000 0.0000 0.0000
# 4 0.0000 0.0000 0.0000 34.4621 0.0000 0.0000
# 5 0.0000 0.0000 0.0000 0.0000 23.5834 0.0000
# 6 0.0000 0.0000 0.0000 0.0000 0.0000 17.4898
#
#
#
# Elastic Compliance Matrix: (Units=1/GPa)
#
#
# Indices 1 2 3 4 5 6 
#
# 1 0.016360 -0.000279 -0.000441 0.000000 0.000000 0.000000
# 2 -0.000279 0.014318 -0.001697 0.000000 0.000000 0.000000
# 3 -0.000441 -0.001697 0.009150 0.000000 0.000000 0.000000
# 4 0.000000 0.000000 0.000000 0.029017 0.000000 0.000000
# 5 0.000000 0.000000 0.000000 0.000000 0.042403 0.000000
# 6 0.000000 0.000000 0.000000 0.000000 0.000000 0.057176
#
#
# Mechanical properties :
#
#
# Convention : Reuss Voigt Hill
#
# Bulk Modulus (GPa) = 28.57589 31.21189 29.89389
# Shear Modulus (GPa) = 27.03810 30.20411 28.62110
#
# Velocity S-wave (km/s) = 3.46946 3.66696 3.56958
# Velocity P-wave (km/s) = 5.36389 5.64129 5.50434
#
# Compressibility (1/GPa) = 0.03499453
#
# Stress axis : x y z
#
# Youngs Moduli (GPa) = 61.12284 69.84082 109.28879
#
# Poissons Ratio (x) = 0.01949 0.04818
# Poissons Ratio (y) = 0.01706 0.18548
# Poissons Ratio (z) = 0.02695 0.11853
#
# Static dielectric constant tensor:
#      x y z
#    x 1.772960 0.000000 0.000000 
#    y 0.000000 1.907110 0.000000 
#    z 0.000000 0.000000 1.953150 
# 
# From -- ./inp_files/696.got.cif
#   From: 2010.05.17/outbox.cif.g08.bks.cpg/sg30_1_cif.got.tgz:696.got - 2010.06.03 17:03:02.
