data_PCOD9342073
_publ_section_title
;
Structure prediction by ZEFSAII (Michael W. Deem and Ramdas Pophale) SiO2 
 PCOD9342073
Probable space group: P N C 2
;
_chemical_formula_sum "Si O2"
_cell_formula_units_Z 32
_cell_length_a 9.058492
_cell_length_b 11.523349
_cell_length_c 15.568715
_cell_angle_alpha 90.000000
_cell_angle_beta 90.000000
_cell_angle_gamma 90.000000
_cell_volume 1625.127311
_symmetry_space_group_name_H-M "P N C 2"
_symmetry_group_IT_number 30
_symmetry_cell_setting 'orthorhombic'
loop_
_space_group_symop_operation_xyz
x,y,z
-x,-y,z
-x,1/2+y,1/2+z
x,1/2-y,1/2+z
loop_
_atom_site_type_symbol
_atom_site_label
_atom_site_fract_x
_atom_site_fract_y
_atom_site_fract_z
Si Si1 0.514969 0.139236 0.863060
Si Si2 0.157981 0.958932 0.655891
Si Si3 0.235910 0.330078 0.272030
Si Si4 0.041261 0.711976 0.711577
Si Si5 0.809465 0.221056 0.390703
Si Si6 0.738908 0.764303 0.958548
Si Si7 0.006484 0.631416 0.530461
Si Si8 0.325121 0.501395 0.985653
O O1 0.412604 0.183417 0.782992
O O2 0.677033 0.191717 0.863353
O O3 0.427611 0.188625 0.946998
O O4 0.500000 0.000000 0.863313
O O5 0.126634 0.830716 0.687789
O O6 0.197959 0.044876 0.733541
O O7 0.280258 0.972297 0.583622
O O8 0.000000 0.000000 0.617764
O O9 0.188999 0.314778 0.371020
O O10 0.133035 0.241459 0.221083
O O11 0.099474 0.683193 0.806262
O O12 0.065730 0.632786 0.628297
O O13 0.900080 0.286783 0.466144
O O14 0.742485 0.103999 0.429730
O O15 0.735825 0.625881 0.961633
O O16 0.841458 0.815591 0.031585
O O17 0.000000 0.500000 0.498244
O O18 0.500000 0.500000 0.975105
#
# Coordination Sequence:
#
# PCOD9342073 Si02
#       8
#     4   4   4   4   4   4   4   4
#     4  10  20  38  65  99 129 176 218 275 332 401
#     4  10  21  37  66  97 129 164 225 281 325 395
#     4   9  20  38  61  96 128 169 217 267 335 390
#     4  11  23  41  65  99 132 170 220 278 337 389
#     4  12  24  43  69  97 136 176 227 274 336 403
#     4  10  22  41  65  95 127 178 214 269 340 390
#     4  12  26  45  68 102 133 176 226 283 333 403
#     4  12  24  43  63  97 138 175 223 274 334 411
#
# _framework density 19.690764999999999
#
# number of rings (size 3 to 8) (size 9 to 14) (size 15 to 20)
#    0.750    0.500    3.750    3.000    1.750    2.500 
#    0.000    0.000    0.000    0.750    0.000    0.000 
#    0.000    0.000    0.000    0.000    0.000    0.000 
#
# Total GULP energy -178338.819218 kJ/mol
# GULP energy per Si atom -5573.088101 kJ/mol
# Density = 1.964595 g / cm^3
# Si number density = 19.690765 Si / 1000 Ang^3
#
#
#
# Elastic Constant Matrix: (Units=GPa)
#
#
# Indices 1 2 3 4 5 6 
#
# 1 53.0484 20.0747 23.3359 0.0000 0.0000 0.0000
# 2 20.0747 94.2532 31.8361 0.0000 0.0000 0.0000
# 3 23.3359 31.8361 104.2098 0.0000 0.0000 0.0000
# 4 0.0000 0.0000 0.0000 23.2681 0.0000 0.0000
# 5 0.0000 0.0000 0.0000 0.0000 8.4236 0.0000
# 6 0.0000 0.0000 0.0000 0.0000 0.0000 22.3422
#
#
#
# Elastic Compliance Matrix: (Units=1/GPa)
#
#
# Indices 1 2 3 4 5 6 
#
# 1 0.021815 -0.003341 -0.003864 0.000000 0.000000 0.000000
# 2 -0.003341 0.012342 -0.003022 0.000000 0.000000 0.000000
# 3 -0.003864 -0.003022 0.011385 0.000000 0.000000 0.000000
# 4 0.000000 0.000000 0.000000 0.042977 0.000000 0.000000
# 5 0.000000 0.000000 0.000000 0.000000 0.118714 0.000000
# 6 0.000000 0.000000 0.000000 0.000000 0.000000 0.044758
#
#
# Mechanical properties :
#
#
# Convention : Reuss Voigt Hill
#
# Bulk Modulus (GPa) = 39.86238 44.66719 42.26478
# Shear Modulus (GPa) = 17.80569 22.55776 20.18173
#
# Velocity S-wave (km/s) = 3.01036 3.38835 3.20493
# Velocity P-wave (km/s) = 5.68957 6.16777 5.93349
#
# Compressibility (1/GPa) = 0.02508631
#
# Stress axis : x y z
#
# Youngs Moduli (GPa) = 45.84014 81.02288 87.83701
#
# Poissons Ratio (x) = 0.27070 0.33944
# Poissons Ratio (y) = 0.15315 0.26548
# Poissons Ratio (z) = 0.17714 0.24488
#
# Static dielectric constant tensor:
#      x y z
#    x 1.744290 0.000000 0.000000 
#    y 0.000000 1.664500 0.000000 
#    z 0.000000 0.000000 1.711480 
# 
# From -- ./inp_files/5225.got.cif
#   From: 2010.05.17/outbox.cif.g08.bks.cpg/sg30_3_cif.got.tgz:5225.got - 2010.06.03 17:03:02.
