data_PCOD9342263
_publ_section_title
;
Structure prediction by ZEFSAII (Michael W. Deem and Ramdas Pophale) SiO2 
 PCOD9342263
Probable space group: P N C 2
;
_chemical_formula_sum "Si O2"
_cell_formula_units_Z 32
_cell_length_a 7.963690
_cell_length_b 12.230465
_cell_length_c 14.151985
_cell_angle_alpha 90.000000
_cell_angle_beta 90.000000
_cell_angle_gamma 90.000000
_cell_volume 1378.398128
_symmetry_space_group_name_H-M "P N C 2"
_symmetry_group_IT_number 30
_symmetry_cell_setting 'orthorhombic'
loop_
_space_group_symop_operation_xyz
x,y,z
-x,-y,z
-x,1/2+y,1/2+z
x,1/2-y,1/2+z
loop_
_atom_site_type_symbol
_atom_site_label
_atom_site_fract_x
_atom_site_fract_y
_atom_site_fract_z
Si Si1 0.262712 0.316715 0.886040
Si Si2 0.685866 0.033278 0.877062
Si Si3 0.365515 0.758863 0.310961
Si Si4 0.689611 0.546479 0.077587
Si Si5 0.168994 0.933779 0.062885
Si Si6 0.133063 0.366500 0.259255
Si Si7 0.297448 0.983742 0.268610
Si Si8 0.185967 0.810022 0.631068
O O1 0.448557 0.278484 0.851259
O O2 0.154786 0.216268 0.847713
O O3 0.212763 0.416514 0.819234
O O4 0.271944 0.371122 0.989885
O O5 0.709709 0.161242 0.868531
O O6 0.500000 0.000000 0.843133
O O7 0.826570 0.978621 0.813534
O O8 0.703232 0.015233 0.987338
O O9 0.269033 0.871430 0.323112
O O10 0.343104 0.721492 0.201054
O O11 0.500000 0.500000 0.071677
O O12 0.732284 0.616111 0.172300
O O13 0.789239 0.428997 0.081863
O O14 0.230620 0.969001 0.165092
O O15 0.155820 0.800425 0.069477
O O16 0.000000 0.000000 0.042159
O O17 0.970127 0.330190 0.201502
O O18 0.500000 0.000000 0.267170
#
# Coordination Sequence:
#
# PCOD9342263 Si02
#       8
#     4   4   4   4   4   4   4   4
#     4  11  24  44  75 105 147 189 252 311 374 437
#     4  12  25  44  73 104 141 191 251 299 368 443
#     4  10  21  43  69 101 135 192 240 307 360 434
#     4  12  26  46  75 112 148 198 259 319 372 457
#     4  11  26  43  70 108 149 195 242 304 380 454
#     4  12  26  48  72 108 150 198 246 310 377 455
#     4   9  20  42  68  99 139 185 238 304 369 426
#     4  11  26  48  75 104 155 199 250 312 380 456
#
# _framework density 23.215354999999999
#
# number of rings (size 3 to 8) (size 9 to 14) (size 15 to 20)
#    0.000    1.000    2.500    3.750    5.250    2.000 
#    0.000    5.000    0.000    0.000    0.000    0.000 
#    0.000    0.000    0.000    0.000    0.000    0.000 
#
# Total GULP energy -178462.754058 kJ/mol
# GULP energy per Si atom -5576.961064 kJ/mol
# Density = 2.316252 g / cm^3
# Si number density = 23.215355 Si / 1000 Ang^3
#
#
#
# Elastic Constant Matrix: (Units=GPa)
#
#
# Indices 1 2 3 4 5 6 
#
# 1 79.2377 28.3285 37.0617 0.0000 0.0000 0.0000
# 2 28.3285 110.1686 46.6320 0.0000 0.0000 0.0000
# 3 37.0617 46.6320 110.4933 0.0000 0.0000 0.0000
# 4 0.0000 0.0000 0.0000 51.6109 0.0000 0.0000
# 5 0.0000 0.0000 0.0000 0.0000 -9.4896 0.0000
# 6 0.0000 0.0000 0.0000 0.0000 0.0000 17.2877
#
#
#
# Elastic Compliance Matrix: (Units=1/GPa)
#
#
# Indices 1 2 3 4 5 6 
#
# 1 0.015378 -0.002156 -0.004248 0.000000 0.000000 0.000000
# 2 -0.002156 0.011353 -0.004068 0.000000 0.000000 0.000000
# 3 -0.004248 -0.004068 0.012192 0.000000 0.000000 0.000000
# 4 0.000000 0.000000 0.000000 0.019376 0.000000 0.000000
# 5 0.000000 0.000000 0.000000 0.000000 -0.105379 0.000000
# 6 0.000000 0.000000 0.000000 0.000000 0.000000 0.057845
#
#
# Mechanical properties :
#
#
# Convention : Reuss Voigt Hill
#
# Bulk Modulus (GPa) = 55.62198 58.21599 56.91899
# Shear Modulus (GPa) = 132.61387 24.40697 78.51042
#
# Velocity S-wave (km/s) = 7.56620 3.24594 5.82166
# Velocity P-wave (km/s) = 10.01703 6.25932 8.35225
#
# Compressibility (1/GPa) = 0.01797850
#
# Stress axis : x y z
#
# Youngs Moduli (GPa) = 65.02763 88.07890 82.01955
#
# Poissons Ratio (x) = 0.18991 0.34843
# Poissons Ratio (y) = 0.14021 0.33368
# Poissons Ratio (z) = 0.27625 0.35833
#
# Static dielectric constant tensor:
#      x y z
#    x 2.026410 0.000000 0.000000 
#    y 0.000000 1.869620 0.000000 
#    z 0.000000 0.000000 1.863440 
# 
# From -- ./inp_files/5221.got.cif
#   From: 2010.05.17/outbox.cif.g08.bks.cpg/sg30_3_cif.got.tgz:5221.got - 2010.06.03 17:03:02.
