data_PCOD9342654
_publ_section_title
;
Structure prediction by ZEFSAII (Michael W. Deem and Ramdas Pophale) SiO2 
 PCOD9342654
Probable space group: P N C 2
;
_chemical_formula_sum "Si O2"
_cell_formula_units_Z 16
_cell_length_a 4.978967
_cell_length_b 7.714159
_cell_length_c 16.665428
_cell_angle_alpha 90.000000
_cell_angle_beta 90.000000
_cell_angle_gamma 90.000000
_cell_volume 640.094810
_symmetry_space_group_name_H-M "P N C 2"
_symmetry_group_IT_number 30
_symmetry_cell_setting 'orthorhombic'
loop_
_space_group_symop_operation_xyz
x,y,z
-x,-y,z
-x,1/2+y,1/2+z
x,1/2-y,1/2+z
loop_
_atom_site_type_symbol
_atom_site_label
_atom_site_fract_x
_atom_site_fract_y
_atom_site_fract_z
Si Si1 0.162620 0.316535 0.202970
Si Si2 0.000000 0.500000 0.594312
Si Si3 0.500000 0.500000 0.082996
Si Si4 0.610082 0.802206 0.877586
Si Si5 0.141550 0.773136 0.476170
O O1 0.407721 0.351970 0.143015
O O2 0.263980 0.270093 0.291018
O O3 0.000000 0.500000 0.208250
O O4 0.031097 0.158429 0.156322
O O5 0.806555 0.400926 0.529316
O O6 0.746731 0.427398 0.031657
O O7 0.500000 0.000000 0.877206
O O8 0.336322 0.705882 0.899916
O O9 0.160377 0.247095 0.942888
#
# Coordination Sequence:
#
# PCOD9342654 Si02
#       5
#     4   2   2   4   4
#     4  12  27  50  78 116 165 218 269 342 416 497
#     4  12  26  50  82 118 158 216 280 336 412 494
#     4  12  28  48  80 118 168 212 276 344 414 488
#     4  12  25  49  78 115 160 222 271 335 420 489
#     4  12  27  48  81 115 161 218 276 337 409 497
#
# _framework density 24.996297999999999
#
# number of rings (size 3 to 8) (size 9 to 14) (size 15 to 20)
#    0.000    0.000    6.250    3.000    0.000    2.000 
#    0.000    0.000    0.000    0.000    0.000    0.000 
#    0.000    0.000    0.000    0.000    0.000    0.000 
#
# Total GULP energy -89266.424370 kJ/mol
# GULP energy per Si atom -5579.151523 kJ/mol
# Density = 2.493941 g / cm^3
# Si number density = 24.996298 Si / 1000 Ang^3
#
#
#
# Elastic Constant Matrix: (Units=GPa)
#
#
# Indices 1 2 3 4 5 6 
#
# 1 123.1482 31.6555 35.8341 0.0000 0.0000 0.0000
# 2 31.6555 92.6722 57.4322 0.0000 0.0000 0.0000
# 3 35.8341 57.4322 156.9895 0.0000 0.0000 0.0000
# 4 0.0000 0.0000 0.0000 36.6358 0.0000 0.0000
# 5 0.0000 0.0000 0.0000 0.0000 41.8926 0.0000
# 6 0.0000 0.0000 0.0000 0.0000 0.0000 25.2009
#
#
#
# Elastic Compliance Matrix: (Units=1/GPa)
#
#
# Indices 1 2 3 4 5 6 
#
# 1 0.009077 -0.002349 -0.001212 0.000000 0.000000 0.000000
# 2 -0.002349 0.014562 -0.004791 0.000000 0.000000 0.000000
# 3 -0.001212 -0.004791 0.008399 0.000000 0.000000 0.000000
# 4 0.000000 0.000000 0.000000 0.027296 0.000000 0.000000
# 5 0.000000 0.000000 0.000000 0.000000 0.023871 0.000000
# 6 0.000000 0.000000 0.000000 0.000000 0.000000 0.039681
#
#
# Mechanical properties :
#
#
# Convention : Reuss Voigt Hill
#
# Bulk Modulus (GPa) = 65.21846 69.18375 67.20110
# Shear Modulus (GPa) = 34.55356 37.27175 35.91265
#
# Velocity S-wave (km/s) = 3.72203 3.86565 3.79452
# Velocity P-wave (km/s) = 6.67976 6.90377 6.79269
#
# Compressibility (1/GPa) = 0.01533308
#
# Stress axis : x y z
#
# Youngs Moduli (GPa) = 110.16901 68.66979 119.05596
#
# Poissons Ratio (x) = 0.16131 0.14435
# Poissons Ratio (y) = 0.25880 0.57042
# Poissons Ratio (z) = 0.13358 0.32901
#
# Static dielectric constant tensor:
#      x y z
#    x 1.982150 0.000000 0.000000 
#    y 0.000000 2.153560 0.000000 
#    z 0.000000 0.000000 1.919680 
# 
# From -- ./inp_files/5770.got.cif
#   From: 2010.05.17/outbox.cif.g08.bks.cpg/sg30_3_cif.got.tgz:5770.got - 2010.06.03 17:03:02.
