data_PCOD9342664
_publ_section_title
;
Structure prediction by ZEFSAII (Michael W. Deem and Ramdas Pophale) SiO2 
 PCOD9342664
Probable space group: P N C 2
;
_chemical_formula_sum "Si O2"
_cell_formula_units_Z 20
_cell_length_a 7.520682
_cell_length_b 11.373697
_cell_length_c 9.051210
_cell_angle_alpha 90.000000
_cell_angle_beta 90.000000
_cell_angle_gamma 90.000000
_cell_volume 774.222024
_symmetry_space_group_name_H-M "P N C 2"
_symmetry_group_IT_number 30
_symmetry_cell_setting 'orthorhombic'
loop_
_space_group_symop_operation_xyz
x,y,z
-x,-y,z
-x,1/2+y,1/2+z
x,1/2-y,1/2+z
loop_
_atom_site_type_symbol
_atom_site_label
_atom_site_fract_x
_atom_site_fract_y
_atom_site_fract_z
Si Si1 0.211448 0.168863 0.272830
Si Si2 0.365436 0.601052 0.433875
Si Si3 0.500000 0.000000 0.381241
Si Si4 0.668063 0.170840 0.604749
Si Si5 0.060595 0.364710 0.101997
Si Si6 0.000000 0.500000 0.549366
O O1 0.199374 0.303066 0.213751
O O2 0.124866 0.159022 0.435479
O O3 0.397332 0.100468 0.292377
O O4 0.099319 0.092441 0.155831
O O5 0.500000 0.500000 0.476092
O O6 0.411808 0.714580 0.530503
O O7 0.396847 0.633267 0.263848
O O8 0.160612 0.559802 0.457342
O O9 0.360712 0.934357 0.488454
O O10 0.874245 0.200170 0.624963
O O11 0.000000 0.500000 0.124369
#
# Coordination Sequence:
#
# PCOD9342664 Si02
#       6
#     4   4   2   4   4   2
#     4  12  28  51  85 130 172 237 289 368 442 536
#     4  12  31  55  87 127 170 232 288 361 442 524
#     4  12  28  50  88 124 184 222 292 368 446 528
#     4  12  27  55  83 123 174 222 291 362 434 537
#     4  12  26  52  87 123 174 233 291 352 451 529
#     4  12  28  52  86 124 172 226 296 358 436 530
#
# _framework density 25.832383
#
# number of rings (size 3 to 8) (size 9 to 14) (size 15 to 20)
#    0.000    0.000    6.000    1.200    5.600    4.800 
#    0.000    0.000    0.000    0.000    0.000    0.000 
#    0.000    0.000    0.000    0.000    0.000    0.000 
#
# Total GULP energy -112219.662547 kJ/mol
# GULP energy per Si atom -5610.983127 kJ/mol
# Density = 2.577359 g / cm^3
# Si number density = 25.832383 Si / 1000 Ang^3
#
#
#
# Elastic Constant Matrix: (Units=GPa)
#
#
# Indices 1 2 3 4 5 6 
#
# 1 110.7818 31.2851 40.5107 0.0000 0.0000 0.0000
# 2 31.2851 165.3701 90.7221 0.0000 0.0000 0.0000
# 3 40.5107 90.7221 155.5529 0.0000 0.0000 0.0000
# 4 0.0000 0.0000 0.0000 19.6396 0.0000 0.0000
# 5 0.0000 0.0000 0.0000 0.0000 35.2654 0.0000
# 6 0.0000 0.0000 0.0000 0.0000 0.0000 35.4568
#
#
#
# Elastic Compliance Matrix: (Units=1/GPa)
#
#
# Indices 1 2 3 4 5 6 
#
# 1 0.010029 -0.000683 -0.002214 0.000000 0.000000 0.000000
# 2 -0.000683 0.008939 -0.005035 0.000000 0.000000 0.000000
# 3 -0.002214 -0.005035 0.009942 0.000000 0.000000 0.000000
# 4 0.000000 0.000000 0.000000 0.050917 0.000000 0.000000
# 5 0.000000 0.000000 0.000000 0.000000 0.028356 0.000000
# 6 0.000000 0.000000 0.000000 0.000000 0.000000 0.028203
#
#
# Mechanical properties :
#
#
# Convention : Reuss Voigt Hill
#
# Bulk Modulus (GPa) = 76.65268 84.08228 80.36748
# Shear Modulus (GPa) = 31.92862 36.01814 33.97338
#
# Velocity S-wave (km/s) = 3.51948 3.73809 3.63043
# Velocity P-wave (km/s) = 6.80097 7.15897 6.98227
#
# Compressibility (1/GPa) = 0.01304586
#
# Stress axis : x y z
#
# Youngs Moduli (GPa) = 99.71003 111.87370 100.58433
#
# Poissons Ratio (x) = 0.07641 0.22265
# Poissons Ratio (y) = 0.06810 0.50648
# Poissons Ratio (z) = 0.22071 0.56333
#
# Static dielectric constant tensor:
#      x y z
#    x 2.051660 0.000000 0.000000 
#    y 0.000000 2.066920 0.000000 
#    z 0.000000 0.000000 1.976040 
# 
# From -- ./inp_files/1732.got.cif
#   From: 2010.05.17/outbox.cif.g08.bks.cpg/sg30_1_cif.got.tgz:1732.got - 2010.06.03 17:03:02.
