data_PCOD9342182
_publ_section_title
;
Structure prediction by ZEFSAII (Michael W. Deem and Ramdas Pophale) SiO2 
 PCOD9342182
Probable space group: P N C 2
;
_chemical_formula_sum "Si O2"
_cell_formula_units_Z 28
_cell_length_a 13.308217
_cell_length_b 5.095606
_cell_length_c 22.724338
_cell_angle_alpha 90.000000
_cell_angle_beta 90.000000
_cell_angle_gamma 90.000000
_cell_volume 1541.015313
_symmetry_space_group_name_H-M "P N C 2"
_symmetry_group_IT_number 30
_symmetry_cell_setting 'orthorhombic'
loop_
_space_group_symop_operation_xyz
x,y,z
-x,-y,z
-x,1/2+y,1/2+z
x,1/2-y,1/2+z
loop_
_atom_site_type_symbol
_atom_site_label
_atom_site_fract_x
_atom_site_fract_y
_atom_site_fract_z
Si Si1 0.306187 0.583050 0.362430
Si Si2 0.383757 0.418213 0.657100
Si Si3 0.883782 0.026829 0.936727
Si Si4 0.567331 0.250299 0.476452
Si Si5 0.616923 0.926717 0.296036
Si Si6 0.693695 0.092399 0.590979
Si Si7 0.116108 0.027010 0.518823
O O1 0.194367 0.512175 0.383645
O O2 0.366104 0.659730 0.421556
O O3 0.356861 0.333874 0.331832
O O4 0.316559 0.832372 0.319788
O O5 0.500000 0.500000 0.648073
O O6 0.367953 0.382380 0.726655
O O7 0.315935 0.653709 0.632093
O O8 0.358792 0.152742 0.622636
O O9 0.865335 0.801613 0.985606
O O10 0.869251 0.302705 0.969635
O O11 0.000000 0.000000 0.918227
O O12 0.500000 0.500000 0.493880
O O13 0.634907 0.162274 0.531074
O O14 0.500000 0.000000 0.459525
O O15 0.500000 0.000000 0.304945
O O16 0.805709 0.017549 0.571040
O O17 0.000000 0.000000 0.537893
#
# Coordination Sequence:
#
# PCOD9342182 Si02
#       7
#     4   4   4   4   4   4   4
#     4  12  22  38  61  85 118 153 190 243 289 344
#     4  11  24  41  59  82 115 161 206 234 273 339
#     4  10  21  38  59  86 118 151 189 231 289 359
#     4  12  24  34  54  88 124 150 178 232 304 354
#     4  11  24  41  59  82 115 161 206 234 273 339
#     4  12  22  38  61  85 118 153 190 243 289 344
#     4  10  21  38  59  86 118 151 189 231 289 359
#
# _framework density 18.169837000000001
#
# number of rings (size 3 to 8) (size 9 to 14) (size 15 to 20)
#    0.000    0.857    1.429    7.714    2.000    2.286 
#    0.000    0.000    0.000    5.143    0.000    0.000 
#    0.000    0.000    0.000    0.000    0.000    0.000 
#
# Total GULP energy -156670.199614 kJ/mol
# GULP energy per Si atom -5595.364272 kJ/mol
# Density = 1.812848 g / cm^3
# Si number density = 18.169837 Si / 1000 Ang^3
#
#
#
# Elastic Constant Matrix: (Units=GPa)
#
#
# Indices 1 2 3 4 5 6 
#
# 1 95.4273 34.1370 64.5461 0.0000 0.0000 0.0000
# 2 34.1370 113.5906 48.4185 0.0000 0.0000 0.0000
# 3 64.5461 48.4185 123.3335 0.0000 0.0000 0.0000
# 4 0.0000 0.0000 0.0000 8.4690 0.0000 0.0000
# 5 0.0000 0.0000 0.0000 0.0000 6.5548 0.0000
# 6 0.0000 0.0000 0.0000 0.0000 0.0000 17.0408
#
#
#
# Elastic Compliance Matrix: (Units=1/GPa)
#
#
# Indices 1 2 3 4 5 6 
#
# 1 0.016439 -0.001529 -0.008003 0.000000 0.000000 0.000000
# 2 -0.001529 0.010715 -0.003406 0.000000 0.000000 0.000000
# 3 -0.008003 -0.003406 0.013634 0.000000 0.000000 0.000000
# 4 0.000000 0.000000 0.000000 0.118078 0.000000 0.000000
# 5 0.000000 0.000000 0.000000 0.000000 0.152561 0.000000
# 6 0.000000 0.000000 0.000000 0.000000 0.000000 0.058683
#
#
# Mechanical properties :
#
#
# Convention : Reuss Voigt Hill
#
# Bulk Modulus (GPa) = 67.06419 69.61718 68.34068
# Shear Modulus (GPa) = 12.47014 18.76289 15.61651
#
# Velocity S-wave (km/s) = 2.62259 3.21696 2.93486
# Velocity P-wave (km/s) = 6.79415 7.22470 7.01273
#
# Compressibility (1/GPa) = 0.01491109
#
# Stress axis : x y z
#
# Youngs Moduli (GPa) = 60.82912 93.32690 73.34706
#
# Poissons Ratio (x) = 0.14271 0.58701
# Poissons Ratio (y) = 0.09301 0.24984
# Poissons Ratio (z) = 0.48683 0.31790
#
# Static dielectric constant tensor:
#      x y z
#    x 1.639210 0.000000 0.000000 
#    y 0.000000 1.616640 0.000000 
#    z 0.000000 0.000000 1.598910 
# 
# From -- ./inp_files/7034.got.cif
#   From: 2010.05.17/outbox.cif.g08.bks.cpg/sg30_4_cif.got.tgz:7034.got - 2010.06.03 17:03:02.
