data_PCOD9342797
_publ_section_title
;
Structure prediction by ZEFSAII (Michael W. Deem and Ramdas Pophale) SiO2 
 PCOD9342797
Probable space group: P M N 21
;
_chemical_formula_sum "Si O2"
_cell_formula_units_Z 32
_cell_length_a 7.684363
_cell_length_b 15.820152
_cell_length_c 12.280258
_cell_angle_alpha 90.000000
_cell_angle_beta 90.000000
_cell_angle_gamma 90.000000
_cell_volume 1492.883834
_symmetry_space_group_name_H-M "P M N 21"
_symmetry_group_IT_number 31
_symmetry_cell_setting 'orthorhombic'
loop_
_space_group_symop_operation_xyz
x,y,z
1/2-x,-y,1/2+z
-x,y,z
1/2+x,-y,1/2+z
loop_
_atom_site_type_symbol
_atom_site_label
_atom_site_fract_x
_atom_site_fract_y
_atom_site_fract_z
Si Si1 0.711582 0.577896 0.143900
Si Si2 0.296548 0.746723 0.265929
Si Si3 0.286617 0.916450 0.146322
Si Si4 0.291058 0.844092 0.923025
Si Si5 0.296726 0.246430 0.016172
Si Si6 0.203473 0.386111 0.185196
Si Si7 0.295076 0.104008 0.181674
Si Si8 0.288600 0.655027 0.923933
O O1 0.500000 0.575508 0.148411
O O2 0.772704 0.658642 0.215156
O O3 0.776301 0.486458 0.178512
O O4 0.767588 0.593028 0.019079
O O5 0.500000 0.746347 0.234718
O O6 0.225899 0.834674 0.215245
O O7 0.283640 0.747125 0.396478
O O8 0.500000 0.916124 0.152821
O O9 0.223594 0.008706 0.181991
O O10 0.236092 0.904901 0.020123
O O11 0.500000 0.848051 0.915715
O O12 0.222981 0.860818 0.803126
O O13 0.243640 0.749653 0.958656
O O14 0.500000 0.230053 0.997354
O O15 0.281895 0.332481 0.086296
O O16 0.223943 0.170612 0.092793
O O17 0.277927 0.359697 0.302589
O O18 0.000000 0.363980 0.183735
O O19 0.500000 0.097311 0.157229
O O20 0.500000 0.649401 0.919388
#
# Coordination Sequence:
#
# PCOD9342797 Si02
#       8
#     4   4   4   4   4   4   4   4
#     4  10  21  39  61  87 116 149 187 237 294 342
#     4  10  21  39  62  85 115 155 196 235 285 350
#     4   9  19  37  61  86 116 153 192 234 287 345
#     4  10  18  36  64  85 107 148 196 239 281 339
#     4  11  24  40  57  82 121 159 192 238 292 338
#     4  11  23  39  60  88 116 150 195 237 282 348
#     4  10  22  38  56  85 120 153 189 237 290 338
#     4   9  18  36  61  84 109 143 189 237 283 336
#
# _framework density 21.435023000000001
#
# number of rings (size 3 to 8) (size 9 to 14) (size 15 to 20)
#    0.000    2.000    2.500    0.750    3.500    1.000 
#    0.000    2.500    0.000    0.000    0.000    0.000 
#    0.000    0.000    0.000    0.000    0.000    0.000 
#
# Total GULP energy -178629.641717 kJ/mol
# GULP energy per Si atom -5582.176304 kJ/mol
# Density = 2.138624 g / cm^3
# Si number density = 21.435023 Si / 1000 Ang^3
#
#
#
# Elastic Constant Matrix: (Units=GPa)
#
#
# Indices 1 2 3 4 5 6 
#
# 1 34.1387 -4.5004 -12.5566 0.0000 0.0000 0.0000
# 2 -4.5004 112.6598 29.5587 0.0000 0.0000 0.0000
# 3 -12.5566 29.5587 96.0852 0.0000 0.0000 0.0000
# 4 0.0000 0.0000 0.0000 30.2333 0.0000 0.0000
# 5 0.0000 0.0000 0.0000 0.0000 -14.6616 0.0000
# 6 0.0000 0.0000 0.0000 0.0000 0.0000 16.2960
#
#
#
# Elastic Compliance Matrix: (Units=1/GPa)
#
#
# Indices 1 2 3 4 5 6 
#
# 1 0.030775 0.000189 0.003963 0.000000 0.000000 0.000000
# 2 0.000189 0.009657 -0.002946 0.000000 0.000000 0.000000
# 3 0.003963 -0.002946 0.011832 0.000000 0.000000 0.000000
# 4 0.000000 0.000000 0.000000 0.033076 0.000000 0.000000
# 5 0.000000 0.000000 0.000000 0.000000 -0.068206 0.000000
# 6 0.000000 0.000000 0.000000 0.000000 0.000000 0.061365
#
#
# Mechanical properties :
#
#
# Convention : Reuss Voigt Hill
#
# Bulk Modulus (GPa) = 18.28909 29.76523 24.02716
# Shear Modulus (GPa) = 53.01630 21.73235 37.37432
#
# Velocity S-wave (km/s) = 4.97867 3.18759 4.18019
# Velocity P-wave (km/s) = 6.44984 5.24061 5.87641
#
# Compressibility (1/GPa) = 0.05467740
#
# Stress axis : x y z
#
# Youngs Moduli (GPa) = 32.49385 103.55415 84.51909
#
# Poissons Ratio (x) = -0.01962 -0.33499
# Poissons Ratio (y) = -0.00616 0.24899
# Poissons Ratio (z) = -0.12879 0.30507
#
# Static dielectric constant tensor:
#      x y z
#    x 1.804010 0.000000 0.000000 
#    y 0.000000 1.763980 0.000000 
#    z 0.000000 0.000000 1.735400 
# 
# From -- ./inp_files/3607.got.cif
#   From: 2010.05.17/outbox.cif.g08.bks.cpg/sg31_2_cif.got.tgz:3607.got - 2010.06.03 17:08:30.
