data_PCOD9342310
_publ_section_title
;
Structure prediction by ZEFSAII (Michael W. Deem and Ramdas Pophale) SiO2 
 PCOD9342310
Probable space group: P N C 2
;
_chemical_formula_sum "Si O2"
_cell_formula_units_Z 20
_cell_length_a 12.797276
_cell_length_b 14.786797
_cell_length_c 5.001225
_cell_angle_alpha 90.000000
_cell_angle_beta 90.000000
_cell_angle_gamma 90.000000
_cell_volume 946.385419
_symmetry_space_group_name_H-M "P N C 2"
_symmetry_group_IT_number 30
_symmetry_cell_setting 'orthorhombic'
loop_
_space_group_symop_operation_xyz
x,y,z
-x,-y,z
-x,1/2+y,1/2+z
x,1/2-y,1/2+z
loop_
_atom_site_type_symbol
_atom_site_label
_atom_site_fract_x
_atom_site_fract_y
_atom_site_fract_z
Si Si1 0.623037 0.990484 0.701120
Si Si2 0.087681 0.693814 0.573493
Si Si3 0.924167 0.923019 0.398734
Si Si4 0.743549 0.448537 0.711653
Si Si5 0.245001 0.187099 0.691384
O O1 0.665401 0.888438 0.654123
O O2 0.500000 0.000000 0.668846
O O3 0.685031 0.053446 0.492904
O O4 0.661113 0.020350 0.992184
O O5 0.083513 0.717210 0.261446
O O6 0.194764 0.641530 0.635590
O O7 0.993216 0.634607 0.692883
O O8 0.863223 0.862992 0.615037
O O9 0.833625 0.975550 0.238843
O O10 0.000000 0.000000 0.520521
O O11 0.251527 0.269744 0.483030
#
# Coordination Sequence:
#
# PCOD9342310 Si02
#       5
#     4   4   4   4   4
#     4  11  23  43  66  86 116 161 206 251 309 368
#     4  11  22  37  58  90 124 159 196 240 294 356
#     4   9  20  37  60  88 125 166 200 236 296 370
#     4  10  22  40  61  87 119 158 201 245 297 364
#     4  11  22  39  61  91 121 152 199 258 300 344
#
# _framework density 21.133039
#
# number of rings (size 3 to 8) (size 9 to 14) (size 15 to 20)
#    0.000    1.600    0.000    5.400    0.000    3.200 
#    0.000   22.000    0.000    0.000    0.000    0.000 
#    0.000    0.000    0.000    0.000    0.000    0.000 
#
# Total GULP energy -111934.677691 kJ/mol
# GULP energy per Si atom -5596.733885 kJ/mol
# Density = 2.108494 g / cm^3
# Si number density = 21.133039 Si / 1000 Ang^3
#
#
#
# Elastic Constant Matrix: (Units=GPa)
#
#
# Indices 1 2 3 4 5 6 
#
# 1 112.7222 39.5776 -16.6473 0.0000 0.0000 0.0000
# 2 39.5776 64.2695 -6.9811 0.0000 0.0000 0.0000
# 3 -16.6473 -6.9811 40.2653 0.0000 0.0000 0.0000
# 4 0.0000 0.0000 0.0000 19.0847 0.0000 0.0000
# 5 0.0000 0.0000 0.0000 0.0000 21.9754 0.0000
# 6 0.0000 0.0000 0.0000 0.0000 0.0000 22.0345
#
#
#
# Elastic Compliance Matrix: (Units=1/GPa)
#
#
# Indices 1 2 3 4 5 6 
#
# 1 0.011836 -0.006887 0.003699 0.000000 0.000000 0.000000
# 2 -0.006887 0.019865 0.000597 0.000000 0.000000 0.000000
# 3 0.003699 0.000597 0.026468 0.000000 0.000000 0.000000
# 4 0.000000 0.000000 0.000000 0.052398 0.000000 0.000000
# 5 0.000000 0.000000 0.000000 0.000000 0.045505 0.000000
# 6 0.000000 0.000000 0.000000 0.000000 0.000000 0.045383
#
#
# Mechanical properties :
#
#
# Convention : Reuss Voigt Hill
#
# Bulk Modulus (GPa) = 18.87208 27.68394 23.27801
# Shear Modulus (GPa) = 22.29165 26.03945 24.16555
#
# Velocity S-wave (km/s) = 3.25133 3.51403 3.38523
# Velocity P-wave (km/s) = 4.80046 5.43993 5.13017
#
# Compressibility (1/GPa) = 0.05298834
#
# Stress axis : x y z
#
# Youngs Moduli (GPa) = 84.49044 50.33936 37.78115
#
# Poissons Ratio (x) = 0.34667 -0.13977
# Poissons Ratio (y) = 0.58186 -0.02255
# Poissons Ratio (z) = -0.31256 -0.03005
#
# Static dielectric constant tensor:
#      x y z
#    x 1.715080 0.000000 0.000000 
#    y 0.000000 1.795870 0.000000 
#    z 0.000000 0.000000 1.736730 
# 
# From -- ./inp_files/643.got.cif
#   From: 2010.05.17/outbox.cif.g08.bks.cpg/sg30_1_cif.got.tgz:643.got - 2010.06.03 17:03:02.
