data_PCOD9342131
_publ_section_title
;
Structure prediction by ZEFSAII (Michael W. Deem and Ramdas Pophale) SiO2 
 PCOD9342131
Probable space group: P N C 2
;
_chemical_formula_sum "Si O2"
_cell_formula_units_Z 24
_cell_length_a 12.298148
_cell_length_b 7.529263
_cell_length_c 11.706030
_cell_angle_alpha 90.000000
_cell_angle_beta 90.000000
_cell_angle_gamma 90.000000
_cell_volume 1083.931445
_symmetry_space_group_name_H-M "P N C 2"
_symmetry_group_IT_number 30
_symmetry_cell_setting 'orthorhombic'
loop_
_space_group_symop_operation_xyz
x,y,z
-x,-y,z
-x,1/2+y,1/2+z
x,1/2-y,1/2+z
loop_
_atom_site_type_symbol
_atom_site_label
_atom_site_fract_x
_atom_site_fract_y
_atom_site_fract_z
Si Si1 0.738399 0.039827 0.330700
Si Si2 0.422896 0.340714 0.181516
Si Si3 0.250000 0.375269 0.580741
Si Si4 0.077104 0.159285 0.479966
Si Si5 0.500000 0.000000 0.316811
Si Si6 0.761601 0.039826 0.830782
Si Si7 0.000000 0.000000 0.844672
O O1 0.616689 0.004519 0.377009
O O2 0.749999 0.250000 0.330741
O O3 0.742541 0.982290 0.197955
O O4 0.830605 0.928858 0.397340
O O5 0.500000 0.500000 0.146303
O O6 0.356946 0.245609 0.081568
O O7 0.490281 0.182674 0.243040
O O8 0.330605 0.428857 0.264143
O O9 0.143054 0.254391 0.579915
O O10 0.242541 0.482289 0.463527
O O11 0.009719 0.317326 0.418442
O O12 0.000000 0.000000 0.515181
O O13 0.883311 0.004519 0.784474
#
# Coordination Sequence:
#
# PCOD9342131 Si02
#       7
#     4   4   4   4   2   4   2
#     4  11  23  46  70 103 145 186 237 293 354 419
#     4  11  23  47  68 103 143 183 236 297 354 419
#     4  10  24  44  68 106 138 186 246 280 348 436
#     4  11  23  47  68 103 143 183 236 297 354 419
#     4  10  20  42  70  96 138 176 236 288 336 430
#     4  11  23  46  70 103 145 186 237 293 354 419
#     4  10  20  42  70  96 138 176 236 288 336 430
#
# _framework density 22.14162
#
# number of rings (size 3 to 8) (size 9 to 14) (size 15 to 20)
#    0.000    1.333    3.333    4.000    0.000    1.333 
#   24.000    0.000    0.000    0.000    0.000    0.000 
#    0.000    0.000    0.000    0.000    0.000    0.000 
#
# Total GULP energy -134062.499054 kJ/mol
# GULP energy per Si atom -5585.937461 kJ/mol
# Density = 2.209122 g / cm^3
# Si number density = 22.141620 Si / 1000 Ang^3
#
#
#
# Elastic Constant Matrix: (Units=GPa)
#
#
# Indices 1 2 3 4 5 6 
#
# 1 145.2453 59.8237 51.2862 0.0000 0.0000 0.0000
# 2 59.8237 187.8401 47.7860 0.0000 0.0000 0.0000
# 3 51.2862 47.7860 80.3052 0.0000 0.0000 0.0000
# 4 0.0000 0.0000 0.0000 22.7568 0.0000 0.0000
# 5 0.0000 0.0000 0.0000 0.0000 22.9283 0.0000
# 6 0.0000 0.0000 0.0000 0.0000 0.0000 54.2805
#
#
#
# Elastic Compliance Matrix: (Units=1/GPa)
#
#
# Indices 1 2 3 4 5 6 
#
# 1 0.009337 -0.001716 -0.004941 0.000000 0.000000 0.000000
# 2 -0.001716 0.006589 -0.002825 0.000000 0.000000 0.000000
# 3 -0.004941 -0.002825 0.017289 0.000000 0.000000 0.000000
# 4 0.000000 0.000000 0.000000 0.043943 0.000000 0.000000
# 5 0.000000 0.000000 0.000000 0.000000 0.043614 0.000000
# 6 0.000000 0.000000 0.000000 0.000000 0.000000 0.018423
#
#
# Mechanical properties :
#
#
# Convention : Reuss Voigt Hill
#
# Bulk Modulus (GPa) = 70.17652 81.24250 75.70951
# Shear Modulus (GPa) = 30.69189 36.95942 33.82565
#
# Velocity S-wave (km/s) = 3.72716 4.09005 3.91281
# Velocity P-wave (km/s) = 7.09123 7.68613 7.39466
#
# Compressibility (1/GPa) = 0.01424978
#
# Stress axis : x y z
#
# Youngs Moduli (GPa) = 107.10414 151.77029 57.84017
#
# Poissons Ratio (x) = 0.26051 0.28581
# Poissons Ratio (y) = 0.18384 0.16337
# Poissons Ratio (z) = 0.52924 0.42868
#
# Static dielectric constant tensor:
#      x y z
#    x 1.840110 0.000000 0.000000 
#    y 0.000000 1.812400 0.000000 
#    z 0.000000 0.000000 1.782010 
# 
# From -- ./inp_files/4075.got.cif
#   From: 2010.05.17/outbox.cif.g08.bks.cpg/sg30_3_cif.got.tgz:4075.got - 2010.06.03 17:03:02.
