data_PCOD9342069
_publ_section_title
;
Structure prediction by ZEFSAII (Michael W. Deem and Ramdas Pophale) SiO2 
 PCOD9342069
Probable space group: P N C 2
;
_chemical_formula_sum "Si O2"
_cell_formula_units_Z 18
_cell_length_a 11.085130
_cell_length_b 6.887032
_cell_length_c 10.381377
_cell_angle_alpha 90.000000
_cell_angle_beta 90.000000
_cell_angle_gamma 90.000000
_cell_volume 792.552161
_symmetry_space_group_name_H-M "P N C 2"
_symmetry_group_IT_number 30
_symmetry_cell_setting 'orthorhombic'
loop_
_space_group_symop_operation_xyz
x,y,z
-x,-y,z
-x,1/2+y,1/2+z
x,1/2-y,1/2+z
loop_
_atom_site_type_symbol
_atom_site_label
_atom_site_fract_x
_atom_site_fract_y
_atom_site_fract_z
Si Si1 0.500000 0.500000 0.886710
Si Si2 0.620044 0.402961 0.635056
Si Si3 0.799264 0.119588 0.544563
Si Si4 0.867832 0.079120 0.829609
Si Si5 0.714710 0.720737 0.474383
O O1 0.589942 0.387902 0.785415
O O2 0.410997 0.337802 0.947892
O O3 0.500000 0.500000 0.577093
O O4 0.663936 0.203023 0.574675
O O5 0.712393 0.572373 0.595555
O O6 0.860683 0.147397 0.682468
O O7 0.846225 0.247653 0.428693
O O8 0.802980 0.896578 0.506595
O O9 0.765507 0.914320 0.859300
O O10 0.000000 0.000000 0.855453
#
# Coordination Sequence:
#
# PCOD9342069 Si02
#       5
#     2   4   4   4   4
#     4  10  20  38  64 102 140 190 216 284 350 420
#     4   9  21  38  61 101 138 180 224 271 343 423
#     4  11  24  47  71 103 141 184 237 296 356 422
#     4  11  28  47  72 103 139 189 243 298 353 423
#     4  11  22  42  70 102 141 184 235 285 356 426
#
# _framework density 22.711435999999999
#
# number of rings (size 3 to 8) (size 9 to 14) (size 15 to 20)
#    0.667    0.889    0.000    4.000    3.111    3.556 
#    0.000    0.000    0.000    0.000    0.000    0.000 
#    0.000    0.000    0.000    0.000    0.000    0.000 
#
# Total GULP energy -100372.559595 kJ/mol
# GULP energy per Si atom -5576.253311 kJ/mol
# Density = 2.265974 g / cm^3
# Si number density = 22.711436 Si / 1000 Ang^3
#
#
#
# Elastic Constant Matrix: (Units=GPa)
#
#
# Indices 1 2 3 4 5 6 
#
# 1 45.3565 7.0208 -0.8224 0.0000 0.0000 0.0000
# 2 7.0208 127.7290 49.4506 0.0000 0.0000 0.0000
# 3 -0.8224 49.4506 110.9027 0.0000 0.0000 0.0000
# 4 0.0000 0.0000 0.0000 25.5432 0.0000 0.0000
# 5 0.0000 0.0000 0.0000 0.0000 4.0924 0.0000
# 6 0.0000 0.0000 0.0000 0.0000 0.0000 20.5448
#
#
#
# Elastic Compliance Matrix: (Units=1/GPa)
#
#
# Indices 1 2 3 4 5 6 
#
# 1 0.022305 -0.001559 0.000861 0.000000 0.000000 0.000000
# 2 -0.001559 0.009572 -0.004279 0.000000 0.000000 0.000000
# 3 0.000861 -0.004279 0.010931 0.000000 0.000000 0.000000
# 4 0.000000 0.000000 0.000000 0.039149 0.000000 0.000000
# 5 0.000000 0.000000 0.000000 0.000000 0.244356 0.000000
# 6 0.000000 0.000000 0.000000 0.000000 0.000000 0.048674
#
#
# Mechanical properties :
#
#
# Convention : Reuss Voigt Hill
#
# Bulk Modulus (GPa) = 30.43996 43.92068 37.18032
# Shear Modulus (GPa) = 12.62964 25.25870 18.94417
#
# Velocity S-wave (km/s) = 2.36072 3.33852 2.89126
# Velocity P-wave (km/s) = 4.56757 5.85163 5.24901
#
# Compressibility (1/GPa) = 0.03285155
#
# Stress axis : x y z
#
# Youngs Moduli (GPa) = 44.83395 104.47601 91.47907
#
# Poissons Ratio (x) = 0.16290 -0.07873
# Poissons Ratio (y) = 0.06990 0.39148
# Poissons Ratio (z) = -0.03859 0.44710
#
# Static dielectric constant tensor:
#      x y z
#    x 1.954980 0.000000 0.000000 
#    y 0.000000 1.829500 0.000000 
#    z 0.000000 0.000000 1.847570 
# 
# From -- ./inp_files/3983.got.cif
#   From: 2010.05.17/outbox.cif.g08.bks.cpg/sg30_2_cif.got.tgz:3983.got - 2010.06.03 17:03:02.
