data_PCOD9342033
_publ_section_title
;
Structure prediction by ZEFSAII (Michael W. Deem and Ramdas Pophale) SiO2 
 PCOD9342033
Probable space group: P N C 2
;
_chemical_formula_sum "Si O2"
_cell_formula_units_Z 30
_cell_length_a 13.752085
_cell_length_b 12.088494
_cell_length_c 8.575329
_cell_angle_alpha 90.000000
_cell_angle_beta 90.000000
_cell_angle_gamma 90.000000
_cell_volume 1425.579818
_symmetry_space_group_name_H-M "P N C 2"
_symmetry_group_IT_number 30
_symmetry_cell_setting 'orthorhombic'
loop_
_space_group_symop_operation_xyz
x,y,z
-x,-y,z
-x,1/2+y,1/2+z
x,1/2-y,1/2+z
loop_
_atom_site_type_symbol
_atom_site_label
_atom_site_fract_x
_atom_site_fract_y
_atom_site_fract_z
Si Si1 0.181189 0.148801 0.447880
Si Si2 0.619118 0.896304 0.294982
Si Si3 0.415586 0.640816 0.914782
Si Si4 0.193776 0.961686 0.701978
Si Si5 0.000000 0.500000 0.400868
Si Si6 0.307232 0.751630 0.152327
Si Si7 0.109910 0.137244 0.124907
Si Si8 0.711978 0.004853 0.015682
O O1 0.284608 0.163679 0.358860
O O2 0.101216 0.142402 0.310443
O O3 0.154988 0.249622 0.560051
O O4 0.189499 0.039603 0.551834
O O5 0.519522 0.835688 0.337195
O O6 0.607927 0.012224 0.388735
O O7 0.632399 0.934101 0.114086
O O8 0.332067 0.706399 0.823890
O O9 0.400084 0.682714 0.088369
O O10 0.220262 0.836419 0.655967
O O11 0.274528 0.003171 0.829523
O O12 0.091930 0.974517 0.792018
O O13 0.020355 0.397564 0.517278
O O14 0.296607 0.866884 0.060590
O O15 0.188532 0.041443 0.089955
#
# Coordination Sequence:
#
# PCOD9342033 Si02
#       8
#     4   4   4   4   2   4   4   4
#     4  11  22  42  71  92 131 175 215 268 343 396
#     4   9  20  38  62  91 131 174 221 271 316 386
#     4  10  20  36  60  94 133 171 223 265 315 394
#     4  11  22  42  68  97 131 171 223 273 340 401
#     4  10  24  46  62 100 134 162 232 276 320 414
#     4  11  20  38  63  94 131 174 212 264 334 388
#     4  10  22  42  64  95 128 168 214 273 331 401
#     4   9  20  38  62  90 127 174 210 267 332 389
#
# _framework density 21.044067999999999
#
# number of rings (size 3 to 8) (size 9 to 14) (size 15 to 20)
#    0.000    1.867    2.667    1.600    0.000    2.667 
#    9.600    1.333    2.933    0.000    0.000    0.000 
#    0.000    0.000    0.000    0.000    0.000    0.000 
#
# Total GULP energy -167275.496493 kJ/mol
# GULP energy per Si atom -5575.849883 kJ/mol
# Density = 2.099617 g / cm^3
# Si number density = 21.044068 Si / 1000 Ang^3
#
#
#
# Elastic Constant Matrix: (Units=GPa)
#
#
# Indices 1 2 3 4 5 6 
#
# 1 59.6354 15.6932 17.0510 0.0000 0.0000 0.0000
# 2 15.6932 69.4154 24.6873 0.0000 0.0000 0.0000
# 3 17.0510 24.6873 97.8657 0.0000 0.0000 0.0000
# 4 0.0000 0.0000 0.0000 24.4540 0.0000 0.0000
# 5 0.0000 0.0000 0.0000 0.0000 26.3599 0.0000
# 6 0.0000 0.0000 0.0000 0.0000 0.0000 25.1324
#
#
#
# Elastic Compliance Matrix: (Units=1/GPa)
#
#
# Indices 1 2 3 4 5 6 
#
# 1 0.018311 -0.003301 -0.002358 0.000000 0.000000 0.000000
# 2 -0.003301 0.016421 -0.003567 0.000000 0.000000 0.000000
# 3 -0.002358 -0.003567 0.011529 0.000000 0.000000 0.000000
# 4 0.000000 0.000000 0.000000 0.040893 0.000000 0.000000
# 5 0.000000 0.000000 0.000000 0.000000 0.037936 0.000000
# 6 0.000000 0.000000 0.000000 0.000000 0.000000 0.039789
#
#
# Mechanical properties :
#
#
# Convention : Reuss Voigt Hill
#
# Bulk Modulus (GPa) = 35.95957 37.97552 36.96754
# Shear Modulus (GPa) = 25.96033 26.48827 26.22430
#
# Velocity S-wave (km/s) = 3.51610 3.55167 3.53393
# Velocity P-wave (km/s) = 5.79731 5.90796 5.85290
#
# Compressibility (1/GPa) = 0.02780901
#
# Stress axis : x y z
#
# Youngs Moduli (GPa) = 54.61075 60.89763 86.74019
#
# Poissons Ratio (x) = 0.20104 0.20450
# Poissons Ratio (y) = 0.18029 0.30941
# Poissons Ratio (z) = 0.12875 0.21723
#
# Static dielectric constant tensor:
#      x y z
#    x 1.810210 0.000000 0.000000 
#    y 0.000000 1.745760 0.000000 
#    z 0.000000 0.000000 1.798460 
# 
# From -- ./inp_files/2670.got.cif
#   From: 2010.05.17/outbox.cif.g08.bks.cpg/sg30_2_cif.got.tgz:2670.got - 2010.06.03 17:03:02.
