data_PCOD9342607
_publ_section_title
;
Structure prediction by ZEFSAII (Michael W. Deem and Ramdas Pophale) SiO2 
 PCOD9342607
Probable space group: P N C 2
;
_chemical_formula_sum "Si O2"
_cell_formula_units_Z 22
_cell_length_a 4.782273
_cell_length_b 15.777511
_cell_length_c 11.070220
_cell_angle_alpha 90.000000
_cell_angle_beta 90.000000
_cell_angle_gamma 90.000000
_cell_volume 835.274279
_symmetry_space_group_name_H-M "P N C 2"
_symmetry_group_IT_number 30
_symmetry_cell_setting 'orthorhombic'
loop_
_space_group_symop_operation_xyz
x,y,z
-x,-y,z
-x,1/2+y,1/2+z
x,1/2-y,1/2+z
loop_
_atom_site_type_symbol
_atom_site_label
_atom_site_fract_x
_atom_site_fract_y
_atom_site_fract_z
Si Si1 0.270348 0.175892 0.240170
Si Si2 0.775172 0.827152 0.579160
Si Si3 0.500000 0.000000 0.162085
Si Si4 0.000000 0.000000 0.010165
Si Si5 0.500000 0.000000 0.636603
Si Si6 0.924570 0.104065 0.806958
Si Si7 0.763056 0.277874 0.886965
O O1 0.352880 0.234896 0.123464
O O2 0.441914 0.198287 0.364083
O O3 0.944737 0.185552 0.274283
O O4 0.348242 0.078205 0.223914
O O5 0.878682 0.851127 0.713208
O O6 0.056664 0.810694 0.500336
O O7 0.613080 0.918649 0.558332
O O8 0.250507 0.961868 0.083326
O O9 0.111871 0.067356 0.914815
O O10 0.731982 0.042036 0.725707
O O11 0.755705 0.177662 0.872188
#
# Coordination Sequence:
#
# PCOD9342607 Si02
#       7
#     4   4   2   2   2   4   4
#     4  11  26  49  69 104 148 193 253 315 369 473
#     4  11  25  45  74 109 152 198 250 323 388 462
#     4  12  27  47  70 102 144 198 259 311 378 458
#     4  12  24  42  76 102 134 192 252 316 382 434
#     4  12  21  45  72 108 158 186 253 329 370 450
#     4  11  24  44  70 112 145 187 254 319 371 462
#     4  11  26  45  75 103 149 201 241 304 400 454
#
# _framework density 26.338653999999998
#
# number of rings (size 3 to 8) (size 9 to 14) (size 15 to 20)
#    0.000    0.727    3.636    2.727    2.545    3.636 
#    3.273    0.000    0.000    0.000    0.000    0.000 
#    0.000    0.000    0.000    0.000    0.000    0.000 
#
# Total GULP energy -122661.598545 kJ/mol
# GULP energy per Si atom -5575.527207 kJ/mol
# Density = 2.627871 g / cm^3
# Si number density = 26.338654 Si / 1000 Ang^3
#
#
#
# Elastic Constant Matrix: (Units=GPa)
#
#
# Indices 1 2 3 4 5 6 
#
# 1 71.8560 -13.2220 -16.3144 0.0000 0.0000 0.0000
# 2 -13.2220 116.4410 10.8418 0.0000 0.0000 0.0000
# 3 -16.3144 10.8418 34.6979 0.0000 0.0000 0.0000
# 4 0.0000 0.0000 0.0000 2.4891 0.0000 0.0000
# 5 0.0000 0.0000 0.0000 0.0000 29.3886 0.0000
# 6 0.0000 0.0000 0.0000 0.0000 0.0000 39.0477
#
#
#
# Elastic Compliance Matrix: (Units=1/GPa)
#
#
# Indices 1 2 3 4 5 6 
#
# 1 0.015723 0.001130 0.007040 0.000000 0.000000 0.000000
# 2 0.001130 0.008927 -0.002258 0.000000 0.000000 0.000000
# 3 0.007040 -0.002258 0.032836 0.000000 0.000000 0.000000
# 4 0.000000 0.000000 0.000000 0.401751 0.000000 0.000000
# 5 0.000000 0.000000 0.000000 0.000000 0.034027 0.000000
# 6 0.000000 0.000000 0.000000 0.000000 0.000000 0.025610
#
#
# Mechanical properties :
#
#
# Convention : Reuss Voigt Hill
#
# Bulk Modulus (GPa) = 14.42829 20.62285 17.52557
# Shear Modulus (GPa) = 9.43125 30.29771 19.86448
#
# Velocity S-wave (km/s) = 1.89434 3.39531 2.74924
# Velocity P-wave (km/s) = 3.20540 4.81847 4.09221
#
# Compressibility (1/GPa) = 0.06930826
#
# Stress axis : x y z
#
# Youngs Moduli (GPa) = 63.60137 112.02502 30.45473
#
# Poissons Ratio (x) = -0.12658 -0.21439
# Poissons Ratio (y) = -0.07186 0.06877
# Poissons Ratio (z) = -0.44773 0.25295
#
# Static dielectric constant tensor:
#      x y z
#    x 2.068630 0.000000 0.000000 
#    y 0.000000 2.528260 0.000000 
#    z 0.000000 0.000000 2.257390 
# 
# From -- ./inp_files/3123.got.cif
#   From: 2010.05.17/outbox.cif.g08.bks.cpg/sg30_2_cif.got.tgz:3123.got - 2010.06.03 17:03:02.
