data_PCOD9342976
_publ_section_title
;
Structure prediction by ZEFSAII (Michael W. Deem and Ramdas Pophale) SiO2 
 PCOD9342976
Probable space group: P M N 21
;
_chemical_formula_sum "Si O2"
_cell_formula_units_Z 32
_cell_length_a 8.940141
_cell_length_b 15.027355
_cell_length_c 12.522728
_cell_angle_alpha 90.000000
_cell_angle_beta 90.000000
_cell_angle_gamma 90.000000
_cell_volume 1682.386838
_symmetry_space_group_name_H-M "P M N 21"
_symmetry_group_IT_number 31
_symmetry_cell_setting 'orthorhombic'
loop_
_space_group_symop_operation_xyz
x,y,z
1/2-x,-y,1/2+z
-x,y,z
1/2+x,-y,1/2+z
loop_
_atom_site_type_symbol
_atom_site_label
_atom_site_fract_x
_atom_site_fract_y
_atom_site_fract_z
Si Si1 0.320480 0.626973 0.250000
Si Si2 0.668422 0.833850 0.729837
Si Si3 0.182395 0.329782 0.511145
Si Si4 0.325896 0.870462 0.974046
Si Si5 0.675361 0.326622 0.131428
Si Si6 0.828144 0.053200 0.018419
Si Si7 0.819849 0.237084 0.926888
Si Si8 0.679333 0.553332 0.805158
O O1 0.500000 0.613143 0.253684
O O2 0.274117 0.631271 0.126098
O O3 0.289024 0.718782 0.312820
O O4 0.240006 0.546613 0.310363
O O5 0.500000 0.792053 0.725158
O O6 0.684958 0.873922 0.845900
O O7 0.790058 0.759444 0.704911
O O8 0.675650 0.906116 0.637095
O O9 0.234491 0.227195 0.504591
O O10 0.227948 0.387804 0.408092
O O11 0.000000 0.327705 0.507925
O O12 0.500000 0.871516 0.005067
O O13 0.251749 0.959275 0.016616
O O14 0.500000 0.343523 0.119175
O O15 0.753903 0.405449 0.196289
O O16 0.748629 0.299093 0.018780
O O17 0.767657 0.135243 0.945704
O O18 0.000000 0.038751 0.986490
O O19 0.000000 0.236433 0.943442
O O20 0.500000 0.554607 0.801385
#
# Coordination Sequence:
#
# PCOD9342976 Si02
#       8
#     4   4   4   4   4   4   4   4
#     4  10  22  40  61  88 117 153 198 243 287 348
#     4   9  18  36  56  77 110 151 191 236 297 350
#     4   9  20  39  61  84 116 153 193 239 291 351
#     4  10  19  35  59  83 110 152 195 235 287 347
#     4  11  21  34  58  86 110 143 196 250 286 336
#     4   9  19  34  54  83 116 153 191 235 289 343
#     4   9  20  39  59  81 120 161 192 234 298 353
#     4  11  22  39  60  84 117 156 190 234 301 358
#
# _framework density 19.020596000000001
#
# number of rings (size 3 to 8) (size 9 to 14) (size 15 to 20)
#    0.000    2.250    1.250    2.250    1.750    4.000 
#    0.000    2.500    0.000    0.000    0.000    0.000 
#    0.000    0.000    0.000    0.000    0.000    0.000 
#
# Total GULP energy -178465.516193 kJ/mol
# GULP energy per Si atom -5577.047381 kJ/mol
# Density = 1.897730 g / cm^3
# Si number density = 19.020596 Si / 1000 Ang^3
#
#
#
# Elastic Constant Matrix: (Units=GPa)
#
#
# Indices 1 2 3 4 5 6 
#
# 1 33.6060 26.1099 16.6655 0.0000 0.0000 0.0000
# 2 26.1099 116.8768 32.4151 0.0000 0.0000 0.0000
# 3 16.6655 32.4151 56.8644 0.0000 0.0000 0.0000
# 4 0.0000 0.0000 0.0000 10.8385 0.0000 0.0000
# 5 0.0000 0.0000 0.0000 0.0000 12.2875 0.0000
# 6 0.0000 0.0000 0.0000 0.0000 0.0000 33.2803
#
#
#
# Elastic Compliance Matrix: (Units=1/GPa)
#
#
# Indices 1 2 3 4 5 6 
#
# 1 0.038583 -0.006513 -0.007595 0.000000 0.000000 0.000000
# 2 -0.006513 0.011262 -0.004511 0.000000 0.000000 0.000000
# 3 -0.007595 -0.004511 0.022383 0.000000 0.000000 0.000000
# 4 0.000000 0.000000 0.000000 0.092264 0.000000 0.000000
# 5 0.000000 0.000000 0.000000 0.000000 0.081384 0.000000
# 6 0.000000 0.000000 0.000000 0.000000 0.000000 0.030048
#
#
# Mechanical properties :
#
#
# Convention : Reuss Voigt Hill
#
# Bulk Modulus (GPa) = 28.57939 39.74758 34.16349
# Shear Modulus (GPa) = 15.39286 20.09168 17.74227
#
# Velocity S-wave (km/s) = 2.84786 3.25362 3.05748
# Velocity P-wave (km/s) = 5.08644 5.92091 5.51947
#
# Compressibility (1/GPa) = 0.03499024
#
# Stress axis : x y z
#
# Youngs Moduli (GPa) = 25.91795 88.79328 44.67645
#
# Poissons Ratio (x) = 0.57830 0.33932
# Poissons Ratio (y) = 0.16880 0.20154
# Poissons Ratio (z) = 0.19685 0.40056
#
# Static dielectric constant tensor:
#      x y z
#    x 1.663860 0.000000 0.000000 
#    y 0.000000 1.670660 0.000000 
#    z 0.000000 0.000000 1.662070 
# 
# From -- ./inp_files/3717.got.cif
#   From: 2010.05.17/outbox.cif.g08.bks.cpg/sg31_2_cif.got.tgz:3717.got - 2010.06.03 17:08:30.
