data_PCOD9342950
_publ_section_title
;
Structure prediction by ZEFSAII (Michael W. Deem and Ramdas Pophale) SiO2 
 PCOD9342950
Probable space group: P M N 21
;
_chemical_formula_sum "Si O2"
_cell_formula_units_Z 32
_cell_length_a 9.259164
_cell_length_b 15.948940
_cell_length_c 11.096010
_cell_angle_alpha 90.000000
_cell_angle_beta 90.000000
_cell_angle_gamma 90.000000
_cell_volume 1638.590528
_symmetry_space_group_name_H-M "P M N 21"
_symmetry_group_IT_number 31
_symmetry_cell_setting 'orthorhombic'
loop_
_space_group_symop_operation_xyz
x,y,z
1/2-x,-y,1/2+z
-x,y,z
1/2+x,-y,1/2+z
loop_
_atom_site_type_symbol
_atom_site_label
_atom_site_fract_x
_atom_site_fract_y
_atom_site_fract_z
Si Si1 0.338220 0.723211 0.475530
Si Si2 0.171526 0.744036 0.080435
Si Si3 0.330707 0.158152 0.136786
Si Si4 0.669971 0.835004 0.885574
Si Si5 0.163068 0.139903 0.762358
Si Si6 0.830841 0.977495 0.429835
Si Si7 0.172003 0.465383 0.889323
Si Si8 0.173552 0.552996 0.141725
O O1 0.500000 0.719762 0.531111
O O2 0.219493 0.758295 0.566505
O O3 0.344335 0.791453 0.369297
O O4 0.305978 0.632621 0.421203
O O5 0.235857 0.815733 0.165823
O O6 0.206292 0.652274 0.132318
O O7 0.000000 0.750804 0.070841
O O8 0.245732 0.761378 0.952732
O O9 0.500000 0.160351 0.166573
O O10 0.232309 0.152138 0.253217
O O11 0.304944 0.079867 0.046838
O O12 0.500000 0.818248 0.884688
O O13 0.694934 0.924714 0.950438
O O14 0.232209 0.058064 0.822471
O O15 0.000000 0.124907 0.717087
O O16 0.000000 0.966752 0.397075
O O17 0.251871 0.482981 0.762596
O O18 0.000000 0.479729 0.872864
O O19 0.217040 0.513899 0.011865
O O20 0.000000 0.542303 0.152394
#
# Coordination Sequence:
#
# PCOD9342950 Si02
#       8
#     4   4   4   4   4   4   4   4
#     4   9  18  35  60  86 112 148 194 241 292 353
#     4  11  23  39  59  86 121 159 200 245 300 360
#     4  10  21  38  58  83 117 153 194 245 303 359
#     4  11  24  40  58  84 118 157 202 246 301 361
#     4  10  19  34  60  88 113 148 193 238 288 347
#     4   9  21  39  58  84 115 152 194 243 295 350
#     4  10  21  40  64  92 126 163 208 259 311 374
#     4  10  23  41  63  93 128 164 209 259 314 378
#
# _framework density 19.528980000000001
#
# number of rings (size 3 to 8) (size 9 to 14) (size 15 to 20)
#    0.000    2.000    1.250    1.500    1.750    4.500 
#    0.000    2.500    0.000    0.000    0.000    0.000 
#    0.000    0.000    0.000    0.000    0.000    0.000 
#
# Total GULP energy -178622.471211 kJ/mol
# GULP energy per Si atom -5581.952225 kJ/mol
# Density = 1.948453 g / cm^3
# Si number density = 19.528980 Si / 1000 Ang^3
#
#
#
# Elastic Constant Matrix: (Units=GPa)
#
#
# Indices 1 2 3 4 5 6 
#
# 1 65.8240 36.3478 54.1861 0.0000 0.0000 0.0000
# 2 36.3478 38.7808 40.3782 0.0000 0.0000 0.0000
# 3 54.1861 40.3782 101.3206 0.0000 0.0000 0.0000
# 4 0.0000 0.0000 0.0000 20.2803 0.0000 0.0000
# 5 0.0000 0.0000 0.0000 0.0000 41.1325 0.0000
# 6 0.0000 0.0000 0.0000 0.0000 0.0000 21.3958
#
#
#
# Elastic Compliance Matrix: (Units=1/GPa)
#
#
# Indices 1 2 3 4 5 6 
#
# 1 0.036695 -0.023860 -0.010115 0.000000 0.000000 0.000000
# 2 -0.023860 0.059589 -0.010987 0.000000 0.000000 0.000000
# 3 -0.010115 -0.010987 0.019658 0.000000 0.000000 0.000000
# 4 0.000000 0.000000 0.000000 0.049309 0.000000 0.000000
# 5 0.000000 0.000000 0.000000 0.000000 0.024312 0.000000
# 6 0.000000 0.000000 0.000000 0.000000 0.000000 0.046738
#
#
# Mechanical properties :
#
#
# Convention : Reuss Voigt Hill
#
# Bulk Modulus (GPa) = 38.43786 51.97218 45.20502
# Shear Modulus (GPa) = 14.92995 21.56259 18.24627
#
# Velocity S-wave (km/s) = 2.76796 3.32645 3.05998
# Velocity P-wave (km/s) = 5.47181 6.43618 5.97349
#
# Compressibility (1/GPa) = 0.02601602
#
# Stress axis : x y z
#
# Youngs Moduli (GPa) = 27.25191 16.78171 50.87043
#
# Poissons Ratio (x) = 0.40042 0.51458
# Poissons Ratio (y) = 0.65024 0.55890
# Poissons Ratio (z) = 0.27566 0.18438
#
# Static dielectric constant tensor:
#      x y z
#    x 1.660540 0.000000 0.000000 
#    y 0.000000 1.670540 0.000000 
#    z 0.000000 0.000000 1.709240 
# 
# From -- ./inp_files/3667.got.cif
#   From: 2010.05.17/outbox.cif.g08.bks.cpg/sg31_2_cif.got.tgz:3667.got - 2010.06.03 17:08:30.
