data_PCOD9342307
_publ_section_title
;
Structure prediction by ZEFSAII (Michael W. Deem and Ramdas Pophale) SiO2 
 PCOD9342307
Probable space group: P N C 2
;
_chemical_formula_sum "Si O2"
_cell_formula_units_Z 28
_cell_length_a 10.191491
_cell_length_b 19.967358
_cell_length_c 5.556259
_cell_angle_alpha 90.000000
_cell_angle_beta 90.000000
_cell_angle_gamma 90.000000
_cell_volume 1130.682868
_symmetry_space_group_name_H-M "P N C 2"
_symmetry_group_IT_number 30
_symmetry_cell_setting 'orthorhombic'
loop_
_space_group_symop_operation_xyz
x,y,z
-x,-y,z
-x,1/2+y,1/2+z
x,1/2-y,1/2+z
loop_
_atom_site_type_symbol
_atom_site_label
_atom_site_fract_x
_atom_site_fract_y
_atom_site_fract_z
Si Si1 0.866523 0.785538 0.354530
Si Si2 0.845967 0.240499 0.833282
Si Si3 0.381607 0.606906 0.831163
Si Si4 0.000000 0.000000 0.286479
Si Si5 0.123012 0.605426 0.101974
Si Si6 0.392604 0.291307 0.709762
Si Si7 0.254093 0.507673 0.463539
Si Si8 0.500000 0.000000 0.701527
O O1 0.845112 0.769291 0.636890
O O2 0.745431 0.831064 0.266559
O O3 0.024861 0.788970 0.342696
O O4 0.775048 0.259799 0.587471
O O5 0.901980 0.164694 0.792467
O O6 0.484722 0.661621 0.753740
O O7 0.334644 0.564083 0.605897
O O8 0.245723 0.631519 0.946456
O O9 0.445234 0.557903 0.028899
O O10 0.983862 0.068624 0.438817
O O11 0.866829 0.987507 0.134183
O O12 0.178988 0.541740 0.244208
O O13 0.396343 0.261687 0.437071
O O14 0.377965 0.468054 0.352853
#
# Coordination Sequence:
#
# PCOD9342307 Si02
#       8
#     4   4   4   2   4   4   4   2
#     4   8  16  36  56  80 124 164 208 266 318 392
#     4  10  22  39  65  95 133 181 224 281 341 413
#     4  10  23  41  67  97 136 178 232 286 350 421
#     4  10  22  44  70 102 134 182 230 304 356 430
#     4  10  23  41  67  97 136 178 232 286 350 421
#     4  10  22  39  65  95 133 181 224 281 341 413
#     4  10  22  44  70  98 140 176 236 298 354 434
#     4  10  22  44  70 102 134 182 230 304 356 430
#
# _framework density 24.763797
#
# number of rings (size 3 to 8) (size 9 to 14) (size 15 to 20)
#    0.000    2.286    0.000    0.857    8.000    1.143 
#    0.000   21.429   15.714    0.000    0.000    0.000 
#    0.000    0.000    0.000    0.000    0.000    0.000 
#
# Total GULP energy -155953.129800 kJ/mol
# GULP energy per Si atom -5569.754636 kJ/mol
# Density = 2.470743 g / cm^3
# Si number density = 24.763797 Si / 1000 Ang^3
#
#
#
# Elastic Constant Matrix: (Units=GPa)
#
#
# Indices 1 2 3 4 5 6 
#
# 1 136.1081 25.5149 26.6248 0.0000 0.0000 0.0000
# 2 25.5149 45.2338 15.7679 0.0000 0.0000 0.0000
# 3 26.6248 15.7679 132.7677 0.0000 0.0000 0.0000
# 4 0.0000 0.0000 0.0000 33.2493 0.0000 0.0000
# 5 0.0000 0.0000 0.0000 0.0000 47.7202 0.0000
# 6 0.0000 0.0000 0.0000 0.0000 0.0000 37.3144
#
#
#
# Elastic Compliance Matrix: (Units=1/GPa)
#
#
# Indices 1 2 3 4 5 6 
#
# 1 0.008386 -0.004323 -0.001168 0.000000 0.000000 0.000000
# 2 -0.004323 0.025291 -0.002137 0.000000 0.000000 0.000000
# 3 -0.001168 -0.002137 0.008020 0.000000 0.000000 0.000000
# 4 0.000000 0.000000 0.000000 0.030076 0.000000 0.000000
# 5 0.000000 0.000000 0.000000 0.000000 0.020955 0.000000
# 6 0.000000 0.000000 0.000000 0.000000 0.000000 0.026799
#
#
# Mechanical properties :
#
#
# Convention : Reuss Voigt Hill
#
# Bulk Modulus (GPa) = 37.82049 49.99164 43.90606
# Shear Modulus (GPa) = 34.81972 40.07026 37.44499
#
# Velocity S-wave (km/s) = 3.75383 4.02692 3.89277
# Velocity P-wave (km/s) = 5.83901 6.46937 6.16225
#
# Compressibility (1/GPa) = 0.02644070
#
# Stress axis : x y z
#
# Youngs Moduli (GPa) = 119.24583 39.54032 124.68831
#
# Poissons Ratio (x) = 0.17093 0.14567
# Poissons Ratio (y) = 0.51550 0.26642
# Poissons Ratio (z) = 0.13931 0.08448
#
# Static dielectric constant tensor:
#      x y z
#    x 2.045860 0.000000 0.000000 
#    y 0.000000 2.033190 0.000000 
#    z 0.000000 0.000000 2.033380 
# 
# From -- ./inp_files/782.got.cif
#   From: 2010.05.17/outbox.cif.g08.bks.cpg/sg30_1_cif.got.tgz:782.got - 2010.06.03 17:03:02.
