data_PCOD9342150
_publ_section_title
;
Structure prediction by ZEFSAII (Michael W. Deem and Ramdas Pophale) SiO2 
 PCOD9342150
Probable space group: P N C 2
;
_chemical_formula_sum "Si O2"
_cell_formula_units_Z 26
_cell_length_a 17.362902
_cell_length_b 5.522069
_cell_length_c 11.030521
_cell_angle_alpha 90.000000
_cell_angle_beta 90.000000
_cell_angle_gamma 90.000000
_cell_volume 1057.596899
_symmetry_space_group_name_H-M "P N C 2"
_symmetry_group_IT_number 30
_symmetry_cell_setting 'orthorhombic'
loop_
_space_group_symop_operation_xyz
x,y,z
-x,-y,z
-x,1/2+y,1/2+z
x,1/2-y,1/2+z
loop_
_atom_site_type_symbol
_atom_site_label
_atom_site_fract_x
_atom_site_fract_y
_atom_site_fract_z
Si Si1 0.500000 0.000000 0.091080
Si Si2 0.917477 0.881964 0.433529
Si Si3 0.268952 0.094279 0.798180
Si Si4 0.500000 0.000000 0.474723
Si Si5 0.426779 0.812656 0.783181
Si Si6 0.000000 0.500000 0.280329
Si Si7 0.787837 0.842265 0.066078
Si Si8 0.138720 0.781069 0.219288
O O1 0.565090 0.132257 0.170246
O O2 0.466520 0.249511 0.032442
O O3 0.939979 0.631381 0.368627
O O4 0.860933 0.835876 0.545243
O O5 0.873149 0.026736 0.328318
O O6 0.000000 0.000000 0.458591
O O7 0.260572 0.281731 0.686581
O O8 0.350769 0.965646 0.786791
O O9 0.201479 0.905293 0.767741
O O10 0.256563 0.170256 0.938314
O O11 0.565361 0.128364 0.394765
O O12 0.500000 0.000000 0.783139
O O13 0.948210 0.316366 0.204582
O O14 0.827651 0.097083 0.098483
#
# Coordination Sequence:
#
# PCOD9342150 Si02
#       8
#     2   4   4   2   4   2   4   4
#     4  11  24  51  82 124 166 215 286 361 434 517
#     4  10  23  48  74 107 152 210 264 328 398 492
#     4  12  30  51  80 117 165 221 268 348 426 511
#     4  11  24  49  84 120 170 217 286 357 436 519
#     4  11  27  51  82 125 165 219 291 354 434 523
#     4  10  20  48  72 106 148 210 270 328 410 486
#     4  12  26  53  76 120 166 212 275 338 429 507
#     4  11  24  48  72 110 159 207 270 335 412 501
#
# _framework density 24.584033999999999
#
# number of rings (size 3 to 8) (size 9 to 14) (size 15 to 20)
#    0.000    0.923    4.615    0.000    2.154    6.154 
#   18.000    0.000    0.000    0.000    0.000    0.000 
#    0.000    0.000    0.000    0.000    0.000    0.000 
#
# Total GULP energy -145291.544961 kJ/mol
# GULP energy per Si atom -5588.136345 kJ/mol
# Density = 2.452808 g / cm^3
# Si number density = 24.584034 Si / 1000 Ang^3
#
#
#
# Elastic Constant Matrix: (Units=GPa)
#
#
# Indices 1 2 3 4 5 6 
#
# 1 148.8472 49.8568 49.5504 0.0000 0.0000 0.0000
# 2 49.8568 128.6336 53.3027 0.0000 0.0000 0.0000
# 3 49.5504 53.3027 146.2272 0.0000 0.0000 0.0000
# 4 0.0000 0.0000 0.0000 47.4263 0.0000 0.0000
# 5 0.0000 0.0000 0.0000 0.0000 70.6579 0.0000
# 6 0.0000 0.0000 0.0000 0.0000 0.0000 49.1312
#
#
#
# Elastic Compliance Matrix: (Units=1/GPa)
#
#
# Indices 1 2 3 4 5 6 
#
# 1 0.008143 -0.002371 -0.001895 0.000000 0.000000 0.000000
# 2 -0.002371 0.009847 -0.002786 0.000000 0.000000 0.000000
# 3 -0.001895 -0.002786 0.008497 0.000000 0.000000 0.000000
# 4 0.000000 0.000000 0.000000 0.021085 0.000000 0.000000
# 5 0.000000 0.000000 0.000000 0.000000 0.014153 0.000000
# 6 0.000000 0.000000 0.000000 0.000000 0.000000 0.020354
#
#
# Mechanical properties :
#
#
# Convention : Reuss Voigt Hill
#
# Bulk Modulus (GPa) = 80.75787 81.01420 80.88604
# Shear Modulus (GPa) = 49.84484 51.50961 50.67722
#
# Velocity S-wave (km/s) = 4.50769 4.58235 4.54518
# Velocity P-wave (km/s) = 7.74683 7.81171 7.77934
#
# Compressibility (1/GPa) = 0.01238269
#
# Stress axis : x y z
#
# Youngs Moduli (GPa) = 122.79956 101.54863 117.69546
#
# Poissons Ratio (x) = 0.24077 0.22306
# Poissons Ratio (y) = 0.29115 0.32792
# Poissons Ratio (z) = 0.23273 0.28293
#
# Static dielectric constant tensor:
#      x y z
#    x 1.884580 0.000000 0.000000 
#    y 0.000000 2.025690 0.000000 
#    z 0.000000 0.000000 2.097220 
# 
# From -- ./inp_files/4436.got.cif
#   From: 2010.05.17/outbox.cif.g08.bks.cpg/sg30_3_cif.got.tgz:4436.got - 2010.06.03 17:03:02.
