data_PCOD9342559
_publ_section_title
;
Structure prediction by ZEFSAII (Michael W. Deem and Ramdas Pophale) SiO2 
 PCOD9342559
Probable space group: P N C 2
;
_chemical_formula_sum "Si O2"
_cell_formula_units_Z 32
_cell_length_a 9.937595
_cell_length_b 15.138355
_cell_length_c 9.745184
_cell_angle_alpha 90.000000
_cell_angle_beta 90.000000
_cell_angle_gamma 90.000000
_cell_volume 1466.054186
_symmetry_space_group_name_H-M "P N C 2"
_symmetry_group_IT_number 30
_symmetry_cell_setting 'orthorhombic'
loop_
_space_group_symop_operation_xyz
x,y,z
-x,-y,z
-x,1/2+y,1/2+z
x,1/2-y,1/2+z
loop_
_atom_site_type_symbol
_atom_site_label
_atom_site_fract_x
_atom_site_fract_y
_atom_site_fract_z
Si Si1 0.330274 0.178488 0.962860
Si Si2 0.810088 0.755986 0.227601
Si Si3 0.571259 0.226486 0.543714
Si Si4 0.658066 0.998734 0.826129
Si Si5 0.624838 0.941972 0.512365
Si Si6 0.919166 0.581697 0.882161
Si Si7 0.994027 0.104135 0.686331
Si Si8 0.736496 0.191771 0.816327
O O1 0.316877 0.239487 0.827271
O O2 0.479490 0.187087 0.022760
O O3 0.292676 0.080284 0.920275
O O4 0.229816 0.214483 0.076884
O O5 0.904959 0.830386 0.292750
O O6 0.874738 0.659925 0.221090
O O7 0.455951 0.150252 0.530969
O O8 0.637786 0.212659 0.690085
O O9 0.692409 0.237375 0.432286
O O10 0.671277 0.981517 0.661103
O O11 0.500000 0.000000 0.843395
O O12 0.710024 0.093106 0.870833
O O13 0.763006 0.939126 0.425566
O O14 0.500000 0.000000 0.456085
O O15 0.000000 0.500000 0.815217
O O16 0.004368 0.599873 0.020978
O O17 0.880598 0.169272 0.747993
O O18 0.000000 0.000000 0.732079
#
# Coordination Sequence:
#
# PCOD9342559 Si02
#       8
#     4   4   4   4   4   4   4   4
#     4  12  23  42  72 102 136 177 231 290 354 428
#     4  12  24  43  71 102 136 184 234 290 352 419
#     4  12  23  40  68 106 138 176 236 296 365 412
#     4  11  20  41  68  98 134 183 228 279 355 430
#     4  11  21  40  72 102 136 187 240 293 350 435
#     4  11  24  43  69 105 144 190 239 295 357 432
#     4  11  25  46  74  99 136 192 246 284 355 437
#     4  12  26  42  70 103 142 184 236 302 354 429
#
# _framework density 21.827294999999999
#
# number of rings (size 3 to 8) (size 9 to 14) (size 15 to 20)
#    0.000    0.500    6.250    4.500    1.750    0.000 
#    0.000    5.000    0.000    0.000    0.000    0.000 
#    0.000    0.000    0.000    0.000    0.000    0.000 
#
# Total GULP energy -178429.252743 kJ/mol
# GULP energy per Si atom -5575.914148 kJ/mol
# Density = 2.177762 g / cm^3
# Si number density = 21.827295 Si / 1000 Ang^3
#
#
#
# Elastic Constant Matrix: (Units=GPa)
#
#
# Indices 1 2 3 4 5 6 
#
# 1 54.8081 14.9302 11.8960 0.0000 0.0000 0.0000
# 2 14.9302 97.5502 38.5555 0.0000 0.0000 0.0000
# 3 11.8960 38.5555 45.1178 0.0000 0.0000 0.0000
# 4 0.0000 0.0000 0.0000 37.1051 0.0000 0.0000
# 5 0.0000 0.0000 0.0000 0.0000 22.7340 0.0000
# 6 0.0000 0.0000 0.0000 0.0000 0.0000 37.5402
#
#
#
# Elastic Compliance Matrix: (Units=1/GPa)
#
#
# Indices 1 2 3 4 5 6 
#
# 1 0.019486 -0.001437 -0.003910 0.000000 0.000000 0.000000
# 2 -0.001437 0.015585 -0.012940 0.000000 0.000000 0.000000
# 3 -0.003910 -0.012940 0.034253 0.000000 0.000000 0.000000
# 4 0.000000 0.000000 0.000000 0.026950 0.000000 0.000000
# 5 0.000000 0.000000 0.000000 0.000000 0.043987 0.000000
# 6 0.000000 0.000000 0.000000 0.000000 0.000000 0.026638
#
#
# Mechanical properties :
#
#
# Convention : Reuss Voigt Hill
#
# Bulk Modulus (GPa) = 30.53347 36.47104 33.50226
# Shear Modulus (GPa) = 23.32218 28.28216 25.80217
#
# Velocity S-wave (km/s) = 3.27232 3.60352 3.44191
# Velocity P-wave (km/s) = 5.31944 5.83601 5.58370
#
# Compressibility (1/GPa) = 0.03275094
#
# Stress axis : x y z
#
# Youngs Moduli (GPa) = 51.32016 64.16313 29.19493
#
# Poissons Ratio (x) = 0.09221 0.11414
# Poissons Ratio (y) = 0.07375 0.37777
# Poissons Ratio (z) = 0.20064 0.83024
#
# Static dielectric constant tensor:
#      x y z
#    x 1.906330 0.000000 0.000000 
#    y 0.000000 1.782590 0.000000 
#    z 0.000000 0.000000 1.791080 
# 
# From -- ./inp_files/2479.got.cif
#   From: 2010.05.17/outbox.cif.g08.bks.cpg/sg30_2_cif.got.tgz:2479.got - 2010.06.03 17:03:02.
