data_PCOD9342003
_publ_section_title
;
Structure prediction by ZEFSAII (Michael W. Deem and Ramdas Pophale) SiO2 
 PCOD9342003
Probable space group: P N C 2
;
_chemical_formula_sum "Si O2"
_cell_formula_units_Z 32
_cell_length_a 10.188102
_cell_length_b 15.274152
_cell_length_c 9.623380
_cell_angle_alpha 90.000000
_cell_angle_beta 90.000000
_cell_angle_gamma 90.000000
_cell_volume 1497.538608
_symmetry_space_group_name_H-M "P N C 2"
_symmetry_group_IT_number 30
_symmetry_cell_setting 'orthorhombic'
loop_
_space_group_symop_operation_xyz
x,y,z
-x,-y,z
-x,1/2+y,1/2+z
x,1/2-y,1/2+z
loop_
_atom_site_type_symbol
_atom_site_label
_atom_site_fract_x
_atom_site_fract_y
_atom_site_fract_z
Si Si1 0.288710 0.739883 0.704050
Si Si2 0.222371 0.358497 0.304624
Si Si3 0.409977 0.853405 0.475209
Si Si4 0.107463 0.603328 0.572005
Si Si5 0.923933 0.388904 0.249796
Si Si6 0.245847 0.020926 0.570321
Si Si7 0.298782 0.341925 0.861424
Si Si8 0.822085 0.585418 0.608553
O O1 0.393636 0.794407 0.613988
O O2 0.337117 0.693413 0.844509
O O3 0.222163 0.670082 0.601820
O O4 0.172111 0.807030 0.736628
O O5 0.302358 0.416718 0.193854
O O6 0.262497 0.260065 0.346000
O O7 0.220685 0.408180 0.450204
O O8 0.075167 0.359951 0.239433
O O9 0.344720 0.947969 0.507621
O O10 0.559842 0.855926 0.428172
O O11 0.091336 0.581550 0.409605
O O12 0.145943 0.513868 0.646800
O O13 0.963052 0.634509 0.620754
O O14 0.867704 0.461696 0.143602
O O15 0.207222 0.092305 0.452518
O O16 0.288313 0.376384 0.705651
#
# Coordination Sequence:
#
# PCOD9342003 Si02
#       8
#     4   4   4   4   4   4   4   4
#     4  11  22  43  68  99 135 190 237 305 356 442
#     4  11  23  43  73 102 139 186 234 300 379 448
#     4  11  27  44  71  98 145 193 253 303 359 444
#     4  10  19  40  67  98 134 174 226 286 365 442
#     4  10  21  43  67 104 140 180 237 291 377 452
#     4  11  24  46  70 102 145 194 240 308 373 438
#     4  12  26  45  66 106 142 186 246 303 358 435
#     4  10  22  40  68  97 136 176 222 294 361 441
#
# _framework density 21.368397000000002
#
# number of rings (size 3 to 8) (size 9 to 14) (size 15 to 20)
#    0.000    1.250    2.500    3.000    3.500    1.000 
#   13.500    0.000    0.000    0.000    0.000    0.000 
#    0.000    0.000    0.000    0.000    0.000    0.000 
#
# Total GULP energy -178582.989686 kJ/mol
# GULP energy per Si atom -5580.718428 kJ/mol
# Density = 2.131976 g / cm^3
# Si number density = 21.368397 Si / 1000 Ang^3
#
#
#
# Elastic Constant Matrix: (Units=GPa)
#
#
# Indices 1 2 3 4 5 6 
#
# 1 92.9712 47.8738 42.4228 0.0000 0.0000 0.0000
# 2 47.8738 143.9769 54.5330 0.0000 0.0000 0.0000
# 3 42.4228 54.5330 106.6586 0.0000 0.0000 0.0000
# 4 0.0000 0.0000 0.0000 43.3306 0.0000 0.0000
# 5 0.0000 0.0000 0.0000 0.0000 46.9175 0.0000
# 6 0.0000 0.0000 0.0000 0.0000 0.0000 21.8842
#
#
#
# Elastic Compliance Matrix: (Units=1/GPa)
#
#
# Indices 1 2 3 4 5 6 
#
# 1 0.014247 -0.003213 -0.004024 0.000000 0.000000 0.000000
# 2 -0.003213 0.009338 -0.003497 0.000000 0.000000 0.000000
# 3 -0.004024 -0.003497 0.012764 0.000000 0.000000 0.000000
# 4 0.000000 0.000000 0.000000 0.023078 0.000000 0.000000
# 5 0.000000 0.000000 0.000000 0.000000 0.021314 0.000000
# 6 0.000000 0.000000 0.000000 0.000000 0.000000 0.045695
#
#
# Mechanical properties :
#
#
# Convention : Reuss Voigt Hill
#
# Bulk Modulus (GPa) = 67.19505 70.36288 68.77896
# Shear Modulus (GPa) = 32.70895 35.67828 34.19362
#
# Velocity S-wave (km/s) = 3.91668 4.09060 4.00458
# Velocity P-wave (km/s) = 7.20889 7.43711 7.32389
#
# Compressibility (1/GPa) = 0.01488205
#
# Stress axis : x y z
#
# Youngs Moduli (GPa) = 70.19245 107.08576 78.34642
#
# Poissons Ratio (x) = 0.34408 0.31524
# Poissons Ratio (y) = 0.22554 0.27394
# Poissons Ratio (z) = 0.28243 0.37443
#
# Static dielectric constant tensor:
#      x y z
#    x 1.690410 0.000000 0.000000 
#    y 0.000000 1.896410 0.000000 
#    z 0.000000 0.000000 1.783300 
# 
# From -- ./inp_files/2482.got.cif
#   From: 2010.05.17/outbox.cif.g08.bks.cpg/sg30_2_cif.got.tgz:2482.got - 2010.06.03 17:03:02.
