data_PCOD9342380
_publ_section_title
;
Structure prediction by ZEFSAII (Michael W. Deem and Ramdas Pophale) SiO2 
 PCOD9342380
Probable space group: P N C 2
;
_chemical_formula_sum "Si O2"
_cell_formula_units_Z 22
_cell_length_a 14.609976
_cell_length_b 6.182795
_cell_length_c 10.453732
_cell_angle_alpha 90.000000
_cell_angle_beta 90.000000
_cell_angle_gamma 90.000000
_cell_volume 944.290698
_symmetry_space_group_name_H-M "P N C 2"
_symmetry_group_IT_number 30
_symmetry_cell_setting 'orthorhombic'
loop_
_space_group_symop_operation_xyz
x,y,z
-x,-y,z
-x,1/2+y,1/2+z
x,1/2-y,1/2+z
loop_
_atom_site_type_symbol
_atom_site_label
_atom_site_fract_x
_atom_site_fract_y
_atom_site_fract_z
Si Si1 0.604787 0.953335 0.759930
Si Si2 0.328999 0.151444 0.495025
Si Si3 0.842034 0.819592 0.146584
Si Si4 0.259763 0.675089 0.812179
Si Si5 0.000000 0.000000 0.595972
Si Si6 0.913038 0.365074 0.435892
O O1 0.607174 0.838088 0.620569
O O2 0.643804 0.814767 0.880241
O O3 0.500000 0.000000 0.790564
O O4 0.668588 0.167174 0.741935
O O5 0.230972 0.201346 0.557404
O O6 0.317370 0.915436 0.432167
O O7 0.928151 0.659678 0.168190
O O8 0.785291 0.955855 0.252305
O O9 0.881913 0.005821 0.059258
O O10 0.172450 0.824811 0.844283
O O11 0.941440 0.139313 0.496061
O O12 0.000000 0.500000 0.388269
#
# Coordination Sequence:
#
# PCOD9342380 Si02
#       6
#     4   4   4   4   2   4
#     4  12  31  50  83 117 157 206 269 339 408 486
#     4  12  26  52  78 113 154 206 262 329 410 476
#     4  11  23  45  73 110 152 209 260 326 395 472
#     4  12  25  47  78 111 156 206 264 329 398 479
#     4  10  22  44  66 108 158 206 264 318 388 472
#     4  10  22  44  68 104 152 202 258 317 385 468
#
# _framework density 23.297913000000001
#
# number of rings (size 3 to 8) (size 9 to 14) (size 15 to 20)
#    0.000    0.727    5.455    1.091    2.545    0.000 
#    6.545    0.000    0.000    0.000    0.000    0.000 
#    0.000    0.000    0.000    0.000    0.000    0.000 
#
# Total GULP energy -122797.488445 kJ/mol
# GULP energy per Si atom -5581.704020 kJ/mol
# Density = 2.324489 g / cm^3
# Si number density = 23.297913 Si / 1000 Ang^3
#
#
#
# Elastic Constant Matrix: (Units=GPa)
#
#
# Indices 1 2 3 4 5 6 
#
# 1 137.2826 38.9247 33.2795 0.0000 0.0000 0.0000
# 2 38.9247 70.9126 25.7210 0.0000 0.0000 0.0000
# 3 33.2795 25.7210 116.7209 0.0000 0.0000 0.0000
# 4 0.0000 0.0000 0.0000 49.5133 0.0000 0.0000
# 5 0.0000 0.0000 0.0000 0.0000 33.1523 0.0000
# 6 0.0000 0.0000 0.0000 0.0000 0.0000 23.6981
#
#
#
# Elastic Compliance Matrix: (Units=1/GPa)
#
#
# Indices 1 2 3 4 5 6 
#
# 1 0.008889 -0.004304 -0.001586 0.000000 0.000000 0.000000
# 2 -0.004304 0.017411 -0.002610 0.000000 0.000000 0.000000
# 3 -0.001586 -0.002610 0.009595 0.000000 0.000000 0.000000
# 4 0.000000 0.000000 0.000000 0.020197 0.000000 0.000000
# 5 0.000000 0.000000 0.000000 0.000000 0.030164 0.000000
# 6 0.000000 0.000000 0.000000 0.000000 0.000000 0.042197
#
#
# Mechanical properties :
#
#
# Convention : Reuss Voigt Hill
#
# Bulk Modulus (GPa) = 52.92267 57.86294 55.39280
# Shear Modulus (GPa) = 32.94887 36.40546 34.67717
#
# Velocity S-wave (km/s) = 3.76472 3.95727 3.86219
# Velocity P-wave (km/s) = 6.45464 6.76535 6.61182
#
# Compressibility (1/GPa) = 0.01889549
#
# Stress axis : x y z
#
# Youngs Moduli (GPa) = 112.49773 57.43522 104.22418
#
# Poissons Ratio (x) = 0.24720 0.16530
# Poissons Ratio (y) = 0.48419 0.27198
# Poissons Ratio (z) = 0.17842 0.14988
#
# Static dielectric constant tensor:
#      x y z
#    x 2.696120 0.000000 0.000000 
#    y 0.000000 1.832050 0.000000 
#    z 0.000000 0.000000 1.910860 
# 
# From -- ./inp_files/4291.got.cif
#   From: 2010.05.17/outbox.cif.g08.bks.cpg/sg30_3_cif.got.tgz:4291.got - 2010.06.03 17:03:02.
