data_PCOD9342206
_publ_section_title
;
Structure prediction by ZEFSAII (Michael W. Deem and Ramdas Pophale) SiO2 
 PCOD9342206
Probable space group: P N C 2
;
_chemical_formula_sum "Si O2"
_cell_formula_units_Z 32
_cell_length_a 14.615570
_cell_length_b 8.961486
_cell_length_c 10.585280
_cell_angle_alpha 90.000000
_cell_angle_beta 90.000000
_cell_angle_gamma 90.000000
_cell_volume 1386.430610
_symmetry_space_group_name_H-M "P N C 2"
_symmetry_group_IT_number 30
_symmetry_cell_setting 'orthorhombic'
loop_
_space_group_symop_operation_xyz
x,y,z
-x,-y,z
-x,1/2+y,1/2+z
x,1/2-y,1/2+z
loop_
_atom_site_type_symbol
_atom_site_label
_atom_site_fract_x
_atom_site_fract_y
_atom_site_fract_z
Si Si1 0.091114 0.920539 0.579620
Si Si2 0.838630 0.112920 0.102031
Si Si3 0.101873 0.043851 0.866466
Si Si4 0.333156 0.820643 0.674589
Si Si5 0.755805 0.895667 0.575400
Si Si6 0.173802 0.170334 0.248933
Si Si7 0.427389 0.697850 0.909022
Si Si8 0.370682 0.145607 0.366442
O O1 0.087859 0.743511 0.579948
O O2 0.107699 0.966640 0.727382
O O3 0.178735 0.984748 0.502890
O O4 0.000000 0.000000 0.536194
O O5 0.748756 0.204838 0.143962
O O6 0.861756 0.990340 0.208089
O O7 0.830109 0.027519 0.968648
O O8 0.122143 0.219978 0.846187
O O9 0.000000 0.000000 0.910169
O O10 0.367913 0.796851 0.815402
O O11 0.405561 0.792422 0.559032
O O12 0.298105 0.990856 0.665722
O O13 0.825746 0.775440 0.626208
O O14 0.678777 0.815424 0.496855
O O15 0.283992 0.163944 0.274537
O O16 0.532020 0.725436 0.866184
O O17 0.397750 0.528764 0.873327
#
# Coordination Sequence:
#
# PCOD9342206 Si02
#       8
#     4   4   4   4   4   4   4   4
#     4   9  21  42  66  96 135 172 226 292 350 430
#     4  11  23  39  72  96 134 183 234 284 365 428
#     4  10  24  43  62  95 134 172 231 298 346 434
#     4  10  22  41  68  96 131 185 235 284 358 419
#     4   9  21  38  61  87 130 177 217 278 345 411
#     4  11  22  40  65  92 134 175 232 281 357 414
#     4  10  22  40  65  96 139 176 232 292 344 425
#     4  10  21  39  61  92 135 177 221 280 349 415
#
# _framework density 23.080853000000001
#
# number of rings (size 3 to 8) (size 9 to 14) (size 15 to 20)
#    0.000    2.000    1.250    0.750    7.000    5.000 
#    0.000    0.000    0.000    0.750    0.000    0.000 
#    0.000    0.000    0.000    0.000    0.000    0.000 
#
# Total GULP energy -178349.107816 kJ/mol
# GULP energy per Si atom -5573.409619 kJ/mol
# Density = 2.302832 g / cm^3
# Si number density = 23.080853 Si / 1000 Ang^3
#
#
#
# Elastic Constant Matrix: (Units=GPa)
#
#
# Indices 1 2 3 4 5 6 
#
# 1 86.3052 20.4445 3.6210 0.0000 0.0000 0.0000
# 2 20.4445 108.0380 6.6863 0.0000 0.0000 0.0000
# 3 3.6210 6.6863 34.1822 0.0000 0.0000 0.0000
# 4 0.0000 0.0000 0.0000 25.0302 0.0000 0.0000
# 5 0.0000 0.0000 0.0000 0.0000 26.0275 0.0000
# 6 0.0000 0.0000 0.0000 0.0000 0.0000 22.3183
#
#
#
# Elastic Compliance Matrix: (Units=1/GPa)
#
#
# Indices 1 2 3 4 5 6 
#
# 1 0.012155 -0.002248 -0.000848 0.000000 0.000000 0.000000
# 2 -0.002248 0.009785 -0.001676 0.000000 0.000000 0.000000
# 3 -0.000848 -0.001676 0.029673 0.000000 0.000000 0.000000
# 4 0.000000 0.000000 0.000000 0.039952 0.000000 0.000000
# 5 0.000000 0.000000 0.000000 0.000000 0.038421 0.000000
# 6 0.000000 0.000000 0.000000 0.000000 0.000000 0.044806
#
#
# Mechanical properties :
#
#
# Convention : Reuss Voigt Hill
#
# Bulk Modulus (GPa) = 23.77021 32.22545 27.99783
# Shear Modulus (GPa) = 25.20701 27.86010 26.53356
#
# Velocity S-wave (km/s) = 3.30831 3.47805 3.39424
# Velocity P-wave (km/s) = 4.99141 5.48830 5.24574
#
# Compressibility (1/GPa) = 0.04206947
#
# Stress axis : x y z
#
# Youngs Moduli (GPa) = 82.27203 102.19674 33.70112
#
# Poissons Ratio (x) = 0.22970 0.02858
# Poissons Ratio (y) = 0.18492 0.05648
# Poissons Ratio (z) = 0.06976 0.17127
#
# Static dielectric constant tensor:
#      x y z
#    x 1.962170 0.000000 0.000000 
#    y 0.000000 1.863230 0.000000 
#    z 0.000000 0.000000 2.018390 
# 
# From -- ./inp_files/4370.got.cif
#   From: 2010.05.17/outbox.cif.g08.bks.cpg/sg30_3_cif.got.tgz:4370.got - 2010.06.03 17:03:02.
