data_PCOD9342718
_publ_section_title
;
Structure prediction by ZEFSAII (Michael W. Deem and Ramdas Pophale) SiO2 
 PCOD9342718
Probable space group: P M N 21
;
_chemical_formula_sum "Si O2"
_cell_formula_units_Z 32
_cell_length_a 7.358359
_cell_length_b 8.100467
_cell_length_c 24.411601
_cell_angle_alpha 90.000000
_cell_angle_beta 90.000000
_cell_angle_gamma 90.000000
_cell_volume 1455.081411
_symmetry_space_group_name_H-M "P M N 21"
_symmetry_group_IT_number 31
_symmetry_cell_setting 'orthorhombic'
loop_
_space_group_symop_operation_xyz
x,y,z
1/2-x,-y,1/2+z
-x,y,z
1/2+x,-y,1/2+z
loop_
_atom_site_type_symbol
_atom_site_label
_atom_site_fract_x
_atom_site_fract_y
_atom_site_fract_z
Si Si1 0.780807 0.309567 0.306720
Si Si2 0.778285 0.815608 0.425241
Si Si3 0.778429 0.500000 0.495669
Si Si4 0.713068 0.180521 0.186871
Si Si5 0.721716 0.815609 0.925241
Si Si6 0.277219 0.500000 0.122117
Si Si7 0.719193 0.309568 0.806720
Si Si8 0.213069 0.180522 0.686871
O O1 0.726617 0.218134 0.251409
O O2 0.721546 0.224094 0.362947
O O3 0.718965 0.500000 0.305058
O O4 0.000000 0.311715 0.307776
O O5 0.719811 0.665366 0.463971
O O6 0.721545 0.775905 0.362948
O O7 0.000000 0.814542 0.425761
O O8 0.720934 1.000000 0.441443
O O9 0.719811 0.334633 0.463971
O O10 0.723751 0.500000 0.558835
O O11 0.000000 0.500000 0.494369
O O12 0.500000 0.173414 0.173044
O O13 0.786967 0.336513 0.153701
O O14 0.791480 1.000000 0.174943
O O15 0.500000 0.814542 0.925761
O O16 0.500000 0.500000 0.124151
O O17 0.213033 0.663486 0.153702
O O18 0.500000 0.311716 0.807776
O O19 0.773383 0.218135 0.751410
O O20 0.000000 0.173415 0.673044
#
# Coordination Sequence:
#
# PCOD9342718 Si02
#       8
#     4   4   4   4   4   4   4   4
#     4  10  18  30  50  74  99 126 156 193 239 286
#     4   9  16  26  42  66  95 122 150 190 236 279
#     4   9  16  27  42  63  91 123 156 189 232 280
#     4  10  20  33  49  70  97 129 161 193 235 283
#     4   9  16  26  42  66  95 122 150 190 236 279
#     4   9  18  31  45  63  93 127 160 199 232 270
#     4  10  18  30  50  74  99 126 156 193 239 286
#     4  10  20  33  49  70  97 129 161 193 235 283
#
# _framework density 21.991897999999999
#
# number of rings (size 3 to 8) (size 9 to 14) (size 15 to 20)
#    0.000    2.500    2.500    0.750    0.000    2.500 
#    0.000    5.000    0.000    0.000    0.000    3.500 
#    0.000    0.000    0.000    0.000    0.000    0.000 
#
# Total GULP energy -178812.935948 kJ/mol
# GULP energy per Si atom -5587.904248 kJ/mol
# Density = 2.194184 g / cm^3
# Si number density = 21.991898 Si / 1000 Ang^3
#
#
#
# Elastic Constant Matrix: (Units=GPa)
#
#
# Indices 1 2 3 4 5 6 
#
# 1 81.1286 10.4051 -3.3808 0.0000 0.0000 0.0000
# 2 10.4051 263.8228 120.8501 0.0000 0.0000 0.0000
# 3 -3.3808 120.8501 173.4020 0.0000 0.0000 0.0000
# 4 0.0000 0.0000 0.0000 -4.1186 0.0000 0.0000
# 5 0.0000 0.0000 0.0000 0.0000 11.4325 0.0000
# 6 0.0000 0.0000 0.0000 0.0000 0.0000 -36.5108
#
#
#
# Elastic Compliance Matrix: (Units=1/GPa)
#
#
# Indices 1 2 3 4 5 6 
#
# 1 0.012476 -0.000886 0.000861 0.000000 0.000000 0.000000
# 2 -0.000886 0.005631 -0.003942 0.000000 0.000000 0.000000
# 3 0.000861 -0.003942 0.008531 0.000000 0.000000 0.000000
# 4 0.000000 0.000000 0.000000 -0.242801 0.000000 0.000000
# 5 0.000000 0.000000 0.000000 0.000000 0.087470 0.000000
# 6 0.000000 0.000000 0.000000 0.000000 0.000000 -0.027389
#
#
# Mechanical properties :
#
#
# Convention : Reuss Voigt Hill
#
# Bulk Modulus (GPa) = 53.46661 86.01135 69.73898
# Shear Modulus (GPa) = -35.23270 20.19255 -7.52008
#
# Velocity S-wave (km/s) = -4.00694 3.03344 -1.85119
# Velocity P-wave (km/s) = 1.71969 7.17387 5.21640
#
# Compressibility (1/GPa) = 0.01870326
#
# Stress axis : x y z
#
# Youngs Moduli (GPa) = 80.15592 177.58900 117.22146
#
# Poissons Ratio (x) = 0.15743 -0.10093
# Poissons Ratio (y) = 0.07106 0.46205
# Poissons Ratio (z) = -0.06902 0.70001
#
# Static dielectric constant tensor:
#      x y z
#    x 1.950100 0.000000 0.000000 
#    y 0.000000 1.792510 0.000000 
#    z 0.000000 0.000000 1.730120 
# 
# From -- ./inp_files/6366.got.cif
#   From: 2010.05.17/outbox.cif.g08.bks.cpg/sg31_4_cif.got.tgz:6366.got - 2010.06.03 17:08:30.
