data_PCOD9342612
_publ_section_title
;
Structure prediction by ZEFSAII (Michael W. Deem and Ramdas Pophale) SiO2 
 PCOD9342612
Probable space group: P N C 2
;
_chemical_formula_sum "Si O2"
_cell_formula_units_Z 24
_cell_length_a 8.211330
_cell_length_b 13.681645
_cell_length_c 8.331793
_cell_angle_alpha 90.000000
_cell_angle_beta 90.000000
_cell_angle_gamma 90.000000
_cell_volume 936.031136
_symmetry_space_group_name_H-M "P N C 2"
_symmetry_group_IT_number 30
_symmetry_cell_setting 'orthorhombic'
loop_
_space_group_symop_operation_xyz
x,y,z
-x,-y,z
-x,1/2+y,1/2+z
x,1/2-y,1/2+z
loop_
_atom_site_type_symbol
_atom_site_label
_atom_site_fract_x
_atom_site_fract_y
_atom_site_fract_z
Si Si1 0.194309 0.004201 0.468960
Si Si2 0.604174 0.327855 0.012966
Si Si3 0.604174 0.827855 0.809423
Si Si4 0.119766 0.311533 0.795737
Si Si5 0.880234 0.188467 0.026651
Si Si6 0.805691 0.004201 0.853428
O O1 0.226876 0.106465 0.383466
O O2 0.309878 0.915394 0.413829
O O3 0.209318 1.000000 0.661194
O O4 0.000000 0.000000 0.439222
O O5 0.500000 0.367617 0.161194
O O6 0.500000 0.250000 0.911194
O O7 0.754239 0.268019 0.091715
O O8 0.754239 0.768020 0.730673
O O9 0.690122 0.915395 0.908560
O O10 1.000000 0.250000 0.911194
O O11 0.000000 0.353273 0.661194
O O12 0.773124 0.106465 0.938922
O O13 0.000000 0.000000 0.883166
#
# Coordination Sequence:
#
# PCOD9342612 Si02
#       6
#     4   4   4   4   4   4
#     4  11  24  46  80 110 150 212 268 318 396 488
#     4  12  27  48  74 115 163 203 258 339 407 460
#     4  12  27  48  74 115 163 203 258 339 407 460
#     4  12  25  48  80 117 157 211 271 325 394 493
#     4  12  25  48  80 117 157 211 271 325 394 493
#     4  11  24  46  80 110 150 212 268 318 396 488
#
# _framework density 25.640170999999999
#
# number of rings (size 3 to 8) (size 9 to 14) (size 15 to 20)
#    0.000    0.333    3.333    6.000    0.000    5.333 
#    0.000    1.667    0.000    0.000    0.000    0.000 
#    0.000    0.000    0.000    0.000    0.000    0.000 
#
# Total GULP energy -134350.325310 kJ/mol
# GULP energy per Si atom -5597.930221 kJ/mol
# Density = 2.558181 g / cm^3
# Si number density = 25.640171 Si / 1000 Ang^3
#
#
#
# Elastic Constant Matrix: (Units=GPa)
#
#
# Indices 1 2 3 4 5 6 
#
# 1 151.1051 78.9412 34.0827 0.0000 0.0000 0.0000
# 2 78.9412 197.1075 53.4910 0.0000 0.0000 0.0000
# 3 34.0827 53.4910 86.2409 0.0000 0.0000 0.0000
# 4 0.0000 0.0000 0.0000 39.4508 0.0000 0.0000
# 5 0.0000 0.0000 0.0000 0.0000 40.0342 0.0000
# 6 0.0000 0.0000 0.0000 0.0000 0.0000 80.7060
#
#
#
# Elastic Compliance Matrix: (Units=1/GPa)
#
#
# Indices 1 2 3 4 5 6 
#
# 1 0.008528 -0.003007 -0.001505 0.000000 0.000000 0.000000
# 2 -0.003007 0.007160 -0.003253 0.000000 0.000000 0.000000
# 3 -0.001505 -0.003253 0.014208 0.000000 0.000000 0.000000
# 4 0.000000 0.000000 0.000000 0.025348 0.000000 0.000000
# 5 0.000000 0.000000 0.000000 0.000000 0.024979 0.000000
# 6 0.000000 0.000000 0.000000 0.000000 0.000000 0.012391
#
#
# Mechanical properties :
#
#
# Convention : Reuss Voigt Hill
#
# Bulk Modulus (GPa) = 69.60752 85.27591 77.44172
# Shear Modulus (GPa) = 44.27383 49.90076 47.08729
#
# Velocity S-wave (km/s) = 4.15991 4.41636 4.29005
# Velocity P-wave (km/s) = 7.09083 7.70302 7.40326
#
# Compressibility (1/GPa) = 0.01436626
#
# Stress axis : x y z
#
# Youngs Moduli (GPa) = 117.25480 139.65536 70.38321
#
# Poissons Ratio (x) = 0.41996 0.10595
# Poissons Ratio (y) = 0.35260 0.22895
# Poissons Ratio (z) = 0.17650 0.45428
#
# Static dielectric constant tensor:
#      x y z
#    x 2.091530 0.000000 0.000000 
#    y 0.000000 2.141700 0.000000 
#    z 0.000000 0.000000 2.035610 
# 
# From -- ./inp_files/1848.got.cif
#   From: 2010.05.17/outbox.cif.g08.bks.cpg/sg30_1_cif.got.tgz:1848.got - 2010.06.03 17:03:02.
