data_PCOD9342907
_publ_section_title
;
Structure prediction by ZEFSAII (Michael W. Deem and Ramdas Pophale) SiO2 
 PCOD9342907
Probable space group: P M N 21
;
_chemical_formula_sum "Si O2"
_cell_formula_units_Z 32
_cell_length_a 9.078384
_cell_length_b 10.842369
_cell_length_c 14.342467
_cell_angle_alpha 90.000000
_cell_angle_beta 90.000000
_cell_angle_gamma 90.000000
_cell_volume 1411.746084
_symmetry_space_group_name_H-M "P M N 21"
_symmetry_group_IT_number 31
_symmetry_cell_setting 'orthorhombic'
loop_
_space_group_symop_operation_xyz
x,y,z
1/2-x,-y,1/2+z
-x,y,z
1/2+x,-y,1/2+z
loop_
_atom_site_type_symbol
_atom_site_label
_atom_site_fract_x
_atom_site_fract_y
_atom_site_fract_z
Si Si1 0.831073 0.189313 0.876270
Si Si2 0.170271 0.448080 0.765135
Si Si3 0.824790 0.950409 0.083678
Si Si4 0.823469 0.194221 0.204600
Si Si5 0.675686 0.947462 0.881933
Si Si6 0.330847 0.570013 0.932487
Si Si7 0.174089 0.677540 0.099629
Si Si8 0.669335 0.310985 0.044709
O O1 0.826809 0.314682 0.817270
O O2 0.000000 0.147955 0.882156
O O3 0.731547 0.077811 0.840618
O O4 0.770249 0.227363 0.977778
O O5 0.260103 0.537536 0.833383
O O6 0.245973 0.417446 0.667723
O O7 0.000000 0.485689 0.754153
O O8 0.793750 0.817674 0.129827
O O9 0.000000 0.954486 0.066359
O O10 0.789492 0.067438 0.147648
O O11 0.743106 0.946428 0.984779
O O12 0.781930 0.162328 0.310980
O O13 0.736142 0.298654 0.147997
O O14 0.000000 0.216356 0.200045
O O15 0.500000 0.947854 0.886966
O O16 0.500000 0.610960 0.923033
O O17 0.235296 0.660545 0.995546
O O18 0.330001 0.443336 0.993810
O O19 0.000000 0.655987 0.101854
O O20 0.500000 0.267862 0.045252
#
# Coordination Sequence:
#
# PCOD9342907 Si02
#       8
#     4   4   4   4   4   4   4   4
#     4  10  19  33  56  84 117 154 192 242 295 347
#     4  10  21  38  63  93 120 156 205 254 303 361
#     4  10  22  40  60  85 121 162 198 245 301 356
#     4  10  21  37  57  84 120 157 192 238 297 357
#     4  11  22  35  55  86 120 158 199 241 293 356
#     4  10  22  41  63  89 121 156 200 255 305 358
#     4  11  23  41  64  90 122 163 205 251 306 364
#     4  10  20  35  58  85 111 146 193 244 292 345
#
# _framework density 22.666965000000001
#
# number of rings (size 3 to 8) (size 9 to 14) (size 15 to 20)
#    0.000    1.750    1.250    3.000    0.000    6.000 
#    2.250    0.000    0.000    0.000    0.000    0.000 
#    0.000    0.000    0.000    0.000    0.000    0.000 
#
# Total GULP energy -179018.915296 kJ/mol
# GULP energy per Si atom -5594.341103 kJ/mol
# Density = 2.261537 g / cm^3
# Si number density = 22.666965 Si / 1000 Ang^3
#
#
#
# Elastic Constant Matrix: (Units=GPa)
#
#
# Indices 1 2 3 4 5 6 
#
# 1 52.6333 14.4867 44.0380 0.0000 0.0000 0.0000
# 2 14.4867 57.2313 9.0915 0.0000 0.0000 0.0000
# 3 44.0380 9.0915 121.0486 0.0000 0.0000 0.0000
# 4 0.0000 0.0000 0.0000 37.5924 0.0000 0.0000
# 5 0.0000 0.0000 0.0000 0.0000 23.5607 0.0000
# 6 0.0000 0.0000 0.0000 0.0000 0.0000 18.7681
#
#
#
# Elastic Compliance Matrix: (Units=1/GPa)
#
#
# Indices 1 2 3 4 5 6 
#
# 1 0.029068 -0.005747 -0.010143 0.000000 0.000000 0.000000
# 2 -0.005747 0.018820 0.000677 0.000000 0.000000 0.000000
# 3 -0.010143 0.000677 0.011901 0.000000 0.000000 0.000000
# 4 0.000000 0.000000 0.000000 0.026601 0.000000 0.000000
# 5 0.000000 0.000000 0.000000 0.000000 0.042444 0.000000
# 6 0.000000 0.000000 0.000000 0.000000 0.000000 0.053282
#
#
# Mechanical properties :
#
#
# Convention : Reuss Voigt Hill
#
# Bulk Modulus (GPa) = 34.05669 40.68284 37.36977
# Shear Modulus (GPa) = 22.48925 26.87072 24.67998
#
# Velocity S-wave (km/s) = 3.15327 3.44678 3.30329
# Velocity P-wave (km/s) = 5.32118 5.81614 5.57415
#
# Compressibility (1/GPa) = 0.02936280
#
# Stress axis : x y z
#
# Youngs Moduli (GPa) = 34.40203 53.13499 84.02985
#
# Poissons Ratio (x) = 0.30534 0.85236
# Poissons Ratio (y) = 0.19769 -0.05690
# Poissons Ratio (z) = 0.34896 -0.03598
#
# Static dielectric constant tensor:
#      x y z
#    x 1.752160 0.000000 0.000000 
#    y 0.000000 1.920260 0.000000 
#    z 0.000000 0.000000 1.842780 
# 
# From -- ./inp_files/5003.got.cif
#   From: 2010.05.17/outbox.cif.g08.bks.cpg/sg31_3_cif.got.tgz:5003.got - 2010.06.03 17:08:30.
