data_PCOD9342774
_publ_section_title
;
Structure prediction by ZEFSAII (Michael W. Deem and Ramdas Pophale) SiO2 
 PCOD9342774
Probable space group: P M N 21
;
_chemical_formula_sum "Si O2"
_cell_formula_units_Z 32
_cell_length_a 7.410791
_cell_length_b 15.325476
_cell_length_c 12.256551
_cell_angle_alpha 90.000000
_cell_angle_beta 90.000000
_cell_angle_gamma 90.000000
_cell_volume 1392.024293
_symmetry_space_group_name_H-M "P M N 21"
_symmetry_group_IT_number 31
_symmetry_cell_setting 'orthorhombic'
loop_
_space_group_symop_operation_xyz
x,y,z
1/2-x,-y,1/2+z
-x,y,z
1/2+x,-y,1/2+z
loop_
_atom_site_type_symbol
_atom_site_label
_atom_site_fract_x
_atom_site_fract_y
_atom_site_fract_z
Si Si1 0.783156 0.865309 0.740740
Si Si2 0.714173 0.829756 0.985718
Si Si3 0.278678 0.946333 0.188992
Si Si4 0.282854 0.340572 0.746436
Si Si5 0.206495 0.719672 0.587989
Si Si6 0.205345 0.171235 0.877548
Si Si7 0.720067 0.446321 0.959396
Si Si8 0.204456 0.363079 0.501199
O O1 0.741039 0.872446 0.868217
O O2 0.711525 0.776461 0.685680
O O3 0.000000 0.862252 0.729667
O O4 0.722709 0.953174 0.679975
O O5 0.500000 0.820059 0.005465
O O6 0.782811 0.886897 0.087435
O O7 0.789312 0.731138 0.976709
O O8 0.500000 0.943562 0.190453
O O9 0.219283 0.908859 0.307146
O O10 0.500000 0.334222 0.737527
O O11 0.210039 0.248316 0.787889
O O12 0.238576 0.408776 0.840711
O O13 0.202098 0.365615 0.631866
O O14 0.204958 0.785684 0.483557
O O15 0.285034 0.627756 0.545314
O O16 0.000000 0.699946 0.617924
O O17 0.000000 0.151673 0.909320
O O18 0.500000 0.448216 0.969819
O O19 0.788092 0.544622 0.968671
O O20 0.000000 0.362147 0.456133
#
# Coordination Sequence:
#
# PCOD9342774 Si02
#       8
#     4   4   4   4   4   4   4   4
#     4  10  22  38  56  79 114 151 179 223 283 332
#     4  10  21  38  57  80 110 142 183 227 272 328
#     4   9  19  36  55  78 108 141 179 225 273 325
#     4  10  19  33  52  79 110 138 179 232 276 322
#     4   9  19  36  55  79 112 145 180 227 280 325
#     4  10  18  33  57  79 103 139 184 228 270 324
#     4   8  17  33  53  77 105 142 183 219 268 326
#     4  10  19  35  57  77 106 148 183 223 276 326
#
# _framework density 22.988105000000001
#
# number of rings (size 3 to 8) (size 9 to 14) (size 15 to 20)
#    0.000    2.500    1.250    1.500    1.750    2.000 
#    0.000    4.375    0.000    0.000    0.000    0.000 
#    0.000    0.000    0.000    0.000    0.000    0.000 
#
# Total GULP energy -178587.310900 kJ/mol
# GULP energy per Si atom -5580.853466 kJ/mol
# Density = 2.293578 g / cm^3
# Si number density = 22.988105 Si / 1000 Ang^3
#
#
#
# Elastic Constant Matrix: (Units=GPa)
#
#
# Indices 1 2 3 4 5 6 
#
# 1 80.2756 2.4116 -9.7617 0.0000 0.0000 0.0000
# 2 2.4116 141.8988 30.4936 0.0000 0.0000 0.0000
# 3 -9.7617 30.4936 54.7134 0.0000 0.0000 0.0000
# 4 0.0000 0.0000 0.0000 18.5520 0.0000 0.0000
# 5 0.0000 0.0000 0.0000 0.0000 22.0159 0.0000
# 6 0.0000 0.0000 0.0000 0.0000 0.0000 0.4473
#
#
#
# Elastic Compliance Matrix: (Units=1/GPa)
#
#
# Indices 1 2 3 4 5 6 
#
# 1 0.012814 -0.000806 0.002735 0.000000 0.000000 0.000000
# 2 -0.000806 0.008057 -0.004634 0.000000 0.000000 0.000000
# 3 0.002735 -0.004634 0.021348 0.000000 0.000000 0.000000
# 4 0.000000 0.000000 0.000000 0.053903 0.000000 0.000000
# 5 0.000000 0.000000 0.000000 0.000000 0.045422 0.000000
# 6 0.000000 0.000000 0.000000 0.000000 0.000000 2.235502
#
#
# Mechanical properties :
#
#
# Convention : Reuss Voigt Hill
#
# Bulk Modulus (GPa) = 27.16689 35.90832 31.53760
# Shear Modulus (GPa) = 2.08792 25.11933 13.60363
#
# Velocity S-wave (km/s) = 0.95406 3.30920 2.43527
# Velocity P-wave (km/s) = 3.61346 5.50049 4.65363
#
# Compressibility (1/GPa) = 0.03680952
#
# Stress axis : x y z
#
# Youngs Moduli (GPa) = 78.04039 124.11871 46.84339
#
# Poissons Ratio (x) = 0.09998 -0.12812
# Poissons Ratio (y) = 0.06287 0.21707
# Poissons Ratio (z) = -0.21345 0.57517
#
# Static dielectric constant tensor:
#      x y z
#    x 1.782300 0.000000 0.000000 
#    y 0.000000 1.888660 0.000000 
#    z 0.000000 0.000000 1.816200 
# 
# From -- ./inp_files/3575.got.cif
#   From: 2010.05.17/outbox.cif.g08.bks.cpg/sg31_2_cif.got.tgz:3575.got - 2010.06.03 17:08:30.
