data_PCOD9342737
_publ_section_title
;
Structure prediction by ZEFSAII (Michael W. Deem and Ramdas Pophale) SiO2 
 PCOD9342737
Probable space group: P M N 21
;
_chemical_formula_sum "Si O2"
_cell_formula_units_Z 24
_cell_length_a 16.792159
_cell_length_b 9.200323
_cell_length_c 8.368532
_cell_angle_alpha 90.000000
_cell_angle_beta 90.000000
_cell_angle_gamma 90.000000
_cell_volume 1292.882013
_symmetry_space_group_name_H-M "P M N 21"
_symmetry_group_IT_number 31
_symmetry_cell_setting 'orthorhombic'
loop_
_space_group_symop_operation_xyz
x,y,z
1/2-x,-y,1/2+z
-x,y,z
1/2+x,-y,1/2+z
loop_
_atom_site_type_symbol
_atom_site_label
_atom_site_fract_x
_atom_site_fract_y
_atom_site_fract_z
Si Si1 0.410932 0.864432 0.210210
Si Si2 0.825341 0.957759 0.192233
Si Si3 0.241686 0.298812 0.844293
Si Si4 0.909858 0.214177 0.337754
Si Si5 0.741675 0.613667 0.712603
Si Si6 0.328163 0.126698 0.321470
O O1 0.500000 0.819134 0.255753
O O2 0.341684 0.781748 0.306126
O O3 0.399852 0.036235 0.244237
O O4 0.398598 0.828515 0.023610
O O5 0.811170 0.815302 0.299532
O O6 0.896493 0.064814 0.239070
O O7 0.748163 0.056007 0.232178
O O8 0.825530 0.911348 0.008434
O O9 0.249396 0.443160 0.739244
O O10 0.243735 0.345721 0.027118
O O11 0.841471 0.327453 0.287023
O O12 0.000000 0.267877 0.315311
O O13 0.814123 0.703105 0.795109
#
# Coordination Sequence:
#
# PCOD9342737 Si02
#       6
#     4   4   4   4   4   4
#     4  10  20  35  55  79 107 138 174 217 264 311
#     4  10  18  31  52  76 102 133 172 211 251 303
#     4  11  21  35  55  78 107 140 177 217 261 315
#     4  10  20  35  55  79 107 138 174 217 264 311
#     4  11  21  35  55  78 107 140 177 217 261 315
#     4  10  18  31  52  76 102 133 172 211 251 303
#
# _framework density 18.563179999999999
#
# number of rings (size 3 to 8) (size 9 to 14) (size 15 to 20)
#    0.000    1.667    0.000   11.000    0.000    2.667 
#    0.000    1.667    0.000   10.000    0.000    0.000 
#    0.000    0.000    0.000    0.000    0.000    0.000 
#
# Total GULP energy -133914.335496 kJ/mol
# GULP energy per Si atom -5579.763979 kJ/mol
# Density = 1.852093 g / cm^3
# Si number density = 18.563180 Si / 1000 Ang^3
#
#
#
# Elastic Constant Matrix: (Units=GPa)
#
#
# Indices 1 2 3 4 5 6 
#
# 1 63.0543 11.7763 8.1830 0.0000 0.0000 0.0000
# 2 11.7763 78.2803 -23.3947 0.0000 0.0000 0.0000
# 3 8.1830 -23.3947 54.2988 0.0000 0.0000 0.0000
# 4 0.0000 0.0000 0.0000 35.4547 0.0000 0.0000
# 5 0.0000 0.0000 0.0000 0.0000 18.0157 0.0000
# 6 0.0000 0.0000 0.0000 0.0000 0.0000 27.7672
#
#
#
# Elastic Compliance Matrix: (Units=1/GPa)
#
#
# Indices 1 2 3 4 5 6 
#
# 1 0.017127 -0.003843 -0.004237 0.000000 0.000000 0.000000
# 2 -0.003843 0.015525 0.007268 0.000000 0.000000 0.000000
# 3 -0.004237 0.007268 0.022187 0.000000 0.000000 0.000000
# 4 0.000000 0.000000 0.000000 0.028205 0.000000 0.000000
# 5 0.000000 0.000000 0.000000 0.000000 0.055507 0.000000
# 6 0.000000 0.000000 0.000000 0.000000 0.000000 0.036014
#
#
# Mechanical properties :
#
#
# Convention : Reuss Voigt Hill
#
# Bulk Modulus (GPa) = 18.79158 20.97362 19.88260
# Shear Modulus (GPa) = 25.78314 29.51878 27.65096
#
# Velocity S-wave (km/s) = 3.73089 3.99203 3.86367
# Velocity P-wave (km/s) = 5.35765 5.70714 5.53515
#
# Compressibility (1/GPa) = 0.05321532
#
# Stress axis : x y z
#
# Youngs Moduli (GPa) = 58.38781 64.41314 45.07240
#
# Poissons Ratio (x) = 0.24752 0.19096
# Poissons Ratio (y) = 0.22437 -0.32759
# Poissons Ratio (z) = 0.24737 -0.46815
#
# Static dielectric constant tensor:
#      x y z
#    x 1.670240 0.000000 0.000000 
#    y 0.000000 1.671510 0.000000 
#    z 0.000000 0.000000 1.648090 
# 
# From -- ./inp_files/2800.got.cif
#   From: 2010.05.17/outbox.cif.g08.bks.cpg/sg31_2_cif.got.tgz:2800.got - 2010.06.03 17:08:30.
