data_PCOD9342989
_publ_section_title
;
Structure prediction by ZEFSAII (Michael W. Deem and Ramdas Pophale) SiO2 
 PCOD9342989
Probable space group: P M N 21
;
_chemical_formula_sum "Si O2"
_cell_formula_units_Z 32
_cell_length_a 8.587481
_cell_length_b 12.181286
_cell_length_c 15.830889
_cell_angle_alpha 90.000000
_cell_angle_beta 90.000000
_cell_angle_gamma 90.000000
_cell_volume 1656.014873
_symmetry_space_group_name_H-M "P M N 21"
_symmetry_group_IT_number 31
_symmetry_cell_setting 'orthorhombic'
loop_
_space_group_symop_operation_xyz
x,y,z
1/2-x,-y,1/2+z
-x,y,z
1/2+x,-y,1/2+z
loop_
_atom_site_type_symbol
_atom_site_label
_atom_site_fract_x
_atom_site_fract_y
_atom_site_fract_z
Si Si1 0.188162 0.858278 0.812340
Si Si2 0.810586 0.743224 0.161258
Si Si3 0.813218 0.895804 0.314755
Si Si4 0.688361 0.281799 0.474424
Si Si5 0.685969 0.491834 0.912152
Si Si6 0.185955 0.725894 0.645264
Si Si7 0.184600 0.254575 0.963362
Si Si8 0.812911 0.497796 0.213595
O O1 0.240904 0.790519 0.894836
O O2 0.237301 0.795629 0.727033
O O3 0.000000 0.859431 0.813436
O O4 0.248768 0.981616 0.814617
O O5 0.756886 0.828404 0.232113
O O6 0.763424 0.619142 0.184826
O O7 0.000000 0.744313 0.163899
O O8 0.763212 0.766270 0.065085
O O9 0.760459 0.828784 0.397022
O O10 0.000000 0.898814 0.312793
O O11 0.500000 0.286655 0.472810
O O12 0.751084 0.404886 0.463963
O O13 0.500000 0.482671 0.920784
O O14 0.760953 0.377609 0.940102
O O15 0.721925 0.512773 0.813243
O O16 0.262121 0.766835 0.559010
O O17 0.233594 0.600060 0.662739
O O18 0.000000 0.732941 0.637791
O O19 0.000000 0.246986 0.956815
O O20 0.000000 0.489331 0.202579
#
# Coordination Sequence:
#
# PCOD9342989 Si02
#       8
#     4   4   4   4   4   4   4   4
#     4  10  23  41  60  89 125 161 203 253 304 363
#     4   9  19  37  61  87 116 153 196 244 297 359
#     4  11  23  42  64  88 118 160 209 258 308 361
#     4  10  20  38  63  90 122 160 201 245 302 366
#     4  11  21  36  61  93 127 159 200 250 304 365
#     4  11  23  40  62  91 127 162 204 254 305 364
#     4  12  25  41  63  90 122 163 209 256 312 367
#     4  10  19  35  60  90 125 158 198 246 302 367
#
# _framework density 19.323497
#
# number of rings (size 3 to 8) (size 9 to 14) (size 15 to 20)
#    0.000    1.500    2.500    3.000    0.000    4.000 
#    0.000    2.500    0.000    0.000    0.000    0.000 
#    0.000    0.000    0.000    0.000    0.000    0.000 
#
# Total GULP energy -178891.178462 kJ/mol
# GULP energy per Si atom -5590.349327 kJ/mol
# Density = 1.927952 g / cm^3
# Si number density = 19.323497 Si / 1000 Ang^3
#
#
#
# Elastic Constant Matrix: (Units=GPa)
#
#
# Indices 1 2 3 4 5 6 
#
# 1 12.3920 2.5114 5.9962 0.0000 0.0000 0.0000
# 2 2.5114 115.5389 31.4640 0.0000 0.0000 0.0000
# 3 5.9962 31.4640 98.9268 0.0000 0.0000 0.0000
# 4 0.0000 0.0000 0.0000 2.6748 0.0000 0.0000
# 5 0.0000 0.0000 0.0000 0.0000 21.9418 0.0000
# 6 0.0000 0.0000 0.0000 0.0000 0.0000 27.3855
#
#
#
# Elastic Compliance Matrix: (Units=1/GPa)
#
#
# Indices 1 2 3 4 5 6 
#
# 1 0.083159 -0.000476 -0.004889 0.000000 0.000000 0.000000
# 2 -0.000476 0.009479 -0.002986 0.000000 0.000000 0.000000
# 3 -0.004889 -0.002986 0.011354 0.000000 0.000000 0.000000
# 4 0.000000 0.000000 0.000000 0.373862 0.000000 0.000000
# 5 0.000000 0.000000 0.000000 0.000000 0.045575 0.000000
# 6 0.000000 0.000000 0.000000 0.000000 0.000000 0.036516
#
#
# Mechanical properties :
#
#
# Convention : Reuss Voigt Hill
#
# Bulk Modulus (GPa) = 11.45606 34.08899 22.77252
# Shear Modulus (GPa) = 8.25431 22.85949 15.55690
#
# Velocity S-wave (km/s) = 2.06904 3.44319 2.84047
# Velocity P-wave (km/s) = 3.41311 5.78679 4.75059
#
# Compressibility (1/GPa) = 0.08729005
#
# Stress axis : x y z
#
# Youngs Moduli (GPa) = 12.02514 105.50127 88.07098
#
# Poissons Ratio (x) = 0.05024 0.43058
# Poissons Ratio (y) = 0.00573 0.26296
# Poissons Ratio (z) = 0.05879 0.31501
#
# Static dielectric constant tensor:
#      x y z
#    x 1.648330 0.000000 0.000000 
#    y 0.000000 1.628760 0.000000 
#    z 0.000000 0.000000 1.686520 
# 
# From -- ./inp_files/4946.got.cif
#   From: 2010.05.17/outbox.cif.g08.bks.cpg/sg31_3_cif.got.tgz:4946.got - 2010.06.03 17:08:30.
