data_PCOD9342419
_publ_section_title
;
Structure prediction by ZEFSAII (Michael W. Deem and Ramdas Pophale) SiO2 
 PCOD9342419
Probable space group: P N C 2
;
_chemical_formula_sum "Si O2"
_cell_formula_units_Z 20
_cell_length_a 11.255433
_cell_length_b 6.375859
_cell_length_c 11.851291
_cell_angle_alpha 90.000000
_cell_angle_beta 90.000000
_cell_angle_gamma 90.000000
_cell_volume 850.484834
_symmetry_space_group_name_H-M "P N C 2"
_symmetry_group_IT_number 30
_symmetry_cell_setting 'orthorhombic'
loop_
_space_group_symop_operation_xyz
x,y,z
-x,-y,z
-x,1/2+y,1/2+z
x,1/2-y,1/2+z
loop_
_atom_site_type_symbol
_atom_site_label
_atom_site_fract_x
_atom_site_fract_y
_atom_site_fract_z
Si Si1 0.783664 0.211323 0.590800
Si Si2 0.000000 0.000000 0.471943
Si Si3 0.385344 0.619713 0.412626
Si Si4 0.871864 0.962086 0.247988
Si Si5 0.325299 0.157978 0.696278
Si Si6 0.500000 0.000000 0.279321
O O1 0.721541 0.360539 0.500205
O O2 0.800310 0.330362 0.710464
O O3 0.913261 0.139972 0.547767
O O4 0.690438 0.018935 0.602273
O O5 0.097109 0.082717 0.379040
O O6 0.500000 0.500000 0.462530
O O7 0.348547 0.470217 0.310001
O O8 0.423995 0.844421 0.359778
O O9 0.801889 0.768317 0.199669
O O10 0.000000 0.000000 0.194685
O O11 0.421852 0.342342 0.702834
#
# Coordination Sequence:
#
# PCOD9342419 Si02
#       6
#     4   2   4   4   4   2
#     4  12  23  45  73 111 141 194 242 293 375 431
#     4  10  24  44  72 104 148 188 236 302 358 440
#     4  10  25  48  71 103 146 193 239 302 361 436
#     4  10  25  46  68 105 145 186 238 296 353 435
#     4  11  23  44  74 102 144 189 241 297 357 436
#     4  10  22  48  66 100 148 190 236 300 360 420
#
# _framework density 23.515996999999999
#
# number of rings (size 3 to 8) (size 9 to 14) (size 15 to 20)
#    0.600    0.800    0.000    4.800    0.000    6.400 
#   23.400    0.000    0.000    0.000    0.000    0.000 
#    0.000    0.000    0.000    0.000    0.000    0.000 
#
# Total GULP energy -111586.458303 kJ/mol
# GULP energy per Si atom -5579.322915 kJ/mol
# Density = 2.346247 g / cm^3
# Si number density = 23.515997 Si / 1000 Ang^3
#
#
#
# Elastic Constant Matrix: (Units=GPa)
#
#
# Indices 1 2 3 4 5 6 
#
# 1 118.0680 50.2166 44.9524 0.0000 0.0000 0.0000
# 2 50.2166 111.4078 37.5693 0.0000 0.0000 0.0000
# 3 44.9524 37.5693 80.2152 0.0000 0.0000 0.0000
# 4 0.0000 0.0000 0.0000 95.0881 0.0000 0.0000
# 5 0.0000 0.0000 0.0000 0.0000 53.9174 0.0000
# 6 0.0000 0.0000 0.0000 0.0000 0.0000 48.3146
#
#
#
# Elastic Compliance Matrix: (Units=1/GPa)
#
#
# Indices 1 2 3 4 5 6 
#
# 1 0.011932 -0.003709 -0.004949 0.000000 0.000000 0.000000
# 2 -0.003709 0.011813 -0.003454 0.000000 0.000000 0.000000
# 3 -0.004949 -0.003454 0.016858 0.000000 0.000000 0.000000
# 4 0.000000 0.000000 0.000000 0.010517 0.000000 0.000000
# 5 0.000000 0.000000 0.000000 0.000000 0.018547 0.000000
# 6 0.000000 0.000000 0.000000 0.000000 0.000000 0.020698
#
#
# Mechanical properties :
#
#
# Convention : Reuss Voigt Hill
#
# Bulk Modulus (GPa) = 61.06011 63.90753 62.48382
# Shear Modulus (GPa) = 41.65041 51.26087 46.45564
#
# Velocity S-wave (km/s) = 4.21307 4.67393 4.44947
# Velocity P-wave (km/s) = 7.04900 7.50751 7.28186
#
# Compressibility (1/GPa) = 0.01637730
#
# Stress axis : x y z
#
# Youngs Moduli (GPa) = 83.81104 84.65500 59.32010
#
# Poissons Ratio (x) = 0.31400 0.29359
# Poissons Ratio (y) = 0.31086 0.20489
# Poissons Ratio (z) = 0.41480 0.29239
#
# Static dielectric constant tensor:
#      x y z
#    x 1.808360 0.000000 0.000000 
#    y 0.000000 1.894290 0.000000 
#    z 0.000000 0.000000 1.877740 
# 
# From -- ./inp_files/5331.got.cif
#   From: 2010.05.17/outbox.cif.g08.bks.cpg/sg30_3_cif.got.tgz:5331.got - 2010.06.03 17:03:02.
