data_PCOD9342494
_publ_section_title
;
Structure prediction by ZEFSAII (Michael W. Deem and Ramdas Pophale) SiO2 
 PCOD9342494
Probable space group: P N C 2
;
_chemical_formula_sum "Si O2"
_cell_formula_units_Z 26
_cell_length_a 16.925693
_cell_length_b 4.904497
_cell_length_c 12.468754
_cell_angle_alpha 90.000000
_cell_angle_beta 90.000000
_cell_angle_gamma 90.000000
_cell_volume 1035.056338
_symmetry_space_group_name_H-M "P N C 2"
_symmetry_group_IT_number 30
_symmetry_cell_setting 'orthorhombic'
loop_
_space_group_symop_operation_xyz
x,y,z
-x,-y,z
-x,1/2+y,1/2+z
x,1/2-y,1/2+z
loop_
_atom_site_type_symbol
_atom_site_label
_atom_site_fract_x
_atom_site_fract_y
_atom_site_fract_z
Si Si1 0.715452 0.927152 0.626590
Si Si2 0.635195 0.417861 0.336954
Si Si3 0.218521 0.683015 0.440567
Si Si4 0.583070 0.883566 0.462779
Si Si5 0.081033 0.857254 0.050505
Si Si6 0.000000 0.500000 0.871800
Si Si7 0.847003 0.547639 0.750495
O O1 0.642999 0.795463 0.557678
O O2 0.783404 0.742607 0.687228
O O3 0.663569 0.088294 0.715449
O O4 0.755603 0.131975 0.541240
O O5 0.715148 0.511659 0.396556
O O6 0.573740 0.641865 0.376652
O O7 0.617293 0.130258 0.390925
O O8 0.148606 0.489966 0.483521
O O9 0.197037 0.882753 0.343136
O O10 0.500000 0.000000 0.506134
O O11 0.119958 0.820229 0.166045
O O12 0.056173 0.646672 0.959024
O O13 0.000000 0.000000 0.073412
O O14 0.067234 0.346238 0.798723
#
# Coordination Sequence:
#
# PCOD9342494 Si02
#       7
#     4   4   4   4   4   2   4
#     4  11  24  44  79 101 145 191 246 300 378 448
#     4  11  24  46  73 107 143 195 241 299 370 442
#     4  10  24  43  67 103 139 188 249 307 367 448
#     4  11  26  47  74 114 154 189 243 306 371 453
#     4  11  24  41  63  91 137 186 245 305 379 424
#     4  10  26  42  62 100 140 192 260 326 374 436
#     4  11  23  44  68 104 139 197 251 313 375 445
#
# _framework density 25.119406000000001
#
# number of rings (size 3 to 8) (size 9 to 14) (size 15 to 20)
#    0.000    1.231    0.769    4.154    6.462    4.923 
#    5.538    0.000    0.000    0.000    0.000    0.000 
#    0.000    0.000    0.000    0.000    0.000    0.000 
#
# Total GULP energy -144740.857876 kJ/mol
# GULP energy per Si atom -5566.956072 kJ/mol
# Density = 2.506223 g / cm^3
# Si number density = 25.119406 Si / 1000 Ang^3
#
#
#
# Elastic Constant Matrix: (Units=GPa)
#
#
# Indices 1 2 3 4 5 6 
#
# 1 116.1894 24.0403 62.2173 0.0000 0.0000 0.0000
# 2 24.0403 48.1292 35.5147 0.0000 0.0000 0.0000
# 3 62.2173 35.5147 161.0041 0.0000 0.0000 0.0000
# 4 0.0000 0.0000 0.0000 65.7685 0.0000 0.0000
# 5 0.0000 0.0000 0.0000 0.0000 35.7413 0.0000
# 6 0.0000 0.0000 0.0000 0.0000 0.0000 20.3737
#
#
#
# Elastic Compliance Matrix: (Units=1/GPa)
#
#
# Indices 1 2 3 4 5 6 
#
# 1 0.011173 -0.002860 -0.003686 0.000000 0.000000 0.000000
# 2 -0.002860 0.025549 -0.004530 0.000000 0.000000 0.000000
# 3 -0.003686 -0.004530 0.008635 0.000000 0.000000 0.000000
# 4 0.000000 0.000000 0.000000 0.015205 0.000000 0.000000
# 5 0.000000 0.000000 0.000000 0.000000 0.027979 0.000000
# 6 0.000000 0.000000 0.000000 0.000000 0.000000 0.049083
#
#
# Mechanical properties :
#
#
# Convention : Reuss Voigt Hill
#
# Bulk Modulus (GPa) = 43.09947 63.20750 53.15349
# Shear Modulus (GPa) = 29.84869 37.94671 33.89770
#
# Velocity S-wave (km/s) = 3.45087 3.89093 3.67749
# Velocity P-wave (km/s) = 5.75092 6.73819 6.26404
#
# Compressibility (1/GPa) = 0.02320214
#
# Stress axis : x y z
#
# Youngs Moduli (GPa) = 89.50545 39.14034 115.80889
#
# Poissons Ratio (x) = 0.11196 0.42693
# Poissons Ratio (y) = 0.25602 0.52466
# Poissons Ratio (z) = 0.32996 0.17732
#
# Static dielectric constant tensor:
#      x y z
#    x 2.254870 0.000000 0.000000 
#    y 0.000000 2.013640 0.000000 
#    z 0.000000 0.000000 2.081010 
# 
# From -- ./inp_files/4426.got.cif
#   From: 2010.05.17/outbox.cif.g08.bks.cpg/sg30_3_cif.got.tgz:4426.got - 2010.06.03 17:03:02.
