data_PCOD9342180
_publ_section_title
;
Structure prediction by ZEFSAII (Michael W. Deem and Ramdas Pophale) SiO2 
 PCOD9342180
Probable space group: P N C 2
;
_chemical_formula_sum "Si O2"
_cell_formula_units_Z 30
_cell_length_a 7.250614
_cell_length_b 20.730952
_cell_length_c 9.304959
_cell_angle_alpha 90.000000
_cell_angle_beta 90.000000
_cell_angle_gamma 90.000000
_cell_volume 1398.648214
_symmetry_space_group_name_H-M "P N C 2"
_symmetry_group_IT_number 30
_symmetry_cell_setting 'orthorhombic'
loop_
_space_group_symop_operation_xyz
x,y,z
-x,-y,z
-x,1/2+y,1/2+z
x,1/2-y,1/2+z
loop_
_atom_site_type_symbol
_atom_site_label
_atom_site_fract_x
_atom_site_fract_y
_atom_site_fract_z
Si Si1 0.740794 0.548536 0.751210
Si Si2 0.139461 0.299244 0.018585
Si Si3 0.647230 0.071254 0.092439
Si Si4 0.500000 0.500000 0.322562
Si Si5 0.626733 0.917117 0.572643
Si Si6 0.299575 0.708246 0.700211
Si Si7 0.304289 0.672205 0.017714
Si Si8 0.119060 0.183732 0.204418
O O1 0.547689 0.566941 0.675709
O O2 0.775760 0.477300 0.686432
O O3 0.873135 0.606407 0.697534
O O4 0.705727 0.551557 0.923620
O O5 0.251972 0.353815 0.101103
O O6 0.185522 0.227671 0.074651
O O7 0.921539 0.322528 0.021052
O O8 0.212111 0.302506 0.855966
O O9 0.691613 0.146330 0.096613
O O10 0.616060 0.044567 0.932546
O O11 0.370961 0.461104 0.212910
O O12 0.413539 0.893725 0.550590
O O13 0.369730 0.772908 0.628417
O O14 0.081776 0.714242 0.723662
O O15 0.368506 0.690703 0.857517
#
# Coordination Sequence:
#
# PCOD9342180 Si02
#       8
#     4   4   4   2   4   4   4   4
#     4   9  19  36  57  83 108 157 194 233 286 356
#     4   9  21  37  56  90 117 148 193 246 285 353
#     4  10  21  38  58  82 121 147 201 243 278 356
#     4  10  24  38  58  88 116 154 204 244 284 360
#     4  11  21  38  64  81 116 159 191 244 303 337
#     4  10  21  38  58  86 117 151 191 245 289 350
#     4  10  22  37  60  91 115 151 196 238 297 353
#     4   9  19  36  57  83 119 148 193 239 295 345
#
# _framework density 21.449280999999999
#
# number of rings (size 3 to 8) (size 9 to 14) (size 15 to 20)
#    0.000    2.400    1.333    0.800    3.733    2.667 
#    0.000    0.667    5.867    0.000    0.000    0.000 
#    0.000    0.000    0.000    0.000    0.000    0.000 
#
# Total GULP energy -167046.041541 kJ/mol
# GULP energy per Si atom -5568.201385 kJ/mol
# Density = 2.140046 g / cm^3
# Si number density = 21.449281 Si / 1000 Ang^3
#
#
#
# Elastic Constant Matrix: (Units=GPa)
#
#
# Indices 1 2 3 4 5 6 
#
# 1 60.5464 8.3156 7.0664 0.0000 0.0000 0.0000
# 2 8.3156 45.5021 22.6739 0.0000 0.0000 0.0000
# 3 7.0664 22.6739 94.7096 0.0000 0.0000 0.0000
# 4 0.0000 0.0000 0.0000 31.7475 0.0000 0.0000
# 5 0.0000 0.0000 0.0000 0.0000 -2.6995 0.0000
# 6 0.0000 0.0000 0.0000 0.0000 0.0000 25.2328
#
#
#
# Elastic Compliance Matrix: (Units=1/GPa)
#
#
# Indices 1 2 3 4 5 6 
#
# 1 0.016971 -0.002805 -0.000595 0.000000 0.000000 0.000000
# 2 -0.002805 0.025418 -0.005876 0.000000 0.000000 0.000000
# 3 -0.000595 -0.005876 0.012010 0.000000 0.000000 0.000000
# 4 0.000000 0.000000 0.000000 0.031499 0.000000 0.000000
# 5 0.000000 0.000000 0.000000 0.000000 -0.370446 0.000000
# 6 0.000000 0.000000 0.000000 0.000000 0.000000 0.039631
#
#
# Mechanical properties :
#
#
# Convention : Reuss Voigt Hill
#
# Bulk Modulus (GPa) = 27.89635 30.76332 29.32984
# Shear Modulus (GPa) = -23.31893 21.70300 -0.80796
#
# Velocity S-wave (km/s) = -3.30080 3.18438 -0.61441
# Velocity P-wave (km/s) = 1.22190 5.28146 3.63323
#
# Compressibility (1/GPa) = 0.03584698
#
# Stress axis : x y z
#
# Youngs Moduli (GPa) = 58.92431 39.34288 83.26644
#
# Poissons Ratio (x) = 0.11036 0.04952
# Poissons Ratio (y) = 0.16529 0.48925
# Poissons Ratio (z) = 0.03504 0.23117
#
# Static dielectric constant tensor:
#      x y z
#    x 1.844340 0.000000 0.000000 
#    y 0.000000 1.888250 0.000000 
#    z 0.000000 0.000000 1.799570 
# 
# From -- ./inp_files/2096.got.cif
#   From: 2010.05.17/outbox.cif.g08.bks.cpg/sg30_2_cif.got.tgz:2096.got - 2010.06.03 17:03:02.
