data_PCOD9342047
_publ_section_title
;
Structure prediction by ZEFSAII (Michael W. Deem and Ramdas Pophale) SiO2 
 PCOD9342047
Probable space group: P N C 2
;
_chemical_formula_sum "Si O2"
_cell_formula_units_Z 30
_cell_length_a 13.779246
_cell_length_b 7.502804
_cell_length_c 12.652585
_cell_angle_alpha 90.000000
_cell_angle_beta 90.000000
_cell_angle_gamma 90.000000
_cell_volume 1308.061967
_symmetry_space_group_name_H-M "P N C 2"
_symmetry_group_IT_number 30
_symmetry_cell_setting 'orthorhombic'
loop_
_space_group_symop_operation_xyz
x,y,z
-x,-y,z
-x,1/2+y,1/2+z
x,1/2-y,1/2+z
loop_
_atom_site_type_symbol
_atom_site_label
_atom_site_fract_x
_atom_site_fract_y
_atom_site_fract_z
Si Si1 0.788693 0.128853 0.548760
Si Si2 0.604954 0.356398 0.593437
Si Si3 0.500000 0.500000 0.773250
Si Si4 0.603404 0.012944 0.866689
Si Si5 0.114360 0.984314 0.972876
Si Si6 0.757013 0.857297 0.156605
Si Si7 0.786564 0.485783 0.255809
Si Si8 0.695698 0.614438 0.878052
O O1 0.686133 0.207691 0.588464
O O2 0.844902 0.282826 0.485465
O O3 0.843934 0.109733 0.661387
O O4 0.756153 0.965222 0.474884
O O5 0.527651 0.345854 0.687225
O O6 0.574176 0.379196 0.472216
O O7 0.661891 0.541489 0.616609
O O8 0.593662 0.522817 0.846534
O O9 0.692398 0.108458 0.807167
O O10 0.656226 0.820072 0.889227
O O11 0.500000 0.000000 0.809155
O O12 0.148847 0.042504 0.855667
O O13 0.000000 0.000000 0.980861
O O14 0.163274 0.094077 0.069498
O O15 0.746311 0.650843 0.185517
O O16 0.765671 0.924898 0.277343
#
# Coordination Sequence:
#
# PCOD9342047 Si02
#       8
#     4   4   2   4   4   4   4   4
#     4  11  25  42  72  95 146 180 237 283 374 423
#     4  10  20  37  62  88 132 183 223 288 347 399
#     4  10  22  34  58  92 136 174 246 282 334 402
#     4  11  22  39  65  95 139 188 240 286 344 411
#     4  11  26  46  74 107 138 172 233 304 373 441
#     4   9  21  44  68  89 136 183 226 281 360 427
#     4  11  24  44  72  96 140 185 235 284 364 431
#     4  10  24  39  66  97 135 193 236 289 350 420
#
# _framework density 22.934695999999999
#
# number of rings (size 3 to 8) (size 9 to 14) (size 15 to 20)
#    0.000    1.600    3.333    0.800   11.200    1.067 
#    1.200    0.000    0.000    0.000    0.000    0.000 
#    0.000    0.000    0.000    0.000    0.000    0.000 
#
# Total GULP energy -167018.772088 kJ/mol
# GULP energy per Si atom -5567.292403 kJ/mol
# Density = 2.288250 g / cm^3
# Si number density = 22.934696 Si / 1000 Ang^3
#
#
#
# Elastic Constant Matrix: (Units=GPa)
#
#
# Indices 1 2 3 4 5 6 
#
# 1 100.2400 14.6954 44.2844 0.0000 0.0000 0.0000
# 2 14.6954 60.7911 27.9025 0.0000 0.0000 0.0000
# 3 44.2844 27.9025 163.0980 0.0000 0.0000 0.0000
# 4 0.0000 0.0000 0.0000 23.6690 0.0000 0.0000
# 5 0.0000 0.0000 0.0000 0.0000 18.5805 0.0000
# 6 0.0000 0.0000 0.0000 0.0000 0.0000 8.6384
#
#
#
# Elastic Compliance Matrix: (Units=1/GPa)
#
#
# Indices 1 2 3 4 5 6 
#
# 1 0.011453 -0.001456 -0.002861 0.000000 0.000000 0.000000
# 2 -0.001456 0.018037 -0.002690 0.000000 0.000000 0.000000
# 3 -0.002861 -0.002690 0.007368 0.000000 0.000000 0.000000
# 4 0.000000 0.000000 0.000000 0.042249 0.000000 0.000000
# 5 0.000000 0.000000 0.000000 0.000000 0.053820 0.000000
# 6 0.000000 0.000000 0.000000 0.000000 0.000000 0.115762
#
#
# Mechanical properties :
#
#
# Convention : Reuss Voigt Hill
#
# Bulk Modulus (GPa) = 43.77419 55.32152 49.54785
# Shear Modulus (GPa) = 18.49675 25.99405 22.24540
#
# Velocity S-wave (km/s) = 2.84297 3.37024 3.11777
# Velocity P-wave (km/s) = 5.46850 6.27044 5.88315
#
# Compressibility (1/GPa) = 0.02284451
#
# Stress axis : x y z
#
# Youngs Moduli (GPa) = 87.31112 55.44305 135.71624
#
# Poissons Ratio (x) = 0.08070 0.38825
# Poissons Ratio (y) = 0.12709 0.36513
# Poissons Ratio (z) = 0.24978 0.14917
#
# Static dielectric constant tensor:
#      x y z
#    x 1.838480 0.000000 0.000000 
#    y 0.000000 2.030460 0.000000 
#    z 0.000000 0.000000 1.995050 
# 
# From -- ./inp_files/4361.got.cif
#   From: 2010.05.17/outbox.cif.g08.bks.cpg/sg30_3_cif.got.tgz:4361.got - 2010.06.03 17:03:02.
