data_PCOD9342028
_publ_section_title
;
Structure prediction by ZEFSAII (Michael W. Deem and Ramdas Pophale) SiO2 
 PCOD9342028
Probable space group: P N C 2
;
_chemical_formula_sum "Si O2"
_cell_formula_units_Z 32
_cell_length_a 9.900555
_cell_length_b 8.410086
_cell_length_c 19.968792
_cell_angle_alpha 90.000000
_cell_angle_beta 90.000000
_cell_angle_gamma 90.000000
_cell_volume 1662.691861
_symmetry_space_group_name_H-M "P N C 2"
_symmetry_group_IT_number 30
_symmetry_cell_setting 'orthorhombic'
loop_
_space_group_symop_operation_xyz
x,y,z
-x,-y,z
-x,1/2+y,1/2+z
x,1/2-y,1/2+z
loop_
_atom_site_type_symbol
_atom_site_label
_atom_site_fract_x
_atom_site_fract_y
_atom_site_fract_z
Si Si1 0.876754 0.709679 0.099980
Si Si2 0.461720 0.816159 0.529810
Si Si3 0.592384 0.636181 0.406532
Si Si4 0.178058 0.733530 0.590503
Si Si5 0.151562 0.500472 0.705579
Si Si6 0.857730 0.551996 0.483951
Si Si7 0.606641 0.856412 0.656436
Si Si8 0.616428 0.869309 0.285162
O O1 0.758643 0.598415 0.131187
O O2 0.036717 0.671640 0.098021
O O3 0.856728 0.858677 0.150773
O O4 0.853062 0.781105 0.025432
O O5 0.503631 0.709839 0.467141
O O6 0.308046 0.809165 0.555289
O O7 0.550236 0.756958 0.593158
O O8 0.500000 0.000000 0.516174
O O9 0.500000 0.500000 0.374076
O O10 0.729930 0.560964 0.435517
O O11 0.623673 0.772606 0.353490
O O12 0.200207 0.654188 0.663526
O O13 0.151097 0.584650 0.540565
O O14 0.249043 0.462548 0.765863
O O15 0.000000 0.500000 0.731488
O O16 0.000000 0.500000 0.450051
O O17 0.601530 0.755008 0.723687
O O18 0.500000 0.000000 0.662624
O O19 0.500000 0.000000 0.286735
#
# Coordination Sequence:
#
# PCOD9342028 Si02
#       8
#     4   4   4   4   4   4   4   4
#     4   8  15  30  58  90 117 141 188 245 294 344
#     4  11  22  35  56  87 121 150 193 239 296 354
#     4  12  23  38  59  83 117 158 201 245 294 354
#     4   9  16  32  59  91 111 148 194 242 294 355
#     4   8  16  33  61  90 113 145 195 245 294 354
#     4   9  17  33  59  85 110 144 196 242 290 350
#     4  10  20  36  58  88 121 156 194 244 297 355
#     4  11  23  38  58  85 124 158 198 244 296 355
#
# _framework density 19.245899999999999
#
# number of rings (size 3 to 8) (size 9 to 14) (size 15 to 20)
#    0.000    2.250    2.500    3.000    0.000    0.500 
#    0.000    3.750    2.750    6.000    0.000    0.000 
#    0.000    0.000    0.000    0.000    0.000    0.000 
#
# Total GULP energy -178206.999476 kJ/mol
# GULP energy per Si atom -5568.968734 kJ/mol
# Density = 1.920210 g / cm^3
# Si number density = 19.245900 Si / 1000 Ang^3
#
#
#
# Elastic Constant Matrix: (Units=GPa)
#
#
# Indices 1 2 3 4 5 6 
#
# 1 168.1148 50.2301 43.4695 0.0000 0.0000 0.0000
# 2 50.2301 55.2650 21.1648 0.0000 0.0000 0.0000
# 3 43.4695 21.1648 77.4179 0.0000 0.0000 0.0000
# 4 0.0000 0.0000 0.0000 23.1340 0.0000 0.0000
# 5 0.0000 0.0000 0.0000 0.0000 47.1380 0.0000
# 6 0.0000 0.0000 0.0000 0.0000 0.0000 30.2314
#
#
#
# Elastic Compliance Matrix: (Units=1/GPa)
#
#
# Indices 1 2 3 4 5 6 
#
# 1 0.008773 -0.006799 -0.003067 0.000000 0.000000 0.000000
# 2 -0.006799 0.025480 -0.003148 0.000000 0.000000 0.000000
# 3 -0.003067 -0.003148 0.015500 0.000000 0.000000 0.000000
# 4 0.000000 0.000000 0.000000 0.043226 0.000000 0.000000
# 5 0.000000 0.000000 0.000000 0.000000 0.021214 0.000000
# 6 0.000000 0.000000 0.000000 0.000000 0.000000 0.033078
#
#
# Mechanical properties :
#
#
# Convention : Reuss Voigt Hill
#
# Bulk Modulus (GPa) = 42.15179 58.94739 50.54959
# Shear Modulus (GPa) = 27.59264 32.49625 30.04445
#
# Velocity S-wave (km/s) = 3.79052 4.11357 3.95534
# Velocity P-wave (km/s) = 6.41144 7.29773 6.86890
#
# Compressibility (1/GPa) = 0.02372379
#
# Stress axis : x y z
#
# Youngs Moduli (GPa) = 113.98862 39.24675 64.51721
#
# Poissons Ratio (x) = 0.26684 0.19788
# Poissons Ratio (y) = 0.77500 0.20311
# Poissons Ratio (z) = 0.34962 0.12356
#
# Static dielectric constant tensor:
#      x y z
#    x 1.722350 0.000000 0.000000 
#    y 0.000000 1.725730 0.000000 
#    z 0.000000 0.000000 1.631790 
# 
# From -- ./inp_files/6957.got.cif
#   From: 2010.05.17/outbox.cif.g08.bks.cpg/sg30_4_cif.got.tgz:6957.got - 2010.06.03 17:03:02.
