data_PCOD9342077
_publ_section_title
;
Structure prediction by ZEFSAII (Michael W. Deem and Ramdas Pophale) SiO2 
 PCOD9342077
Probable space group: P N C 2
;
_chemical_formula_sum "Si O2"
_cell_formula_units_Z 20
_cell_length_a 11.294572
_cell_length_b 13.062583
_cell_length_c 4.965615
_cell_angle_alpha 90.000000
_cell_angle_beta 90.000000
_cell_angle_gamma 90.000000
_cell_volume 732.608386
_symmetry_space_group_name_H-M "P N C 2"
_symmetry_group_IT_number 30
_symmetry_cell_setting 'orthorhombic'
loop_
_space_group_symop_operation_xyz
x,y,z
-x,-y,z
-x,1/2+y,1/2+z
x,1/2-y,1/2+z
loop_
_atom_site_type_symbol
_atom_site_label
_atom_site_fract_x
_atom_site_fract_y
_atom_site_fract_z
Si Si1 0.747870 0.002412 0.198670
Si Si2 0.500000 0.500000 0.669898
Si Si3 0.619780 0.319233 0.933750
Si Si4 0.000000 0.000000 0.216111
Si Si5 0.263019 0.195544 0.568472
Si Si6 0.016636 0.700079 0.074165
O O1 0.626961 0.996514 0.024021
O O2 0.736981 0.913642 0.423447
O O3 0.732184 0.110582 0.352882
O O4 0.875392 0.986934 0.062785
O O5 0.516373 0.399422 0.856870
O O6 0.616734 0.222967 0.732907
O O7 0.980216 0.095117 0.414473
O O8 0.315491 0.221347 0.859023
O O9 0.123607 0.218598 0.618206
O O10 0.067724 0.786350 0.871462
#
# Coordination Sequence:
#
# PCOD9342077 Si02
#       6
#     4   2   4   2   4   4
#     4   9  21  41  62 103 128 180 223 275 338 410
#     4   8  22  44  64 102 126 182 230 276 342 412
#     4  10  23  44  69  98 138 178 223 284 344 408
#     4  10  20  38  68  92 142 170 224 280 332 402
#     4   9  18  34  58  87 122 161 209 268 314 370
#     4   9  19  35  55  84 121 164 210 257 319 383
#
# _framework density 27.299713000000001
#
# number of rings (size 3 to 8) (size 9 to 14) (size 15 to 20)
#    1.200    1.600    0.000    0.000    0.000    6.400 
#    0.000    4.000    0.000    0.000    0.000    0.000 
#    0.000    0.000    0.000    0.000    0.000    0.000 
#
# Total GULP energy -111698.572747 kJ/mol
# GULP energy per Si atom -5584.928637 kJ/mol
# Density = 2.723758 g / cm^3
# Si number density = 27.299713 Si / 1000 Ang^3
#
#
#
# Elastic Constant Matrix: (Units=GPa)
#
#
# Indices 1 2 3 4 5 6 
#
# 1 207.0163 2.3739 1.6626 0.0000 0.0000 0.0000
# 2 2.3739 137.2024 14.9339 0.0000 0.0000 0.0000
# 3 1.6626 14.9339 97.8180 0.0000 0.0000 0.0000
# 4 0.0000 0.0000 0.0000 35.3757 0.0000 0.0000
# 5 0.0000 0.0000 0.0000 0.0000 6.0582 0.0000
# 6 0.0000 0.0000 0.0000 0.0000 0.0000 33.1651
#
#
#
# Elastic Compliance Matrix: (Units=1/GPa)
#
#
# Indices 1 2 3 4 5 6 
#
# 1 0.004832 -0.000076 -0.000071 0.000000 0.000000 0.000000
# 2 -0.000076 0.007413 -0.001130 0.000000 0.000000 0.000000
# 3 -0.000071 -0.001130 0.010397 0.000000 0.000000 0.000000
# 4 0.000000 0.000000 0.000000 0.028268 0.000000 0.000000
# 5 0.000000 0.000000 0.000000 0.000000 0.165066 0.000000
# 6 0.000000 0.000000 0.000000 0.000000 0.000000 0.030152
#
#
# Mechanical properties :
#
#
# Convention : Reuss Voigt Hill
#
# Bulk Modulus (GPa) = 49.78122 53.33082 51.55602
# Shear Modulus (GPa) = 19.57887 43.12420 31.35154
#
# Velocity S-wave (km/s) = 2.68093 3.97880 3.39251
# Velocity P-wave (km/s) = 5.27805 6.37852 5.85420
#
# Compressibility (1/GPa) = 0.02008790
#
# Stress axis : x y z
#
# Youngs Moduli (GPa) = 206.95469 134.90070 96.18296
#
# Poissons Ratio (x) = 0.01024 0.00678
# Poissons Ratio (y) = 0.01571 0.10873
# Poissons Ratio (z) = 0.01460 0.15250
#
# Static dielectric constant tensor:
#      x y z
#    x 2.261940 0.000000 0.000000 
#    y 0.000000 2.139570 0.000000 
#    z 0.000000 0.000000 2.019600 
# 
# From -- ./inp_files/659.got.cif
#   From: 2010.05.17/outbox.cif.g08.bks.cpg/sg30_1_cif.got.tgz:659.got - 2010.06.03 17:03:02.
