data_PCOD9342979
_publ_section_title
;
Structure prediction by ZEFSAII (Michael W. Deem and Ramdas Pophale) SiO2 
 PCOD9342979
Probable space group: P M N 21
;
_chemical_formula_sum "Si O2"
_cell_formula_units_Z 32
_cell_length_a 8.376907
_cell_length_b 12.239968
_cell_length_c 15.919044
_cell_angle_alpha 90.000000
_cell_angle_beta 90.000000
_cell_angle_gamma 90.000000
_cell_volume 1632.228510
_symmetry_space_group_name_H-M "P M N 21"
_symmetry_group_IT_number 31
_symmetry_cell_setting 'orthorhombic'
loop_
_space_group_symop_operation_xyz
x,y,z
1/2-x,-y,1/2+z
-x,y,z
1/2+x,-y,1/2+z
loop_
_atom_site_type_symbol
_atom_site_label
_atom_site_fract_x
_atom_site_fract_y
_atom_site_fract_z
Si Si1 0.690695 0.757341 0.942630
Si Si2 0.692055 0.773149 0.434985
Si Si3 0.190723 0.611074 0.095844
Si Si4 0.192896 0.001378 0.497220
Si Si5 0.806713 0.242739 0.749206
Si Si6 0.308764 0.228447 0.260297
Si Si7 0.305817 0.997831 0.192388
Si Si8 0.806366 0.359943 0.098169
O O1 0.500000 0.757998 0.946893
O O2 0.744949 0.729335 0.848932
O O3 0.747142 0.880841 0.963732
O O4 0.752594 0.675765 0.013598
O O5 0.500000 0.767407 0.435442
O O6 0.740220 0.899083 0.446570
O O7 0.746607 0.731152 0.343968
O O8 0.750459 0.704689 0.515136
O O9 0.248665 0.674915 0.178280
O O10 0.246745 0.485684 0.095764
O O11 0.000000 0.610216 0.095888
O O12 0.000000 0.998057 0.493969
O O13 0.241324 0.990337 0.594929
O O14 0.752878 0.119382 0.726715
O O15 0.000000 0.242893 0.747210
O O16 0.500000 0.227660 0.262744
O O17 0.253385 0.299883 0.181505
O O18 0.251450 0.103621 0.244001
O O19 0.500000 0.997444 0.194405
O O20 0.000000 0.357539 0.098589
#
# Coordination Sequence:
#
# PCOD9342979 Si02
#       8
#     4   4   4   4   4   4   4   4
#     4  11  23  40  62  88 123 159 191 238 299 355
#     4  10  21  37  61  88 116 152 192 240 294 352
#     4  11  24  41  60  84 117 156 204 253 289 342
#     4  10  19  35  59  87 120 155 190 235 292 354
#     4  10  20  38  61  86 118 154 193 238 297 354
#     4  11  22  38  63  91 119 154 198 243 290 352
#     4   9  17  33  57  86 120 152 187 237 292 351
#     4  10  23  42  59  84 121 156 197 248 297 342
#
# _framework density 19.605098000000002
#
# number of rings (size 3 to 8) (size 9 to 14) (size 15 to 20)
#    0.000    1.750    2.500    1.875    0.000    4.500 
#    0.000    2.500    0.000    0.000    0.000    0.000 
#    0.000    0.000    0.000    0.000    0.000    0.000 
#
# Total GULP energy -178804.019721 kJ/mol
# GULP energy per Si atom -5587.625616 kJ/mol
# Density = 1.956048 g / cm^3
# Si number density = 19.605098 Si / 1000 Ang^3
#
#
#
# Elastic Constant Matrix: (Units=GPa)
#
#
# Indices 1 2 3 4 5 6 
#
# 1 12.3833 14.4375 13.3523 0.0000 0.0000 0.0000
# 2 14.4375 124.1316 38.0995 0.0000 0.0000 0.0000
# 3 13.3523 38.0995 116.4487 0.0000 0.0000 0.0000
# 4 0.0000 0.0000 0.0000 -0.2537 0.0000 0.0000
# 5 0.0000 0.0000 0.0000 0.0000 8.5329 0.0000
# 6 0.0000 0.0000 0.0000 0.0000 0.0000 7.6842
#
#
#
# Elastic Compliance Matrix: (Units=1/GPa)
#
#
# Indices 1 2 3 4 5 6 
#
# 1 0.100559 -0.009067 -0.008564 0.000000 0.000000 0.000000
# 2 -0.009067 0.009773 -0.002158 0.000000 0.000000 0.000000
# 3 -0.008564 -0.002158 0.010275 0.000000 0.000000 0.000000
# 4 0.000000 0.000000 0.000000 -3.941895 0.000000 0.000000
# 5 0.000000 0.000000 0.000000 0.000000 0.117193 0.000000
# 6 0.000000 0.000000 0.000000 0.000000 0.000000 0.130137
#
#
# Mechanical properties :
#
#
# Convention : Reuss Voigt Hill
#
# Bulk Modulus (GPa) = 12.34115 42.74912 27.54513
# Shear Modulus (GPa) = -1.42557 15.66431 7.11937
#
# Velocity S-wave (km/s) = -0.85365 2.82971 1.90769
# Velocity P-wave (km/s) = 2.31017 5.70340 4.35119
#
# Compressibility (1/GPa) = 0.08102975
#
# Stress axis : x y z
#
# Youngs Moduli (GPa) = 9.94439 102.32420 97.31995
#
# Poissons Ratio (x) = 0.92781 0.83342
# Poissons Ratio (y) = 0.09017 0.21000
# Poissons Ratio (z) = 0.08516 0.22079
#
# Static dielectric constant tensor:
#      x y z
#    x 1.674440 0.000000 0.000000 
#    y 0.000000 1.672300 0.000000 
#    z 0.000000 0.000000 1.674580 
# 
# From -- ./inp_files/4989.got.cif
#   From: 2010.05.17/outbox.cif.g08.bks.cpg/sg31_3_cif.got.tgz:4989.got - 2010.06.03 17:08:30.
