data_PCOD9342742
_publ_section_title
;
Structure prediction by ZEFSAII (Michael W. Deem and Ramdas Pophale) SiO2 
 PCOD9342742
Probable space group: P M N 21
;
_chemical_formula_sum "Si O2"
_cell_formula_units_Z 32
_cell_length_a 8.913034
_cell_length_b 10.905222
_cell_length_c 14.480560
_cell_angle_alpha 90.000000
_cell_angle_beta 90.000000
_cell_angle_gamma 90.000000
_cell_volume 1407.490369
_symmetry_space_group_name_H-M "P M N 21"
_symmetry_group_IT_number 31
_symmetry_cell_setting 'orthorhombic'
loop_
_space_group_symop_operation_xyz
x,y,z
1/2-x,-y,1/2+z
-x,y,z
1/2+x,-y,1/2+z
loop_
_atom_site_type_symbol
_atom_site_label
_atom_site_fract_x
_atom_site_fract_y
_atom_site_fract_z
Si Si1 0.679535 0.195661 0.301790
Si Si2 0.173995 0.316114 0.141384
Si Si3 0.682648 0.297993 0.697012
Si Si4 0.672915 0.430490 0.525704
Si Si5 0.321410 0.950330 0.184303
Si Si6 0.327833 0.445172 0.861626
Si Si7 0.321402 0.054440 0.480944
Si Si8 0.327826 0.188362 0.973187
O O1 0.500000 0.217140 0.299834
O O2 0.763751 0.302087 0.245095
O O3 0.722211 0.158729 0.406463
O O4 0.712541 0.072975 0.241475
O O5 0.179072 0.448431 0.091441
O O6 0.273205 0.230911 0.074388
O O7 0.000000 0.277119 0.140005
O O8 0.500000 0.298703 0.699171
O O9 0.732799 0.325038 0.592485
O O10 0.742811 0.168032 0.728418
O O11 0.737902 0.406922 0.763247
O O12 0.500000 0.403827 0.505787
O O13 0.750468 0.461152 0.430215
O O14 0.500000 0.935550 0.183576
O O15 0.259481 0.949982 0.079673
O O16 0.500000 0.482473 0.848745
O O17 0.324234 0.312777 0.913799
O O18 0.500000 0.064129 0.494956
O O19 0.278836 0.920793 0.439797
O O20 0.500000 0.145016 0.976006
#
# Coordination Sequence:
#
# PCOD9342742 Si02
#       8
#     4   4   4   4   4   4   4   4
#     4  10  22  38  56  82 118 152 186 235 288 342
#     4  10  19  33  56  81 107 145 189 232 285 339
#     4  10  21  40  61  83 118 156 192 237 291 347
#     4   9  20  38  59  84 115 148 189 243 290 337
#     4  11  23  39  59  86 119 153 191 240 287 340
#     4   9  19  35  59  87 113 150 196 240 287 341
#     4  11  22  36  55  82 116 156 190 227 289 350
#     4  10  18  31  53  81 112 144 187 240 283 330
#
# _framework density 22.735503000000001
#
# number of rings (size 3 to 8) (size 9 to 14) (size 15 to 20)
#    0.000    2.000    1.250    2.250    0.000    3.500 
#    2.250    0.000    0.000    0.000    0.000    0.000 
#    0.000    0.000    0.000    0.000    0.000    0.000 
#
# Total GULP energy -178856.259161 kJ/mol
# GULP energy per Si atom -5589.258099 kJ/mol
# Density = 2.268376 g / cm^3
# Si number density = 22.735503 Si / 1000 Ang^3
#
#
#
# Elastic Constant Matrix: (Units=GPa)
#
#
# Indices 1 2 3 4 5 6 
#
# 1 29.5814 6.0739 21.0273 0.0000 0.0000 0.0000
# 2 6.0739 57.8049 6.5583 0.0000 0.0000 0.0000
# 3 21.0273 6.5583 124.0948 0.0000 0.0000 0.0000
# 4 0.0000 0.0000 0.0000 43.6459 0.0000 0.0000
# 5 0.0000 0.0000 0.0000 0.0000 24.0700 0.0000
# 6 0.0000 0.0000 0.0000 0.0000 0.0000 -21.1968
#
#
#
# Elastic Compliance Matrix: (Units=1/GPa)
#
#
# Indices 1 2 3 4 5 6 
#
# 1 0.039078 -0.003375 -0.006443 0.000000 0.000000 0.000000
# 2 -0.003375 0.017695 -0.000363 0.000000 0.000000 0.000000
# 3 -0.006443 -0.000363 0.009169 0.000000 0.000000 0.000000
# 4 0.000000 0.000000 0.000000 0.022912 0.000000 0.000000
# 5 0.000000 0.000000 0.000000 0.000000 0.041545 0.000000
# 6 0.000000 0.000000 0.000000 0.000000 0.000000 -0.047177
#
#
# Mechanical properties :
#
#
# Convention : Reuss Voigt Hill
#
# Bulk Modulus (GPa) = 21.93968 30.97778 26.45873
# Shear Modulus (GPa) = 42.09481 21.15860 31.62670
#
# Velocity S-wave (km/s) = 4.30758 3.05395 3.73375
# Velocity P-wave (km/s) = 5.86611 5.10787 5.50007
#
# Compressibility (1/GPa) = 0.04557952
#
# Stress axis : x y z
#
# Youngs Moduli (GPa) = 25.58980 56.51175 109.05921
#
# Poissons Ratio (x) = 0.19074 0.70269
# Poissons Ratio (y) = 0.08637 0.03962
# Poissons Ratio (z) = 0.16488 0.02053
#
# Static dielectric constant tensor:
#      x y z
#    x 1.756880 0.000000 0.000000 
#    y 0.000000 1.910590 0.000000 
#    z 0.000000 0.000000 1.896080 
# 
# From -- ./inp_files/4968.got.cif
#   From: 2010.05.17/outbox.cif.g08.bks.cpg/sg31_3_cif.got.tgz:4968.got - 2010.06.03 17:08:30.
