data_PCOD9342972
_publ_section_title
;
Structure prediction by ZEFSAII (Michael W. Deem and Ramdas Pophale) SiO2 
 PCOD9342972
Probable space group: P M N 21
;
_chemical_formula_sum "Si O2"
_cell_formula_units_Z 32
_cell_length_a 8.947220
_cell_length_b 10.299016
_cell_length_c 19.787844
_cell_angle_alpha 90.000000
_cell_angle_beta 90.000000
_cell_angle_gamma 90.000000
_cell_volume 1823.401581
_symmetry_space_group_name_H-M "P M N 21"
_symmetry_group_IT_number 31
_symmetry_cell_setting 'orthorhombic'
loop_
_space_group_symop_operation_xyz
x,y,z
1/2-x,-y,1/2+z
-x,y,z
1/2+x,-y,1/2+z
loop_
_atom_site_type_symbol
_atom_site_label
_atom_site_fract_x
_atom_site_fract_y
_atom_site_fract_z
Si Si1 0.820842 0.216684 0.450060
Si Si2 0.320617 0.521730 0.307057
Si Si3 0.820617 0.521730 0.449010
Si Si4 0.179158 0.783316 0.806006
Si Si5 0.178224 0.128934 0.169996
Si Si6 0.677232 0.636616 0.166731
Si Si7 0.822768 0.636619 0.589336
Si Si8 0.321776 0.128936 0.586071
O O1 0.782035 0.369768 0.461380
O O2 0.749999 0.179373 0.378033
O O3 0.756569 0.137783 0.513150
O O4 0.000000 0.206402 0.447418
O O5 0.500000 0.527233 0.311513
O O6 0.250001 0.561050 0.378034
O O7 0.282033 0.369768 0.294687
O O8 0.274583 0.608929 0.243622
O O9 0.774583 0.608928 0.512445
O O10 0.000000 0.527234 0.444554
O O11 0.243432 0.862216 0.742916
O O12 0.000000 0.793597 0.808647
O O13 0.232646 0.252157 0.126784
O O14 0.000000 0.132803 0.179254
O O15 0.217392 0.999998 0.128034
O O16 0.500000 0.669040 0.165362
O O17 0.693411 0.499998 0.128034
O O18 0.767355 0.747839 0.129281
O O19 0.000000 0.669042 0.590704
O O20 0.500000 0.132805 0.576812
#
# Coordination Sequence:
#
# PCOD9342972 Si02
#       8
#     4   4   4   4   4   4   4   4
#     4  10  19  35  58  84 113 146 186 232 281 336
#     4   9  18  32  53  82 113 142 178 229 280 335
#     4   9  18  32  53  82 113 142 178 229 280 335
#     4  10  19  35  58  84 113 146 186 232 281 336
#     4  11  24  39  55  82 117 152 193 236 278 333
#     4  10  19  36  58  82 111 144 186 232 283 339
#     4  10  19  36  58  82 111 144 186 232 283 339
#     4  11  24  39  55  82 117 152 193 236 278 333
#
# _framework density 17.549617000000001
#
# number of rings (size 3 to 8) (size 9 to 14) (size 15 to 20)
#    0.000    2.000    2.500    1.500    0.000    4.500 
#    0.000    1.250    0.000    3.000    0.000    0.000 
#    0.000    0.000    0.000    0.000    0.000    0.000 
#
# Total GULP energy -178631.880428 kJ/mol
# GULP energy per Si atom -5582.246263 kJ/mol
# Density = 1.750967 g / cm^3
# Si number density = 17.549617 Si / 1000 Ang^3
#
#
#
# Elastic Constant Matrix: (Units=GPa)
#
#
# Indices 1 2 3 4 5 6 
#
# 1 46.2325 37.6419 59.1095 0.0000 0.0000 0.0000
# 2 37.6419 61.0325 55.4589 0.0000 0.0000 0.0000
# 3 59.1095 55.4589 179.2012 0.0000 0.0000 0.0000
# 4 0.0000 0.0000 0.0000 25.5626 0.0000 0.0000
# 5 0.0000 0.0000 0.0000 0.0000 36.7896 0.0000
# 6 0.0000 0.0000 0.0000 0.0000 0.0000 55.2956
#
#
#
# Elastic Compliance Matrix: (Units=1/GPa)
#
#
# Indices 1 2 3 4 5 6 
#
# 1 0.054941 -0.024232 -0.010623 0.000000 0.000000 0.000000
# 2 -0.024232 0.033483 -0.002369 0.000000 0.000000 0.000000
# 3 -0.010623 -0.002369 0.009818 0.000000 0.000000 0.000000
# 4 0.000000 0.000000 0.000000 0.039120 0.000000 0.000000
# 5 0.000000 0.000000 0.000000 0.000000 0.027182 0.000000
# 6 0.000000 0.000000 0.000000 0.000000 0.000000 0.018085
#
#
# Mechanical properties :
#
#
# Convention : Reuss Voigt Hill
#
# Bulk Modulus (GPa) = 42.02969 65.65408 53.84188
# Shear Modulus (GPa) = 18.86738 32.47994 25.67366
#
# Velocity S-wave (km/s) = 3.28241 4.30670 3.82896
# Velocity P-wave (km/s) = 6.19408 7.88809 7.09185
#
# Compressibility (1/GPa) = 0.02379271
#
# Stress axis : x y z
#
# Youngs Moduli (GPa) = 18.20124 29.86599 101.85852
#
# Poissons Ratio (x) = 0.72372 1.08205
# Poissons Ratio (y) = 0.44106 0.24132
# Poissons Ratio (z) = 0.19335 0.07076
#
# Static dielectric constant tensor:
#      x y z
#    x 1.586200 0.000000 0.000000 
#    y 0.000000 1.574130 0.000000 
#    z 0.000000 0.000000 1.599760 
# 
# From -- ./inp_files/5869.got.cif
#   From: 2010.05.17/outbox.cif.g08.bks.cpg/sg31_3_cif.got.tgz:5869.got - 2010.06.03 17:08:30.
