data_PCOD9342576
_publ_section_title
;
Structure prediction by ZEFSAII (Michael W. Deem and Ramdas Pophale) SiO2 
 PCOD9342576
Probable space group: P N C 2
;
_chemical_formula_sum "Si O2"
_cell_formula_units_Z 22
_cell_length_a 8.817451
_cell_length_b 7.951853
_cell_length_c 14.090106
_cell_angle_alpha 90.000000
_cell_angle_beta 90.000000
_cell_angle_gamma 90.000000
_cell_volume 987.928827
_symmetry_space_group_name_H-M "P N C 2"
_symmetry_group_IT_number 30
_symmetry_cell_setting 'orthorhombic'
loop_
_space_group_symop_operation_xyz
x,y,z
-x,-y,z
-x,1/2+y,1/2+z
x,1/2-y,1/2+z
loop_
_atom_site_type_symbol
_atom_site_label
_atom_site_fract_x
_atom_site_fract_y
_atom_site_fract_z
Si Si1 0.178664 0.960319 0.895080
Si Si2 0.000000 0.500000 0.736857
Si Si3 0.500000 0.000000 0.430238
Si Si4 0.792479 0.214621 0.690980
Si Si5 0.797058 0.661355 0.889011
Si Si6 0.589504 0.324949 0.543723
Si Si7 0.000000 0.500000 0.051472
O O1 0.203175 0.859750 0.796792
O O2 0.252482 0.145563 0.888674
O O3 0.259590 0.861496 0.980295
O O4 0.000000 0.000000 0.909189
O O5 0.120125 0.608965 0.682170
O O6 0.089126 0.369070 0.802625
O O7 0.657882 0.968349 0.376584
O O8 0.490475 0.830835 0.492012
O O9 0.629548 0.254781 0.647573
O O10 0.882051 0.091532 0.620490
O O11 0.896246 0.615214 0.982287
O O12 0.500000 0.500000 0.547568
#
# Coordination Sequence:
#
# PCOD9342576 Si02
#       7
#     4   2   2   4   4   4   2
#     4  12  24  49  77 107 145 198 257 312 372 444
#     4  11  24  44  67 112 138 186 257 306 363 440
#     4  12  24  48  74 102 154 196 238 296 380 462
#     4  12  25  44  75 111 144 189 256 313 370 441
#     4  11  23  44  76 101 148 197 240 308 378 435
#     4  12  28  51  73 110 153 201 246 305 384 453
#     4  11  22  42  73 112 144 190 249 316 361 432
#
# _framework density 22.268810999999999
#
# number of rings (size 3 to 8) (size 9 to 14) (size 15 to 20)
#    0.000    0.364    6.364    2.182    3.818    0.000 
#   11.455    0.000    0.000    0.000    0.000    0.000 
#    0.000    0.000    0.000    0.000    0.000    0.000 
#
# Total GULP energy -123019.919042 kJ/mol
# GULP energy per Si atom -5591.814502 kJ/mol
# Density = 2.221813 g / cm^3
# Si number density = 22.268811 Si / 1000 Ang^3
#
#
#
# Elastic Constant Matrix: (Units=GPa)
#
#
# Indices 1 2 3 4 5 6 
#
# 1 67.5096 7.4813 26.4341 0.0000 0.0000 0.0000
# 2 7.4813 115.2626 19.6767 0.0000 0.0000 0.0000
# 3 26.4341 19.6767 84.5001 0.0000 0.0000 0.0000
# 4 0.0000 0.0000 0.0000 3.6404 0.0000 0.0000
# 5 0.0000 0.0000 0.0000 0.0000 18.0438 0.0000
# 6 0.0000 0.0000 0.0000 0.0000 0.0000 43.0672
#
#
#
# Elastic Compliance Matrix: (Units=1/GPa)
#
#
# Indices 1 2 3 4 5 6 
#
# 1 0.016885 -0.000202 -0.005235 0.000000 0.000000 0.000000
# 2 -0.000202 0.009037 -0.002041 0.000000 0.000000 0.000000
# 3 -0.005235 -0.002041 0.013947 0.000000 0.000000 0.000000
# 4 0.000000 0.000000 0.000000 0.274695 0.000000 0.000000
# 5 0.000000 0.000000 0.000000 0.000000 0.055421 0.000000
# 6 0.000000 0.000000 0.000000 0.000000 0.000000 0.023220
#
#
# Mechanical properties :
#
#
# Convention : Reuss Voigt Hill
#
# Bulk Modulus (GPa) = 40.14011 41.60629 40.87320
# Shear Modulus (GPa) = 12.00580 27.19564 19.60072
#
# Velocity S-wave (km/s) = 2.32444 3.49842 2.97001
# Velocity P-wave (km/s) = 5.02677 5.91970 5.49141
#
# Compressibility (1/GPa) = 0.02491274
#
# Stress axis : x y z
#
# Youngs Moduli (GPa) = 59.22436 110.65101 71.69861
#
# Poissons Ratio (x) = 0.02238 0.37534
# Poissons Ratio (y) = 0.01198 0.14635
# Poissons Ratio (z) = 0.31004 0.22586
#
# Static dielectric constant tensor:
#      x y z
#    x 1.844410 0.000000 0.000000 
#    y 0.000000 1.827640 0.000000 
#    z 0.000000 0.000000 1.814860 
# 
# From -- ./inp_files/4976.got.cif
#   From: 2010.05.17/outbox.cif.g08.bks.cpg/sg30_3_cif.got.tgz:4976.got - 2010.06.03 17:03:02.
