data_PCOD9342096
_publ_section_title
;
Structure prediction by ZEFSAII (Michael W. Deem and Ramdas Pophale) SiO2 
 PCOD9342096
Probable space group: P N C 2
;
_chemical_formula_sum "Si O2"
_cell_formula_units_Z 22
_cell_length_a 13.121632
_cell_length_b 5.494363
_cell_length_c 12.292044
_cell_angle_alpha 90.000000
_cell_angle_beta 90.000000
_cell_angle_gamma 90.000000
_cell_volume 886.195027
_symmetry_space_group_name_H-M "P N C 2"
_symmetry_group_IT_number 30
_symmetry_cell_setting 'orthorhombic'
loop_
_space_group_symop_operation_xyz
x,y,z
-x,-y,z
-x,1/2+y,1/2+z
x,1/2-y,1/2+z
loop_
_atom_site_type_symbol
_atom_site_label
_atom_site_fract_x
_atom_site_fract_y
_atom_site_fract_z
Si Si1 0.716405 0.971764 0.323060
Si Si2 0.289861 0.794524 0.040996
Si Si3 0.146218 0.804927 0.706290
Si Si4 0.150054 0.384625 0.415117
Si Si5 0.500000 0.500000 0.834676
Si Si6 0.500000 0.500000 0.475136
Si Si7 0.000000 0.000000 0.528374
O O1 0.744138 0.707574 0.362368
O O2 0.711100 0.130384 0.432783
O O3 0.814799 0.049610 0.254333
O O4 0.606533 0.008572 0.271683
O O5 0.194903 0.976212 0.019068
O O6 0.396581 0.936169 0.040491
O O7 0.252892 0.628364 0.142437
O O8 0.062734 0.836218 0.613756
O O9 0.112718 0.948907 0.815204
O O10 0.073021 0.174615 0.455983
O O11 0.487887 0.250259 0.904929
#
# Coordination Sequence:
#
# PCOD9342096 Si02
#       7
#     4   4   4   4   2   2   2
#     4  10  22  44  71 107 147 196 245 306 375 461
#     4  10  22  45  72 107 152 196 245 317 376 462
#     4  11  27  44  72 107 141 191 257 304 378 459
#     4  11  25  48  72 105 146 189 252 317 383 457
#     4  10  20  41  76 109 156 208 242 317 392 457
#     4  10  20  39  78 109 152 208 254 299 396 461
#     4  12  28  48  76 100 148 204 246 332 386 450
#
# _framework density 24.825237000000001
#
# number of rings (size 3 to 8) (size 9 to 14) (size 15 to 20)
#    0.000    1.455    3.636    0.000    5.091    1.455 
#    0.000    0.000    4.000    0.000    0.000    0.000 
#    0.000    0.000    0.000    0.000    0.000    0.000 
#
# Total GULP energy -122550.598419 kJ/mol
# GULP energy per Si atom -5570.481746 kJ/mol
# Density = 2.476873 g / cm^3
# Si number density = 24.825237 Si / 1000 Ang^3
#
#
#
# Elastic Constant Matrix: (Units=GPa)
#
#
# Indices 1 2 3 4 5 6 
#
# 1 158.5332 34.8298 38.5901 0.0000 0.0000 0.0000
# 2 34.8298 67.8211 33.9025 0.0000 0.0000 0.0000
# 3 38.5901 33.9025 138.2243 0.0000 0.0000 0.0000
# 4 0.0000 0.0000 0.0000 -19.4772 0.0000 0.0000
# 5 0.0000 0.0000 0.0000 0.0000 8.8962 0.0000
# 6 0.0000 0.0000 0.0000 0.0000 0.0000 45.4036
#
#
#
# Elastic Compliance Matrix: (Units=1/GPa)
#
#
# Indices 1 2 3 4 5 6 
#
# 1 0.007302 -0.003113 -0.001275 0.000000 0.000000 0.000000
# 2 -0.003113 0.018132 -0.003578 0.000000 0.000000 0.000000
# 3 -0.001275 -0.003578 0.008468 0.000000 0.000000 0.000000
# 4 0.000000 0.000000 0.000000 -0.051342 0.000000 0.000000
# 5 0.000000 0.000000 0.000000 0.000000 0.112408 0.000000
# 6 0.000000 0.000000 0.000000 0.000000 0.000000 0.022025
#
#
# Mechanical properties :
#
#
# Convention : Reuss Voigt Hill
#
# Bulk Modulus (GPa) = 55.64780 64.35817 60.00298
# Shear Modulus (GPa) = 35.99326 24.11491 30.05408
#
# Velocity S-wave (km/s) = 3.81184 3.12009 3.48318
# Velocity P-wave (km/s) = 6.46823 6.24185 6.35605
#
# Compressibility (1/GPa) = 0.01797016
#
# Stress axis : x y z
#
# Youngs Moduli (GPa) = 136.94745 55.15159 118.08771
#
# Poissons Ratio (x) = 0.17166 0.15059
# Poissons Ratio (y) = 0.42626 0.42255
# Poissons Ratio (z) = 0.17464 0.19735
#
# Static dielectric constant tensor:
#      x y z
#    x 2.017480 0.000000 0.000000 
#    y 0.000000 2.062550 0.000000 
#    z 0.000000 0.000000 2.060400 
# 
# From -- ./inp_files/4314.got.cif
#   From: 2010.05.17/outbox.cif.g08.bks.cpg/sg30_3_cif.got.tgz:4314.got - 2010.06.03 17:03:02.
