data_PCOD9342045
_publ_section_title
;
Structure prediction by ZEFSAII (Michael W. Deem and Ramdas Pophale) SiO2 
 PCOD9342045
Probable space group: P N C 2
;
_chemical_formula_sum "Si O2"
_cell_formula_units_Z 32
_cell_length_a 9.638238
_cell_length_b 8.956329
_cell_length_c 20.239951
_cell_angle_alpha 90.000000
_cell_angle_beta 90.000000
_cell_angle_gamma 90.000000
_cell_volume 1747.177956
_symmetry_space_group_name_H-M "P N C 2"
_symmetry_group_IT_number 30
_symmetry_cell_setting 'orthorhombic'
loop_
_space_group_symop_operation_xyz
x,y,z
-x,-y,z
-x,1/2+y,1/2+z
x,1/2-y,1/2+z
loop_
_atom_site_type_symbol
_atom_site_label
_atom_site_fract_x
_atom_site_fract_y
_atom_site_fract_z
Si Si1 0.885102 0.372048 0.330030
Si Si2 0.637344 0.891612 0.661277
Si Si3 0.780949 0.889052 0.194183
Si Si4 0.354543 0.419490 0.316857
Si Si5 0.845779 0.434556 0.075201
Si Si6 0.649912 0.578043 0.837880
Si Si7 0.096977 0.789938 0.190751
Si Si8 0.864198 0.103428 0.426976
O O1 0.752896 0.469268 0.349324
O O2 0.864395 0.277448 0.262523
O O3 0.907607 0.251783 0.387416
O O4 0.000000 0.500000 0.319172
O O5 0.659047 0.709317 0.659464
O O6 0.684810 0.912102 0.738252
O O7 0.500000 0.000000 0.656546
O O8 0.735577 0.946887 0.602414
O O9 0.729435 0.920979 0.268207
O O10 0.928744 0.801866 0.191804
O O11 0.830024 0.053529 0.173193
O O12 0.500000 0.500000 0.319058
O O13 0.361796 0.256294 0.349507
O O14 0.851541 0.316929 0.133753
O O15 0.000000 0.500000 0.072061
O O16 0.816675 0.372021 0.002389
O O17 0.500000 0.500000 0.832298
O O18 0.743161 0.485659 0.888849
O O19 0.000000 0.000000 0.426939
#
# Coordination Sequence:
#
# PCOD9342045 Si02
#       8
#     4   4   4   4   4   4   4   4
#     4  12  21  36  62  89 121 157 204 262 309 363
#     4  10  20  37  59  90 125 160 207 259 316 383
#     4  10  21  35  61  96 123 153 210 266 318 364
#     4  10  21  35  59  92 119 155 201 258 311 367
#     4  11  22  40  62  86 123 169 212 253 313 384
#     4  11  22  39  62  90 128 162 203 262 324 376
#     4  11  20  36  64  93 122 156 209 269 313 364
#     4  11  24  41  59  90 128 167 212 256 313 378
#
# _framework density 18.315249999999999
#
# number of rings (size 3 to 8) (size 9 to 14) (size 15 to 20)
#    0.000    1.250    3.750    4.125    0.000    1.500 
#    2.250    1.250    0.000    1.500    0.000    0.875 
#    0.000    0.000    0.000    0.000    0.000    0.000 
#
# Total GULP energy -178153.447650 kJ/mol
# GULP energy per Si atom -5567.295239 kJ/mol
# Density = 1.827356 g / cm^3
# Si number density = 18.315250 Si / 1000 Ang^3
#
#
#
# Elastic Constant Matrix: (Units=GPa)
#
#
# Indices 1 2 3 4 5 6 
#
# 1 40.3845 14.2469 11.5871 0.0000 0.0000 0.0000
# 2 14.2469 100.0414 33.4472 0.0000 0.0000 0.0000
# 3 11.5871 33.4472 94.2811 0.0000 0.0000 0.0000
# 4 0.0000 0.0000 0.0000 17.1158 0.0000 0.0000
# 5 0.0000 0.0000 0.0000 0.0000 -118.7628 0.0000
# 6 0.0000 0.0000 0.0000 0.0000 0.0000 34.1961
#
#
#
# Elastic Compliance Matrix: (Units=1/GPa)
#
#
# Indices 1 2 3 4 5 6 
#
# 1 0.026458 -0.003042 -0.002173 0.000000 0.000000 0.000000
# 2 -0.003042 0.011691 -0.003774 0.000000 0.000000 0.000000
# 3 -0.002173 -0.003774 0.012212 0.000000 0.000000 0.000000
# 4 0.000000 0.000000 0.000000 0.058425 0.000000 0.000000
# 5 0.000000 0.000000 0.000000 0.000000 -0.008420 0.000000
# 6 0.000000 0.000000 0.000000 0.000000 0.000000 0.029243
#
#
# Mechanical properties :
#
#
# Convention : Reuss Voigt Hill
#
# Bulk Modulus (GPa) = 30.87780 39.25214 35.06497
# Shear Modulus (GPa) = 31.56954 -1.79511 14.88722
#
# Velocity S-wave (km/s) = 4.15622 -0.99108 2.85411
# Velocity P-wave (km/s) = 6.31885 4.49091 5.48161
#
# Compressibility (1/GPa) = 0.03238572
#
# Stress axis : x y z
#
# Youngs Moduli (GPa) = 37.79526 85.53856 81.88447
#
# Poissons Ratio (x) = 0.26017 0.17791
# Poissons Ratio (y) = 0.11495 0.30900
# Poissons Ratio (z) = 0.08212 0.32279
#
# Static dielectric constant tensor:
#      x y z
#    x 3.092070 0.000000 0.000000 
#    y 0.000000 1.720740 0.000000 
#    z 0.000000 0.000000 1.608960 
# 
# From -- ./inp_files/6960.got.cif
#   From: 2010.05.17/outbox.cif.g08.bks.cpg/sg30_4_cif.got.tgz:6960.got - 2010.06.03 17:03:02.
