data_PCOD9342924
_publ_section_title
;
Structure prediction by ZEFSAII (Michael W. Deem and Ramdas Pophale) SiO2 
 PCOD9342924
Probable space group: P M N 21
;
_chemical_formula_sum "Si O2"
_cell_formula_units_Z 32
_cell_length_a 15.003553
_cell_length_b 11.592421
_cell_length_c 8.858714
_cell_angle_alpha 90.000000
_cell_angle_beta 90.000000
_cell_angle_gamma 90.000000
_cell_volume 1540.774005
_symmetry_space_group_name_H-M "P M N 21"
_symmetry_group_IT_number 31
_symmetry_cell_setting 'orthorhombic'
loop_
_space_group_symop_operation_xyz
x,y,z
1/2-x,-y,1/2+z
-x,y,z
1/2+x,-y,1/2+z
loop_
_atom_site_type_symbol
_atom_site_label
_atom_site_fract_x
_atom_site_fract_y
_atom_site_fract_z
Si Si1 0.597454 0.075833 0.154050
Si Si2 0.894409 0.641836 0.287873
Si Si3 0.106003 0.210794 0.143910
Si Si4 0.275919 0.588616 0.789477
Si Si5 0.256639 0.254777 0.570201
Si Si6 0.660032 0.868382 0.312791
Si Si7 0.104268 0.673592 0.644041
Si Si8 0.193858 0.044637 0.379432
O O1 0.500000 0.109091 0.102282
O O2 0.633834 0.199609 0.204890
O O3 0.592978 0.970977 0.270868
O O4 0.645056 0.021090 0.012537
O O5 0.831739 0.528632 0.285018
O O6 0.846462 0.725079 0.166388
O O7 0.888902 0.682085 0.462377
O O8 0.000000 0.622916 0.254835
O O9 0.162272 0.319582 0.201519
O O10 0.131215 0.108461 0.260105
O O11 0.000000 0.231057 0.144476
O O12 0.139467 0.178802 0.976988
O O13 0.178129 0.587268 0.711588
O O14 0.261730 0.638045 0.958791
O O15 0.176166 0.231551 0.690138
O O16 0.252865 0.141766 0.463900
O O17 0.749158 0.945415 0.302678
O O18 0.000000 0.646963 0.682606
#
# Coordination Sequence:
#
# PCOD9342924 Si02
#       8
#     4   4   4   4   4   4   4   4
#     4  10  19  34  55  82 115 151 190 240 293 349
#     4  11  23  41  63  89 118 156 205 257 309 360
#     4  11  22  36  57  87 120 162 208 250 298 363
#     4  11  22  41  63  86 122 161 201 255 308 357
#     4  10  22  37  60  87 115 157 200 245 300 360
#     4  11  21  37  58  86 121 159 196 240 296 356
#     4  10  22  39  63  90 119 157 204 253 305 363
#     4  10  20  35  55  81 118 159 198 242 297 354
#
# _framework density 20.768784
#
# number of rings (size 3 to 8) (size 9 to 14) (size 15 to 20)
#    0.000    1.500    0.000    7.125    0.000    0.500 
#    0.000    6.250    0.000    6.750    0.000    0.000 
#    0.000    0.000    0.000    0.000    0.000    0.000 
#
# Total GULP energy -178528.493450 kJ/mol
# GULP energy per Si atom -5579.015420 kJ/mol
# Density = 2.072151 g / cm^3
# Si number density = 20.768784 Si / 1000 Ang^3
#
#
#
# Elastic Constant Matrix: (Units=GPa)
#
#
# Indices 1 2 3 4 5 6 
#
# 1 106.3173 46.7859 54.9851 0.0000 0.0000 0.0000
# 2 46.7859 58.3988 24.1715 0.0000 0.0000 0.0000
# 3 54.9851 24.1715 89.9469 0.0000 0.0000 0.0000
# 4 0.0000 0.0000 0.0000 7.3568 0.0000 0.0000
# 5 0.0000 0.0000 0.0000 0.0000 18.9016 0.0000
# 6 0.0000 0.0000 0.0000 0.0000 0.0000 23.3416
#
#
#
# Elastic Compliance Matrix: (Units=1/GPa)
#
#
# Indices 1 2 3 4 5 6 
#
# 1 0.018881 -0.011644 -0.008413 0.000000 0.000000 0.000000
# 2 -0.011644 0.026448 0.000011 0.000000 0.000000 0.000000
# 3 -0.008413 0.000011 0.016258 0.000000 0.000000 0.000000
# 4 0.000000 0.000000 0.000000 0.135929 0.000000 0.000000
# 5 0.000000 0.000000 0.000000 0.000000 0.052906 0.000000
# 6 0.000000 0.000000 0.000000 0.000000 0.000000 0.042842
#
#
# Mechanical properties :
#
#
# Convention : Reuss Voigt Hill
#
# Bulk Modulus (GPa) = 46.52490 56.28313 51.40401
# Shear Modulus (GPa) = 14.68341 18.50135 16.59238
#
# Velocity S-wave (km/s) = 2.66182 2.98791 2.82957
# Velocity P-wave (km/s) = 5.64775 6.24997 5.95648
#
# Compressibility (1/GPa) = 0.02149387
#
# Stress axis : x y z
#
# Youngs Moduli (GPa) = 52.96352 37.81019 61.50966
#
# Poissons Ratio (x) = 0.44027 0.51747
# Poissons Ratio (y) = 0.61672 -0.00067
# Poissons Ratio (z) = 0.44557 -0.00041
#
# Static dielectric constant tensor:
#      x y z
#    x 1.692040 0.000000 0.000000 
#    y 0.000000 1.886550 0.000000 
#    z 0.000000 0.000000 1.751690 
# 
# From -- ./inp_files/2565.got.cif
#   From: 2010.05.17/outbox.cif.g08.bks.cpg/sg31_2_cif.got.tgz:2565.got - 2010.06.03 17:08:30.
