data_PCOD9342177
_publ_section_title
;
Structure prediction by ZEFSAII (Michael W. Deem and Ramdas Pophale) SiO2 
 PCOD9342177
Probable space group: P N C 2
;
_chemical_formula_sum "Si O2"
_cell_formula_units_Z 30
_cell_length_a 12.574091
_cell_length_b 5.751155
_cell_length_c 16.274932
_cell_angle_alpha 90.000000
_cell_angle_beta 90.000000
_cell_angle_gamma 90.000000
_cell_volume 1176.930599
_symmetry_space_group_name_H-M "P N C 2"
_symmetry_group_IT_number 30
_symmetry_cell_setting 'orthorhombic'
loop_
_space_group_symop_operation_xyz
x,y,z
-x,-y,z
-x,1/2+y,1/2+z
x,1/2-y,1/2+z
loop_
_atom_site_type_symbol
_atom_site_label
_atom_site_fract_x
_atom_site_fract_y
_atom_site_fract_z
Si Si1 0.621759 0.933708 0.780570
Si Si2 0.326215 0.928254 0.285954
Si Si3 0.000000 0.000000 0.693399
Si Si4 0.875120 0.534984 0.980442
Si Si5 0.892407 0.646351 0.805314
Si Si6 0.649555 0.091189 0.100229
Si Si7 0.107330 0.855922 0.065866
Si Si8 0.673301 0.897485 0.589734
O O1 0.631184 0.676451 0.821674
O O2 0.500000 0.000000 0.767816
O O3 0.665418 0.169325 0.823693
O O4 0.675075 0.905053 0.689635
O O5 0.202605 0.986213 0.275684
O O6 0.380196 0.904072 0.196450
O O7 0.936566 0.185364 0.638107
O O8 0.084204 0.133070 0.750310
O O9 0.865449 0.688396 0.900656
O O10 0.000000 0.500000 0.999450
O O11 0.854453 0.258820 0.978945
O O12 0.790981 0.610410 0.048858
O O13 0.000000 0.500000 0.805451
O O14 0.612694 0.840964 0.065998
O O15 0.778657 0.062754 0.098406
O O16 0.627340 0.348577 0.065415
O O17 0.000000 0.000000 0.049587
#
# Coordination Sequence:
#
# PCOD9342177 Si02
#       8
#     4   4   2   4   4   4   4   4
#     4  10  21  39  67  99 128 162 223 303 360 415
#     4  10  21  37  62  93 131 171 217 278 350 417
#     4  12  24  38  62  86 132 180 238 286 326 400
#     4  10  21  41  56  89 131 180 228 268 338 413
#     4  11  26  42  57  93 142 186 230 281 341 420
#     4   9  18  30  54  79 114 145 202 255 318 376
#     4  11  21  34  61  83 117 170 237 285 326 388
#     4   9  19  35  56  89 117 161 205 271 328 397
#
# _framework density 25.490034000000001
#
# number of rings (size 3 to 8) (size 9 to 14) (size 15 to 20)
#    0.000    1.867    0.667    3.200   13.067    0.000 
#   14.400    0.000    0.000    1.600    0.000    0.000 
#    0.000    0.000    0.000    0.000    0.000    0.000 
#
# Total GULP energy -167025.338810 kJ/mol
# GULP energy per Si atom -5567.511294 kJ/mol
# Density = 2.543202 g / cm^3
# Si number density = 25.490034 Si / 1000 Ang^3
#
#
#
# Elastic Constant Matrix: (Units=GPa)
#
#
# Indices 1 2 3 4 5 6 
#
# 1 84.6419 16.0798 9.1032 0.0000 0.0000 0.0000
# 2 16.0798 233.9605 25.0888 0.0000 0.0000 0.0000
# 3 9.1032 25.0888 45.0759 0.0000 0.0000 0.0000
# 4 0.0000 0.0000 0.0000 6.6797 0.0000 0.0000
# 5 0.0000 0.0000 0.0000 0.0000 8.8512 0.0000
# 6 0.0000 0.0000 0.0000 0.0000 0.0000 38.4503
#
#
#
# Elastic Compliance Matrix: (Units=1/GPa)
#
#
# Indices 1 2 3 4 5 6 
#
# 1 0.012158 -0.000609 -0.002117 0.000000 0.000000 0.000000
# 2 -0.000609 0.004576 -0.002424 0.000000 0.000000 0.000000
# 3 -0.002117 -0.002424 0.023961 0.000000 0.000000 0.000000
# 4 0.000000 0.000000 0.000000 0.149706 0.000000 0.000000
# 5 0.000000 0.000000 0.000000 0.000000 0.112980 0.000000
# 6 0.000000 0.000000 0.000000 0.000000 0.000000 0.026008
#
#
# Mechanical properties :
#
#
# Convention : Reuss Voigt Hill
#
# Bulk Modulus (GPa) = 32.89819 51.58020 42.23919
# Shear Modulus (GPa) = 14.29309 31.69000 22.99154
#
# Velocity S-wave (km/s) = 2.37055 3.52977 3.00656
# Velocity P-wave (km/s) = 4.51962 6.07386 5.35344
#
# Compressibility (1/GPa) = 0.03039681
#
# Stress axis : x y z
#
# Youngs Moduli (GPa) = 82.25214 218.53153 41.73367
#
# Poissons Ratio (x) = 0.13300 0.08833
# Poissons Ratio (y) = 0.05006 0.10116
# Poissons Ratio (z) = 0.17409 0.52973
#
# Static dielectric constant tensor:
#      x y z
#    x 2.031720 0.000000 0.000000 
#    y 0.000000 2.249580 0.000000 
#    z 0.000000 0.000000 2.030010 
# 
# From -- ./inp_files/6616.got.cif
#   From: 2010.05.17/outbox.cif.g08.bks.cpg/sg30_4_cif.got.tgz:6616.got - 2010.06.03 17:03:02.
