data_PCOD9342207
_publ_section_title
;
Structure prediction by ZEFSAII (Michael W. Deem and Ramdas Pophale) SiO2 
 PCOD9342207
Probable space group: P N C 2
;
_chemical_formula_sum "Si O2"
_cell_formula_units_Z 26
_cell_length_a 5.233273
_cell_length_b 18.628554
_cell_length_c 12.718484
_cell_angle_alpha 90.000000
_cell_angle_beta 90.000000
_cell_angle_gamma 90.000000
_cell_volume 1239.903494
_symmetry_space_group_name_H-M "P N C 2"
_symmetry_group_IT_number 30
_symmetry_cell_setting 'orthorhombic'
loop_
_space_group_symop_operation_xyz
x,y,z
-x,-y,z
-x,1/2+y,1/2+z
x,1/2-y,1/2+z
loop_
_atom_site_type_symbol
_atom_site_label
_atom_site_fract_x
_atom_site_fract_y
_atom_site_fract_z
Si Si1 0.667504 0.391227 0.854710
Si Si2 0.800940 0.385440 0.331227
Si Si3 0.000000 0.000000 0.665392
Si Si4 0.000000 0.000000 0.220136
Si Si5 0.999797 0.264525 0.813693
Si Si6 0.703124 0.649824 0.432141
Si Si7 0.282542 0.361768 0.665969
Si Si8 0.500000 0.500000 0.026357
O O1 0.822430 0.453823 0.796230
O O2 0.473753 0.365122 0.764489
O O3 0.857267 0.325779 0.880434
O O4 0.543314 0.429973 0.953674
O O5 0.903287 0.436391 0.240747
O O6 0.514242 0.394958 0.371793
O O7 0.816559 0.302820 0.293210
O O8 0.018451 0.387850 0.422354
O O9 0.247021 0.015400 0.594147
O O10 0.161395 0.058697 0.157138
O O11 0.233888 0.225889 0.875146
O O12 0.078253 0.303712 0.706453
O O13 0.617022 0.658840 0.551868
#
# Coordination Sequence:
#
# PCOD9342207 Si02
#       8
#     4   4   2   2   4   4   4   2
#     4  11  22  43  69 104 152 172 249 293 347 435
#     4  10  24  51  65 107 136 184 243 296 340 443
#     4  12  27  49  76 100 148 194 239 305 368 434
#     4  10  21  39  62 102 142 176 223 299 344 412
#     4   9  24  43  69  97 147 183 236 300 337 436
#     4  10  24  45  70 101 138 184 238 279 376 410
#     4  11  22  41  70 100 139 185 223 300 353 421
#     4  12  26  44  72 112 138 200 240 292 386 418
#
# _framework density 20.969373999999998
#
# number of rings (size 3 to 8) (size 9 to 14) (size 15 to 20)
#    0.923    0.615    1.538    2.308    6.462    1.846 
#    5.538    0.000    0.000    0.000    0.000    0.000 
#    0.000    0.000    0.000    0.000    0.000    0.000 
#
# Total GULP energy -144985.763762 kJ/mol
# GULP energy per Si atom -5576.375529 kJ/mol
# Density = 2.092165 g / cm^3
# Si number density = 20.969374 Si / 1000 Ang^3
#
#
#
# Elastic Constant Matrix: (Units=GPa)
#
#
# Indices 1 2 3 4 5 6 
#
# 1 102.0576 22.7516 34.6106 0.0000 0.0000 0.0000
# 2 22.7516 83.9304 44.7311 0.0000 0.0000 0.0000
# 3 34.6106 44.7311 95.7663 0.0000 0.0000 0.0000
# 4 0.0000 0.0000 0.0000 7.7172 0.0000 0.0000
# 5 0.0000 0.0000 0.0000 0.0000 32.7702 0.0000
# 6 0.0000 0.0000 0.0000 0.0000 0.0000 28.6349
#
#
#
# Elastic Compliance Matrix: (Units=1/GPa)
#
#
# Indices 1 2 3 4 5 6 
#
# 1 0.011254 -0.001176 -0.003518 0.000000 0.000000 0.000000
# 2 -0.001176 0.015986 -0.007042 0.000000 0.000000 0.000000
# 3 -0.003518 -0.007042 0.015003 0.000000 0.000000 0.000000
# 4 0.000000 0.000000 0.000000 0.129580 0.000000 0.000000
# 5 0.000000 0.000000 0.000000 0.000000 0.030516 0.000000
# 6 0.000000 0.000000 0.000000 0.000000 0.000000 0.034922
#
#
# Mechanical properties :
#
#
# Convention : Reuss Voigt Hill
#
# Bulk Modulus (GPa) = 53.27306 53.99345 53.63325
# Shear Modulus (GPa) = 18.72733 25.80187 22.26460
#
# Velocity S-wave (km/s) = 2.99169 3.51159 3.26201
# Velocity P-wave (km/s) = 6.11506 6.49972 6.31032
#
# Compressibility (1/GPa) = 0.01877121
#
# Stress axis : x y z
#
# Youngs Moduli (GPa) = 88.86115 62.55285 66.65419
#
# Poissons Ratio (x) = 0.07354 0.23449
# Poissons Ratio (y) = 0.10447 0.46939
# Poissons Ratio (z) = 0.31261 0.44051
#
# Static dielectric constant tensor:
#      x y z
#    x 1.914650 0.000000 0.000000 
#    y 0.000000 1.677810 0.000000 
#    z 0.000000 0.000000 1.732250 
# 
# From -- ./inp_files/3186.got.cif
#   From: 2010.05.17/outbox.cif.g08.bks.cpg/sg30_2_cif.got.tgz:3186.got - 2010.06.03 17:03:02.
