data_PCOD9342700
_publ_section_title
;
Structure prediction by ZEFSAII (Michael W. Deem and Ramdas Pophale) SiO2 
 PCOD9342700
Probable space group: P M N 21
;
_chemical_formula_sum "Si O2"
_cell_formula_units_Z 32
_cell_length_a 7.388287
_cell_length_b 10.823344
_cell_length_c 19.824385
_cell_angle_alpha 90.000000
_cell_angle_beta 90.000000
_cell_angle_gamma 90.000000
_cell_volume 1585.276211
_symmetry_space_group_name_H-M "P M N 21"
_symmetry_group_IT_number 31
_symmetry_cell_setting 'orthorhombic'
loop_
_space_group_symop_operation_xyz
x,y,z
1/2-x,-y,1/2+z
-x,y,z
1/2+x,-y,1/2+z
loop_
_atom_site_type_symbol
_atom_site_label
_atom_site_fract_x
_atom_site_fract_y
_atom_site_fract_z
Si Si1 0.219783 0.514630 0.020090
Si Si2 0.221727 0.624542 0.882318
Si Si3 0.782659 0.231403 0.170496
Si Si4 0.779976 0.229114 0.019060
Si Si5 0.718378 0.485828 0.671362
Si Si6 0.289783 0.623039 0.310071
Si Si7 0.786239 0.873982 0.812400
Si Si8 0.778056 0.126549 0.878501
O O1 0.273044 0.372166 0.006231
O O2 0.278138 0.547070 0.095725
O O3 0.000000 0.514425 0.020425
O O4 0.275955 0.603538 0.959790
O O5 0.285596 0.502738 0.842368
O O6 0.286689 0.750273 0.848117
O O7 0.000000 0.626141 0.879545
O O8 0.720406 0.196355 0.095036
O O9 0.720325 0.372539 0.185026
O O10 0.734608 0.143424 0.232226
O O11 0.000000 0.236497 0.167817
O O12 0.000000 0.227591 0.019471
O O13 0.723077 0.145150 0.956459
O O14 0.500000 0.486892 0.671897
O O15 0.778342 0.395083 0.730117
O O16 0.500000 0.623864 0.330489
O O17 0.216251 0.751364 0.338150
O O18 0.000000 0.874889 0.826108
O O19 0.714443 0.000979 0.843401
O O20 0.000000 0.124968 0.877048
#
# Coordination Sequence:
#
# PCOD9342700 Si02
#       8
#     4   4   4   4   4   4   4   4
#     4   8  13  24  43  67  91 115 148 190 231 265
#     4   9  15  25  44  68  89 112 148 189 224 259
#     4   9  17  29  47  69  93 122 152 184 227 276
#     4   8  13  25  45  67  88 114 153 191 222 265
#     4   9  17  28  45  70  96 120 148 188 232 271
#     4  10  17  28  48  69  90 118 150 186 228 271
#     4  10  19  30  46  71  97 119 150 192 229 264
#     4   9  17  29  46  69  94 120 153 192 227 261
#
# _framework density 20.185756000000001
#
# number of rings (size 3 to 8) (size 9 to 14) (size 15 to 20)
#    0.000    3.000    2.500    1.500    0.000    0.000 
#    0.000    1.875    0.000    6.000    0.000    0.000 
#    0.000    0.000    0.000    0.000    0.000    0.000 
#
# Total GULP energy -178482.526736 kJ/mol
# GULP energy per Si atom -5577.578961 kJ/mol
# Density = 2.013981 g / cm^3
# Si number density = 20.185756 Si / 1000 Ang^3
#
#
#
# Elastic Constant Matrix: (Units=GPa)
#
#
# Indices 1 2 3 4 5 6 
#
# 1 67.4720 10.1502 -6.2079 0.0000 0.0000 0.0000
# 2 10.1502 148.2616 108.5387 0.0000 0.0000 0.0000
# 3 -6.2079 108.5387 176.8304 0.0000 0.0000 0.0000
# 4 0.0000 0.0000 0.0000 32.5803 0.0000 0.0000
# 5 0.0000 0.0000 0.0000 0.0000 15.6691 0.0000
# 6 0.0000 0.0000 0.0000 0.0000 0.0000 -2.3557
#
#
#
# Elastic Compliance Matrix: (Units=1/GPa)
#
#
# Indices 1 2 3 4 5 6 
#
# 1 0.015416 -0.002636 0.002159 0.000000 0.000000 0.000000
# 2 -0.002636 0.012700 -0.007888 0.000000 0.000000 0.000000
# 3 0.002159 -0.007888 0.010572 0.000000 0.000000 0.000000
# 4 0.000000 0.000000 0.000000 0.030693 0.000000 0.000000
# 5 0.000000 0.000000 0.000000 0.000000 0.063820 0.000000
# 6 0.000000 0.000000 0.000000 0.000000 0.000000 -0.424497
#
#
# Mechanical properties :
#
#
# Convention : Reuss Voigt Hill
#
# Bulk Modulus (GPa) = 45.53892 68.61401 57.07646
# Shear Modulus (GPa) = -18.70932 27.85093 4.57080
#
# Velocity S-wave (km/s) = -3.04774 3.71850 1.50641
# Velocity P-wave (km/s) = 3.19749 7.24579 5.60024
#
# Compressibility (1/GPa) = 0.02195924
#
# Stress axis : x y z
#
# Youngs Moduli (GPa) = 64.86678 78.74244 94.58624
#
# Poissons Ratio (x) = 0.20758 -0.20424
# Poissons Ratio (y) = 0.17100 0.74606
# Poissons Ratio (z) = -0.14007 0.62109
#
# Static dielectric constant tensor:
#      x y z
#    x 1.791120 0.000000 0.000000 
#    y 0.000000 1.679920 0.000000 
#    z 0.000000 0.000000 1.725330 
# 
# From -- ./inp_files/5936.got.cif
#   From: 2010.05.17/outbox.cif.g08.bks.cpg/sg31_3_cif.got.tgz:5936.got - 2010.06.03 17:08:30.
