data_PCOD9342022
_publ_section_title
;
Structure prediction by ZEFSAII (Michael W. Deem and Ramdas Pophale) SiO2 
 PCOD9342022
Probable space group: P N C 2
;
_chemical_formula_sum "Si O2"
_cell_formula_units_Z 28
_cell_length_a 7.905503
_cell_length_b 14.954120
_cell_length_c 11.311845
_cell_angle_alpha 90.000000
_cell_angle_beta 90.000000
_cell_angle_gamma 90.000000
_cell_volume 1337.284512
_symmetry_space_group_name_H-M "P N C 2"
_symmetry_group_IT_number 30
_symmetry_cell_setting 'orthorhombic'
loop_
_space_group_symop_operation_xyz
x,y,z
-x,-y,z
-x,1/2+y,1/2+z
x,1/2-y,1/2+z
loop_
_atom_site_type_symbol
_atom_site_label
_atom_site_fract_x
_atom_site_fract_y
_atom_site_fract_z
Si Si1 0.500000 0.500000 0.131950
Si Si2 0.922761 0.259277 0.967095
Si Si3 0.500000 0.500000 0.550016
Si Si4 0.451537 0.695821 0.210384
Si Si5 0.175571 0.534730 0.974908
Si Si6 0.175571 0.965270 0.207059
Si Si7 0.451537 0.695821 0.471583
Si Si8 0.077239 0.759276 0.214873
O O1 0.509277 0.593359 0.201230
O O2 0.335596 0.508301 0.049932
O O3 0.846503 0.359010 0.965461
O O4 0.011229 0.243808 0.840984
O O5 0.754750 0.197977 0.972857
O O6 0.020154 0.250000 0.090984
O O7 0.664404 0.491699 0.632035
O O8 0.509277 0.593359 0.480737
O O9 0.500134 0.733228 0.340983
O O10 0.503293 0.750000 0.090983
O O11 0.245251 0.697977 0.209111
O O12 0.190486 0.498163 0.840984
O O13 0.000000 0.500000 0.027717
O O14 0.153497 0.859010 0.216506
O O15 0.000000 0.000000 0.154250
#
# Coordination Sequence:
#
# PCOD9342022 Si02
#       8
#     2   4   2   4   4   4   4   4
#     4  12  20  36  64  90 125 164 205 262 315 368
#     4   9  16  33  57  80 114 159 195 242 305 358
#     4  12  20  36  64  90 125 164 205 262 315 368
#     4  10  20  35  60  92 123 165 210 252 312 374
#     4  10  21  36  58  91 124 160 210 259 307 371
#     4  10  21  36  58  91 124 160 210 259 307 371
#     4  10  20  35  60  92 123 165 210 252 312 374
#     4   9  16  33  57  80 114 159 195 242 305 358
#
# _framework density 20.937951999999999
#
# number of rings (size 3 to 8) (size 9 to 14) (size 15 to 20)
#    0.000    2.000    5.714    0.857    0.000    1.143 
#    0.000    1.429    0.000   11.143    0.000    0.000 
#    0.000    0.000    0.000    0.000    0.000    0.000 
#
# Total GULP energy -155997.450141 kJ/mol
# GULP energy per Si atom -5571.337505 kJ/mol
# Density = 2.089030 g / cm^3
# Si number density = 20.937952 Si / 1000 Ang^3
#
#
#
# Elastic Constant Matrix: (Units=GPa)
#
#
# Indices 1 2 3 4 5 6 
#
# 1 63.1935 -0.0936 25.9997 0.0000 0.0000 0.0000
# 2 -0.0936 67.5231 27.9339 0.0000 0.0000 0.0000
# 3 25.9997 27.9339 211.8942 0.0000 0.0000 0.0000
# 4 0.0000 0.0000 0.0000 29.7439 0.0000 0.0000
# 5 0.0000 0.0000 0.0000 0.0000 24.3225 0.0000
# 6 0.0000 0.0000 0.0000 0.0000 0.0000 -0.8587
#
#
#
# Elastic Compliance Matrix: (Units=1/GPa)
#
#
# Indices 1 2 3 4 5 6 
#
# 1 0.016720 0.000922 -0.002173 0.000000 0.000000 0.000000
# 2 0.000922 0.015715 -0.002185 0.000000 0.000000 0.000000
# 3 -0.002173 -0.002185 0.005274 0.000000 0.000000 0.000000
# 4 0.000000 0.000000 0.000000 0.033620 0.000000 0.000000
# 5 0.000000 0.000000 0.000000 0.000000 0.041114 0.000000
# 6 0.000000 0.000000 0.000000 0.000000 0.000000 -1.164612
#
#
# Mechanical properties :
#
#
# Convention : Reuss Voigt Hill
#
# Bulk Modulus (GPa) = 32.42834 50.03230 41.23032
# Shear Modulus (GPa) = -4.83083 29.89293 12.53105
#
# Velocity S-wave (km/s) = -1.52060 3.78258 2.44905
# Velocity P-wave (km/s) = 3.52682 6.55931 5.26607
#
# Compressibility (1/GPa) = 0.03083722
#
# Stress axis : x y z
#
# Youngs Moduli (GPa) = 59.80905 63.63394 189.60914
#
# Poissons Ratio (x) = -0.05868 0.41204
# Poissons Ratio (y) = -0.05516 0.41426
# Poissons Ratio (z) = 0.12997 0.13903
#
# Static dielectric constant tensor:
#      x y z
#    x 1.700530 0.000000 0.000000 
#    y 0.000000 1.758970 0.000000 
#    z 0.000000 0.000000 1.870640 
# 
# From -- ./inp_files/3740.got.cif
#   From: 2010.05.17/outbox.cif.g08.bks.cpg/sg30_2_cif.got.tgz:3740.got - 2010.06.03 17:03:02.
