data_PCOD9342832
_publ_section_title
;
Structure prediction by ZEFSAII (Michael W. Deem and Ramdas Pophale) SiO2 
 PCOD9342832
Probable space group: P M N 21
;
_chemical_formula_sum "Si O2"
_cell_formula_units_Z 32
_cell_length_a 8.921506
_cell_length_b 10.400116
_cell_length_c 19.601912
_cell_angle_alpha 90.000000
_cell_angle_beta 90.000000
_cell_angle_gamma 90.000000
_cell_volume 1818.757471
_symmetry_space_group_name_H-M "P M N 21"
_symmetry_group_IT_number 31
_symmetry_cell_setting 'orthorhombic'
loop_
_space_group_symop_operation_xyz
x,y,z
1/2-x,-y,1/2+z
-x,y,z
1/2+x,-y,1/2+z
loop_
_atom_site_type_symbol
_atom_site_label
_atom_site_fract_x
_atom_site_fract_y
_atom_site_fract_z
Si Si1 0.679738 0.881415 0.522990
Si Si2 0.177693 0.372708 0.108714
Si Si3 0.678288 0.877240 0.100072
Si Si4 0.177024 0.506780 0.733595
Si Si5 0.678150 0.496474 0.389790
Si Si6 0.321228 0.223852 0.890206
Si Si7 0.320803 0.225920 0.733038
Si Si8 0.322002 0.363740 0.525755
O O1 0.500000 0.892380 0.521241
O O2 0.719342 0.752071 0.565134
O O3 0.742179 0.863022 0.446756
O O4 0.750745 0.002203 0.561121
O O5 0.265655 0.391255 0.178904
O O6 0.203672 0.501607 0.064669
O O7 0.000000 0.365882 0.122826
O O8 0.500000 0.887051 0.102247
O O9 0.744026 0.861753 0.176246
O O10 0.728817 0.749024 0.059867
O O11 0.203874 0.546157 0.812072
O O12 0.263127 0.372033 0.722467
O O13 0.000000 0.483670 0.725025
O O14 0.500000 0.524782 0.397936
O O15 0.765480 0.629567 0.400685
O O16 0.716340 0.392339 0.447030
O O17 0.500000 0.217819 0.898180
O O18 0.284353 0.190591 0.811433
O O19 0.500000 0.223599 0.724477
O O20 0.500000 0.333645 0.531219
#
# Coordination Sequence:
#
# PCOD9342832 Si02
#       8
#     4   4   4   4   4   4   4   4
#     4  11  23  41  61  82 113 156 194 232 287 348
#     4  10  20  35  58  83 111 148 188 226 279 343
#     4  12  25  39  57  86 117 150 194 241 284 334
#     4  10  19  31  54  86 116 145 185 239 286 328
#     4   9  18  34  55  82 114 150 190 230 281 341
#     4  10  20  34  57  87 115 144 186 238 284 334
#     4  10  20  36  57  82 114 152 189 228 282 343
#     4  10  19  36  59  82 112 149 188 230 279 343
#
# _framework density 17.594429000000002
#
# number of rings (size 3 to 8) (size 9 to 14) (size 15 to 20)
#    0.000    1.750    2.500    2.625    0.000    3.500 
#    0.000    1.250    0.000    3.000    0.000    0.000 
#    0.000    0.000    0.000    0.000    0.000    0.000 
#
# Total GULP energy -178695.799652 kJ/mol
# GULP energy per Si atom -5584.243739 kJ/mol
# Density = 1.755438 g / cm^3
# Si number density = 17.594429 Si / 1000 Ang^3
#
#
#
# Elastic Constant Matrix: (Units=GPa)
#
#
# Indices 1 2 3 4 5 6 
#
# 1 77.1806 53.3827 74.8342 0.0000 0.0000 0.0000
# 2 53.3827 84.1841 63.0307 0.0000 0.0000 0.0000
# 3 74.8342 63.0307 151.0025 0.0000 0.0000 0.0000
# 4 0.0000 0.0000 0.0000 30.3988 0.0000 0.0000
# 5 0.0000 0.0000 0.0000 0.0000 25.9467 0.0000
# 6 0.0000 0.0000 0.0000 0.0000 0.0000 22.2169
#
#
#
# Elastic Compliance Matrix: (Units=1/GPa)
#
#
# Indices 1 2 3 4 5 6 
#
# 1 0.031626 -0.012102 -0.010622 0.000000 0.000000 0.000000
# 2 -0.012102 0.021910 -0.003148 0.000000 0.000000 0.000000
# 3 -0.010622 -0.003148 0.013200 0.000000 0.000000 0.000000
# 4 0.000000 0.000000 0.000000 0.032896 0.000000 0.000000
# 5 0.000000 0.000000 0.000000 0.000000 0.038541 0.000000
# 6 0.000000 0.000000 0.000000 0.000000 0.000000 0.045011
#
#
# Mechanical properties :
#
#
# Convention : Reuss Voigt Hill
#
# Bulk Modulus (GPa) = 66.69849 77.20691 71.95270
# Shear Modulus (GPa) = 20.83997 23.78711 22.31354
#
# Velocity S-wave (km/s) = 3.44534 3.68090 3.56507
# Velocity P-wave (km/s) = 7.33610 7.87668 7.61119
#
# Compressibility (1/GPa) = 0.01499284
#
# Stress axis : x y z
#
# Youngs Moduli (GPa) = 31.61988 45.64196 75.75548
#
# Poissons Ratio (x) = 0.55235 0.80465
# Poissons Ratio (y) = 0.38265 0.23848
# Poissons Ratio (z) = 0.33586 0.14368
#
# Static dielectric constant tensor:
#      x y z
#    x 1.589980 0.000000 0.000000 
#    y 0.000000 1.563420 0.000000 
#    z 0.000000 0.000000 1.621960 
# 
# From -- ./inp_files/6270.got.cif
#   From: 2010.05.17/outbox.cif.g08.bks.cpg/sg31_4_cif.got.tgz:6270.got - 2010.06.03 17:08:30.
