data_PCOD9342566
_publ_section_title
;
Structure prediction by ZEFSAII (Michael W. Deem and Ramdas Pophale) SiO2 
 PCOD9342566
Probable space group: P N C 2
;
_chemical_formula_sum "Si O2"
_cell_formula_units_Z 32
_cell_length_a 8.535770
_cell_length_b 11.489685
_cell_length_c 15.161773
_cell_angle_alpha 90.000000
_cell_angle_beta 90.000000
_cell_angle_gamma 90.000000
_cell_volume 1486.965241
_symmetry_space_group_name_H-M "P N C 2"
_symmetry_group_IT_number 30
_symmetry_cell_setting 'orthorhombic'
loop_
_space_group_symop_operation_xyz
x,y,z
-x,-y,z
-x,1/2+y,1/2+z
x,1/2-y,1/2+z
loop_
_atom_site_type_symbol
_atom_site_label
_atom_site_fract_x
_atom_site_fract_y
_atom_site_fract_z
Si Si1 0.626028 0.606231 0.344540
Si Si2 0.092405 0.351786 0.231034
Si Si3 0.532524 0.271981 0.188514
Si Si4 0.687260 0.767127 0.019584
Si Si5 0.782989 0.449909 0.138721
Si Si6 0.309028 0.007966 0.456059
Si Si7 0.329692 0.952061 0.264458
Si Si8 0.883175 0.608033 0.653502
O O1 0.500000 0.500000 0.336232
O O2 0.812826 0.599202 0.316659
O O3 0.570800 0.704886 0.275151
O O4 0.618715 0.650657 0.443695
O O5 0.205357 0.412488 0.157516
O O6 0.078336 0.213375 0.220947
O O7 0.922667 0.396630 0.197764
O O8 0.437434 0.242964 0.099971
O O9 0.626330 0.389974 0.170506
O O10 0.654057 0.171621 0.217164
O O11 0.722269 0.644686 0.971562
O O12 0.838582 0.827946 0.063239
O O13 0.780758 0.438548 0.033678
O O14 0.500000 0.000000 0.468921
O O15 0.254104 0.959138 0.361386
O O16 0.500000 0.000000 0.284883
O O17 0.263209 0.043643 0.196071
O O18 0.000000 0.500000 0.643613
#
# Coordination Sequence:
#
# PCOD9342566 Si02
#       8
#     4   4   4   4   4   4   4   4
#     4  12  25  45  74 108 143 192 248 295 376 440
#     4  11  23  47  67  99 144 188 236 298 363 434
#     4  12  23  44  74 111 141 184 238 308 367 441
#     4  12  25  42  73 103 147 189 244 308 367 442
#     4  11  23  41  75 103 137 188 241 298 366 430
#     4  11  21  41  73 110 137 184 248 299 360 443
#     4  11  23  42  71 104 144 182 232 305 369 434
#     4  12  25  46  67  94 145 197 234 291 376 438
#
# _framework density 21.520341999999999
#
# number of rings (size 3 to 8) (size 9 to 14) (size 15 to 20)
#    0.000    0.500    6.250    3.000    1.750    0.000 
#    4.500    1.250    0.000    0.000    0.000    0.000 
#    0.000    0.000    0.000    0.000    0.000    0.000 
#
# Total GULP energy -178315.835616 kJ/mol
# GULP energy per Si atom -5572.369863 kJ/mol
# Density = 2.147136 g / cm^3
# Si number density = 21.520342 Si / 1000 Ang^3
#
#
#
# Elastic Constant Matrix: (Units=GPa)
#
#
# Indices 1 2 3 4 5 6 
#
# 1 65.0418 38.5132 30.6317 0.0000 0.0000 0.0000
# 2 38.5132 116.7469 26.9275 0.0000 0.0000 0.0000
# 3 30.6317 26.9275 110.5910 0.0000 0.0000 0.0000
# 4 0.0000 0.0000 0.0000 31.3736 0.0000 0.0000
# 5 0.0000 0.0000 0.0000 0.0000 25.6350 0.0000
# 6 0.0000 0.0000 0.0000 0.0000 0.0000 49.1551
#
#
#
# Elastic Compliance Matrix: (Units=1/GPa)
#
#
# Indices 1 2 3 4 5 6 
#
# 1 0.020918 -0.005895 -0.004359 0.000000 0.000000 0.000000
# 2 -0.005895 0.010737 -0.000981 0.000000 0.000000 0.000000
# 3 -0.004359 -0.000981 0.010489 0.000000 0.000000 0.000000
# 4 0.000000 0.000000 0.000000 0.031874 0.000000 0.000000
# 5 0.000000 0.000000 0.000000 0.000000 0.039009 0.000000
# 6 0.000000 0.000000 0.000000 0.000000 0.000000 0.020344
#
#
# Mechanical properties :
#
#
# Convention : Reuss Voigt Hill
#
# Bulk Modulus (GPa) = 50.83117 53.83605 52.33361
# Shear Modulus (GPa) = 30.78850 34.31990 32.55420
#
# Velocity S-wave (km/s) = 3.78652 3.99778 3.89359
# Velocity P-wave (km/s) = 6.54128 6.81031 6.67715
#
# Compressibility (1/GPa) = 0.01967297
#
# Stress axis : x y z
#
# Youngs Moduli (GPa) = 47.80531 93.13870 95.34251
#
# Poissons Ratio (x) = 0.54908 0.41555
# Poissons Ratio (y) = 0.28183 0.09356
# Poissons Ratio (z) = 0.20836 0.09140
#
# Static dielectric constant tensor:
#      x y z
#    x 1.859960 0.000000 0.000000 
#    y 0.000000 1.820960 0.000000 
#    z 0.000000 0.000000 1.796670 
# 
# From -- ./inp_files/5212.got.cif
#   From: 2010.05.17/outbox.cif.g08.bks.cpg/sg30_3_cif.got.tgz:5212.got - 2010.06.03 17:03:02.
