data_PCOD9342952
_publ_section_title
;
Structure prediction by ZEFSAII (Michael W. Deem and Ramdas Pophale) SiO2 
 PCOD9342952
Probable space group: P M N 21
;
_chemical_formula_sum "Si O2"
_cell_formula_units_Z 32
_cell_length_a 9.017123
_cell_length_b 11.637458
_cell_length_c 16.514398
_cell_angle_alpha 90.000000
_cell_angle_beta 90.000000
_cell_angle_gamma 90.000000
_cell_volume 1732.961312
_symmetry_space_group_name_H-M "P M N 21"
_symmetry_group_IT_number 31
_symmetry_cell_setting 'orthorhombic'
loop_
_space_group_symop_operation_xyz
x,y,z
1/2-x,-y,1/2+z
-x,y,z
1/2+x,-y,1/2+z
loop_
_atom_site_type_symbol
_atom_site_label
_atom_site_fract_x
_atom_site_fract_y
_atom_site_fract_z
Si Si1 0.823949 0.435051 0.914250
Si Si2 0.328278 0.275337 0.789527
Si Si3 0.179333 0.695028 0.871169
Si Si4 0.172310 0.208044 0.530155
Si Si5 0.679471 0.177978 0.203331
Si Si6 0.330401 0.363701 0.076359
Si Si7 0.178604 0.931757 0.174905
Si Si8 0.663338 0.597289 0.161118
O O1 0.762648 0.328764 0.862461
O O2 0.773071 0.560971 0.881714
O O3 0.000000 0.436440 0.910819
O O4 0.768697 0.411013 0.004514
O O5 0.500000 0.268306 0.810965
O O6 0.281046 0.155809 0.748152
O O7 0.296482 0.365164 0.717466
O O8 0.219616 0.751607 0.784866
O O9 0.000000 0.697235 0.877538
O O10 0.247952 0.768476 0.945093
O O11 0.251695 0.119514 0.591867
O O12 0.173826 0.329170 0.579014
O O13 0.000000 0.175366 0.518665
O O14 0.500000 0.165453 0.203755
O O15 0.719532 0.250618 0.123209
O O16 0.757181 0.055447 0.196662
O O17 0.500000 0.348059 0.046698
O O18 0.334917 0.463929 0.143096
O O19 0.000000 0.932369 0.167857
O O20 0.500000 0.626255 0.197636
#
# Coordination Sequence:
#
# PCOD9342952 Si02
#       8
#     4   4   4   4   4   4   4   4
#     4  11  22  36  58  89 122 153 191 237 293 356
#     4  10  21  36  57  83 112 149 190 238 291 341
#     4  10  21  38  60  88 122 154 192 243 297 351
#     4  10  19  34  61  90 115 151 194 237 287 347
#     4  10  22  40  61  84 115 159 200 242 295 349
#     4  10  20  37  58  83 120 155 188 236 292 348
#     4  10  22  41  61  83 115 152 198 248 291 343
#     4   9  17  32  56  84 115 147 183 229 286 347
#
# _framework density 18.465501
#
# number of rings (size 3 to 8) (size 9 to 14) (size 15 to 20)
#    0.000    2.000    1.250    2.250    0.000    6.000 
#    2.250    1.250    0.000    0.000    0.000    0.000 
#    0.000    0.000    0.000    0.000    0.000    0.000 
#
# Total GULP energy -178477.989620 kJ/mol
# GULP energy per Si atom -5577.437176 kJ/mol
# Density = 1.842347 g / cm^3
# Si number density = 18.465501 Si / 1000 Ang^3
#
#
#
# Elastic Constant Matrix: (Units=GPa)
#
#
# Indices 1 2 3 4 5 6 
#
# 1 40.8978 45.3508 27.1581 0.0000 0.0000 0.0000
# 2 45.3508 132.0612 52.3256 0.0000 0.0000 0.0000
# 3 27.1581 52.3256 57.9946 0.0000 0.0000 0.0000
# 4 0.0000 0.0000 0.0000 21.7570 0.0000 0.0000
# 5 0.0000 0.0000 0.0000 0.0000 31.3714 0.0000
# 6 0.0000 0.0000 0.0000 0.0000 0.0000 -18.2168
#
#
#
# Elastic Compliance Matrix: (Units=1/GPa)
#
#
# Indices 1 2 3 4 5 6 
#
# 1 0.043369 -0.010656 -0.010695 0.000000 0.000000 0.000000
# 2 -0.010656 0.014403 -0.008006 0.000000 0.000000 0.000000
# 3 -0.010695 -0.008006 0.029474 0.000000 0.000000 0.000000
# 4 0.000000 0.000000 0.000000 0.045962 0.000000 0.000000
# 5 0.000000 0.000000 0.000000 0.000000 0.031876 0.000000
# 6 0.000000 0.000000 0.000000 0.000000 0.000000 -0.054894
#
#
# Mechanical properties :
#
#
# Convention : Reuss Voigt Hill
#
# Bulk Modulus (GPa) = 35.04566 53.40251 44.22409
# Shear Modulus (GPa) = 28.02449 14.05691 21.04070
#
# Velocity S-wave (km/s) = 3.89995 2.76207 3.37925
# Velocity P-wave (km/s) = 6.26895 6.25740 6.26317
#
# Compressibility (1/GPa) = 0.02853420
#
# Stress axis : x y z
#
# Youngs Moduli (GPa) = 23.05789 69.42771 33.92765
#
# Poissons Ratio (x) = 0.73979 0.36286
# Poissons Ratio (y) = 0.24570 0.27161
# Poissons Ratio (z) = 0.24661 0.55581
#
# Static dielectric constant tensor:
#      x y z
#    x 1.637800 0.000000 0.000000 
#    y 0.000000 1.622780 0.000000 
#    z 0.000000 0.000000 1.661950 
# 
# From -- ./inp_files/4922.got.cif
#   From: 2010.05.17/outbox.cif.g08.bks.cpg/sg31_3_cif.got.tgz:4922.got - 2010.06.03 17:08:30.
