data_PCOD9342769
_publ_section_title
;
Structure prediction by ZEFSAII (Michael W. Deem and Ramdas Pophale) SiO2 
 PCOD9342769
Probable space group: P M N 21
;
_chemical_formula_sum "Si O2"
_cell_formula_units_Z 32
_cell_length_a 7.517498
_cell_length_b 15.105924
_cell_length_c 12.786759
_cell_angle_alpha 90.000000
_cell_angle_beta 90.000000
_cell_angle_gamma 90.000000
_cell_volume 1452.048413
_symmetry_space_group_name_H-M "P M N 21"
_symmetry_group_IT_number 31
_symmetry_cell_setting 'orthorhombic'
loop_
_space_group_symop_operation_xyz
x,y,z
1/2-x,-y,1/2+z
-x,y,z
1/2+x,-y,1/2+z
loop_
_atom_site_type_symbol
_atom_site_label
_atom_site_fract_x
_atom_site_fract_y
_atom_site_fract_z
Si Si1 0.801637 0.843329 0.297520
Si Si2 0.294914 0.950993 0.496677
Si Si3 0.784635 0.865405 0.916882
Si Si4 0.782584 0.742623 0.096284
Si Si5 0.216437 0.368355 0.136723
Si Si6 0.790107 0.174377 0.181319
Si Si7 0.785231 0.560817 0.201285
Si Si8 0.792735 0.334815 0.900159
O O1 0.709455 0.905781 0.382005
O O2 0.724015 0.813301 0.185716
O O3 0.809990 0.749310 0.356779
O O4 0.000000 0.879508 0.279578
O O5 0.500000 0.964701 0.527647
O O6 0.217035 0.886659 0.586544
O O7 0.216987 0.048094 0.478468
O O8 0.730272 0.865952 0.796155
O O9 0.000000 0.867834 0.917286
O O10 0.729531 0.779007 0.983145
O O11 0.724336 0.643732 0.128754
O O12 0.000000 0.742712 0.101464
O O13 0.280699 0.275233 0.184224
O O14 0.281620 0.462826 0.176918
O O15 0.000000 0.370737 0.147216
O O16 0.261316 0.361872 0.014852
O O17 0.000000 0.183551 0.158058
O O18 0.732233 0.587495 0.317879
O O19 0.000000 0.560137 0.193576
O O20 0.000000 0.308204 0.903803
#
# Coordination Sequence:
#
# PCOD9342769 Si02
#       8
#     4   4   4   4   4   4   4   4
#     4  10  19  33  58  83 105 140 188 237 277 328
#     4  10  21  37  57  79 110 147 183 229 285 337
#     4  10  22  38  56  81 113 149 185 231 283 336
#     4   8  17  34  54  77 108 143 179 223 282 331
#     4   9  18  34  56  77 107 149 186 223 282 342
#     4  10  21  39  58  80 111 150 186 226 285 345
#     4   9  18  34  55  80 108 146 193 237 276 331
#     4  10  18  33  54  79 110 146 184 228 284 338
#
# _framework density 22.037832000000002
#
# number of rings (size 3 to 8) (size 9 to 14) (size 15 to 20)
#    0.000    2.500    1.250    1.500    1.750    2.000 
#    0.000    6.250    0.000    0.000    0.000    0.000 
#    0.000    0.000    0.000    0.000    0.000    0.000 
#
# Total GULP energy -178516.988997 kJ/mol
# GULP energy per Si atom -5578.655906 kJ/mol
# Density = 2.198767 g / cm^3
# Si number density = 22.037832 Si / 1000 Ang^3
#
#
#
# Elastic Constant Matrix: (Units=GPa)
#
#
# Indices 1 2 3 4 5 6 
#
# 1 55.9609 2.2558 -3.3811 0.0000 0.0000 0.0000
# 2 2.2558 119.3168 54.8511 0.0000 0.0000 0.0000
# 3 -3.3811 54.8511 76.6468 0.0000 0.0000 0.0000
# 4 0.0000 0.0000 0.0000 23.7697 0.0000 0.0000
# 5 0.0000 0.0000 0.0000 0.0000 49.9344 0.0000
# 6 0.0000 0.0000 0.0000 0.0000 0.0000 5.9311
#
#
#
# Elastic Compliance Matrix: (Units=1/GPa)
#
#
# Indices 1 2 3 4 5 6 
#
# 1 0.018005 -0.001051 0.001547 0.000000 0.000000 0.000000
# 2 -0.001051 0.012552 -0.009029 0.000000 0.000000 0.000000
# 3 0.001547 -0.009029 0.019576 0.000000 0.000000 0.000000
# 4 0.000000 0.000000 0.000000 0.042070 0.000000 0.000000
# 5 0.000000 0.000000 0.000000 0.000000 0.020026 0.000000
# 6 0.000000 0.000000 0.000000 0.000000 0.000000 0.168603
#
#
# Mechanical properties :
#
#
# Convention : Reuss Voigt Hill
#
# Bulk Modulus (GPa) = 30.24212 39.93070 35.08641
# Shear Modulus (GPa) = 16.18534 29.14028 22.66281
#
# Velocity S-wave (km/s) = 2.71299 3.64027 3.21028
# Velocity P-wave (km/s) = 4.85452 5.98558 5.44948
#
# Compressibility (1/GPa) = 0.03306646
#
# Stress axis : x y z
#
# Youngs Moduli (GPa) = 55.53872 79.67173 51.08209
#
# Poissons Ratio (x) = 0.08377 -0.07901
# Poissons Ratio (y) = 0.05840 0.46120
# Poissons Ratio (z) = -0.08590 0.71933
#
# Static dielectric constant tensor:
#      x y z
#    x 1.761680 0.000000 0.000000 
#    y 0.000000 1.826520 0.000000 
#    z 0.000000 0.000000 1.786730 
# 
# From -- ./inp_files/3673.got.cif
#   From: 2010.05.17/outbox.cif.g08.bks.cpg/sg31_2_cif.got.tgz:3673.got - 2010.06.03 17:08:30.
