data_PCOD9342708
_publ_section_title
;
Structure prediction by ZEFSAII (Michael W. Deem and Ramdas Pophale) SiO2 
 PCOD9342708
Probable space group: P M N 21
;
_chemical_formula_sum "Si O2"
_cell_formula_units_Z 32
_cell_length_a 23.238837
_cell_length_b 6.927895
_cell_length_c 12.949594
_cell_angle_alpha 90.000000
_cell_angle_beta 90.000000
_cell_angle_gamma 90.000000
_cell_volume 2084.835719
_symmetry_space_group_name_H-M "P M N 21"
_symmetry_group_IT_number 31
_symmetry_cell_setting 'orthorhombic'
loop_
_space_group_symop_operation_xyz
x,y,z
1/2-x,-y,1/2+z
-x,y,z
1/2+x,-y,1/2+z
loop_
_atom_site_type_symbol
_atom_site_label
_atom_site_fract_x
_atom_site_fract_y
_atom_site_fract_z
Si Si1 0.822362 0.488207 0.383320
Si Si2 0.566721 0.313490 0.561754
Si Si3 0.622386 0.915315 0.631828
Si Si4 0.738525 0.838689 0.749196
Si Si5 0.345305 0.584775 0.475533
Si Si6 0.729171 0.494169 0.099617
Si Si7 0.228028 0.248075 0.793114
Si Si8 0.564891 0.594931 0.760794
O O1 0.787323 0.305089 0.335791
O O2 0.815145 0.498720 0.505684
O O3 0.789422 0.673259 0.335597
O O4 0.886640 0.467405 0.341757
O O5 0.500000 0.289666 0.531988
O O6 0.605294 0.423894 0.476997
O O7 0.568508 0.449529 0.663486
O O8 0.595586 0.113288 0.594085
O O9 0.684498 0.929661 0.686854
O O10 0.631047 0.771916 0.535295
O O11 0.581892 0.802714 0.713270
O O12 0.771968 0.699708 0.669254
O O13 0.773463 0.017298 0.794905
O O14 0.292253 0.506631 0.545860
O O15 0.318642 0.651286 0.367436
O O16 0.722373 0.670883 0.177749
O O17 0.500000 0.594183 0.800790
#
# Coordination Sequence:
#
# PCOD9342708 Si02
#       8
#     4   4   4   4   4   4   4   4
#     4   9  18  30  45  68  94 119 148 185 222 267
#     4  10  18  29  47  67  90 120 148 181 225 269
#     4   9  16  28  44  66  93 117 146 180 219 269
#     4   9  17  28  45  66  90 122 149 179 226 268
#     4   9  19  30  44  67  92 118 147 184 223 264
#     4   9  18  30  45  66  92 118 150 185 221 266
#     4  10  18  30  46  66  92 120 150 184 222 268
#     4   9  17  29  45  68  94 118 147 182 222 267
#
# _framework density 15.348932
#
# number of rings (size 3 to 8) (size 9 to 14) (size 15 to 20)
#    0.000    2.750    0.000    4.125    0.000    6.500 
#    0.000    0.000    0.000    0.750    0.000    0.875 
#    0.000    0.000    0.000    0.000    0.000    0.000 
#
# Total GULP energy -178313.717739 kJ/mol
# GULP energy per Si atom -5572.303679 kJ/mol
# Density = 1.531400 g / cm^3
# Si number density = 15.348932 Si / 1000 Ang^3
#
#
#
# Elastic Constant Matrix: (Units=GPa)
#
#
# Indices 1 2 3 4 5 6 
#
# 1 76.0146 30.3502 32.5589 0.0000 0.0000 0.0000
# 2 30.3502 71.2308 17.2794 0.0000 0.0000 0.0000
# 3 32.5589 17.2794 70.9255 0.0000 0.0000 0.0000
# 4 0.0000 0.0000 0.0000 13.1015 0.0000 0.0000
# 5 0.0000 0.0000 0.0000 0.0000 17.9164 0.0000
# 6 0.0000 0.0000 0.0000 0.0000 0.0000 14.8114
#
#
#
# Elastic Compliance Matrix: (Units=1/GPa)
#
#
# Indices 1 2 3 4 5 6 
#
# 1 0.018667 -0.006244 -0.007048 0.000000 0.000000 0.000000
# 2 -0.006244 0.017009 -0.001278 0.000000 0.000000 0.000000
# 3 -0.007048 -0.001278 0.017646 0.000000 0.000000 0.000000
# 4 0.000000 0.000000 0.000000 0.076327 0.000000 0.000000
# 5 0.000000 0.000000 0.000000 0.000000 0.055815 0.000000
# 6 0.000000 0.000000 0.000000 0.000000 0.000000 0.067516
#
#
# Mechanical properties :
#
#
# Convention : Reuss Voigt Hill
#
# Bulk Modulus (GPa) = 41.35114 42.06089 41.70601
# Shear Modulus (GPa) = 17.23064 18.36468 17.79766
#
# Velocity S-wave (km/s) = 3.35415 3.46277 3.40889
# Velocity P-wave (km/s) = 6.48071 6.59169 6.53643
#
# Compressibility (1/GPa) = 0.02418313
#
# Stress axis : x y z
#
# Youngs Moduli (GPa) = 53.56960 58.79143 56.66996
#
# Poissons Ratio (x) = 0.36710 0.39942
# Poissons Ratio (y) = 0.33449 0.07240
# Poissons Ratio (z) = 0.37757 0.07511
#
# Static dielectric constant tensor:
#      x y z
#    x 1.515290 0.000000 0.000000 
#    y 0.000000 1.521240 0.000000 
#    z 0.000000 0.000000 1.500420 
# 
# From -- ./inp_files/4569.got.cif
#   From: 2010.05.17/outbox.cif.g08.bks.cpg/sg31_3_cif.got.tgz:4569.got - 2010.06.03 17:08:30.
