data_PCOD9342431
_publ_section_title
;
Structure prediction by ZEFSAII (Michael W. Deem and Ramdas Pophale) SiO2 
 PCOD9342431
Probable space group: P N C 2
;
_chemical_formula_sum "Si O2"
_cell_formula_units_Z 30
_cell_length_a 5.123557
_cell_length_b 15.003336
_cell_length_c 15.977168
_cell_angle_alpha 90.000000
_cell_angle_beta 90.000000
_cell_angle_gamma 90.000000
_cell_volume 1228.172049
_symmetry_space_group_name_H-M "P N C 2"
_symmetry_group_IT_number 30
_symmetry_cell_setting 'orthorhombic'
loop_
_space_group_symop_operation_xyz
x,y,z
-x,-y,z
-x,1/2+y,1/2+z
x,1/2-y,1/2+z
loop_
_atom_site_type_symbol
_atom_site_label
_atom_site_fract_x
_atom_site_fract_y
_atom_site_fract_z
Si Si1 0.226655 0.245756 0.748630
Si Si2 0.500000 0.500000 0.095490
Si Si3 0.587255 0.702094 0.426039
Si Si4 0.140572 0.127682 0.487978
Si Si5 0.151456 0.654941 0.149814
Si Si6 0.888177 0.405229 0.817200
Si Si7 0.601528 0.345419 0.670382
Si Si8 0.092470 0.602574 0.504199
O O1 0.401589 0.211065 0.825558
O O2 0.300894 0.314542 0.671165
O O3 0.096480 0.158122 0.709895
O O4 0.032615 0.313295 0.795293
O O5 0.334222 0.570129 0.148834
O O6 0.705247 0.550652 0.036305
O O7 0.635564 0.803793 0.457288
O O8 0.326695 0.648826 0.450804
O O9 0.832377 0.653732 0.471773
O O10 0.956036 0.170930 0.557198
O O11 0.943065 0.095702 0.415823
O O12 0.301275 0.743624 0.174402
O O13 0.630548 0.393725 0.760471
O O14 0.000000 0.500000 0.787981
O O15 0.765388 0.390932 0.596899
O O16 0.000000 0.500000 0.493782
#
# Coordination Sequence:
#
# PCOD9342431 Si02
#       8
#     4   2   4   4   4   4   4   4
#     4  10  25  43  74 105 144 202 248 315 388 453
#     4  12  24  38  70 104 144 196 246 308 366 478
#     4  11  26  48  79 106 151 199 253 317 380 460
#     4  11  24  43  70 105 145 195 240 307 380 459
#     4  11  22  43  67 102 140 186 250 299 383 442
#     4  10  23  41  65 106 149 182 243 311 376 457
#     4  11  24  43  74 102 146 192 248 310 389 450
#     4  12  26  49  79 110 149 203 260 314 382 459
#
# _framework density 24.426546999999999
#
# number of rings (size 3 to 8) (size 9 to 14) (size 15 to 20)
#    0.000    1.067    1.333    4.400    7.467    3.733 
#    2.400    2.667    2.933    0.000    0.000    0.000 
#    0.000    0.000    0.000    0.000    0.000    0.000 
#
# Total GULP energy -167156.288901 kJ/mol
# GULP energy per Si atom -5571.876297 kJ/mol
# Density = 2.437095 g / cm^3
# Si number density = 24.426547 Si / 1000 Ang^3
#
#
#
# Elastic Constant Matrix: (Units=GPa)
#
#
# Indices 1 2 3 4 5 6 
#
# 1 74.4050 24.9612 25.6812 0.0000 0.0000 0.0000
# 2 24.9612 128.1419 40.1486 0.0000 0.0000 0.0000
# 3 25.6812 40.1486 105.9346 0.0000 0.0000 0.0000
# 4 0.0000 0.0000 0.0000 9.7191 0.0000 0.0000
# 5 0.0000 0.0000 0.0000 0.0000 -29.7117 0.0000
# 6 0.0000 0.0000 0.0000 0.0000 0.0000 44.2772
#
#
#
# Elastic Compliance Matrix: (Units=1/GPa)
#
#
# Indices 1 2 3 4 5 6 
#
# 1 0.015123 -0.002039 -0.002893 0.000000 0.000000 0.000000
# 2 -0.002039 0.009130 -0.002966 0.000000 0.000000 0.000000
# 3 -0.002893 -0.002966 0.011265 0.000000 0.000000 0.000000
# 4 0.000000 0.000000 0.000000 0.102891 0.000000 0.000000
# 5 0.000000 0.000000 0.000000 0.000000 -0.033657 0.000000
# 6 0.000000 0.000000 0.000000 0.000000 0.000000 0.022585
#
#
# Mechanical properties :
#
#
# Convention : Reuss Voigt Hill
#
# Bulk Modulus (GPa) = 50.70661 54.45152 52.57906
# Shear Modulus (GPa) = 33.39833 19.36962 26.38397
#
# Velocity S-wave (km/s) = 3.70171 2.81903 3.29011
# Velocity P-wave (km/s) = 6.25093 5.73901 6.00043
#
# Compressibility (1/GPa) = 0.01972129
#
# Stress axis : x y z
#
# Youngs Moduli (GPa) = 66.12569 109.52452 88.76841
#
# Poissons Ratio (x) = 0.22336 0.25683
# Poissons Ratio (y) = 0.13485 0.26329
# Poissons Ratio (z) = 0.19132 0.32485
#
# Static dielectric constant tensor:
#      x y z
#    x 3.506710 0.000000 0.000000 
#    y 0.000000 2.044670 0.000000 
#    z 0.000000 0.000000 1.997500 
# 
# From -- ./inp_files/6015.got.cif
#   From: 2010.05.17/outbox.cif.g08.bks.cpg/sg30_4_cif.got.tgz:6015.got - 2010.06.03 17:03:02.
