data_PCOD9342184
_publ_section_title
;
Structure prediction by ZEFSAII (Michael W. Deem and Ramdas Pophale) SiO2 
 PCOD9342184
Probable space group: P N C 2
;
_chemical_formula_sum "Si O2"
_cell_formula_units_Z 28
_cell_length_a 8.317443
_cell_length_b 18.879402
_cell_length_c 8.666999
_cell_angle_alpha 90.000000
_cell_angle_beta 90.000000
_cell_angle_gamma 90.000000
_cell_volume 1360.964553
_symmetry_space_group_name_H-M "P N C 2"
_symmetry_group_IT_number 30
_symmetry_cell_setting 'orthorhombic'
loop_
_space_group_symop_operation_xyz
x,y,z
-x,-y,z
-x,1/2+y,1/2+z
x,1/2-y,1/2+z
loop_
_atom_site_type_symbol
_atom_site_label
_atom_site_fract_x
_atom_site_fract_y
_atom_site_fract_z
Si Si1 0.342762 0.038045 0.644540
Si Si2 0.373749 0.180543 0.442654
Si Si3 0.719049 0.311931 0.783895
Si Si4 0.132537 0.814106 0.975123
Si Si5 0.944196 0.888093 0.752879
Si Si6 0.821755 0.766681 0.171004
Si Si7 0.118492 0.941816 0.445439
O O1 0.376564 0.110082 0.547961
O O2 0.204959 0.058675 0.767510
O O3 0.500000 0.000000 0.709068
O O4 0.264988 0.983706 0.523251
O O5 0.544082 0.189107 0.359858
O O6 0.239403 0.181898 0.306570
O O7 0.321874 0.245184 0.554314
O O8 0.725330 0.314783 0.599635
O O9 0.815164 0.381049 0.838556
O O10 0.814842 0.244231 0.849861
O O11 0.974322 0.793570 0.074552
O O12 0.080822 0.884168 0.882283
O O13 0.872781 0.808918 0.743580
O O14 0.021680 0.906654 0.587936
O O15 0.000000 0.000000 0.372403
#
# Coordination Sequence:
#
# PCOD9342184 Si02
#       7
#     4   4   4   4   4   4   4
#     4  10  21  41  66  86 123 166 218 253 307 390
#     4  11  23  37  62  96 125 164 206 261 327 371
#     4  12  22  38  59  94 125 160 204 263 315 372
#     4  12  22  38  63  89 129 161 206 260 317 380
#     4  10  21  38  61  92 117 164 209 260 310 374
#     4  11  20  37  60  91 127 156 202 256 326 378
#     4  10  21  38  62  87 115 163 212 252 299 374
#
# _framework density 20.573643000000001
#
# number of rings (size 3 to 8) (size 9 to 14) (size 15 to 20)
#    0.000    1.143    5.714    0.857    4.000    0.000 
#    0.000    2.143    0.000    0.857    0.000    0.000 
#    0.000    0.000    0.000    0.000    0.000    0.000 
#
# Total GULP energy -156328.874279 kJ/mol
# GULP energy per Si atom -5583.174081 kJ/mol
# Density = 2.052682 g / cm^3
# Si number density = 20.573643 Si / 1000 Ang^3
#
#
#
# Elastic Constant Matrix: (Units=GPa)
#
#
# Indices 1 2 3 4 5 6 
#
# 1 61.0069 6.8335 6.4273 0.0000 0.0000 0.0000
# 2 6.8335 45.2286 4.3624 0.0000 0.0000 0.0000
# 3 6.4273 4.3624 62.6250 0.0000 0.0000 0.0000
# 4 0.0000 0.0000 0.0000 19.0484 0.0000 0.0000
# 5 0.0000 0.0000 0.0000 0.0000 53.1811 0.0000
# 6 0.0000 0.0000 0.0000 0.0000 0.0000 30.5760
#
#
#
# Elastic Compliance Matrix: (Units=1/GPa)
#
#
# Indices 1 2 3 4 5 6 
#
# 1 0.016824 -0.002391 -0.001560 0.000000 0.000000 0.000000
# 2 -0.002391 0.022599 -0.001329 0.000000 0.000000 0.000000
# 3 -0.001560 -0.001329 0.016221 0.000000 0.000000 0.000000
# 4 0.000000 0.000000 0.000000 0.052498 0.000000 0.000000
# 5 0.000000 0.000000 0.000000 0.000000 0.018804 0.000000
# 6 0.000000 0.000000 0.000000 0.000000 0.000000 0.032705
#
#
# Mechanical properties :
#
#
# Convention : Reuss Voigt Hill
#
# Bulk Modulus (GPa) = 22.18115 22.67855 22.42985
# Shear Modulus (GPa) = 26.99213 30.64358 28.81786
#
# Velocity S-wave (km/s) = 3.62605 3.86354 3.74668
# Velocity P-wave (km/s) = 5.32313 5.56324 5.44451
#
# Compressibility (1/GPa) = 0.04508333
#
# Stress axis : x y z
#
# Youngs Moduli (GPa) = 59.43954 44.24898 61.64944
#
# Poissons Ratio (x) = 0.10582 0.09618
# Poissons Ratio (y) = 0.14214 0.08192
# Poissons Ratio (z) = 0.09273 0.05880
#
# Static dielectric constant tensor:
#      x y z
#    x 1.760800 0.000000 0.000000 
#    y 0.000000 1.723410 0.000000 
#    z 0.000000 0.000000 1.785390 
# 
# From -- ./inp_files/2073.got.cif
#   From: 2010.05.17/outbox.cif.g08.bks.cpg/sg30_2_cif.got.tgz:2073.got - 2010.06.03 17:03:02.
