data_PCOD9342016
_publ_section_title
;
Structure prediction by ZEFSAII (Michael W. Deem and Ramdas Pophale) SiO2 
 PCOD9342016
Probable space group: P N C 2
;
_chemical_formula_sum "Si O2"
_cell_formula_units_Z 24
_cell_length_a 5.306183
_cell_length_b 9.142015
_cell_length_c 24.154006
_cell_angle_alpha 90.000000
_cell_angle_beta 90.000000
_cell_angle_gamma 90.000000
_cell_volume 1171.691618
_symmetry_space_group_name_H-M "P N C 2"
_symmetry_group_IT_number 30
_symmetry_cell_setting 'orthorhombic'
loop_
_space_group_symop_operation_xyz
x,y,z
-x,-y,z
-x,1/2+y,1/2+z
x,1/2-y,1/2+z
loop_
_atom_site_type_symbol
_atom_site_label
_atom_site_fract_x
_atom_site_fract_y
_atom_site_fract_z
Si Si1 0.000000 0.500000 0.867861
Si Si2 0.503100 0.322832 0.705361
Si Si3 0.000000 0.500000 0.350955
Si Si4 0.302368 0.745023 0.418332
Si Si5 0.008880 0.676905 0.645266
Si Si6 0.682113 0.747162 0.321827
Si Si7 0.246071 0.597860 0.532938
O O1 0.181947 0.596952 0.906356
O O2 0.131809 0.383566 0.827932
O O3 0.500000 0.500000 0.702306
O O4 0.768605 0.265976 0.683586
O O5 0.485842 0.280035 0.769345
O O6 0.264664 0.272952 0.667229
O O7 0.867654 0.379366 0.389186
O O8 0.809960 0.591509 0.314069
O O9 0.553481 0.740469 0.381978
O O10 0.328055 0.698274 0.481580
O O11 0.124321 0.690942 0.583320
O O12 0.000000 0.500000 0.650553
O O13 0.500000 0.500000 0.548127
O O14 0.000000 0.500000 0.516138
#
# Coordination Sequence:
#
# PCOD9342016 Si02
#       7
#     2   4   2   4   4   4   4
#     4  10  24  38  56  90 120 164 206 248 314 376
#     4  10  20  34  58  86 123 157 201 257 312 368
#     4  10  22  38  58  90 120 164 202 248 314 378
#     4  11  22  39  60  91 125 162 208 254 320 377
#     4   9  19  34  54  88 120 155 203 255 313 362
#     4  11  23  38  60  90 125 164 208 256 318 377
#     4  11  21  37  61  92 125 160 205 265 318 377
#
# _framework density 20.483207
#
# number of rings (size 3 to 8) (size 9 to 14) (size 15 to 20)
#    0.000    1.667    0.833    5.500   10.500    0.000 
#    0.000    0.000    0.000    1.000    0.000    0.000 
#    0.000    0.000    0.000    0.000    0.000    0.000 
#
# Total GULP energy -133817.845183 kJ/mol
# GULP energy per Si atom -5575.743549 kJ/mol
# Density = 2.043659 g / cm^3
# Si number density = 20.483207 Si / 1000 Ang^3
#
#
#
# Elastic Constant Matrix: (Units=GPa)
#
#
# Indices 1 2 3 4 5 6 
#
# 1 94.3124 22.5799 30.7666 0.0000 0.0000 0.0000
# 2 22.5799 59.5605 12.4347 0.0000 0.0000 0.0000
# 3 30.7666 12.4347 118.0925 0.0000 0.0000 0.0000
# 4 0.0000 0.0000 0.0000 -2.4157 0.0000 0.0000
# 5 0.0000 0.0000 0.0000 0.0000 28.7878 0.0000
# 6 0.0000 0.0000 0.0000 0.0000 0.0000 13.6787
#
#
#
# Elastic Compliance Matrix: (Units=1/GPa)
#
#
# Indices 1 2 3 4 5 6 
#
# 1 0.012519 -0.004157 -0.002824 0.000000 0.000000 0.000000
# 2 -0.004157 0.018547 -0.000870 0.000000 0.000000 0.000000
# 3 -0.002824 -0.000870 0.009295 0.000000 0.000000 0.000000
# 4 0.000000 0.000000 0.000000 -0.413952 0.000000 0.000000
# 5 0.000000 0.000000 0.000000 0.000000 0.034737 0.000000
# 6 0.000000 0.000000 0.000000 0.000000 0.000000 0.073107
#
#
# Mechanical properties :
#
#
# Convention : Reuss Voigt Hill
#
# Bulk Modulus (GPa) = 40.55065 44.83641 42.69353
# Shear Modulus (GPa) = -20.67607 21.75576 0.53985
#
# Velocity S-wave (km/s) = -3.18058 3.26256 0.51393
# Velocity P-wave (km/s) = 2.52030 6.01077 4.60875
#
# Compressibility (1/GPa) = 0.02466052
#
# Stress axis : x y z
#
# Youngs Moduli (GPa) = 79.87557 53.91675 107.58147
#
# Poissons Ratio (x) = 0.22411 0.30381
# Poissons Ratio (y) = 0.33201 0.09360
# Poissons Ratio (z) = 0.22557 0.04691
#
# Static dielectric constant tensor:
#      x y z
#    x 1.833940 0.000000 0.000000 
#    y 0.000000 1.824750 0.000000 
#    z 0.000000 0.000000 1.754550 
# 
# From -- ./inp_files/7187.got.cif
#   From: 2010.05.17/outbox.cif.g08.bks.cpg/sg30_4_cif.got.tgz:7187.got - 2010.06.03 17:03:02.
