data_PCOD9342081
_publ_section_title
;
Structure prediction by ZEFSAII (Michael W. Deem and Ramdas Pophale) SiO2 
 PCOD9342081
Probable space group: P N C 2
;
_chemical_formula_sum "Si O2"
_cell_formula_units_Z 32
_cell_length_a 14.107521
_cell_length_b 9.988839
_cell_length_c 9.352039
_cell_angle_alpha 90.000000
_cell_angle_beta 90.000000
_cell_angle_gamma 90.000000
_cell_volume 1317.868350
_symmetry_space_group_name_H-M "P N C 2"
_symmetry_group_IT_number 30
_symmetry_cell_setting 'orthorhombic'
loop_
_space_group_symop_operation_xyz
x,y,z
-x,-y,z
-x,1/2+y,1/2+z
x,1/2-y,1/2+z
loop_
_atom_site_type_symbol
_atom_site_label
_atom_site_fract_x
_atom_site_fract_y
_atom_site_fract_z
Si Si1 0.610664 0.461228 0.908620
Si Si2 0.888547 0.859038 0.889520
Si Si3 0.067165 0.384598 0.083647
Si Si4 0.216622 0.605728 0.092590
Si Si5 0.808375 0.148475 0.927171
Si Si6 0.689153 0.739878 0.781424
Si Si7 0.582557 0.665764 0.521601
Si Si8 0.384874 0.862603 0.107472
O O1 0.500000 0.500000 0.930008
O O2 0.664658 0.593286 0.845364
O O3 0.619198 0.353921 0.778949
O O4 0.675243 0.413178 0.040233
O O5 0.956471 0.863920 0.751282
O O6 0.790945 0.793297 0.828334
O O7 0.865447 0.008596 0.947328
O O8 0.927403 0.756216 0.005524
O O9 0.167551 0.461489 0.082651
O O10 0.000000 0.500000 0.021824
O O11 0.209917 0.651854 0.257274
O O12 0.158067 0.709095 0.990849
O O13 0.712772 0.144091 0.022247
O O14 0.663179 0.739547 0.614870
O O15 0.610930 0.831530 0.858118
O O16 0.589611 0.516855 0.578078
O O17 0.476866 0.716511 0.550903
#
# Coordination Sequence:
#
# PCOD9342081 Si02
#       8
#     4   4   4   4   4   4   4   4
#     4  11  22  40  61  96 144 192 242 293 357 418
#     4  11  24  46  78 108 139 185 235 295 361 440
#     4  11  27  50  78 112 144 176 236 294 360 441
#     4  11  26  46  66 103 143 190 238 301 358 429
#     4  11  25  43  68  97 141 186 241 291 364 423
#     4  11  20  37  64  92 131 182 233 294 345 414
#     4  10  21  33  55  87 131 175 238 286 339 399
#     4  10  20  39  54  89 131 188 236 289 342 416
#
# _framework density 24.281638999999998
#
# number of rings (size 3 to 8) (size 9 to 14) (size 15 to 20)
#    0.000    1.250    5.000    1.500    5.250    4.000 
#    2.250    0.625    0.000    0.000    0.000    0.000 
#    0.000    0.000    0.000    0.000    0.000    0.000 
#
# Total GULP energy -178779.340449 kJ/mol
# GULP energy per Si atom -5586.854389 kJ/mol
# Density = 2.422637 g / cm^3
# Si number density = 24.281639 Si / 1000 Ang^3
#
#
#
# Elastic Constant Matrix: (Units=GPa)
#
#
# Indices 1 2 3 4 5 6 
#
# 1 71.5258 19.3643 20.1477 0.0000 0.0000 0.0000
# 2 19.3643 130.4175 52.1440 0.0000 0.0000 0.0000
# 3 20.1477 52.1440 120.3444 0.0000 0.0000 0.0000
# 4 0.0000 0.0000 0.0000 41.4588 0.0000 0.0000
# 5 0.0000 0.0000 0.0000 0.0000 153.0841 0.0000
# 6 0.0000 0.0000 0.0000 0.0000 0.0000 37.7518
#
#
#
# Elastic Compliance Matrix: (Units=1/GPa)
#
#
# Indices 1 2 3 4 5 6 
#
# 1 0.014902 -0.001470 -0.001858 0.000000 0.000000 0.000000
# 2 -0.001470 0.009419 -0.003835 0.000000 0.000000 0.000000
# 3 -0.001858 -0.003835 0.010282 0.000000 0.000000 0.000000
# 4 0.000000 0.000000 0.000000 0.024120 0.000000 0.000000
# 5 0.000000 0.000000 0.000000 0.000000 0.006532 0.000000
# 6 0.000000 0.000000 0.000000 0.000000 0.000000 0.026489
#
#
# Mechanical properties :
#
#
# Convention : Reuss Voigt Hill
#
# Bulk Modulus (GPa) = 49.31506 56.17774 52.74640
# Shear Modulus (GPa) = 44.31411 61.83436 53.07424
#
# Velocity S-wave (km/s) = 4.27664 5.05181 4.68030
# Velocity P-wave (km/s) = 6.68879 7.56398 7.13981
#
# Compressibility (1/GPa) = 0.02027778
#
# Stress axis : x y z
#
# Youngs Moduli (GPa) = 67.10389 106.16457 97.25428
#
# Poissons Ratio (x) = 0.15604 0.18070
# Poissons Ratio (y) = 0.09863 0.37299
# Poissons Ratio (z) = 0.12468 0.40717
#
# Static dielectric constant tensor:
#      x y z
#    x 1.587000 0.000000 0.000000 
#    y 0.000000 2.096010 0.000000 
#    z 0.000000 0.000000 1.904180 
# 
# From -- ./inp_files/2689.got.cif
#   From: 2010.05.17/outbox.cif.g08.bks.cpg/sg30_2_cif.got.tgz:2689.got - 2010.06.03 17:03:02.
