data_PCOD9342118
_publ_section_title
;
Structure prediction by ZEFSAII (Michael W. Deem and Ramdas Pophale) SiO2 
 PCOD9342118
Probable space group: P N C 2
;
_chemical_formula_sum "Si O2"
_cell_formula_units_Z 18
_cell_length_a 10.381174
_cell_length_b 5.133425
_cell_length_c 12.856331
_cell_angle_alpha 90.000000
_cell_angle_beta 90.000000
_cell_angle_gamma 90.000000
_cell_volume 685.126454
_symmetry_space_group_name_H-M "P N C 2"
_symmetry_group_IT_number 30
_symmetry_cell_setting 'orthorhombic'
loop_
_space_group_symop_operation_xyz
x,y,z
-x,-y,z
-x,1/2+y,1/2+z
x,1/2-y,1/2+z
loop_
_atom_site_type_symbol
_atom_site_label
_atom_site_fract_x
_atom_site_fract_y
_atom_site_fract_z
Si Si1 0.000000 0.000000 0.664391
Si Si2 0.204630 0.607514 0.987269
Si Si3 0.634516 0.615982 0.466989
Si Si4 0.586608 0.747144 0.226472
Si Si5 0.139674 0.396485 0.759972
O O1 0.899893 0.110786 0.577860
O O2 0.895295 0.904508 0.749583
O O3 0.315690 0.391802 0.010355
O O4 0.261594 0.892012 0.978216
O O5 0.153188 0.514860 0.874036
O O6 0.500000 0.500000 0.509132
O O7 0.616594 0.659660 0.344418
O O8 0.500000 0.500000 0.184767
O O9 0.725614 0.888773 0.197850
O O10 0.500000 0.000000 0.233260
O O11 0.000000 0.500000 0.714265
#
# Coordination Sequence:
#
# PCOD9342118 Si02
#       5
#     2   4   4   4   4
#     4  12  30  46  72 108 152 192 258 306 374 442
#     4  11  25  45  72 108 145 190 246 307 365 446
#     4  10  20  41  73 105 141 189 241 299 375 444
#     4  10  21  41  72 109 144 190 245 307 374 449
#     4  11  26  45  77 104 147 198 246 307 376 447
#
# _framework density 26.272521000000001
#
# number of rings (size 3 to 8) (size 9 to 14) (size 15 to 20)
#    0.000    1.333    1.111    6.000   12.444    0.000 
#    0.000    3.333    0.000    0.000    0.000    0.000 
#    0.000    0.000    0.000    0.000    0.000    0.000 
#
# Total GULP energy -100252.366474 kJ/mol
# GULP energy per Si atom -5569.575915 kJ/mol
# Density = 2.621272 g / cm^3
# Si number density = 26.272521 Si / 1000 Ang^3
#
#
#
# Elastic Constant Matrix: (Units=GPa)
#
#
# Indices 1 2 3 4 5 6 
#
# 1 197.2269 61.5939 27.5257 0.0000 0.0000 0.0000
# 2 61.5939 122.5011 53.5786 0.0000 0.0000 0.0000
# 3 27.5257 53.5786 140.4242 0.0000 0.0000 0.0000
# 4 0.0000 0.0000 0.0000 17.7422 0.0000 0.0000
# 5 0.0000 0.0000 0.0000 0.0000 132.1496 0.0000
# 6 0.0000 0.0000 0.0000 0.0000 0.0000 25.6478
#
#
#
# Elastic Compliance Matrix: (Units=1/GPa)
#
#
# Indices 1 2 3 4 5 6 
#
# 1 0.006015 -0.003011 -0.000030 0.000000 0.000000 0.000000
# 2 -0.003011 0.011306 -0.003723 0.000000 0.000000 0.000000
# 3 -0.000030 -0.003723 0.008548 0.000000 0.000000 0.000000
# 4 0.000000 0.000000 0.000000 0.056363 0.000000 0.000000
# 5 0.000000 0.000000 0.000000 0.000000 0.007567 0.000000
# 6 0.000000 0.000000 0.000000 0.000000 0.000000 0.038990
#
#
# Mechanical properties :
#
#
# Convention : Reuss Voigt Hill
#
# Bulk Modulus (GPa) = 81.04344 82.83874 81.94109
# Shear Modulus (GPa) = 34.14588 56.27152 45.20870
#
# Velocity S-wave (km/s) = 3.60902 4.63302 4.15270
# Velocity P-wave (km/s) = 6.94844 7.76008 7.36545
#
# Compressibility (1/GPa) = 0.01233906
#
# Stress axis : x y z
#
# Youngs Moduli (GPa) = 166.25445 88.45080 116.98826
#
# Poissons Ratio (x) = 0.26634 0.00353
# Poissons Ratio (y) = 0.50061 0.43560
# Poissons Ratio (z) = 0.00501 0.32934
#
# Static dielectric constant tensor:
#      x y z
#    x 2.130480 0.000000 0.000000 
#    y 0.000000 1.517830 0.000000 
#    z 0.000000 0.000000 2.064330 
# 
# From -- ./inp_files/5293.got.cif
#   From: 2010.05.17/outbox.cif.g08.bks.cpg/sg30_3_cif.got.tgz:5293.got - 2010.06.03 17:03:02.
