data_PCOD9342557
_publ_section_title
;
Structure prediction by ZEFSAII (Michael W. Deem and Ramdas Pophale) SiO2 
 PCOD9342557
Probable space group: P N C 2
;
_chemical_formula_sum "Si O2"
_cell_formula_units_Z 24
_cell_length_a 5.521765
_cell_length_b 23.404224
_cell_length_c 9.727311
_cell_angle_alpha 90.000000
_cell_angle_beta 90.000000
_cell_angle_gamma 90.000000
_cell_volume 1257.085934
_symmetry_space_group_name_H-M "P N C 2"
_symmetry_group_IT_number 30
_symmetry_cell_setting 'orthorhombic'
loop_
_space_group_symop_operation_xyz
x,y,z
-x,-y,z
-x,1/2+y,1/2+z
x,1/2-y,1/2+z
loop_
_atom_site_type_symbol
_atom_site_label
_atom_site_fract_x
_atom_site_fract_y
_atom_site_fract_z
Si Si1 0.631916 0.297277 0.175330
Si Si2 0.868083 0.297277 0.476474
Si Si3 0.250000 0.266503 0.825902
Si Si4 0.450228 0.871551 0.440134
Si Si5 0.250000 0.034544 0.325902
Si Si6 0.049772 0.871551 0.211670
O O1 0.750000 0.301187 0.325902
O O2 0.365117 0.274020 0.211260
O O3 0.750000 0.250000 0.075902
O O4 0.644121 0.355969 0.090606
O O5 0.855878 0.355969 0.561198
O O6 0.134883 0.274020 0.440544
O O7 0.442334 0.311317 0.886491
O O8 0.057667 0.311317 0.765313
O O9 0.653365 0.920737 0.441052
O O10 0.250000 0.887166 0.325902
O O11 0.153365 0.079263 0.210752
O O12 0.500000 0.000000 0.291530
O O13 0.000000 0.000000 0.360273
#
# Coordination Sequence:
#
# PCOD9342557 Si02
#       6
#     4   4   4   4   4   4
#     4  12  22  35  55  93 140 177 206 249 308 395
#     4  12  22  35  55  93 140 177 206 249 308 395
#     4  11  20  34  58  84 142 174 206 241 312 388
#     4  11  22  38  63  95 125 167 219 261 322 385
#     4  11  24  44  68  96 116 158 222 299 332 370
#     4  11  22  38  63  95 125 167 219 261 322 385
#
# _framework density 19.091773
#
# number of rings (size 3 to 8) (size 9 to 14) (size 15 to 20)
#    0.000    0.667    8.333    1.000    0.000    0.000 
#    0.000    0.000    0.000    0.000   13.000    0.000 
#    0.000    0.000    0.000    0.000    0.000    0.000 
#
# Total GULP energy -133648.984375 kJ/mol
# GULP energy per Si atom -5568.707682 kJ/mol
# Density = 1.904832 g / cm^3
# Si number density = 19.091773 Si / 1000 Ang^3
#
#
#
# Elastic Constant Matrix: (Units=GPa)
#
#
# Indices 1 2 3 4 5 6 
#
# 1 98.9316 45.8783 46.6528 0.0000 0.0000 0.0000
# 2 45.8783 94.0221 44.0802 0.0000 0.0000 0.0000
# 3 46.6528 44.0802 135.8777 0.0000 0.0000 0.0000
# 4 0.0000 0.0000 0.0000 8.2073 0.0000 0.0000
# 5 0.0000 0.0000 0.0000 0.0000 43.2449 0.0000
# 6 0.0000 0.0000 0.0000 0.0000 0.0000 37.1503
#
#
#
# Elastic Compliance Matrix: (Units=1/GPa)
#
#
# Indices 1 2 3 4 5 6 
#
# 1 0.014073 -0.005427 -0.003071 0.000000 0.000000 0.000000
# 2 -0.005427 0.014636 -0.002885 0.000000 0.000000 0.000000
# 3 -0.003071 -0.002885 0.009350 0.000000 0.000000 0.000000
# 4 0.000000 0.000000 0.000000 0.121843 0.000000 0.000000
# 5 0.000000 0.000000 0.000000 0.000000 0.023124 0.000000
# 6 0.000000 0.000000 0.000000 0.000000 0.000000 0.026918
#
#
# Mechanical properties :
#
#
# Convention : Reuss Voigt Hill
#
# Bulk Modulus (GPa) = 65.38947 66.89490 66.14218
# Shear Modulus (GPa) = 21.02535 30.53517 25.78026
#
# Velocity S-wave (km/s) = 3.32215 4.00357 3.67868
# Velocity P-wave (km/s) = 7.00286 7.51573 7.26382
#
# Compressibility (1/GPa) = 0.01529298
#
# Stress axis : x y z
#
# Youngs Moduli (GPa) = 71.05774 68.32253 106.95231
#
# Poissons Ratio (x) = 0.37079 0.32848
# Poissons Ratio (y) = 0.38564 0.30854
# Poissons Ratio (z) = 0.21824 0.19710
#
# Static dielectric constant tensor:
#      x y z
#    x 1.826430 0.000000 0.000000 
#    y 0.000000 1.682120 0.000000 
#    z 0.000000 0.000000 1.715950 
# 
# From -- ./inp_files/1436.got.cif
#   From: 2010.05.17/outbox.cif.g08.bks.cpg/sg30_1_cif.got.tgz:1436.got - 2010.06.03 17:03:02.
