data_PCOD9342163
_publ_section_title
;
Structure prediction by ZEFSAII (Michael W. Deem and Ramdas Pophale) SiO2 
 PCOD9342163
Probable space group: P N C 2
;
_chemical_formula_sum "Si O2"
_cell_formula_units_Z 32
_cell_length_a 5.084250
_cell_length_b 26.333546
_cell_length_c 13.700089
_cell_angle_alpha 90.000000
_cell_angle_beta 90.000000
_cell_angle_gamma 90.000000
_cell_volume 1834.254654
_symmetry_space_group_name_H-M "P N C 2"
_symmetry_group_IT_number 30
_symmetry_cell_setting 'orthorhombic'
loop_
_space_group_symop_operation_xyz
x,y,z
-x,-y,z
-x,1/2+y,1/2+z
x,1/2-y,1/2+z
loop_
_atom_site_type_symbol
_atom_site_label
_atom_site_fract_x
_atom_site_fract_y
_atom_site_fract_z
Si Si1 0.946894 0.728165 0.578510
Si Si2 0.214315 0.193041 0.868924
Si Si3 0.756361 0.034993 0.692782
Si Si4 0.756361 0.465007 0.964238
Si Si5 0.299686 0.645213 0.881594
Si Si6 0.214314 0.306959 0.788096
Si Si7 0.700315 0.354787 0.275426
Si Si8 0.448808 0.796246 0.578510
O O1 0.879762 0.698081 0.480167
O O2 0.879763 0.698081 0.676853
O O3 0.745707 0.775939 0.578510
O O4 0.243786 0.749213 0.578510
O O5 0.265048 0.250000 0.828510
O O6 0.477821 0.160760 0.853310
O O7 0.977764 0.168738 0.807166
O O8 0.797187 0.049766 0.578510
O O9 0.726542 0.085597 0.755623
O O10 0.500000 0.000000 0.697713
O O11 0.000000 0.000000 0.722766
O O12 0.500000 0.500000 0.959307
O O13 0.726542 0.414403 0.901397
O O14 0.000000 0.500000 0.934253
O O15 0.522180 0.660760 0.803710
O O16 0.022237 0.668738 0.849854
O O17 0.392205 0.671276 0.982358
O O18 0.607796 0.328724 0.174662
#
# Coordination Sequence:
#
# PCOD9342163 Si02
#       8
#     4   4   4   4   4   4   4   4
#     4  12  24  36  54  79 118 153 190 234 258 320
#     4  12  23  37  55  83 114 153 195 222 273 332
#     4  10  21  36  56  84 114 143 182 231 281 337
#     4  10  21  36  56  84 114 143 182 231 281 337
#     4  12  22  37  57  84 114 156 184 222 281 340
#     4  12  23  37  55  83 114 153 195 222 273 332
#     4  12  22  37  57  84 114 156 184 222 281 340
#     4  12  20  34  56  81 116 151 186 220 274 328
#
# _framework density 17.445779000000002
#
# number of rings (size 3 to 8) (size 9 to 14) (size 15 to 20)
#    0.000    0.500    6.250    3.750    0.000    0.000 
#    0.000    0.000    0.000    0.000    0.000   17.500 
#    0.000    0.000    0.000    0.000    0.000    0.000 
#
# Total GULP energy -178977.058200 kJ/mol
# GULP energy per Si atom -5593.033069 kJ/mol
# Density = 1.740607 g / cm^3
# Si number density = 17.445779 Si / 1000 Ang^3
#
#
#
# Elastic Constant Matrix: (Units=GPa)
#
#
# Indices 1 2 3 4 5 6 
#
# 1 48.6993 -0.3625 -24.3988 0.0000 0.0000 0.0000
# 2 -0.3625 84.7820 15.6479 0.0000 0.0000 0.0000
# 3 -24.3988 15.6479 55.9884 0.0000 0.0000 0.0000
# 4 0.0000 0.0000 0.0000 40.0369 0.0000 0.0000
# 5 0.0000 0.0000 0.0000 0.0000 20.5150 0.0000
# 6 0.0000 0.0000 0.0000 0.0000 0.0000 19.5138
#
#
#
# Elastic Compliance Matrix: (Units=1/GPa)
#
#
# Indices 1 2 3 4 5 6 
#
# 1 0.026632 -0.002138 0.012204 0.000000 0.000000 0.000000
# 2 -0.002138 0.012608 -0.004456 0.000000 0.000000 0.000000
# 3 0.012204 -0.004456 0.024424 0.000000 0.000000 0.000000
# 4 0.000000 0.000000 0.000000 0.024977 0.000000 0.000000
# 5 0.000000 0.000000 0.000000 0.000000 0.048745 0.000000
# 6 0.000000 0.000000 0.000000 0.000000 0.000000 0.051246
#
#
# Mechanical properties :
#
#
# Convention : Reuss Voigt Hill
#
# Bulk Modulus (GPa) = 13.35408 19.02701 16.19054
# Shear Modulus (GPa) = 24.70665 29.25203 26.97934
#
# Velocity S-wave (km/s) = 3.76732 4.09924 3.93678
# Velocity P-wave (km/s) = 5.15702 5.77366 5.47403
#
# Compressibility (1/GPa) = 0.07488349
#
# Stress axis : x y z
#
# Youngs Moduli (GPa) = 37.54833 79.31355 40.94294
#
# Poissons Ratio (x) = 0.16961 -0.49965
# Poissons Ratio (y) = 0.08030 0.18243
# Poissons Ratio (z) = -0.45822 0.35340
#
# Static dielectric constant tensor:
#      x y z
#    x 1.586330 0.000000 0.000000 
#    y 0.000000 1.560930 0.000000 
#    z 0.000000 0.000000 1.596160 
# 
# From -- ./inp_files/3295.got.cif
#   From: 2010.05.17/outbox.cif.g08.bks.cpg/sg30_2_cif.got.tgz:3295.got - 2010.06.03 17:03:02.
