data_PCOD9342487
_publ_section_title
;
Structure prediction by ZEFSAII (Michael W. Deem and Ramdas Pophale) SiO2 
 PCOD9342487
Probable space group: P N C 2
;
_chemical_formula_sum "Si O2"
_cell_formula_units_Z 16
_cell_length_a 5.013970
_cell_length_b 14.850512
_cell_length_c 9.546001
_cell_angle_alpha 90.000000
_cell_angle_beta 90.000000
_cell_angle_gamma 90.000000
_cell_volume 710.795441
_symmetry_space_group_name_H-M "P N C 2"
_symmetry_group_IT_number 30
_symmetry_cell_setting 'orthorhombic'
loop_
_space_group_symop_operation_xyz
x,y,z
-x,-y,z
-x,1/2+y,1/2+z
x,1/2-y,1/2+z
loop_
_atom_site_type_symbol
_atom_site_label
_atom_site_fract_x
_atom_site_fract_y
_atom_site_fract_z
Si Si1 0.260001 0.826667 0.803770
Si Si2 0.025443 0.816639 0.498626
Si Si3 0.500000 0.500000 0.671563
Si Si4 0.000000 0.000000 0.360073
Si Si5 0.236182 0.362224 0.458818
O O1 0.181073 0.826345 0.643293
O O2 0.204005 0.729437 0.875769
O O3 0.558720 0.856437 0.830962
O O4 0.053720 0.887178 0.896868
O O5 0.804423 0.738736 0.518584
O O6 0.920627 0.912851 0.449908
O O7 0.252074 0.529335 0.766997
O O8 0.369688 0.423710 0.574509
#
# Coordination Sequence:
#
# PCOD9342487 Si02
#       5
#     4   4   2   2   4
#     4  10  24  41  73  95 141 181 234 288 367 419
#     4  10  26  44  68 106 140 186 235 298 364 426
#     4  12  26  48  68 108 136 198 244 294 366 450
#     4  12  28  40  76  98 152 178 252 300 366 438
#     4  10  25  41  72  94 141 181 237 290 353 431
#
# _framework density 22.509993999999999
#
# number of rings (size 3 to 8) (size 9 to 14) (size 15 to 20)
#    1.500    0.000    0.000    3.000   10.500    2.000 
#    0.000    0.000    0.000    0.000    0.000    0.000 
#    0.000    0.000    0.000    0.000    0.000    0.000 
#
# Total GULP energy -89358.166219 kJ/mol
# GULP energy per Si atom -5584.885389 kJ/mol
# Density = 2.245876 g / cm^3
# Si number density = 22.509994 Si / 1000 Ang^3
#
#
#
# Elastic Constant Matrix: (Units=GPa)
#
#
# Indices 1 2 3 4 5 6 
#
# 1 75.4279 -2.9912 -8.7269 0.0000 0.0000 0.0000
# 2 -2.9912 96.0588 22.9276 0.0000 0.0000 0.0000
# 3 -8.7269 22.9276 88.1932 0.0000 0.0000 0.0000
# 4 0.0000 0.0000 0.0000 -57.7341 0.0000 0.0000
# 5 0.0000 0.0000 0.0000 0.0000 35.9516 0.0000
# 6 0.0000 0.0000 0.0000 0.0000 0.0000 15.8544
#
#
#
# Elastic Compliance Matrix: (Units=1/GPa)
#
#
# Indices 1 2 3 4 5 6 
#
# 1 0.013412 0.000108 0.001299 0.000000 0.000000 0.000000
# 2 0.000108 0.011100 -0.002875 0.000000 0.000000 0.000000
# 3 0.001299 -0.002875 0.012215 0.000000 0.000000 0.000000
# 4 0.000000 0.000000 0.000000 -0.017321 0.000000 0.000000
# 5 0.000000 0.000000 0.000000 0.000000 0.027815 0.000000
# 6 0.000000 0.000000 0.000000 0.000000 0.000000 0.063074
#
#
# Mechanical properties :
#
#
# Convention : Reuss Voigt Hill
#
# Bulk Modulus (GPa) = 29.59421 31.34431 30.46926
# Shear Modulus (GPa) = 40.16219 15.37905 27.77062
#
# Velocity S-wave (km/s) = 4.22855 2.61666 3.51622
# Velocity P-wave (km/s) = 6.08412 4.80459 5.48182
#
# Compressibility (1/GPa) = 0.03379040
#
# Stress axis : x y z
#
# Youngs Moduli (GPa) = 74.55853 90.09127 81.86848
#
# Poissons Ratio (x) = -0.00969 -0.10636
# Poissons Ratio (y) = -0.00802 0.23537
# Poissons Ratio (z) = -0.09687 0.25901
#
# Static dielectric constant tensor:
#      x y z
#    x 1.821170 0.000000 0.000000 
#    y 0.000000 2.049210 0.000000 
#    z 0.000000 0.000000 1.801010 
# 
# From -- ./inp_files/1233.got.cif
#   From: 2010.05.17/outbox.cif.g08.bks.cpg/sg30_1_cif.got.tgz:1233.got - 2010.06.03 17:03:02.
