data_PCOD9342286
_publ_section_title
;
Structure prediction by ZEFSAII (Michael W. Deem and Ramdas Pophale) SiO2 
 PCOD9342286
Probable space group: P N C 2
;
_chemical_formula_sum "Si O2"
_cell_formula_units_Z 28
_cell_length_a 9.209022
_cell_length_b 18.249818
_cell_length_c 8.682103
_cell_angle_alpha 90.000000
_cell_angle_beta 90.000000
_cell_angle_gamma 90.000000
_cell_volume 1459.140063
_symmetry_space_group_name_H-M "P N C 2"
_symmetry_group_IT_number 30
_symmetry_cell_setting 'orthorhombic'
loop_
_space_group_symop_operation_xyz
x,y,z
-x,-y,z
-x,1/2+y,1/2+z
x,1/2-y,1/2+z
loop_
_atom_site_type_symbol
_atom_site_label
_atom_site_fract_x
_atom_site_fract_y
_atom_site_fract_z
Si Si1 0.256801 0.500000 0.617770
Si Si2 0.500000 0.500000 0.870143
Si Si3 0.832733 0.836281 0.118779
Si Si4 0.663321 0.226590 0.820510
Si Si5 0.167268 0.836282 0.116762
Si Si6 0.500000 0.622646 0.117770
Si Si7 0.663322 0.773411 0.415031
Si Si8 0.500000 0.500000 0.365397
O O1 0.362902 0.486390 0.762155
O O2 0.173211 0.423955 0.597814
O O3 0.173213 0.576045 0.637726
O O4 0.362902 0.513609 0.473384
O O5 0.465360 0.569408 0.976243
O O6 0.749038 0.811935 0.275494
O O7 0.000001 0.812159 0.117770
O O8 0.748795 0.796048 0.980390
O O9 0.748795 0.296048 0.755151
O O10 0.633221 0.171889 0.677039
O O11 0.500000 0.250000 0.867770
O O12 0.749037 0.188065 0.960046
O O13 0.534638 0.569408 0.259297
O O14 0.633221 0.671888 0.058501
#
# Coordination Sequence:
#
# PCOD9342286 Si02
#       8
#     4   2   4   4   4   4   4   2
#     4  11  23  40  66  92 128 178 220 268 326 402
#     4  10  22  36  66 100 126 166 224 282 322 386
#     4  12  26  43  64  98 137 175 216 274 343 397
#     4  12  23  42  68  97 127 171 223 277 323 398
#     4  12  26  43  64  98 137 175 216 274 343 397
#     4  11  20  38  64  99 128 160 224 279 328 378
#     4  12  23  42  68  97 127 171 223 277 323 398
#     4  10  22  36  66 100 126 166 224 282 322 386
#
# _framework density 19.189382999999999
#
# number of rings (size 3 to 8) (size 9 to 14) (size 15 to 20)
#    0.000    0.571    5.714    3.000    4.000    0.000 
#    0.000    0.000    0.000    0.000    0.000    0.000 
#    0.000    0.000    0.000    0.000    0.000    0.000 
#
# Total GULP energy -156429.794686 kJ/mol
# GULP energy per Si atom -5586.778382 kJ/mol
# Density = 1.914571 g / cm^3
# Si number density = 19.189383 Si / 1000 Ang^3
#
#
#
# Elastic Constant Matrix: (Units=GPa)
#
#
# Indices 1 2 3 4 5 6 
#
# 1 137.9304 42.4333 41.6824 0.0000 0.0000 0.0000
# 2 42.4333 130.6488 39.8997 0.0000 0.0000 0.0000
# 3 41.6824 39.8997 92.4767 0.0000 0.0000 0.0000
# 4 0.0000 0.0000 0.0000 34.9695 0.0000 0.0000
# 5 0.0000 0.0000 0.0000 0.0000 81.3983 0.0000
# 6 0.0000 0.0000 0.0000 0.0000 0.0000 11.9189
#
#
#
# Elastic Compliance Matrix: (Units=1/GPa)
#
#
# Indices 1 2 3 4 5 6 
#
# 1 0.008782 -0.001893 -0.003142 0.000000 0.000000 0.000000
# 2 -0.001893 0.009224 -0.003126 0.000000 0.000000 0.000000
# 3 -0.003142 -0.003126 0.013578 0.000000 0.000000 0.000000
# 4 0.000000 0.000000 0.000000 0.028596 0.000000 0.000000
# 5 0.000000 0.000000 0.000000 0.000000 0.012285 0.000000
# 6 0.000000 0.000000 0.000000 0.000000 0.000000 0.083900
#
#
# Mechanical properties :
#
#
# Convention : Reuss Voigt Hill
#
# Bulk Modulus (GPa) = 65.52122 67.67630 66.59876
# Shear Modulus (GPa) = 28.12543 41.46003 34.79273
#
# Velocity S-wave (km/s) = 3.83257 4.65324 4.26270
# Velocity P-wave (km/s) = 7.33508 8.01338 7.68172
#
# Compressibility (1/GPa) = 0.01526223
#
# Stress axis : x y z
#
# Youngs Moduli (GPa) = 113.87296 108.41660 73.64591
#
# Poissons Ratio (x) = 0.20521 0.23136
# Poissons Ratio (y) = 0.21554 0.23025
# Poissons Ratio (z) = 0.35774 0.33896
#
# Static dielectric constant tensor:
#      x y z
#    x 1.625390 0.000000 0.000000 
#    y 0.000000 1.713160 0.000000 
#    z 0.000000 0.000000 1.688020 
# 
# From -- ./inp_files/2017.got.cif
#   From: 2010.05.17/outbox.cif.g08.bks.cpg/sg30_2_cif.got.tgz:2017.got - 2010.06.03 17:03:02.
