data_PCOD9342381
_publ_section_title
;
Structure prediction by ZEFSAII (Michael W. Deem and Ramdas Pophale) SiO2 
 PCOD9342381
Probable space group: P N C 2
;
_chemical_formula_sum "Si O2"
_cell_formula_units_Z 22
_cell_length_a 14.426903
_cell_length_b 4.848954
_cell_length_c 12.679984
_cell_angle_alpha 90.000000
_cell_angle_beta 90.000000
_cell_angle_gamma 90.000000
_cell_volume 887.033213
_symmetry_space_group_name_H-M "P N C 2"
_symmetry_group_IT_number 30
_symmetry_cell_setting 'orthorhombic'
loop_
_space_group_symop_operation_xyz
x,y,z
-x,-y,z
-x,1/2+y,1/2+z
x,1/2-y,1/2+z
loop_
_atom_site_type_symbol
_atom_site_label
_atom_site_fract_x
_atom_site_fract_y
_atom_site_fract_z
Si Si1 0.364981 0.248444 0.618050
Si Si2 0.000000 0.000000 0.165492
Si Si3 0.372562 0.761451 0.462799
Si Si4 0.829457 0.869322 0.582456
Si Si5 0.000000 0.000000 0.811822
Si Si6 0.500000 0.500000 0.288990
Si Si7 0.823487 0.396152 0.448652
O O1 0.372568 0.551749 0.565212
O O2 0.260221 0.151411 0.657787
O O3 0.434705 0.184202 0.713096
O O4 0.389939 0.048375 0.520359
O O5 0.081841 0.181095 0.111924
O O6 0.966996 0.241928 0.242520
O O7 0.440145 0.682311 0.369668
O O8 0.269510 0.749660 0.409903
O O9 0.786376 0.685049 0.490570
O O10 0.855633 0.168935 0.537697
O O11 0.910158 0.990536 0.884051
#
# Coordination Sequence:
#
# PCOD9342381 Si02
#       7
#     4   2   4   4   2   2   4
#     4  10  24  44  67 102 143 181 241 290 353 436
#     4  12  25  38  65 104 138 166 238 296 351 428
#     4  10  24  44  67 101 139 182 238 292 351 435
#     4  10  22  44  66  92 134 190 223 284 352 434
#     4  12  25  38  65 104 134 170 232 300 341 438
#     4  12  24  42  76 102 140 190 232 306 368 418
#     4  10  22  44  66  90 136 186 227 277 356 429
#
# _framework density 24.801774999999999
#
# number of rings (size 3 to 8) (size 9 to 14) (size 15 to 20)
#    0.000    1.455    0.000    3.818    2.545    4.364 
#    0.000    0.000    0.000    0.000    0.000    0.000 
#    0.000    0.000    0.000    0.000    0.000    0.000 
#
# Total GULP energy -122539.642567 kJ/mol
# GULP energy per Si atom -5569.983753 kJ/mol
# Density = 2.474533 g / cm^3
# Si number density = 24.801775 Si / 1000 Ang^3
#
#
#
# Elastic Constant Matrix: (Units=GPa)
#
#
# Indices 1 2 3 4 5 6 
#
# 1 155.4291 -0.1906 44.9990 0.0000 0.0000 0.0000
# 2 -0.1906 103.6982 2.0825 0.0000 0.0000 0.0000
# 3 44.9990 2.0825 65.8526 0.0000 0.0000 0.0000
# 4 0.0000 0.0000 0.0000 18.9325 0.0000 0.0000
# 5 0.0000 0.0000 0.0000 0.0000 -24.5307 0.0000
# 6 0.0000 0.0000 0.0000 0.0000 0.0000 31.1959
#
#
#
# Elastic Compliance Matrix: (Units=1/GPa)
#
#
# Indices 1 2 3 4 5 6 
#
# 1 0.008022 0.000125 -0.005486 0.000000 0.000000 0.000000
# 2 0.000125 0.009651 -0.000391 0.000000 0.000000 0.000000
# 3 -0.005486 -0.000391 0.018946 0.000000 0.000000 0.000000
# 4 0.000000 0.000000 0.000000 0.052819 0.000000 0.000000
# 5 0.000000 0.000000 0.000000 0.000000 -0.040765 0.000000
# 6 0.000000 0.000000 0.000000 0.000000 0.000000 0.032055
#
#
# Mechanical properties :
#
#
# Convention : Reuss Voigt Hill
#
# Bulk Modulus (GPa) = 39.81342 46.52910 43.17126
# Shear Modulus (GPa) = 49.69959 23.65881 36.67920
#
# Velocity S-wave (km/s) = 4.48132 3.09190 3.84981
# Velocity P-wave (km/s) = 6.54705 5.61673 6.09965
#
# Compressibility (1/GPa) = 0.02511716
#
# Stress axis : x y z
#
# Youngs Moduli (GPa) = 124.65486 103.61147 52.78068
#
# Poissons Ratio (x) = -0.01294 0.28954
# Poissons Ratio (y) = -0.01557 0.02061
# Poissons Ratio (z) = 0.68382 0.04047
#
# Static dielectric constant tensor:
#      x y z
#    x 2.534860 0.000000 0.000000 
#    y 0.000000 1.928490 0.000000 
#    z 0.000000 0.000000 2.111370 
# 
# From -- ./inp_files/4313.got.cif
#   From: 2010.05.17/outbox.cif.g08.bks.cpg/sg30_3_cif.got.tgz:4313.got - 2010.06.03 17:03:02.
