data_PCOD9342366
_publ_section_title
;
Structure prediction by ZEFSAII (Michael W. Deem and Ramdas Pophale) SiO2 
 PCOD9342366
Probable space group: P N C 2
;
_chemical_formula_sum "Si O2"
_cell_formula_units_Z 18
_cell_length_a 4.925752
_cell_length_b 9.232132
_cell_length_c 17.126890
_cell_angle_alpha 90.000000
_cell_angle_beta 90.000000
_cell_angle_gamma 90.000000
_cell_volume 778.848622
_symmetry_space_group_name_H-M "P N C 2"
_symmetry_group_IT_number 30
_symmetry_cell_setting 'orthorhombic'
loop_
_space_group_symop_operation_xyz
x,y,z
-x,-y,z
-x,1/2+y,1/2+z
x,1/2-y,1/2+z
loop_
_atom_site_type_symbol
_atom_site_label
_atom_site_fract_x
_atom_site_fract_y
_atom_site_fract_z
Si Si1 0.032254 0.744696 0.149330
Si Si2 0.000000 0.500000 0.042862
Si Si3 0.425723 0.342116 0.560652
Si Si4 0.238876 0.602948 0.308202
Si Si5 0.420693 0.848429 0.427252
O O1 0.312031 0.782986 0.106654
O O2 0.110233 0.687198 0.233932
O O3 0.878445 0.612370 0.105008
O O4 0.809908 0.863433 0.125575
O O5 0.798420 0.413918 0.987381
O O6 0.500000 0.500000 0.527719
O O7 0.374402 0.238957 0.484790
O O8 0.500000 0.500000 0.289739
O O9 0.318464 0.728219 0.368311
O O10 0.000000 0.500000 0.339831
O O11 0.500000 0.000000 0.385485
#
# Coordination Sequence:
#
# PCOD9342366 Si02
#       5
#     4   2   4   4   4
#     4  11  23  44  73 101 142 193 252 297 378 458
#     4  10  22  42  74  98 138 198 254 298 366 466
#     4  11  24  44  73 105 140 190 252 310 367 457
#     4  12  28  47  75 109 156 200 250 323 400 461
#     4  11  25  45  74 107 150 196 256 316 387 459
#
# _framework density 23.111037
#
# number of rings (size 3 to 8) (size 9 to 14) (size 15 to 20)
#    0.000    0.889    3.333    2.667    3.111    4.444 
#    4.000    0.000    0.000    0.000    0.000    0.000 
#    0.000    0.000    0.000    0.000    0.000    0.000 
#
# Total GULP energy -100339.584660 kJ/mol
# GULP energy per Si atom -5574.421370 kJ/mol
# Density = 2.305843 g / cm^3
# Si number density = 23.111037 Si / 1000 Ang^3
#
#
#
# Elastic Constant Matrix: (Units=GPa)
#
#
# Indices 1 2 3 4 5 6 
#
# 1 108.6278 32.1721 29.1231 0.0000 0.0000 0.0000
# 2 32.1721 143.8401 66.0383 0.0000 0.0000 0.0000
# 3 29.1231 66.0383 118.1169 0.0000 0.0000 0.0000
# 4 0.0000 0.0000 0.0000 25.9459 0.0000 0.0000
# 5 0.0000 0.0000 0.0000 0.0000 37.2903 0.0000
# 6 0.0000 0.0000 0.0000 0.0000 0.0000 39.8691
#
#
#
# Elastic Compliance Matrix: (Units=1/GPa)
#
#
# Indices 1 2 3 4 5 6 
#
# 1 0.010092 -0.001500 -0.001650 0.000000 0.000000 0.000000
# 2 -0.001500 0.009576 -0.004984 0.000000 0.000000 0.000000
# 3 -0.001650 -0.004984 0.011659 0.000000 0.000000 0.000000
# 4 0.000000 0.000000 0.000000 0.038542 0.000000 0.000000
# 5 0.000000 0.000000 0.000000 0.000000 0.026817 0.000000
# 6 0.000000 0.000000 0.000000 0.000000 0.000000 0.025082
#
#
# Mechanical properties :
#
#
# Convention : Reuss Voigt Hill
#
# Bulk Modulus (GPa) = 66.39975 69.47243 67.93609
# Shear Modulus (GPa) = 34.95151 36.83781 35.89466
#
# Velocity S-wave (km/s) = 3.89309 3.99676 3.94526
# Velocity P-wave (km/s) = 7.00009 7.17108 7.08610
#
# Compressibility (1/GPa) = 0.01506030
#
# Stress axis : x y z
#
# Youngs Moduli (GPa) = 99.08575 104.42977 85.76716
#
# Poissons Ratio (x) = 0.15663 0.14150
# Poissons Ratio (y) = 0.14861 0.42746
# Poissons Ratio (z) = 0.16347 0.52047
#
# Static dielectric constant tensor:
#      x y z
#    x 2.040050 0.000000 0.000000 
#    y 0.000000 2.264420 0.000000 
#    z 0.000000 0.000000 1.850700 
# 
# From -- ./inp_files/5794.got.cif
#   From: 2010.05.17/outbox.cif.g08.bks.cpg/sg30_3_cif.got.tgz:5794.got - 2010.06.03 17:03:02.
