data_PCOD9342144
_publ_section_title
;
Structure prediction by ZEFSAII (Michael W. Deem and Ramdas Pophale) SiO2 
 PCOD9342144
Probable space group: P N C 2
;
_chemical_formula_sum "Si O2"
_cell_formula_units_Z 18
_cell_length_a 5.523761
_cell_length_b 14.146221
_cell_length_c 9.638233
_cell_angle_alpha 90.000000
_cell_angle_beta 90.000000
_cell_angle_gamma 90.000000
_cell_volume 753.134841
_symmetry_space_group_name_H-M "P N C 2"
_symmetry_group_IT_number 30
_symmetry_cell_setting 'orthorhombic'
loop_
_space_group_symop_operation_xyz
x,y,z
-x,-y,z
-x,1/2+y,1/2+z
x,1/2-y,1/2+z
loop_
_atom_site_type_symbol
_atom_site_label
_atom_site_fract_x
_atom_site_fract_y
_atom_site_fract_z
Si Si1 0.786366 0.325511 0.557040
Si Si2 0.000000 0.500000 0.124520
Si Si3 0.500000 0.500000 0.950564
Si Si4 0.544561 0.297984 0.826421
Si Si5 0.162824 0.348250 0.324546
Si Si6 0.500000 0.000000 0.960787
O O1 0.762468 0.295017 0.715631
O O2 0.619181 0.255337 0.466672
O O3 0.678080 0.431819 0.546194
O O4 0.031656 0.324437 0.469493
O O5 0.750511 0.499704 0.037781
O O6 0.005408 0.595691 0.216972
O O7 0.489053 0.405405 0.860258
O O8 0.313639 0.240636 0.769670
O O9 0.353092 0.429723 0.363620
#
# Coordination Sequence:
#
# PCOD9342144 Si02
#       6
#     4   2   2   4   4   2
#     4  11  24  44  76 105 152 202 264 324 403 477
#     4  12  26  50  84 116 162 212 278 334 416 480
#     4  12  30  52  76 116 169 213 270 348 401 489
#     4  11  28  48  72 114 157 207 270 327 406 479
#     4  11  24  45  80 112 154 206 266 331 402 496
#     4  10  20  44  66 112 143 199 250 330 385 481
#
# _framework density 23.900103999999999
#
# number of rings (size 3 to 8) (size 9 to 14) (size 15 to 20)
#    0.000    0.889    2.222    2.667    9.333    3.556 
#    4.000    0.000    0.000    0.000    0.000    0.000 
#    0.000    0.000    0.000    0.000    0.000    0.000 
#
# Total GULP energy -100767.422108 kJ/mol
# GULP energy per Si atom -5598.190117 kJ/mol
# Density = 2.384571 g / cm^3
# Si number density = 23.900104 Si / 1000 Ang^3
#
#
#
# Elastic Constant Matrix: (Units=GPa)
#
#
# Indices 1 2 3 4 5 6 
#
# 1 125.5386 39.1130 41.3186 0.0000 0.0000 0.0000
# 2 39.1130 179.4991 40.0583 0.0000 0.0000 0.0000
# 3 41.3186 40.0583 110.0113 0.0000 0.0000 0.0000
# 4 0.0000 0.0000 0.0000 9.5325 0.0000 0.0000
# 5 0.0000 0.0000 0.0000 0.0000 13.2874 0.0000
# 6 0.0000 0.0000 0.0000 0.0000 0.0000 33.6574
#
#
#
# Elastic Compliance Matrix: (Units=1/GPa)
#
#
# Indices 1 2 3 4 5 6 
#
# 1 0.009389 -0.001370 -0.003027 0.000000 0.000000 0.000000
# 2 -0.001370 0.006264 -0.001766 0.000000 0.000000 0.000000
# 3 -0.003027 -0.001766 0.010870 0.000000 0.000000 0.000000
# 4 0.000000 0.000000 0.000000 0.104904 0.000000 0.000000
# 5 0.000000 0.000000 0.000000 0.000000 0.075260 0.000000
# 6 0.000000 0.000000 0.000000 0.000000 0.000000 0.029711
#
#
# Mechanical properties :
#
#
# Convention : Reuss Voigt Hill
#
# Bulk Modulus (GPa) = 70.44616 72.89208 71.66912
# Shear Modulus (GPa) = 19.72722 30.93274 25.32998
#
# Velocity S-wave (km/s) = 2.87610 3.60147 3.25903
# Velocity P-wave (km/s) = 6.36934 6.91802 6.64934
#
# Compressibility (1/GPa) = 0.01419524
#
# Stress axis : x y z
#
# Youngs Moduli (GPa) = 106.50747 159.64771 91.99511
#
# Poissons Ratio (x) = 0.21876 0.27851
# Poissons Ratio (y) = 0.14594 0.16248
# Poissons Ratio (z) = 0.32244 0.28197
#
# Static dielectric constant tensor:
#      x y z
#    x 2.143290 0.000000 0.000000 
#    y 0.000000 1.881310 0.000000 
#    z 0.000000 0.000000 1.886270 
# 
# From -- ./inp_files/3047.got.cif
#   From: 2010.05.17/outbox.cif.g08.bks.cpg/sg30_2_cif.got.tgz:3047.got - 2010.06.03 17:03:02.
