data_PCOD9342129
_publ_section_title
;
Structure prediction by ZEFSAII (Michael W. Deem and Ramdas Pophale) SiO2 
 PCOD9342129
Probable space group: P N C 2
;
_chemical_formula_sum "Si O2"
_cell_formula_units_Z 24
_cell_length_a 7.322182
_cell_length_b 23.574284
_cell_length_c 5.342948
_cell_angle_alpha 90.000000
_cell_angle_beta 90.000000
_cell_angle_gamma 90.000000
_cell_volume 922.274027
_symmetry_space_group_name_H-M "P N C 2"
_symmetry_group_IT_number 30
_symmetry_cell_setting 'orthorhombic'
loop_
_space_group_symop_operation_xyz
x,y,z
-x,-y,z
-x,1/2+y,1/2+z
x,1/2-y,1/2+z
loop_
_atom_site_type_symbol
_atom_site_label
_atom_site_fract_x
_atom_site_fract_y
_atom_site_fract_z
Si Si1 0.049030 0.895074 0.574790
Si Si2 0.602897 0.217873 0.199036
Si Si3 0.000000 0.000000 0.936132
Si Si4 0.231906 0.458274 0.809207
Si Si5 0.413318 0.623660 0.341259
Si Si6 0.300652 0.336567 0.960304
Si Si7 0.500000 0.500000 0.221487
O O1 0.000839 0.939530 0.794641
O O2 0.978782 0.936217 0.352166
O O3 0.251099 0.877208 0.637269
O O4 0.910124 0.841978 0.542521
O O5 0.664690 0.256673 0.964532
O O6 0.655193 0.155957 0.088834
O O7 0.385781 0.209104 0.271433
O O8 0.198859 0.005110 0.067604
O O9 0.329981 0.397590 0.821033
O O10 0.327659 0.493280 0.028602
O O11 0.483402 0.559695 0.361123
O O12 0.576308 0.659390 0.210202
#
# Coordination Sequence:
#
# PCOD9342129 Si02
#       7
#     4   4   2   4   4   4   2
#     4  10  24  41  65 104 148 194 254 306 377 457
#     4  12  26  50  82 107 146 200 262 327 391 453
#     4  12  20  36  62 102 162 200 234 310 366 464
#     4   9  22  37  61 104 146 200 245 292 378 464
#     4  11  23  44  76 108 150 201 249 319 385 469
#     4   9  24  45  70  99 142 194 255 312 376 460
#     4  10  20  42  70 108 158 200 252 294 396 468
#
# _framework density 26.022635000000001
#
# number of rings (size 3 to 8) (size 9 to 14) (size 15 to 20)
#    1.000    0.667    1.667    2.500    2.333    4.000 
#    0.000    2.500    0.000    0.000    0.000    0.000 
#    0.000    0.000    0.000    0.000    0.000    0.000 
#
# Total GULP energy -133675.367120 kJ/mol
# GULP energy per Si atom -5569.806963 kJ/mol
# Density = 2.596341 g / cm^3
# Si number density = 26.022635 Si / 1000 Ang^3
#
#
#
# Elastic Constant Matrix: (Units=GPa)
#
#
# Indices 1 2 3 4 5 6 
#
# 1 87.1995 12.1215 1.0151 0.0000 0.0000 0.0000
# 2 12.1215 122.0013 45.9590 0.0000 0.0000 0.0000
# 3 1.0151 45.9590 117.2865 0.0000 0.0000 0.0000
# 4 0.0000 0.0000 0.0000 28.8776 0.0000 0.0000
# 5 0.0000 0.0000 0.0000 0.0000 33.5688 0.0000
# 6 0.0000 0.0000 0.0000 0.0000 0.0000 30.0314
#
#
#
# Elastic Compliance Matrix: (Units=1/GPa)
#
#
# Indices 1 2 3 4 5 6 
#
# 1 0.011646 -0.001313 0.000414 0.000000 0.000000 0.000000
# 2 -0.001313 0.009764 -0.003815 0.000000 0.000000 0.000000
# 3 0.000414 -0.003815 0.010017 0.000000 0.000000 0.000000
# 4 0.000000 0.000000 0.000000 0.034629 0.000000 0.000000
# 5 0.000000 0.000000 0.000000 0.000000 0.029790 0.000000
# 6 0.000000 0.000000 0.000000 0.000000 0.000000 0.033299
#
#
# Mechanical properties :
#
#
# Convention : Reuss Voigt Hill
#
# Bulk Modulus (GPa) = 45.45618 49.40874 47.43246
# Shear Modulus (GPa) = 34.26885 36.32167 35.29526
#
# Velocity S-wave (km/s) = 3.63283 3.74006 3.68683
# Velocity P-wave (km/s) = 5.92473 6.13830 6.03246
#
# Compressibility (1/GPa) = 0.02199921
#
# Stress axis : x y z
#
# Youngs Moduli (GPa) = 85.86906 102.41579 99.82672
#
# Poissons Ratio (x) = 0.13446 -0.04129
# Poissons Ratio (y) = 0.11274 0.38081
# Poissons Ratio (z) = -0.03552 0.39069
#
# Static dielectric constant tensor:
#      x y z
#    x 2.163050 0.000000 0.000000 
#    y 0.000000 2.133010 0.000000 
#    z 0.000000 0.000000 2.204060 
# 
# From -- ./inp_files/486.got.cif
#   From: 2010.05.17/outbox.cif.g08.bks.cpg/sg30_1_cif.got.tgz:486.got - 2010.06.03 17:03:02.
