data_PCOD9342478
_publ_section_title
;
Structure prediction by ZEFSAII (Michael W. Deem and Ramdas Pophale) SiO2 
 PCOD9342478
Probable space group: P N C 2
;
_chemical_formula_sum "Si O2"
_cell_formula_units_Z 16
_cell_length_a 7.386966
_cell_length_b 6.871864
_cell_length_c 12.114823
_cell_angle_alpha 90.000000
_cell_angle_beta 90.000000
_cell_angle_gamma 90.000000
_cell_volume 614.975380
_symmetry_space_group_name_H-M "P N C 2"
_symmetry_group_IT_number 30
_symmetry_cell_setting 'orthorhombic'
loop_
_space_group_symop_operation_xyz
x,y,z
-x,-y,z
-x,1/2+y,1/2+z
x,1/2-y,1/2+z
loop_
_atom_site_type_symbol
_atom_site_label
_atom_site_fract_x
_atom_site_fract_y
_atom_site_fract_z
Si Si1 0.735841 0.691081 0.657800
Si Si2 0.799591 0.996019 0.843888
Si Si3 0.433261 0.698929 0.974858
Si Si4 0.143744 0.753493 0.132833
O O1 0.731603 0.799602 0.778957
O O2 0.932819 0.739480 0.608264
O O3 0.579994 0.747683 0.570548
O O4 0.747170 0.140984 0.540659
O O5 0.839664 0.136146 0.743495
O O6 0.000000 0.000000 0.902157
O O7 0.647571 0.113855 0.911125
O O8 0.500000 0.500000 0.916275
O O9 0.242716 0.957837 0.160283
#
# Coordination Sequence:
#
# PCOD9342478 Si02
#       4
#     4   4   4   4
#     4  10  23  50  78 104 153 212 265 341 397 486
#     4  10  24  50  78 115 161 213 273 336 410 487
#     4  12  25  46  77 124 158 210 272 340 412 493
#     4  10  23  50  75 105 156 208 270 330 407 475
#
# _framework density 26.017301
#
# number of rings (size 3 to 8) (size 9 to 14) (size 15 to 20)
#    0.000    1.500    2.500    0.750    3.500    2.000 
#   18.000    5.000    0.000    0.000    0.000    0.000 
#    0.000    0.000    0.000    0.000    0.000    0.000 
#
# Total GULP energy -89309.706054 kJ/mol
# GULP energy per Si atom -5581.856628 kJ/mol
# Density = 2.595808 g / cm^3
# Si number density = 26.017301 Si / 1000 Ang^3
#
#
#
# Elastic Constant Matrix: (Units=GPa)
#
#
# Indices 1 2 3 4 5 6 
#
# 1 109.1664 77.5881 50.2176 0.0000 0.0000 0.0000
# 2 77.5881 172.2117 39.8177 0.0000 0.0000 0.0000
# 3 50.2176 39.8177 84.4114 0.0000 0.0000 0.0000
# 4 0.0000 0.0000 0.0000 47.0497 0.0000 0.0000
# 5 0.0000 0.0000 0.0000 0.0000 69.0102 0.0000
# 6 0.0000 0.0000 0.0000 0.0000 0.0000 44.5974
#
#
#
# Elastic Compliance Matrix: (Units=1/GPa)
#
#
# Indices 1 2 3 4 5 6 
#
# 1 0.016568 -0.005820 -0.007111 0.000000 0.000000 0.000000
# 2 -0.005820 0.008562 -0.000576 0.000000 0.000000 0.000000
# 3 -0.007111 -0.000576 0.016349 0.000000 0.000000 0.000000
# 4 0.000000 0.000000 0.000000 0.021254 0.000000 0.000000
# 5 0.000000 0.000000 0.000000 0.000000 0.014491 0.000000
# 6 0.000000 0.000000 0.000000 0.000000 0.000000 0.022423
#
#
# Mechanical properties :
#
#
# Convention : Reuss Voigt Hill
#
# Bulk Modulus (GPa) = 69.13718 77.89291 73.51505
# Shear Modulus (GPa) = 38.02725 45.34255 41.68490
#
# Velocity S-wave (km/s) = 3.82725 4.17920 4.00709
# Velocity P-wave (km/s) = 6.79424 7.30010 7.05171
#
# Compressibility (1/GPa) = 0.01446400
#
# Stress axis : x y z
#
# Youngs Moduli (GPa) = 60.35599 116.78965 61.16530
#
# Poissons Ratio (x) = 0.67977 0.43496
# Poissons Ratio (y) = 0.35130 0.03525
# Poissons Ratio (z) = 0.42920 0.06730
#
# Static dielectric constant tensor:
#      x y z
#    x 2.198190 0.000000 0.000000 
#    y 0.000000 2.169530 0.000000 
#    z 0.000000 0.000000 2.084830 
# 
# From -- ./inp_files/6100.got.cif
#   From: 2010.05.17/outbox.cif.g08.bks.cpg/sg30_4_cif.got.tgz:6100.got - 2010.06.03 17:03:02.
