data_PCOD9342685
_publ_section_title
;
Structure prediction by ZEFSAII (Michael W. Deem and Ramdas Pophale) SiO2 
 PCOD9342685
Probable space group: P M N 21
;
_chemical_formula_sum "Si O2"
_cell_formula_units_Z 32
_cell_length_a 8.888277
_cell_length_b 6.967012
_cell_length_c 21.924627
_cell_angle_alpha 90.000000
_cell_angle_beta 90.000000
_cell_angle_gamma 90.000000
_cell_volume 1357.676663
_symmetry_space_group_name_H-M "P M N 21"
_symmetry_group_IT_number 31
_symmetry_cell_setting 'orthorhombic'
loop_
_space_group_symop_operation_xyz
x,y,z
1/2-x,-y,1/2+z
-x,y,z
1/2+x,-y,1/2+z
loop_
_atom_site_type_symbol
_atom_site_label
_atom_site_fract_x
_atom_site_fract_y
_atom_site_fract_z
Si Si1 0.169442 0.326995 0.299960
Si Si2 0.672309 0.625167 0.669927
Si Si3 0.827038 0.825851 0.200690
Si Si4 0.171706 0.883467 0.335263
Si Si5 0.314604 0.496260 0.547955
Si Si6 0.821002 0.078306 0.578943
Si Si7 0.827263 0.019530 0.955712
Si Si8 0.172352 0.564864 0.916534
O O1 0.245411 0.310348 0.233447
O O2 0.161243 0.113400 0.325487
O O3 0.240506 0.453329 0.353194
O O4 0.000000 0.398099 0.288658
O O5 0.500000 0.696952 0.667162
O O6 0.668457 0.394073 0.679202
O O7 0.734839 0.640605 0.601646
O O8 0.749105 0.948780 0.147082
O O9 0.000000 0.891769 0.207258
O O10 0.762988 0.820685 0.269464
O O11 0.265609 0.866231 0.397121
O O12 0.000000 0.812794 0.343254
O O13 0.500000 0.475452 0.550526
O O14 0.234899 0.294741 0.562698
O O15 0.275122 0.539731 0.478146
O O16 0.762470 0.967140 0.519001
O O17 0.000000 0.066943 0.582978
O O18 0.824390 0.792574 0.935698
O O19 0.000000 0.070277 0.968243
O O20 0.000000 0.515059 0.905102
#
# Coordination Sequence:
#
# PCOD9342685 Si02
#       8
#     4   4   4   4   4   4   4   4
#     4   9  16  26  42  64  85 106 137 176 209 241
#     4   8  14  26  44  62  81 110 143 170 203 251
#     4   9  17  30  45  61  86 119 146 169 210 263
#     4   9  17  28  44  66  88 111 143 180 212 247
#     4   8  14  26  42  59  81 110 142 172 208 253
#     4  10  17  25  41  65  88 109 141 183 217 246
#     4   9  16  27  43  62  86 114 142 174 216 259
#     4   8  14  24  39  59  81 107 136 168 207 250
#
# _framework density 23.569675
#
# number of rings (size 3 to 8) (size 9 to 14) (size 15 to 20)
#    0.000    3.250    0.000    3.000    0.000    3.500 
#    0.000    2.500    0.000    1.500    0.000    1.750 
#    0.000    0.000    0.000    0.000    0.000    0.000 
#
# Total GULP energy -178517.322039 kJ/mol
# GULP energy per Si atom -5578.666314 kJ/mol
# Density = 2.351603 g / cm^3
# Si number density = 23.569675 Si / 1000 Ang^3
#
#
#
# Elastic Constant Matrix: (Units=GPa)
#
#
# Indices 1 2 3 4 5 6 
#
# 1 65.6414 -1.4556 73.3342 0.0000 0.0000 0.0000
# 2 -1.4556 57.8719 22.6793 0.0000 0.0000 0.0000
# 3 73.3342 22.6793 251.5497 0.0000 0.0000 0.0000
# 4 0.0000 0.0000 0.0000 51.8870 0.0000 0.0000
# 5 0.0000 0.0000 0.0000 0.0000 41.5184 0.0000
# 6 0.0000 0.0000 0.0000 0.0000 0.0000 5.2602
#
#
#
# Elastic Compliance Matrix: (Units=1/GPa)
#
#
# Indices 1 2 3 4 5 6 
#
# 1 0.023204 0.003353 -0.007067 0.000000 0.000000 0.000000
# 2 0.003353 0.018397 -0.002636 0.000000 0.000000 0.000000
# 3 -0.007067 -0.002636 0.006273 0.000000 0.000000 0.000000
# 4 0.000000 0.000000 0.000000 0.019273 0.000000 0.000000
# 5 0.000000 0.000000 0.000000 0.000000 0.024086 0.000000
# 6 0.000000 0.000000 0.000000 0.000000 0.000000 0.190107
#
#
# Mechanical properties :
#
#
# Convention : Reuss Voigt Hill
#
# Bulk Modulus (GPa) = 28.43014 62.68653 45.55833
# Shear Modulus (GPa) = 16.35249 38.43348 27.39298
#
# Velocity S-wave (km/s) = 2.63685 4.04249 3.41282
# Velocity P-wave (km/s) = 4.62158 6.96010 5.90771
#
# Compressibility (1/GPa) = 0.03517394
#
# Stress axis : x y z
#
# Youngs Moduli (GPa) = 43.09655 54.35684 159.40738
#
# Poissons Ratio (x) = -0.18226 1.12651
# Poissons Ratio (y) = -0.14451 0.42022
# Poissons Ratio (z) = 0.30456 0.14329
#
# Static dielectric constant tensor:
#      x y z
#    x 1.812610 0.000000 0.000000 
#    y 0.000000 2.013990 0.000000 
#    z 0.000000 0.000000 1.962510 
# 
# From -- ./inp_files/5828.got.cif
#   From: 2010.05.17/outbox.cif.g08.bks.cpg/sg31_3_cif.got.tgz:5828.got - 2010.06.03 17:08:30.
