data_PCOD9342397
_publ_section_title
;
Structure prediction by ZEFSAII (Michael W. Deem and Ramdas Pophale) SiO2 
 PCOD9342397
Probable space group: P N C 2
;
_chemical_formula_sum "Si O2"
_cell_formula_units_Z 12
_cell_length_a 5.039230
_cell_length_b 17.160061
_cell_length_c 5.417126
_cell_angle_alpha 90.000000
_cell_angle_beta 90.000000
_cell_angle_gamma 90.000000
_cell_volume 468.437814
_symmetry_space_group_name_H-M "P N C 2"
_symmetry_group_IT_number 30
_symmetry_cell_setting 'orthorhombic'
loop_
_space_group_symop_operation_xyz
x,y,z
-x,-y,z
-x,1/2+y,1/2+z
x,1/2-y,1/2+z
loop_
_atom_site_type_symbol
_atom_site_label
_atom_site_fract_x
_atom_site_fract_y
_atom_site_fract_z
Si Si1 0.000000 0.500000 0.709370
Si Si2 0.427715 0.229759 0.136726
Si Si3 0.302900 0.874612 0.471122
Si Si4 0.500000 0.000000 0.853594
O O1 0.247220 0.490820 0.528619
O O2 0.051813 0.575760 0.882022
O O3 0.281036 0.235974 0.877197
O O4 0.535953 0.146753 0.220396
O O5 0.678325 0.288858 0.092707
O O6 0.452835 0.928752 0.665063
#
# Coordination Sequence:
#
# PCOD9342397 Si02
#       4
#     2   4   4   2
#     4  12  26  46  78 114 154 206 262 324 388 466
#     4   8  18  38  70 102 148 194 248 310 382 448
#     4  10  22  44  74 110 156 196 264 316 386 464
#     4  12  26  46  78 114 154 206 262 324 388 466
#
# _framework density 25.617063000000002
#
# number of rings (size 3 to 8) (size 9 to 14) (size 15 to 20)
#    2.000    0.000    0.000    4.000    0.000    0.000 
#    0.000    3.333    0.000    0.000    0.000    0.000 
#    0.000    0.000    0.000    0.000    0.000    0.000 
#
# Total GULP energy -66916.839302 kJ/mol
# GULP energy per Si atom -5576.403275 kJ/mol
# Density = 2.555876 g / cm^3
# Si number density = 25.617063 Si / 1000 Ang^3
#
#
#
# Elastic Constant Matrix: (Units=GPa)
#
#
# Indices 1 2 3 4 5 6 
#
# 1 134.4736 51.2449 56.1591 0.0000 0.0000 0.0000
# 2 51.2449 129.9634 45.6981 0.0000 0.0000 0.0000
# 3 56.1591 45.6981 189.7246 0.0000 0.0000 0.0000
# 4 0.0000 0.0000 0.0000 73.2855 0.0000 0.0000
# 5 0.0000 0.0000 0.0000 0.0000 40.8313 0.0000
# 6 0.0000 0.0000 0.0000 0.0000 0.0000 -10.6885
#
#
#
# Elastic Compliance Matrix: (Units=1/GPa)
#
#
# Indices 1 2 3 4 5 6 
#
# 1 0.009444 -0.002994 -0.002074 0.000000 0.000000 0.000000
# 2 -0.002994 0.009356 -0.001367 0.000000 0.000000 0.000000
# 3 -0.002074 -0.001367 0.006214 0.000000 0.000000 0.000000
# 4 0.000000 0.000000 0.000000 0.013645 0.000000 0.000000
# 5 0.000000 0.000000 0.000000 0.000000 0.024491 0.000000
# 6 0.000000 0.000000 0.000000 0.000000 0.000000 -0.093559
#
#
# Mechanical properties :
#
#
# Convention : Reuss Voigt Hill
#
# Bulk Modulus (GPa) = 82.35661 84.48507 83.42084
# Shear Modulus (GPa) = -370.63865 40.75633 -164.94116
#
# Velocity S-wave (km/s) = -12.04153 3.99304 -8.03287
# Velocity P-wave (km/s) = 12.69300 7.36958 7.30758
#
# Compressibility (1/GPa) = 0.01214232
#
# Stress axis : x y z
#
# Youngs Moduli (GPa) = 105.89090 106.88458 160.92576
#
# Poissons Ratio (x) = 0.32005 0.33378
# Poissons Ratio (y) = 0.31708 0.22001
# Poissons Ratio (z) = 0.21963 0.14613
#
# Static dielectric constant tensor:
#      x y z
#    x 1.968040 0.000000 0.000000 
#    y 0.000000 1.953220 0.000000 
#    z 0.000000 0.000000 2.098320 
# 
# From -- ./inp_files/59.got.cif
#   From: 2010.05.17/outbox.cif.g08.bks.cpg/sg30_1_cif.got.tgz:59.got - 2010.06.03 17:03:02.
