data_PCOD9342117
_publ_section_title
;
Structure prediction by ZEFSAII (Michael W. Deem and Ramdas Pophale) SiO2 
 PCOD9342117
Probable space group: P N C 2
;
_chemical_formula_sum "Si O2"
_cell_formula_units_Z 20
_cell_length_a 7.587987
_cell_length_b 9.279614
_cell_length_c 11.704522
_cell_angle_alpha 90.000000
_cell_angle_beta 90.000000
_cell_angle_gamma 90.000000
_cell_volume 824.157418
_symmetry_space_group_name_H-M "P N C 2"
_symmetry_group_IT_number 30
_symmetry_cell_setting 'orthorhombic'
loop_
_space_group_symop_operation_xyz
x,y,z
-x,-y,z
-x,1/2+y,1/2+z
x,1/2-y,1/2+z
loop_
_atom_site_type_symbol
_atom_site_label
_atom_site_fract_x
_atom_site_fract_y
_atom_site_fract_z
Si Si1 0.167059 0.851295 0.045190
Si Si2 0.000000 0.500000 0.756556
Si Si3 0.771722 0.080960 0.670580
Si Si4 0.396705 0.200746 0.707280
Si Si5 0.500000 0.500000 0.579667
Si Si6 0.072028 0.199209 0.848055
O O1 0.201445 0.681956 0.061385
O O2 0.865948 0.076067 0.168243
O O3 0.343138 0.930314 0.006008
O O4 0.994383 0.855201 0.968522
O O5 0.941454 0.630541 0.833303
O O6 0.591712 0.141885 0.724392
O O7 0.931946 0.126982 0.756611
O O8 0.720934 0.916835 0.634703
O O9 0.423130 0.361308 0.653779
O O10 0.276467 0.180788 0.819240
#
# Coordination Sequence:
#
# PCOD9342117 Si02
#       6
#     4   2   4   4   2   4
#     4  10  22  41  68  97 135 189 241 294 368 434
#     4  10  22  44  62 100 140 176 240 304 348 432
#     4   9  22  41  66 100 136 176 243 294 348 441
#     4  10  20  41  72  94 141 186 225 300 362 418
#     4  10  20  42  72 100 140 192 238 302 364 438
#     4  11  22  42  69  98 140 186 236 297 369 424
#
# _framework density 24.267206000000002
#
# number of rings (size 3 to 8) (size 9 to 14) (size 15 to 20)
#    0.000    2.000    2.000    0.600    2.800    1.600 
#    7.200    0.000    8.800    0.000    0.000    0.000 
#    0.000    0.000    0.000    0.000    0.000    0.000 
#
# Total GULP energy -111360.641080 kJ/mol
# GULP energy per Si atom -5568.032054 kJ/mol
# Density = 2.421197 g / cm^3
# Si number density = 24.267206 Si / 1000 Ang^3
#
#
#
# Elastic Constant Matrix: (Units=GPa)
#
#
# Indices 1 2 3 4 5 6 
#
# 1 128.7928 23.9647 22.5189 0.0000 0.0000 0.0000
# 2 23.9647 196.6600 34.9753 0.0000 0.0000 0.0000
# 3 22.5189 34.9753 39.6939 0.0000 0.0000 0.0000
# 4 0.0000 0.0000 0.0000 -4.8072 0.0000 0.0000
# 5 0.0000 0.0000 0.0000 0.0000 35.3147 0.0000
# 6 0.0000 0.0000 0.0000 0.0000 0.0000 43.0088
#
#
#
# Elastic Compliance Matrix: (Units=1/GPa)
#
#
# Indices 1 2 3 4 5 6 
#
# 1 0.008627 -0.000214 -0.004705 0.000000 0.000000 0.000000
# 2 -0.000214 0.006035 -0.005196 0.000000 0.000000 0.000000
# 3 -0.004705 -0.005196 0.032441 0.000000 0.000000 0.000000
# 4 0.000000 0.000000 0.000000 -0.208022 0.000000 0.000000
# 5 0.000000 0.000000 0.000000 0.000000 0.028317 0.000000
# 6 0.000000 0.000000 0.000000 0.000000 0.000000 0.023251
#
#
# Mechanical properties :
#
#
# Convention : Reuss Voigt Hill
#
# Bulk Modulus (GPa) = 37.21464 58.67383 47.94424
# Shear Modulus (GPa) = -62.37316 33.61578 -14.37869
#
# Velocity S-wave (km/s) = -5.07528 3.72591 -2.43680
# Velocity P-wave (km/s) = 4.35614 6.53763 3.44708
#
# Compressibility (1/GPa) = 0.02687114
#
# Stress axis : x y z
#
# Youngs Moduli (GPa) = 115.91505 165.69581 30.82562
#
# Poissons Ratio (x) = 0.03553 0.14504
# Poissons Ratio (y) = 0.02486 0.16017
# Poissons Ratio (z) = 0.54541 0.86097
#
# Static dielectric constant tensor:
#      x y z
#    x 1.957840 0.000000 0.000000 
#    y 0.000000 2.107300 0.000000 
#    z 0.000000 0.000000 1.987010 
# 
# From -- ./inp_files/3561.got.cif
#   From: 2010.05.17/outbox.cif.g08.bks.cpg/sg30_2_cif.got.tgz:3561.got - 2010.06.03 17:03:02.
