data_PCOD9342724
_publ_section_title
;
Structure prediction by ZEFSAII (Michael W. Deem and Ramdas Pophale) SiO2 
 PCOD9342724
Probable space group: P M N 21
;
_chemical_formula_sum "Si O2"
_cell_formula_units_Z 32
_cell_length_a 7.527239
_cell_length_b 11.145912
_cell_length_c 14.710173
_cell_angle_alpha 90.000000
_cell_angle_beta 90.000000
_cell_angle_gamma 90.000000
_cell_volume 1234.153263
_symmetry_space_group_name_H-M "P M N 21"
_symmetry_group_IT_number 31
_symmetry_cell_setting 'orthorhombic'
loop_
_space_group_symop_operation_xyz
x,y,z
1/2-x,-y,1/2+z
-x,y,z
1/2+x,-y,1/2+z
loop_
_atom_site_type_symbol
_atom_site_label
_atom_site_fract_x
_atom_site_fract_y
_atom_site_fract_z
Si Si1 0.286652 0.435080 0.732740
Si Si2 0.217310 0.958274 0.397798
Si Si3 0.711756 0.812819 0.010404
Si Si4 0.216166 0.698049 0.397400
Si Si5 0.710734 0.427109 0.067184
Si Si6 0.794596 0.345268 0.356232
Si Si7 0.705801 0.063512 0.691549
Si Si8 0.213955 0.797860 0.687150
O O1 0.500000 0.436528 0.732153
O O2 0.225574 0.324406 0.793999
O O3 0.237840 0.456515 0.628835
O O4 0.218949 0.548961 0.792874
O O5 0.266436 0.827202 0.435198
O O6 0.282025 0.951299 0.293282
O O7 0.000000 0.965816 0.398026
O O8 0.281254 0.069062 0.457321
O O9 0.500000 0.806696 0.997137
O O10 0.782008 0.699174 0.952301
O O11 0.736679 0.839662 0.116677
O O12 0.276704 0.592814 0.465186
O O13 0.000000 0.697068 0.394238
O O14 0.500000 0.414419 0.061230
O O15 0.778142 0.312558 0.124890
O O16 0.787159 0.230757 0.288037
O O17 0.000000 0.381066 0.371762
O O18 0.500000 0.089551 0.705793
O O19 0.731795 0.928746 0.653142
O O20 0.000000 0.794064 0.690522
#
# Coordination Sequence:
#
# PCOD9342724 Si02
#       8
#     4   4   4   4   4   4   4   4
#     4   9  18  33  55  79 102 132 172 219 262 306
#     4   9  18  34  54  74 103 141 175 209 256 312
#     4  10  19  34  53  74 103 140 176 210 258 319
#     4   9  17  33  55  76 101 138 180 210 250 316
#     4   9  18  33  55  80 102 134 179 219 256 309
#     4   9  17  32  52  73 100 132 169 212 262 307
#     4  11  21  33  50  77 108 139 174 214 260 311
#     4  10  18  30  52  77 103 134 173 217 258 304
#
# _framework density 25.928709999999999
#
# number of rings (size 3 to 8) (size 9 to 14) (size 15 to 20)
#    0.000    2.500    1.250    1.500    0.000    3.000 
#    2.250    0.625    0.000    3.000    0.000    0.000 
#    0.000    0.000    0.000    0.000    0.000    0.000 
#
# Total GULP energy -178725.063243 kJ/mol
# GULP energy per Si atom -5585.158226 kJ/mol
# Density = 2.586970 g / cm^3
# Si number density = 25.928710 Si / 1000 Ang^3
#
#
#
# Elastic Constant Matrix: (Units=GPa)
#
#
# Indices 1 2 3 4 5 6 
#
# 1 60.5170 -7.7453 -0.1934 0.0000 0.0000 0.0000
# 2 -7.7453 56.7231 16.2839 0.0000 0.0000 0.0000
# 3 -0.1934 16.2839 149.5850 0.0000 0.0000 0.0000
# 4 0.0000 0.0000 0.0000 46.5678 0.0000 0.0000
# 5 0.0000 0.0000 0.0000 0.0000 19.7700 0.0000
# 6 0.0000 0.0000 0.0000 0.0000 0.0000 1.3426
#
#
#
# Elastic Compliance Matrix: (Units=1/GPa)
#
#
# Indices 1 2 3 4 5 6 
#
# 1 0.016826 0.002365 -0.000236 0.000000 0.000000 0.000000
# 2 0.002365 0.018531 -0.002014 0.000000 0.000000 0.000000
# 3 -0.000236 -0.002014 0.006904 0.000000 0.000000 0.000000
# 4 0.000000 0.000000 0.000000 0.021474 0.000000 0.000000
# 5 0.000000 0.000000 0.000000 0.000000 0.050582 0.000000
# 6 0.000000 0.000000 0.000000 0.000000 0.000000 0.744836
#
#
# Mechanical properties :
#
#
# Convention : Reuss Voigt Hill
#
# Bulk Modulus (GPa) = 23.53404 31.50172 27.51788
# Shear Modulus (GPa) = 5.72681 30.76807 18.24744
#
# Velocity S-wave (km/s) = 1.48777 3.44850 2.65571
# Velocity P-wave (km/s) = 3.47094 5.29452 4.47657
#
# Compressibility (1/GPa) = 0.04249165
#
# Stress axis : x y z
#
# Youngs Moduli (GPa) = 59.43095 53.96453 144.84097
#
# Poissons Ratio (x) = -0.12764 0.03414
# Poissons Ratio (y) = -0.14057 0.29174
# Poissons Ratio (z) = 0.01401 0.10870
#
# Static dielectric constant tensor:
#      x y z
#    x 2.002460 0.000000 0.000000 
#    y 0.000000 2.070110 0.000000 
#    z 0.000000 0.000000 2.081950 
# 
# From -- ./inp_files/5115.got.cif
#   From: 2010.05.17/outbox.cif.g08.bks.cpg/sg31_3_cif.got.tgz:5115.got - 2010.06.03 17:08:30.
