data_PCOD9342918
_publ_section_title
;
Structure prediction by ZEFSAII (Michael W. Deem and Ramdas Pophale) SiO2 
 PCOD9342918
Probable space group: P M N 21
;
_chemical_formula_sum "Si O2"
_cell_formula_units_Z 32
_cell_length_a 8.310084
_cell_length_b 15.101929
_cell_length_c 12.540961
_cell_angle_alpha 90.000000
_cell_angle_beta 90.000000
_cell_angle_gamma 90.000000
_cell_volume 1573.869268
_symmetry_space_group_name_H-M "P M N 21"
_symmetry_group_IT_number 31
_symmetry_cell_setting 'orthorhombic'
loop_
_space_group_symop_operation_xyz
x,y,z
1/2-x,-y,1/2+z
-x,y,z
1/2+x,-y,1/2+z
loop_
_atom_site_type_symbol
_atom_site_label
_atom_site_fract_x
_atom_site_fract_y
_atom_site_fract_z
Si Si1 0.694957 0.551232 0.106680
Si Si2 0.691979 0.313510 0.446523
Si Si3 0.312784 0.857265 0.053695
Si Si4 0.684912 0.139752 0.776817
Si Si5 0.190139 0.336016 0.811444
Si Si6 0.693358 0.224718 0.223566
Si Si7 0.807002 0.050310 0.332478
Si Si8 0.693525 0.357854 0.049930
O O1 0.500000 0.556554 0.103248
O O2 0.752682 0.607007 0.210079
O O3 0.741799 0.448329 0.109511
O O4 0.762677 0.592824 0.997035
O O5 0.500000 0.299840 0.456847
O O6 0.787134 0.244153 0.520216
O O7 0.735764 0.287605 0.325228
O O8 0.500000 0.872381 0.081958
O O9 0.197789 0.877421 0.150946
O O10 0.270021 0.912108 0.949022
O O11 0.500000 0.150972 0.811744
O O12 0.772974 0.232042 0.796369
O O13 0.756270 0.049479 0.824415
O O14 0.000000 0.349576 0.813081
O O15 0.256499 0.361525 0.927108
O O16 0.500000 0.221164 0.219577
O O17 0.750206 0.125279 0.249462
O O18 0.753338 0.272335 0.116186
O O19 0.000000 0.044923 0.321756
O O20 0.500000 0.354152 0.052511
#
# Coordination Sequence:
#
# PCOD9342918 Si02
#       8
#     4   4   4   4   4   4   4   4
#     4  10  22  39  60  85 118 156 196 245 300 354
#     4  10  19  33  59  87 112 147 196 249 295 349
#     4  10  19  35  56  81 114 152 194 245 301 353
#     4  11  22  38  60  87 119 157 199 247 299 357
#     4  11  24  41  62  90 122 157 200 250 299 356
#     4   9  20  38  60  86 117 155 198 246 299 353
#     4   9  21  38  58  85 119 157 200 248 300 356
#     4  10  23  42  61  85 123 165 199 244 305 362
#
# _framework density 20.332056000000001
#
# number of rings (size 3 to 8) (size 9 to 14) (size 15 to 20)
#    0.000    2.000    1.250    1.500    1.750    4.500 
#    0.000    3.750    0.000    0.000    0.000    0.000 
#    0.000    0.000    0.000    0.000    0.000    0.000 
#
# Total GULP energy -178544.605335 kJ/mol
# GULP energy per Si atom -5579.518917 kJ/mol
# Density = 2.028578 g / cm^3
# Si number density = 20.332056 Si / 1000 Ang^3
#
#
#
# Elastic Constant Matrix: (Units=GPa)
#
#
# Indices 1 2 3 4 5 6 
#
# 1 6.0015 5.3728 5.2759 0.0000 0.0000 0.0000
# 2 5.3728 104.8094 35.8024 0.0000 0.0000 0.0000
# 3 5.2759 35.8024 64.2812 0.0000 0.0000 0.0000
# 4 0.0000 0.0000 0.0000 20.2576 0.0000 0.0000
# 5 0.0000 0.0000 0.0000 0.0000 24.7647 0.0000
# 6 0.0000 0.0000 0.0000 0.0000 0.0000 24.0556
#
#
#
# Elastic Compliance Matrix: (Units=1/GPa)
#
#
# Indices 1 2 3 4 5 6 
#
# 1 0.181862 -0.005216 -0.012021 0.000000 0.000000 0.000000
# 2 -0.005216 0.011933 -0.006218 0.000000 0.000000 0.000000
# 3 -0.012021 -0.006218 0.020006 0.000000 0.000000 0.000000
# 4 0.000000 0.000000 0.000000 0.049364 0.000000 0.000000
# 5 0.000000 0.000000 0.000000 0.000000 0.040380 0.000000
# 6 0.000000 0.000000 0.000000 0.000000 0.000000 0.041570
#
#
# Mechanical properties :
#
#
# Convention : Reuss Voigt Hill
#
# Bulk Modulus (GPa) = 5.99196 29.77713 17.88455
# Shear Modulus (GPa) = 11.16930 22.39165 16.78048
#
# Velocity S-wave (km/s) = 2.34635 3.32218 2.87596
# Velocity P-wave (km/s) = 3.20842 5.42154 4.45460
#
# Compressibility (1/GPa) = 0.16689017
#
# Stress axis : x y z
#
# Youngs Moduli (GPa) = 5.49869 83.80458 49.98399
#
# Poissons Ratio (x) = 0.43715 0.60086
# Poissons Ratio (y) = 0.02868 0.31079
# Poissons Ratio (z) = 0.06610 0.52109
#
# Static dielectric constant tensor:
#      x y z
#    x 1.701630 0.000000 0.000000 
#    y 0.000000 1.761990 0.000000 
#    z 0.000000 0.000000 1.726620 
# 
# From -- ./inp_files/3544.got.cif
#   From: 2010.05.17/outbox.cif.g08.bks.cpg/sg31_2_cif.got.tgz:3544.got - 2010.06.03 17:08:30.
