data_PCOD9342956
_publ_section_title
;
Structure prediction by ZEFSAII (Michael W. Deem and Ramdas Pophale) SiO2 
 PCOD9342956
Probable space group: P M N 21
;
_chemical_formula_sum "Si O2"
_cell_formula_units_Z 32
_cell_length_a 9.090550
_cell_length_b 10.988953
_cell_length_c 14.291520
_cell_angle_alpha 90.000000
_cell_angle_beta 90.000000
_cell_angle_gamma 90.000000
_cell_volume 1427.660347
_symmetry_space_group_name_H-M "P M N 21"
_symmetry_group_IT_number 31
_symmetry_cell_setting 'orthorhombic'
loop_
_space_group_symop_operation_xyz
x,y,z
1/2-x,-y,1/2+z
-x,y,z
1/2+x,-y,1/2+z
loop_
_atom_site_type_symbol
_atom_site_label
_atom_site_fract_x
_atom_site_fract_y
_atom_site_fract_z
Si Si1 0.825392 0.072254 0.998410
Si Si2 0.675763 0.186876 0.829860
Si Si3 0.675518 0.679646 0.725297
Si Si4 0.668446 0.683064 0.175017
Si Si5 0.329979 0.444833 0.391220
Si Si6 0.322266 0.947779 0.715118
Si Si7 0.671122 0.431039 0.058195
Si Si8 0.667447 0.196362 0.510502
O O1 0.740122 0.165967 0.932952
O O2 0.000000 0.099523 0.995736
O O3 0.777205 0.060648 0.106449
O O4 0.801991 0.932941 0.963071
O O5 0.500000 0.191858 0.833435
O O6 0.736873 0.298009 0.768325
O O7 0.726415 0.066042 0.771622
O O8 0.500000 0.665822 0.727006
O O9 0.750848 0.584060 0.794310
O O10 0.715946 0.816213 0.757015
O O11 0.735006 0.661133 0.620514
O O12 0.500000 0.705973 0.199190
O O13 0.677994 0.554810 0.120940
O O14 0.726235 0.777050 0.096811
O O15 0.500000 0.481100 0.377961
O O16 0.243946 0.535851 0.459454
O O17 0.328026 0.313966 0.444673
O O18 0.500000 0.954469 0.714412
O O19 0.500000 0.396751 0.048583
O O20 0.500000 0.187524 0.548794
#
# Coordination Sequence:
#
# PCOD9342956 Si02
#       8
#     4   4   4   4   4   4   4   4
#     4  10  19  35  55  81 117 157 192 229 285 346
#     4  11  21  36  57  85 118 153 192 235 287 348
#     4  11  22  39  62  88 118 159 201 243 296 353
#     4  10  20  35  57  82 109 144 188 238 290 340
#     4  10  20  36  61  92 118 152 197 245 297 351
#     4   9  20  38  59  83 120 160 190 233 293 350
#     4  10  22  41  62  86 116 152 197 250 296 346
#     4   9  17  32  57  83 114 151 189 235 282 336
#
# _framework density 22.414294000000002
#
# number of rings (size 3 to 8) (size 9 to 14) (size 15 to 20)
#    0.000    2.000    1.250    2.625    0.000    2.500 
#    2.250    3.125    0.000    0.000    0.000    0.000 
#    0.000    0.000    0.000    0.000    0.000    0.000 
#
# Total GULP energy -178894.962791 kJ/mol
# GULP energy per Si atom -5590.467587 kJ/mol
# Density = 2.236328 g / cm^3
# Si number density = 22.414294 Si / 1000 Ang^3
#
#
#
# Elastic Constant Matrix: (Units=GPa)
#
#
# Indices 1 2 3 4 5 6 
#
# 1 81.3760 17.0423 38.8760 0.0000 0.0000 0.0000
# 2 17.0423 57.1274 12.8607 0.0000 0.0000 0.0000
# 3 38.8760 12.8607 110.2865 0.0000 0.0000 0.0000
# 4 0.0000 0.0000 0.0000 40.2885 0.0000 0.0000
# 5 0.0000 0.0000 0.0000 0.0000 35.7675 0.0000
# 6 0.0000 0.0000 0.0000 0.0000 0.0000 8.3282
#
#
#
# Elastic Compliance Matrix: (Units=1/GPa)
#
#
# Indices 1 2 3 4 5 6 
#
# 1 0.015418 -0.003467 -0.005031 0.000000 0.000000 0.000000
# 2 -0.003467 0.018756 -0.000965 0.000000 0.000000 0.000000
# 3 -0.005031 -0.000965 0.010953 0.000000 0.000000 0.000000
# 4 0.000000 0.000000 0.000000 0.024821 0.000000 0.000000
# 5 0.000000 0.000000 0.000000 0.000000 0.027958 0.000000
# 6 0.000000 0.000000 0.000000 0.000000 0.000000 0.120075
#
#
# Mechanical properties :
#
#
# Convention : Reuss Voigt Hill
#
# Bulk Modulus (GPa) = 38.16487 42.92751 40.54619
# Shear Modulus (GPa) = 20.35494 28.87756 24.61625
#
# Velocity S-wave (km/s) = 3.01678 3.59326 3.31756
# Velocity P-wave (km/s) = 5.40357 6.03397 5.72745
#
# Compressibility (1/GPa) = 0.02620211
#
# Stress axis : x y z
#
# Youngs Moduli (GPa) = 64.85934 53.31545 91.29835
#
# Poissons Ratio (x) = 0.18485 0.45928
# Poissons Ratio (y) = 0.22487 0.08811
# Poissons Ratio (z) = 0.32628 0.05145
#
# Static dielectric constant tensor:
#      x y z
#    x 1.756830 0.000000 0.000000 
#    y 0.000000 1.897080 0.000000 
#    z 0.000000 0.000000 1.823950 
# 
# From -- ./inp_files/5044.got.cif
#   From: 2010.05.17/outbox.cif.g08.bks.cpg/sg31_3_cif.got.tgz:5044.got - 2010.06.03 17:08:30.
