data_PCOD9342255
_publ_section_title
;
Structure prediction by ZEFSAII (Michael W. Deem and Ramdas Pophale) SiO2 
 PCOD9342255
Probable space group: P N C 2
;
_chemical_formula_sum "Si O2"
_cell_formula_units_Z 26
_cell_length_a 12.693327
_cell_length_b 17.161022
_cell_length_c 5.474129
_cell_angle_alpha 90.000000
_cell_angle_beta 90.000000
_cell_angle_gamma 90.000000
_cell_volume 1192.432060
_symmetry_space_group_name_H-M "P N C 2"
_symmetry_group_IT_number 30
_symmetry_cell_setting 'orthorhombic'
loop_
_space_group_symop_operation_xyz
x,y,z
-x,-y,z
-x,1/2+y,1/2+z
x,1/2-y,1/2+z
loop_
_atom_site_type_symbol
_atom_site_label
_atom_site_fract_x
_atom_site_fract_y
_atom_site_fract_z
Si Si1 0.975353 0.700451 0.773190
Si Si2 0.130589 0.592241 0.006956
Si Si3 0.403142 0.559524 0.035278
Si Si4 0.319795 0.703975 0.165767
Si Si5 0.823358 0.936817 0.221637
Si Si6 0.373624 0.504097 0.539427
Si Si7 0.000000 0.000000 0.859460
O O1 0.979382 0.745832 0.516026
O O2 0.871692 0.645912 0.790880
O O3 0.074847 0.641332 0.792066
O O4 0.219541 0.647624 0.118969
O O5 0.039619 0.572189 0.198799
O O6 0.164980 0.505877 0.920593
O O7 0.500000 0.500000 0.005662
O O8 0.420729 0.647124 0.125870
O O9 0.340102 0.523797 0.265425
O O10 0.357393 0.565784 0.760286
O O11 0.318218 0.737042 0.437987
O O12 0.701876 0.935322 0.133965
O O13 0.901028 0.970094 0.013674
O O14 0.500000 0.500000 0.517030
#
# Coordination Sequence:
#
# PCOD9342255 Si02
#       7
#     4   4   4   4   4   4   2
#     4  12  26  43  61  96 144 184 221 281 354 415
#     4  12  24  42  64 102 136 193 233 289 347 445
#     4  10  21  42  69  98 133 182 234 282 350 425
#     4  12  26  41  66 106 147 179 224 299 381 427
#     4  12  24  41  72 100 134 187 245 287 340 433
#     4  10  22  41  72 103 126 174 246 291 334 399
#     4  12  22  40  70 102 140 178 256 282 344 422
#
# _framework density 21.804176999999999
#
# number of rings (size 3 to 8) (size 9 to 14) (size 15 to 20)
#    0.000    0.615    4.615    3.692    2.154    0.000 
#    0.000    0.000    0.000   22.154    0.000    0.000 
#    0.000    0.000    0.000    0.000    0.000    0.000 
#
# Total GULP energy -144916.390531 kJ/mol
# GULP energy per Si atom -5573.707328 kJ/mol
# Density = 2.175455 g / cm^3
# Si number density = 21.804177 Si / 1000 Ang^3
#
#
#
# Elastic Constant Matrix: (Units=GPa)
#
#
# Indices 1 2 3 4 5 6 
#
# 1 89.1635 20.3163 11.2973 0.0000 0.0000 0.0000
# 2 20.3163 86.6465 35.4606 0.0000 0.0000 0.0000
# 3 11.2973 35.4606 139.2163 0.0000 0.0000 0.0000
# 4 0.0000 0.0000 0.0000 41.9193 0.0000 0.0000
# 5 0.0000 0.0000 0.0000 0.0000 -18.7220 0.0000
# 6 0.0000 0.0000 0.0000 0.0000 0.0000 39.4562
#
#
#
# Elastic Compliance Matrix: (Units=1/GPa)
#
#
# Indices 1 2 3 4 5 6 
#
# 1 0.011858 -0.002664 -0.000284 0.000000 0.000000 0.000000
# 2 -0.002664 0.013483 -0.003218 0.000000 0.000000 0.000000
# 3 -0.000284 -0.003218 0.008026 0.000000 0.000000 0.000000
# 4 0.000000 0.000000 0.000000 0.023855 0.000000 0.000000
# 5 0.000000 0.000000 0.000000 0.000000 -0.053413 0.000000
# 6 0.000000 0.000000 0.000000 0.000000 0.000000 0.025345
#
#
# Mechanical properties :
#
#
# Convention : Reuss Voigt Hill
#
# Bulk Modulus (GPa) = 47.54022 49.90829 48.72426
# Shear Modulus (GPa) = 103.09765 29.06085 66.07925
#
# Velocity S-wave (km/s) = 6.88376 3.65473 5.51104
# Velocity P-wave (km/s) = 9.22128 6.38345 7.93034
#
# Compressibility (1/GPa) = 0.02103482
#
# Stress axis : x y z
#
# Youngs Moduli (GPa) = 84.32856 74.16798 124.59845
#
# Poissons Ratio (x) = 0.19761 0.03534
# Poissons Ratio (y) = 0.22468 0.40097
# Poissons Ratio (z) = 0.02392 0.23868
#
# Static dielectric constant tensor:
#      x y z
#    x 2.268270 0.000000 0.000000 
#    y 0.000000 1.859330 0.000000 
#    z 0.000000 0.000000 1.869520 
# 
# From -- ./inp_files/711.got.cif
#   From: 2010.05.17/outbox.cif.g08.bks.cpg/sg30_1_cif.got.tgz:711.got - 2010.06.03 17:03:02.
