data_PCOD9342795
_publ_section_title
;
Structure prediction by ZEFSAII (Michael W. Deem and Ramdas Pophale) SiO2 
 PCOD9342795
Probable space group: P M N 21
;
_chemical_formula_sum "Si O2"
_cell_formula_units_Z 20
_cell_length_a 18.083831
_cell_length_b 7.410189
_cell_length_c 6.967963
_cell_angle_alpha 90.000000
_cell_angle_beta 90.000000
_cell_angle_gamma 90.000000
_cell_volume 933.739133
_symmetry_space_group_name_H-M "P M N 21"
_symmetry_group_IT_number 31
_symmetry_cell_setting 'orthorhombic'
loop_
_space_group_symop_operation_xyz
x,y,z
1/2-x,-y,1/2+z
-x,y,z
1/2+x,-y,1/2+z
loop_
_atom_site_type_symbol
_atom_site_label
_atom_site_fract_x
_atom_site_fract_y
_atom_site_fract_z
Si Si1 0.240269 0.657263 0.179100
Si Si2 0.581145 0.416040 0.628138
Si Si3 0.765094 0.761174 0.738691
Si Si4 0.921008 0.868488 0.783023
Si Si5 0.640836 0.796550 0.484291
O O1 0.261343 0.445129 0.163615
O O2 0.300044 0.744224 0.318731
O O3 0.194333 0.136683 0.154903
O O4 0.153807 0.651462 0.241249
O O5 0.500000 0.405715 0.721170
O O6 0.578555 0.295317 0.435717
O O7 0.598737 0.619790 0.560043
O O8 0.842919 0.846070 0.677881
O O9 0.758680 0.744806 0.968242
O O10 0.000000 0.868102 0.678464
O O11 0.912510 0.051807 0.904154
#
# Coordination Sequence:
#
# PCOD9342795 Si02
#       5
#     4   4   4   4   4
#     4  10  18  36  59  86 112 147 196 232 279 343
#     4   9  19  36  56  83 115 145 187 237 283 336
#     4  10  20  36  59  89 112 149 198 236 279 344
#     4  10  21  36  57  86 115 151 190 234 292 337
#     4  11  21  36  62  82 114 154 193 233 284 338
#
# _framework density 21.419259
#
# number of rings (size 3 to 8) (size 9 to 14) (size 15 to 20)
#    0.000    2.000    6.000    0.600    5.600    0.000 
#    0.000    1.000    0.000   16.800    0.000    0.000 
#    0.000    0.000    0.000    0.000    0.000    0.000 
#
# Total GULP energy -111565.760481 kJ/mol
# GULP energy per Si atom -5578.288024 kJ/mol
# Density = 2.137051 g / cm^3
# Si number density = 21.419259 Si / 1000 Ang^3
#
#
#
# Elastic Constant Matrix: (Units=GPa)
#
#
# Indices 1 2 3 4 5 6 
#
# 1 141.3199 18.1882 14.2190 0.0000 0.0000 0.0000
# 2 18.1882 61.1520 -1.8419 0.0000 0.0000 0.0000
# 3 14.2190 -1.8419 50.7995 0.0000 0.0000 0.0000
# 4 0.0000 0.0000 0.0000 7.4336 0.0000 0.0000
# 5 0.0000 0.0000 0.0000 0.0000 49.5182 0.0000
# 6 0.0000 0.0000 0.0000 0.0000 0.0000 7.1945
#
#
#
# Elastic Compliance Matrix: (Units=1/GPa)
#
#
# Indices 1 2 3 4 5 6 
#
# 1 0.007598 -0.002326 -0.002211 0.000000 0.000000 0.000000
# 2 -0.002326 0.017083 0.001271 0.000000 0.000000 0.000000
# 3 -0.002211 0.001271 0.020350 0.000000 0.000000 0.000000
# 4 0.000000 0.000000 0.000000 0.134524 0.000000 0.000000
# 5 0.000000 0.000000 0.000000 0.000000 0.020195 0.000000
# 6 0.000000 0.000000 0.000000 0.000000 0.000000 0.138995
#
#
# Mechanical properties :
#
#
# Convention : Reuss Voigt Hill
#
# Bulk Modulus (GPa) = 25.97591 34.93357 30.45474
# Shear Modulus (GPa) = 13.96214 27.67633 20.81924
#
# Velocity S-wave (km/s) = 2.55590 3.59851 3.12105
# Velocity P-wave (km/s) = 4.56770 5.79746 5.21893
#
# Compressibility (1/GPa) = 0.03849721
#
# Stress axis : x y z
#
# Youngs Moduli (GPa) = 131.61304 58.53801 49.13962
#
# Poissons Ratio (x) = 0.13619 0.10865
# Poissons Ratio (y) = 0.30619 -0.06244
# Poissons Ratio (z) = 0.29101 -0.07438
#
# Static dielectric constant tensor:
#      x y z
#    x 1.807140 0.000000 0.000000 
#    y 0.000000 1.792360 0.000000 
#    z 0.000000 0.000000 1.826890 
# 
# From -- ./inp_files/4162.got.cif
#   From: 2010.05.17/outbox.cif.g08.bks.cpg/sg31_3_cif.got.tgz:4162.got - 2010.06.03 17:08:30.
