data_PCOD9342376
_publ_section_title
;
Structure prediction by ZEFSAII (Michael W. Deem and Ramdas Pophale) SiO2 
 PCOD9342376
Probable space group: P N C 2
;
_chemical_formula_sum "Si O2"
_cell_formula_units_Z 24
_cell_length_a 5.058570
_cell_length_b 15.695363
_cell_length_c 13.923732
_cell_angle_alpha 90.000000
_cell_angle_beta 90.000000
_cell_angle_gamma 90.000000
_cell_volume 1105.489913
_symmetry_space_group_name_H-M "P N C 2"
_symmetry_group_IT_number 30
_symmetry_cell_setting 'orthorhombic'
loop_
_space_group_symop_operation_xyz
x,y,z
-x,-y,z
-x,1/2+y,1/2+z
x,1/2-y,1/2+z
loop_
_atom_site_type_symbol
_atom_site_label
_atom_site_fract_x
_atom_site_fract_y
_atom_site_fract_z
Si Si1 0.000000 0.500000 0.590230
Si Si2 0.712258 0.346367 0.836823
Si Si3 0.500000 0.000000 0.209369
Si Si4 0.903412 0.092515 0.907670
Si Si5 0.247179 0.938006 0.535079
Si Si6 0.459873 0.601693 0.229229
Si Si7 0.201937 0.231636 0.814702
O O1 0.249217 0.464994 0.649034
O O2 0.136474 0.569236 0.518580
O O3 0.633525 0.427146 0.773151
O O4 0.449871 0.289433 0.841129
O O5 0.953898 0.292294 0.793385
O O6 0.791603 0.379683 0.942061
O O7 0.679024 0.117314 0.832098
O O8 0.112637 0.167885 0.899507
O O9 0.000000 0.000000 0.869035
O O10 0.299830 0.884002 0.631508
O O11 0.500000 0.000000 0.517513
O O12 0.000000 0.000000 0.550006
O O13 0.500000 0.500000 0.227373
O O14 0.710763 0.664191 0.232500
#
# Coordination Sequence:
#
# PCOD9342376 Si02
#       7
#     2   4   2   4   4   4   4
#     4  10  26  42  82 100 132 196 252 278 366 428
#     4  12  27  48  71  99 152 186 246 299 347 416
#     4  12  26  52  70  98 138 208 248 294 336 438
#     4  10  22  43  72 103 144 178 228 292 365 440
#     4  11  25  45  76 103 133 193 244 287 359 432
#     4  11  22  43  78 104 144 180 236 291 373 439
#     4  12  25  44  72 109 144 185 224 306 366 413
#
# _framework density 21.709833
#
# number of rings (size 3 to 8) (size 9 to 14) (size 15 to 20)
#    0.500    0.333    4.167    2.500    7.000    0.000 
#    9.000    0.000    0.000    0.000    0.000    0.000 
#    0.000    0.000    0.000    0.000    0.000    0.000 
#
# Total GULP energy -133904.742812 kJ/mol
# GULP energy per Si atom -5579.364284 kJ/mol
# Density = 2.166042 g / cm^3
# Si number density = 21.709833 Si / 1000 Ang^3
#
#
#
# Elastic Constant Matrix: (Units=GPa)
#
#
# Indices 1 2 3 4 5 6 
#
# 1 128.7063 50.1081 47.5410 0.0000 0.0000 0.0000
# 2 50.1081 116.5733 40.7805 0.0000 0.0000 0.0000
# 3 47.5410 40.7805 113.6573 0.0000 0.0000 0.0000
# 4 0.0000 0.0000 0.0000 -18.9871 0.0000 0.0000
# 5 0.0000 0.0000 0.0000 0.0000 27.4728 0.0000
# 6 0.0000 0.0000 0.0000 0.0000 0.0000 51.8166
#
#
#
# Elastic Compliance Matrix: (Units=1/GPa)
#
#
# Indices 1 2 3 4 5 6 
#
# 1 0.010193 -0.003305 -0.003078 0.000000 0.000000 0.000000
# 2 -0.003305 0.010881 -0.002522 0.000000 0.000000 0.000000
# 3 -0.003078 -0.002522 0.010991 0.000000 0.000000 0.000000
# 4 0.000000 0.000000 0.000000 -0.052667 0.000000 0.000000
# 5 0.000000 0.000000 0.000000 0.000000 0.036400 0.000000
# 6 0.000000 0.000000 0.000000 0.000000 0.000000 0.019299
#
#
# Mechanical properties :
#
#
# Convention : Reuss Voigt Hill
#
# Bulk Modulus (GPa) = 70.14620 70.64403 70.39512
# Shear Modulus (GPa) = 86.72024 26.76096 56.74060
#
# Velocity S-wave (km/s) = 6.32707 3.51474 5.11787
# Velocity P-wave (km/s) = 9.26049 7.00585 8.21093
#
# Compressibility (1/GPa) = 0.01425594
#
# Stress axis : x y z
#
# Youngs Moduli (GPa) = 98.10545 91.90336 90.98651
#
# Poissons Ratio (x) = 0.30371 0.28005
# Poissons Ratio (y) = 0.32421 0.22945
# Poissons Ratio (z) = 0.30196 0.23176
#
# Static dielectric constant tensor:
#      x y z
#    x 1.881670 0.000000 0.000000 
#    y 0.000000 1.795730 0.000000 
#    z 0.000000 0.000000 1.801950 
# 
# From -- ./inp_files/4671.got.cif
#   From: 2010.05.17/outbox.cif.g08.bks.cpg/sg30_3_cif.got.tgz:4671.got - 2010.06.03 17:03:02.
