data_PCOD9342712
_publ_section_title
;
Structure prediction by ZEFSAII (Michael W. Deem and Ramdas Pophale) SiO2 
 PCOD9342712
Probable space group: P M N 21
;
_chemical_formula_sum "Si O2"
_cell_formula_units_Z 32
_cell_length_a 7.775425
_cell_length_b 10.534742
_cell_length_c 20.197726
_cell_angle_alpha 90.000000
_cell_angle_beta 90.000000
_cell_angle_gamma 90.000000
_cell_volume 1654.438077
_symmetry_space_group_name_H-M "P M N 21"
_symmetry_group_IT_number 31
_symmetry_cell_setting 'orthorhombic'
loop_
_space_group_symop_operation_xyz
x,y,z
1/2-x,-y,1/2+z
-x,y,z
1/2+x,-y,1/2+z
loop_
_atom_site_type_symbol
_atom_site_label
_atom_site_fract_x
_atom_site_fract_y
_atom_site_fract_z
Si Si1 0.292108 0.620622 0.428160
Si Si2 0.298361 0.210597 0.147245
Si Si3 0.292529 0.517117 0.291404
Si Si4 0.210081 0.626464 0.012102
Si Si5 0.297259 0.497029 0.644655
Si Si6 0.703120 0.126157 0.006964
Si Si7 0.704551 0.129529 0.432997
Si Si8 0.710359 0.221465 0.293410
O O1 0.500000 0.622258 0.427921
O O2 0.232998 0.602545 0.352539
O O3 0.239222 0.495171 0.468438
O O4 0.233928 0.746508 0.465055
O O5 0.500000 0.177648 0.149300
O O6 0.285881 0.363446 0.139524
O O7 0.222956 0.147026 0.081180
O O8 0.226330 0.180825 0.220445
O O9 0.500000 0.519075 0.290690
O O10 0.231617 0.553568 0.218473
O O11 0.242263 0.369758 0.303030
O O12 0.265134 0.596190 0.086960
O O13 0.000000 0.631313 0.012014
O O14 0.272965 0.755769 0.978659
O O15 0.500000 0.518022 0.634591
O O16 0.500000 0.109391 0.013828
O O17 0.769076 0.004619 0.967621
O O18 0.500000 0.149912 0.427840
O O19 0.769818 0.143791 0.357555
O O20 0.500000 0.217797 0.290822
#
# Coordination Sequence:
#
# PCOD9342712 Si02
#       8
#     4   4   4   4   4   4   4   4
#     4  10  18  34  58  79 101 136 181 220 254 311
#     4   9  18  33  52  74 103 138 175 213 261 316
#     4   9  17  31  53  79 106 135 174 218 261 312
#     4   9  17  31  54  81 103 130 174 220 259 304
#     4  10  18  29  50  80 112 136 166 217 269 314
#     4  11  23  36  50  77 114 143 170 218 272 317
#     4  10  19  35  57  77 100 137 182 220 256 309
#     4   8  14  29  54  77  95 125 172 220 254 297
#
# _framework density 19.341916000000001
#
# number of rings (size 3 to 8) (size 9 to 14) (size 15 to 20)
#    0.000    2.500    2.500    1.500    0.000    1.000 
#    0.000    5.625    0.000    4.500    0.000    0.000 
#    0.000    0.000    0.000    0.000    0.000    0.000 
#
# Total GULP energy -178443.740080 kJ/mol
# GULP energy per Si atom -5576.366877 kJ/mol
# Density = 1.929789 g / cm^3
# Si number density = 19.341916 Si / 1000 Ang^3
#
#
#
# Elastic Constant Matrix: (Units=GPa)
#
#
# Indices 1 2 3 4 5 6 
#
# 1 22.6621 -6.5256 3.5438 0.0000 0.0000 0.0000
# 2 -6.5256 80.3327 71.0594 0.0000 0.0000 0.0000
# 3 3.5438 71.0594 207.8418 0.0000 0.0000 0.0000
# 4 0.0000 0.0000 0.0000 27.4406 0.0000 0.0000
# 5 0.0000 0.0000 0.0000 0.0000 16.3852 0.0000
# 6 0.0000 0.0000 0.0000 0.0000 0.0000 4.9767
#
#
#
# Elastic Compliance Matrix: (Units=1/GPa)
#
#
# Indices 1 2 3 4 5 6 
#
# 1 0.046439 0.006412 -0.002984 0.000000 0.000000 0.000000
# 2 0.006412 0.018730 -0.006513 0.000000 0.000000 0.000000
# 3 -0.002984 -0.006513 0.007089 0.000000 0.000000 0.000000
# 4 0.000000 0.000000 0.000000 0.036442 0.000000 0.000000
# 5 0.000000 0.000000 0.000000 0.000000 0.061031 0.000000
# 6 0.000000 0.000000 0.000000 0.000000 0.000000 0.200937
#
#
# Mechanical properties :
#
#
# Convention : Reuss Voigt Hill
#
# Bulk Modulus (GPa) = 15.13123 49.66576 32.39850
# Shear Modulus (GPa) = 12.53545 25.94443 19.23994
#
# Velocity S-wave (km/s) = 2.54854 3.66643 3.15735
# Velocity P-wave (km/s) = 4.06203 6.60735 5.48440
#
# Compressibility (1/GPa) = 0.06608849
#
# Stress axis : x y z
#
# Youngs Moduli (GPa) = 21.53341 53.38942 141.06373
#
# Poissons Ratio (x) = -0.34233 0.42094
# Poissons Ratio (y) = -0.13807 0.91876
# Poissons Ratio (z) = 0.06426 0.34773
#
# Static dielectric constant tensor:
#      x y z
#    x 1.787380 0.000000 0.000000 
#    y 0.000000 1.628630 0.000000 
#    z 0.000000 0.000000 1.728300 
# 
# From -- ./inp_files/6225.got.cif
#   From: 2010.05.17/outbox.cif.g08.bks.cpg/sg31_4_cif.got.tgz:6225.got - 2010.06.03 17:08:30.
