data_PCOD9342547
_publ_section_title
;
Structure prediction by ZEFSAII (Michael W. Deem and Ramdas Pophale) SiO2 
 PCOD9342547
Probable space group: P N C 2
;
_chemical_formula_sum "Si O2"
_cell_formula_units_Z 12
_cell_length_a 5.227883
_cell_length_b 5.294188
_cell_length_c 17.705826
_cell_angle_alpha 90.000000
_cell_angle_beta 90.000000
_cell_angle_gamma 90.000000
_cell_volume 490.051148
_symmetry_space_group_name_H-M "P N C 2"
_symmetry_group_IT_number 30
_symmetry_cell_setting 'orthorhombic'
loop_
_space_group_symop_operation_xyz
x,y,z
-x,-y,z
-x,1/2+y,1/2+z
x,1/2-y,1/2+z
loop_
_atom_site_type_symbol
_atom_site_label
_atom_site_fract_x
_atom_site_fract_y
_atom_site_fract_z
Si Si1 0.000000 0.000000 0.289940
Si Si2 0.500000 0.000000 0.041480
Si Si3 0.153988 0.261932 0.934999
Si Si4 0.244794 0.671217 0.162027
O O1 0.172320 0.822113 0.237939
O O2 0.822561 0.836759 0.346936
O O3 0.294196 0.877263 0.097154
O O4 0.601431 0.786119 0.985389
O O5 0.000000 0.500000 0.966617
O O6 0.000000 0.000000 0.938136
O O7 0.500000 0.500000 0.168736
O O8 0.000000 0.500000 0.145068
#
# Coordination Sequence:
#
# PCOD9342547 Si02
#       4
#     2   2   4   4
#     4  10  26  60  78 126 172 226 290 350 430 512
#     4  12  30  50  86 128 170 222 292 350 438 504
#     4  10  27  53  83 123 171 218 289 354 431 508
#     4  12  29  53  87 123 175 230 287 355 427 519
#
# _framework density 24.487238000000001
#
# number of rings (size 3 to 8) (size 9 to 14) (size 15 to 20)
#    1.000    0.000    0.000    3.000   11.667    0.000 
#   30.000    3.333    0.000    0.000    0.000    0.000 
#    0.000    0.000    0.000    0.000    0.000    0.000 
#
# Total GULP energy -67241.407671 kJ/mol
# GULP energy per Si atom -5603.450639 kJ/mol
# Density = 2.443150 g / cm^3
# Si number density = 24.487238 Si / 1000 Ang^3
#
#
#
# Elastic Constant Matrix: (Units=GPa)
#
#
# Indices 1 2 3 4 5 6 
#
# 1 141.4565 69.9191 69.9653 0.0000 0.0000 0.0000
# 2 69.9191 161.7857 69.8293 0.0000 0.0000 0.0000
# 3 69.9653 69.8293 205.5046 0.0000 0.0000 0.0000
# 4 0.0000 0.0000 0.0000 70.9710 0.0000 0.0000
# 5 0.0000 0.0000 0.0000 0.0000 40.1720 0.0000
# 6 0.0000 0.0000 0.0000 0.0000 0.0000 55.3531
#
#
#
# Elastic Compliance Matrix: (Units=1/GPa)
#
#
# Indices 1 2 3 4 5 6 
#
# 1 0.009784 -0.003270 -0.002220 0.000000 0.000000 0.000000
# 2 -0.003270 0.008336 -0.001719 0.000000 0.000000 0.000000
# 3 -0.002220 -0.001719 0.006206 0.000000 0.000000 0.000000
# 4 0.000000 0.000000 0.000000 0.014090 0.000000 0.000000
# 5 0.000000 0.000000 0.000000 0.000000 0.024893 0.000000
# 6 0.000000 0.000000 0.000000 0.000000 0.000000 0.018066
#
#
# Mechanical properties :
#
#
# Convention : Reuss Voigt Hill
#
# Bulk Modulus (GPa) = 100.93225 103.13045 102.03135
# Shear Modulus (GPa) = 50.45629 53.23477 51.84553
#
# Velocity S-wave (km/s) = 4.54421 4.66765 4.60635
# Velocity P-wave (km/s) = 8.29704 8.44137 8.36952
#
# Compressibility (1/GPa) = 0.00990764
#
# Stress axis : x y z
#
# Youngs Moduli (GPa) = 102.21262 119.95669 161.13451
#
# Poissons Ratio (x) = 0.39227 0.35767
# Poissons Ratio (y) = 0.33425 0.27704
# Poissons Ratio (z) = 0.22688 0.20624
#
# Static dielectric constant tensor:
#      x y z
#    x 1.913950 0.000000 0.000000 
#    y 0.000000 1.914730 0.000000 
#    z 0.000000 0.000000 1.913810 
# 
# From -- ./inp_files/5712.got.cif
#   From: 2010.05.17/outbox.cif.g08.bks.cpg/sg30_3_cif.got.tgz:5712.got - 2010.06.03 17:03:02.
