data_PCOD9342766
_publ_section_title
;
Structure prediction by ZEFSAII (Michael W. Deem and Ramdas Pophale) SiO2 
 PCOD9342766
Probable space group: P M N 21
;
_chemical_formula_sum "Si O2"
_cell_formula_units_Z 28
_cell_length_a 28.524578
_cell_length_b 5.313881
_cell_length_c 8.708126
_cell_angle_alpha 90.000000
_cell_angle_beta 90.000000
_cell_angle_gamma 90.000000
_cell_volume 1319.944762
_symmetry_space_group_name_H-M "P M N 21"
_symmetry_group_IT_number 31
_symmetry_cell_setting 'orthorhombic'
loop_
_space_group_symop_operation_xyz
x,y,z
1/2-x,-y,1/2+z
-x,y,z
1/2+x,-y,1/2+z
loop_
_atom_site_type_symbol
_atom_site_label
_atom_site_fract_x
_atom_site_fract_y
_atom_site_fract_z
Si Si1 0.327283 0.272941 0.219130
Si Si2 0.898591 0.415231 0.510284
Si Si3 0.398640 0.899974 0.316761
Si Si4 0.500000 0.914961 0.283913
Si Si5 0.313426 0.659966 0.454251
Si Si6 0.275693 0.033668 0.952867
Si Si7 0.000000 0.584464 0.582546
Si Si8 0.317438 0.536733 0.804169
O O1 0.360792 0.410543 0.096956
O O2 0.365746 0.140271 0.323993
O O3 0.298725 0.475047 0.316137
O O4 0.295386 0.078454 0.125120
O O5 0.871574 0.390812 0.349252
O O6 0.950466 0.533009 0.498167
O O7 0.901723 0.185607 0.635166
O O8 0.451106 0.941320 0.371165
O O9 0.367717 0.707468 0.413318
O O10 0.500000 0.137997 0.156468
O O11 0.500000 0.633422 0.213412
O O12 0.279244 0.901255 0.450969
O O13 0.309128 0.551522 0.623296
O O14 0.300758 0.259837 0.857750
O O15 0.290101 0.761748 0.892491
#
# Coordination Sequence:
#
# PCOD9342766 Si02
#       8
#     4   4   4   2   4   4   2   4
#     4  10  20  39  61  88 121 164 209 256 304 373
#     4   9  19  37  60  90 122 160 206 261 306 373
#     4  10  20  38  63  90 123 159 212 258 314 368
#     4  10  20  36  63  93 118 158 210 264 308 370
#     4  11  26  37  62  93 128 167 209 263 316 378
#     4  11  25  42  63  85 130 170 217 251 314 375
#     4  10  18  32  63  95 116 154 212 260 310 368
#     4  11  25  42  61  93 127 169 206 263 315 380
#
# _framework density 21.213009
#
# number of rings (size 3 to 8) (size 9 to 14) (size 15 to 20)
#    0.000    1.714    2.857    0.857    6.000    0.000 
#    0.000    0.714    0.000    0.000    0.000    0.000 
#    0.000    0.000    0.000    0.000    0.000    0.000 
#
# Total GULP energy -156169.848270 kJ/mol
# GULP energy per Si atom -5577.494581 kJ/mol
# Density = 2.116473 g / cm^3
# Si number density = 21.213009 Si / 1000 Ang^3
#
#
#
# Elastic Constant Matrix: (Units=GPa)
#
#
# Indices 1 2 3 4 5 6 
#
# 1 158.4553 12.0629 14.9206 0.0000 0.0000 0.0000
# 2 12.0629 61.5430 -6.4010 0.0000 0.0000 0.0000
# 3 14.9206 -6.4010 55.0178 0.0000 0.0000 0.0000
# 4 0.0000 0.0000 0.0000 19.6174 0.0000 0.0000
# 5 0.0000 0.0000 0.0000 0.0000 22.7025 0.0000
# 6 0.0000 0.0000 0.0000 0.0000 0.0000 29.6149
#
#
#
# Elastic Compliance Matrix: (Units=1/GPa)
#
#
# Indices 1 2 3 4 5 6 
#
# 1 0.006610 -0.001500 -0.001967 0.000000 0.000000 0.000000
# 2 -0.001500 0.016788 0.002360 0.000000 0.000000 0.000000
# 3 -0.001967 0.002360 0.018984 0.000000 0.000000 0.000000
# 4 0.000000 0.000000 0.000000 0.050975 0.000000 0.000000
# 5 0.000000 0.000000 0.000000 0.000000 0.044048 0.000000
# 6 0.000000 0.000000 0.000000 0.000000 0.000000 0.033767
#
#
# Mechanical properties :
#
#
# Convention : Reuss Voigt Hill
#
# Bulk Modulus (GPa) = 24.89552 35.13123 30.01337
# Shear Modulus (GPa) = 26.76989 31.34920 29.05954
#
# Velocity S-wave (km/s) = 3.55626 3.84842 3.70522
# Velocity P-wave (km/s) = 5.35015 6.02862 5.69949
#
# Compressibility (1/GPa) = 0.04016787
#
# Stress axis : x y z
#
# Youngs Moduli (GPa) = 151.27709 59.56517 52.67580
#
# Poissons Ratio (x) = 0.08937 0.10363
# Poissons Ratio (y) = 0.22696 -0.12432
# Poissons Ratio (z) = 0.29760 -0.14058
#
# Static dielectric constant tensor:
#      x y z
#    x 1.792550 0.000000 0.000000 
#    y 0.000000 1.835380 0.000000 
#    z 0.000000 0.000000 1.804070 
# 
# From -- ./inp_files/3142.got.cif
#   From: 2010.05.17/outbox.cif.g08.bks.cpg/sg31_2_cif.got.tgz:3142.got - 2010.06.03 17:08:30.
