data_PCOD9342729
_publ_section_title
;
Structure prediction by ZEFSAII (Michael W. Deem and Ramdas Pophale) SiO2 
 PCOD9342729
Probable space group: P M N 21
;
_chemical_formula_sum "Si O2"
_cell_formula_units_Z 32
_cell_length_a 13.873770
_cell_length_b 11.792607
_cell_length_c 7.855673
_cell_angle_alpha 90.000000
_cell_angle_beta 90.000000
_cell_angle_gamma 90.000000
_cell_volume 1285.250298
_symmetry_space_group_name_H-M "P M N 21"
_symmetry_group_IT_number 31
_symmetry_cell_setting 'orthorhombic'
loop_
_space_group_symop_operation_xyz
x,y,z
1/2-x,-y,1/2+z
-x,y,z
1/2+x,-y,1/2+z
loop_
_atom_site_type_symbol
_atom_site_label
_atom_site_fract_x
_atom_site_fract_y
_atom_site_fract_z
Si Si1 0.116126 0.670315 0.459420
Si Si2 0.611288 0.553099 0.097090
Si Si3 0.110118 0.567957 0.969857
Si Si4 0.786576 0.994752 0.657577
Si Si5 0.214823 0.757917 0.805746
Si Si6 0.885407 0.338055 0.132811
Si Si7 0.115959 0.225455 0.771024
Si Si8 0.884378 0.903195 0.309015
O O1 0.109800 0.509727 0.782004
O O2 0.160213 0.718698 0.633080
O O3 0.324360 0.717169 0.781341
O O4 0.000000 0.665801 0.474579
O O5 0.500000 0.572738 0.046601
O O6 0.650311 0.461090 0.961635
O O7 0.652064 0.674730 0.146925
O O8 0.165416 0.684749 0.951062
O O9 0.143977 0.467852 0.093877
O O10 0.000000 0.592515 0.017577
O O11 0.840599 0.105907 0.723576
O O12 0.674156 0.032762 0.661013
O O13 0.793251 0.891827 0.792558
O O14 0.837658 0.953401 0.484033
O O15 0.135751 0.767276 0.320521
O O16 0.862204 0.265445 0.963172
O O17 0.000000 0.335432 0.157364
O O18 0.000000 0.221494 0.759071
O O19 0.000000 0.919934 0.304122
#
# Coordination Sequence:
#
# PCOD9342729 Si02
#       8
#     4   4   4   4   4   4   4   4
#     4   8  14  28  52  80 107 141 188 239 296 353
#     4   7  11  22  44  75 106 137 180 232 284 343
#     4   8  15  30  52  77 101 130 179 236 285 339
#     4  11  22  37  58  90 127 166 211 250 309 389
#     4  10  18  30  53  81 111 150 191 240 298 363
#     4   9  18  33  54  79 108 148 195 241 295 358
#     4   9  16  28  49  81 119 155 198 250 297 354
#     4  10  22  40  61  87 125 167 209 264 315 367
#
# _framework density 24.897873000000001
#
# number of rings (size 3 to 8) (size 9 to 14) (size 15 to 20)
#    0.000    3.000    0.000    4.500    0.000    2.000 
#    0.000    5.000    0.000    3.000    0.000   14.000 
#    0.000    0.000    0.000    0.000    0.000    0.000 
#
# Total GULP energy -178907.050075 kJ/mol
# GULP energy per Si atom -5590.845315 kJ/mol
# Density = 2.484120 g / cm^3
# Si number density = 24.897873 Si / 1000 Ang^3
#
#
#
# Elastic Constant Matrix: (Units=GPa)
#
#
# Indices 1 2 3 4 5 6 
#
# 1 119.1547 52.2524 40.1752 0.0000 0.0000 0.0000
# 2 52.2524 203.2160 38.9933 0.0000 0.0000 0.0000
# 3 40.1752 38.9933 109.7346 0.0000 0.0000 0.0000
# 4 0.0000 0.0000 0.0000 -8.7402 0.0000 0.0000
# 5 0.0000 0.0000 0.0000 0.0000 19.7857 0.0000
# 6 0.0000 0.0000 0.0000 0.0000 0.0000 24.4073
#
#
#
# Elastic Compliance Matrix: (Units=1/GPa)
#
#
# Indices 1 2 3 4 5 6 
#
# 1 0.010327 -0.002071 -0.003045 0.000000 0.000000 0.000000
# 2 -0.002071 0.005696 -0.001266 0.000000 0.000000 0.000000
# 3 -0.003045 -0.001266 0.010678 0.000000 0.000000 0.000000
# 4 0.000000 0.000000 0.000000 -0.114413 0.000000 0.000000
# 5 0.000000 0.000000 0.000000 0.000000 0.050542 0.000000
# 6 0.000000 0.000000 0.000000 0.000000 0.000000 0.040971
#
#
# Mechanical properties :
#
#
# Convention : Reuss Voigt Hill
#
# Bulk Modulus (GPa) = 71.75069 77.21635 74.48352
# Shear Modulus (GPa) = 235.73173 27.13617 131.43395
#
# Velocity S-wave (km/s) = 9.74089 3.30494 7.27350
# Velocity P-wave (km/s) = 12.46571 6.75604 10.02592
#
# Compressibility (1/GPa) = 0.01393715
#
# Stress axis : x y z
#
# Youngs Moduli (GPa) = 96.82981 175.55181 93.65464
#
# Poissons Ratio (x) = 0.36360 0.28518
# Poissons Ratio (y) = 0.20055 0.11855
# Poissons Ratio (z) = 0.29485 0.22222
#
# Static dielectric constant tensor:
#      x y z
#    x 1.960040 0.000000 0.000000 
#    y 0.000000 1.979300 0.000000 
#    z 0.000000 0.000000 2.034520 
# 
# From -- ./inp_files/4091.got.cif
#   From: 2010.05.17/outbox.cif.g08.bks.cpg/sg31_3_cif.got.tgz:4091.got - 2010.06.03 17:08:30.
