data_PCOD9342289
_publ_section_title
;
Structure prediction by ZEFSAII (Michael W. Deem and Ramdas Pophale) SiO2 
 PCOD9342289
Probable space group: P N C 2
;
_chemical_formula_sum "Si O2"
_cell_formula_units_Z 22
_cell_length_a 10.454665
_cell_length_b 12.621486
_cell_length_c 8.061209
_cell_angle_alpha 90.000000
_cell_angle_beta 90.000000
_cell_angle_gamma 90.000000
_cell_volume 1063.704000
_symmetry_space_group_name_H-M "P N C 2"
_symmetry_group_IT_number 30
_symmetry_cell_setting 'orthorhombic'
loop_
_space_group_symop_operation_xyz
x,y,z
-x,-y,z
-x,1/2+y,1/2+z
x,1/2-y,1/2+z
loop_
_atom_site_type_symbol
_atom_site_label
_atom_site_fract_x
_atom_site_fract_y
_atom_site_fract_z
Si Si1 0.353356 0.010279 0.277010
Si Si2 0.100631 0.898325 0.320363
Si Si3 0.248348 0.354412 0.084377
Si Si4 0.000000 0.000000 0.920340
Si Si5 0.734339 0.885514 0.963549
Si Si6 0.955432 0.172658 0.669301
O O1 0.291481 0.078281 0.426934
O O2 0.500000 0.000000 0.329058
O O3 0.243717 0.921248 0.257123
O O4 0.357437 0.057690 0.092443
O O5 0.122866 0.859499 0.508580
O O6 0.047759 0.794598 0.224494
O O7 0.000000 0.000000 0.310579
O O8 0.299901 0.385097 0.267692
O O9 0.097129 0.360712 0.113053
O O10 0.268508 0.234201 0.029051
O O11 0.927767 0.092797 0.818632
O O12 0.122540 0.064790 0.991152
#
# Coordination Sequence:
#
# PCOD9342289 Si02
#       6
#     4   4   4   2   4   4
#     4  12  28  48  68 105 146 191 241 297 362 434
#     4  12  24  45  72 103 146 183 241 306 360 435
#     4  11  21  44  72 104 141 187 236 297 363 429
#     4  10  22  36  70 112 142 178 238 298 374 422
#     4  11  23  41  71 104 137 186 238 289 358 434
#     4  11  22  41  70 108 143 180 238 309 366 425
#
# _framework density 20.682445000000001
#
# number of rings (size 3 to 8) (size 9 to 14) (size 15 to 20)
#    0.000    0.727    4.545    4.364    6.364    0.727 
#    3.273    0.000    0.000    0.000    0.000    0.000 
#    0.000    0.000    0.000    0.000    0.000    0.000 
#
# Total GULP energy -122548.105700 kJ/mol
# GULP energy per Si atom -5570.368441 kJ/mol
# Density = 2.063537 g / cm^3
# Si number density = 20.682445 Si / 1000 Ang^3
#
#
#
# Elastic Constant Matrix: (Units=GPa)
#
#
# Indices 1 2 3 4 5 6 
#
# 1 75.1532 32.4416 20.3715 0.0000 0.0000 0.0000
# 2 32.4416 113.8323 38.6731 0.0000 0.0000 0.0000
# 3 20.3715 38.6731 104.0443 0.0000 0.0000 0.0000
# 4 0.0000 0.0000 0.0000 -27.5667 0.0000 0.0000
# 5 0.0000 0.0000 0.0000 0.0000 22.2224 0.0000
# 6 0.0000 0.0000 0.0000 0.0000 0.0000 9.6990
#
#
#
# Elastic Compliance Matrix: (Units=1/GPa)
#
#
# Indices 1 2 3 4 5 6 
#
# 1 0.015397 -0.003850 -0.001584 0.000000 0.000000 0.000000
# 2 -0.003850 0.011017 -0.003341 0.000000 0.000000 0.000000
# 3 -0.001584 -0.003341 0.011163 0.000000 0.000000 0.000000
# 4 0.000000 0.000000 0.000000 -0.036276 0.000000 0.000000
# 5 0.000000 0.000000 0.000000 0.000000 0.045000 0.000000
# 6 0.000000 0.000000 0.000000 0.000000 0.000000 0.103104
#
#
# Mechanical properties :
#
#
# Convention : Reuss Voigt Hill
#
# Bulk Modulus (GPa) = 49.93044 52.88913 51.40978
# Shear Modulus (GPa) = 28.79654 14.30718 21.55186
#
# Velocity S-wave (km/s) = 3.73543 2.63298 3.23156
# Velocity P-wave (km/s) = 6.54205 5.90516 6.23175
#
# Compressibility (1/GPa) = 0.02002786
#
# Stress axis : x y z
#
# Youngs Moduli (GPa) = 64.94586 90.76654 89.57924
#
# Poissons Ratio (x) = 0.34947 0.14186
# Poissons Ratio (y) = 0.25005 0.29931
# Poissons Ratio (z) = 0.10285 0.30327
#
# Static dielectric constant tensor:
#      x y z
#    x 1.720440 0.000000 0.000000 
#    y 0.000000 1.806100 0.000000 
#    z 0.000000 0.000000 1.870180 
# 
# From -- ./inp_files/1804.got.cif
#   From: 2010.05.17/outbox.cif.g08.bks.cpg/sg30_1_cif.got.tgz:1804.got - 2010.06.03 17:03:02.
