data_PCOD9342015
_publ_section_title
;
Structure prediction by ZEFSAII (Michael W. Deem and Ramdas Pophale) SiO2 
 PCOD9342015
Probable space group: P N C 2
;
_chemical_formula_sum "Si O2"
_cell_formula_units_Z 32
_cell_length_a 9.208052
_cell_length_b 14.903969
_cell_length_c 12.018287
_cell_angle_alpha 90.000000
_cell_angle_beta 90.000000
_cell_angle_gamma 90.000000
_cell_volume 1649.347903
_symmetry_space_group_name_H-M "P N C 2"
_symmetry_group_IT_number 30
_symmetry_cell_setting 'orthorhombic'
loop_
_space_group_symop_operation_xyz
x,y,z
-x,-y,z
-x,1/2+y,1/2+z
x,1/2-y,1/2+z
loop_
_atom_site_type_symbol
_atom_site_label
_atom_site_fract_x
_atom_site_fract_y
_atom_site_fract_z
Si Si1 0.348453 0.554875 0.084200
Si Si2 0.422695 0.637863 0.860956
Si Si3 0.463308 0.601233 0.523489
Si Si4 0.552873 0.338770 0.277464
Si Si5 0.216039 0.928268 0.172789
Si Si6 0.255715 0.396157 0.943331
Si Si7 0.323062 0.247619 0.621576
Si Si8 0.101126 0.380583 0.723217
O O1 0.500000 0.500000 0.094580
O O2 0.333535 0.606983 0.200257
O O3 0.365658 0.627796 0.986394
O O4 0.246713 0.479259 0.029130
O O5 0.407283 0.738660 0.816969
O O6 0.328054 0.579712 0.775821
O O7 0.590623 0.606206 0.873844
O O8 0.500000 0.500000 0.559190
O O9 0.478374 0.609801 0.391365
O O10 0.299447 0.612004 0.567209
O O11 0.565046 0.675284 0.581203
O O12 0.412083 0.320649 0.200127
O O13 0.068469 0.875743 0.198698
O O14 0.167494 0.031769 0.161410
O O15 0.129621 0.397199 0.853416
O O16 0.264906 0.306341 0.015863
O O17 0.193054 0.295143 0.686066
#
# Coordination Sequence:
#
# PCOD9342015 Si02
#       8
#     4   4   4   4   4   4   4   4
#     4  10  20  34  57  93 120 152 194 259 312 362
#     4  11  20  35  63  88 118 148 208 256 303 354
#     4  12  23  37  61  94 121 160 204 257 312 366
#     4  12  21  35  60  94 128 153 196 258 322 369
#     4  11  24  39  62  89 118 164 208 256 306 361
#     4  11  21  38  64  93 119 162 206 259 311 367
#     4  12  21  38  61  94 122 159 205 258 305 375
#     4  11  23  42  58  86 123 162 213 249 302 374
#
# _framework density 19.401606999999998
#
# number of rings (size 3 to 8) (size 9 to 14) (size 15 to 20)
#    0.000    0.750    8.750    0.375    0.000    0.000 
#    2.250    0.000    0.000    0.000    6.500    0.000 
#    0.000    0.000    0.000    0.000    0.000    0.000 
#
# Total GULP energy -178636.171410 kJ/mol
# GULP energy per Si atom -5582.380357 kJ/mol
# Density = 1.935745 g / cm^3
# Si number density = 19.401607 Si / 1000 Ang^3
#
#
#
# Elastic Constant Matrix: (Units=GPa)
#
#
# Indices 1 2 3 4 5 6 
#
# 1 55.2542 24.7839 30.8281 0.0000 0.0000 0.0000
# 2 24.7839 85.1580 29.4134 0.0000 0.0000 0.0000
# 3 30.8281 29.4134 94.8328 0.0000 0.0000 0.0000
# 4 0.0000 0.0000 0.0000 47.9257 0.0000 0.0000
# 5 0.0000 0.0000 0.0000 0.0000 7.9127 0.0000
# 6 0.0000 0.0000 0.0000 0.0000 0.0000 14.6985
#
#
#
# Elastic Compliance Matrix: (Units=1/GPa)
#
#
# Indices 1 2 3 4 5 6 
#
# 1 0.023705 -0.004746 -0.006234 0.000000 0.000000 0.000000
# 2 -0.004746 0.014102 -0.002831 0.000000 0.000000 0.000000
# 3 -0.006234 -0.002831 0.013450 0.000000 0.000000 0.000000
# 4 0.000000 0.000000 0.000000 0.020866 0.000000 0.000000
# 5 0.000000 0.000000 0.000000 0.000000 0.126379 0.000000
# 6 0.000000 0.000000 0.000000 0.000000 0.000000 0.068034
#
#
# Mechanical properties :
#
#
# Convention : Reuss Voigt Hill
#
# Bulk Modulus (GPa) = 42.31078 45.03287 43.67183
# Shear Modulus (GPa) = 16.55434 24.12202 20.33818
#
# Velocity S-wave (km/s) = 2.92421 3.52987 3.24122
# Velocity P-wave (km/s) = 5.76685 6.31463 6.04695
#
# Compressibility (1/GPa) = 0.02363464
#
# Stress axis : x y z
#
# Youngs Moduli (GPa) = 42.18523 70.91237 74.35203
#
# Poissons Ratio (x) = 0.33653 0.46351
# Poissons Ratio (y) = 0.20020 0.21050
# Poissons Ratio (z) = 0.26298 0.20076
#
# Static dielectric constant tensor:
#      x y z
#    x 1.676380 0.000000 0.000000 
#    y 0.000000 1.735600 0.000000 
#    z 0.000000 0.000000 1.699920 
# 
# From -- ./inp_files/3773.got.cif
#   From: 2010.05.17/outbox.cif.g08.bks.cpg/sg30_2_cif.got.tgz:3773.got - 2010.06.03 17:03:02.
