data_PCOD9342261
_publ_section_title
;
Structure prediction by ZEFSAII (Michael W. Deem and Ramdas Pophale) SiO2 
 PCOD9342261
Probable space group: P N C 2
;
_chemical_formula_sum "Si O2"
_cell_formula_units_Z 26
_cell_length_a 15.360798
_cell_length_b 8.734441
_cell_length_c 10.473076
_cell_angle_alpha 90.000000
_cell_angle_beta 90.000000
_cell_angle_gamma 90.000000
_cell_volume 1405.151492
_symmetry_space_group_name_H-M "P N C 2"
_symmetry_group_IT_number 30
_symmetry_cell_setting 'orthorhombic'
loop_
_space_group_symop_operation_xyz
x,y,z
-x,-y,z
-x,1/2+y,1/2+z
x,1/2-y,1/2+z
loop_
_atom_site_type_symbol
_atom_site_label
_atom_site_fract_x
_atom_site_fract_y
_atom_site_fract_z
Si Si1 0.920712 0.882659 0.434850
Si Si2 0.500000 0.500000 0.575597
Si Si3 0.330336 0.901199 0.196147
Si Si4 0.081951 0.390454 0.230007
Si Si5 0.725068 0.563619 0.944097
Si Si6 0.265967 0.563019 0.215648
Si Si7 0.332828 0.094234 0.960040
O O1 0.919123 0.744807 0.333572
O O2 0.924805 0.829621 0.583547
O O3 0.827725 0.967369 0.425099
O O4 0.000000 0.000000 0.412821
O O5 0.567769 0.396327 0.655421
O O6 0.564810 0.603528 0.492220
O O7 0.278287 0.743249 0.194064
O O8 0.324673 0.973300 0.335213
O O9 0.293150 0.017747 0.088369
O O10 0.169156 0.494472 0.236435
O O11 0.000000 0.500000 0.251989
O O12 0.700017 0.516535 0.086800
O O13 0.708701 0.743673 0.930300
O O14 0.318805 0.516347 0.341027
#
# Coordination Sequence:
#
# PCOD9342261 Si02
#       7
#     4   2   4   4   4   4   4
#     4  10  23  41  62  93 130 166 217 265 316 392
#     4   8  24  42  62  92 134 158 230 264 338 394
#     4  10  23  42  62  93 127 168 214 273 332 390
#     4  10  23  41  61  96 130 168 216 265 325 384
#     4  11  22  40  66  91 125 170 215 264 334 387
#     4  11  22  40  65  93 127 167 217 270 327 396
#     4  10  21  43  63  90 128 170 212 269 328 394
#
# _framework density 18.503342
#
# number of rings (size 3 to 8) (size 9 to 14) (size 15 to 20)
#    0.923    0.923    1.538    1.846    4.308    1.846 
#    2.769    0.000    0.000    0.000    0.000    0.000 
#    0.000    0.000    0.000    0.000    0.000    0.000 
#
# Total GULP energy -144866.055971 kJ/mol
# GULP energy per Si atom -5571.771383 kJ/mol
# Density = 1.846123 g / cm^3
# Si number density = 18.503342 Si / 1000 Ang^3
#
#
#
# Elastic Constant Matrix: (Units=GPa)
#
#
# Indices 1 2 3 4 5 6 
#
# 1 99.0994 24.0131 38.5855 0.0000 0.0000 0.0000
# 2 24.0131 66.6020 6.8879 0.0000 0.0000 0.0000
# 3 38.5855 6.8879 81.5034 0.0000 0.0000 0.0000
# 4 0.0000 0.0000 0.0000 40.5569 0.0000 0.0000
# 5 0.0000 0.0000 0.0000 0.0000 81.8299 0.0000
# 6 0.0000 0.0000 0.0000 0.0000 0.0000 12.8583
#
#
#
# Elastic Compliance Matrix: (Units=1/GPa)
#
#
# Indices 1 2 3 4 5 6 
#
# 1 0.013457 -0.004230 -0.006013 0.000000 0.000000 0.000000
# 2 -0.004230 0.016477 0.000610 0.000000 0.000000 0.000000
# 3 -0.006013 0.000610 0.015065 0.000000 0.000000 0.000000
# 4 0.000000 0.000000 0.000000 0.024657 0.000000 0.000000
# 5 0.000000 0.000000 0.000000 0.000000 0.012220 0.000000
# 6 0.000000 0.000000 0.000000 0.000000 0.000000 0.077771
#
#
# Mechanical properties :
#
#
# Convention : Reuss Voigt Hill
#
# Bulk Modulus (GPa) = 38.86232 42.90865 40.88548
# Shear Modulus (GPa) = 26.66801 38.89692 32.78247
#
# Velocity S-wave (km/s) = 3.80050 4.58990 4.21373
# Velocity P-wave (km/s) = 6.34877 7.16447 6.76892
#
# Compressibility (1/GPa) = 0.02573187
#
# Stress axis : x y z
#
# Youngs Moduli (GPa) = 74.30907 60.69212 66.38003
#
# Poissons Ratio (x) = 0.25673 0.39918
# Poissons Ratio (y) = 0.31433 -0.04050
# Poissons Ratio (z) = 0.44686 -0.03703
#
# Static dielectric constant tensor:
#      x y z
#    x 1.633820 0.000000 0.000000 
#    y 0.000000 1.630870 0.000000 
#    z 0.000000 0.000000 1.638620 
# 
# From -- ./inp_files/2765.got.cif
#   From: 2010.05.17/outbox.cif.g08.bks.cpg/sg30_2_cif.got.tgz:2765.got - 2010.06.03 17:03:02.
