data_PCOD9342858
_publ_section_title
;
Structure prediction by ZEFSAII (Michael W. Deem and Ramdas Pophale) SiO2 
 PCOD9342858
Probable space group: P M N 21
;
_chemical_formula_sum "Si O2"
_cell_formula_units_Z 32
_cell_length_a 9.520795
_cell_length_b 11.106196
_cell_length_c 16.280333
_cell_angle_alpha 90.000000
_cell_angle_beta 90.000000
_cell_angle_gamma 90.000000
_cell_volume 1721.479405
_symmetry_space_group_name_H-M "P M N 21"
_symmetry_group_IT_number 31
_symmetry_cell_setting 'orthorhombic'
loop_
_space_group_symop_operation_xyz
x,y,z
1/2-x,-y,1/2+z
-x,y,z
1/2+x,-y,1/2+z
loop_
_atom_site_type_symbol
_atom_site_label
_atom_site_fract_x
_atom_site_fract_y
_atom_site_fract_z
Si Si1 0.333029 0.599534 0.240360
Si Si2 0.167063 0.105867 0.921527
Si Si3 0.342952 0.977212 0.783106
Si Si4 0.841589 0.036433 0.556408
Si Si5 0.333562 0.606588 0.426479
Si Si6 0.657738 0.193730 0.657127
Si Si7 0.165851 0.583246 0.588827
Si Si8 0.657077 0.177483 0.184758
O O1 0.500000 0.632873 0.241064
O O2 0.299565 0.559785 0.334120
O O3 0.235452 0.710717 0.214843
O O4 0.311777 0.503601 0.167184
O O5 0.194608 0.249035 0.923034
O O6 0.000000 0.089013 0.924246
O O7 0.235264 0.043911 0.842656
O O8 0.244503 0.037526 0.994772
O O9 0.500000 0.960496 0.817588
O O10 0.272350 0.853613 0.752719
O O11 0.357930 0.070213 0.707855
O O12 0.856227 0.945327 0.633121
O O13 0.000000 0.059566 0.526239
O O14 0.761431 0.157440 0.583282
O O15 0.500000 0.589439 0.439514
O O16 0.250839 0.556909 0.505558
O O17 0.500000 0.232938 0.633221
O O18 0.200535 0.716330 0.623290
O O19 0.000000 0.581301 0.569225
O O20 0.500000 0.207765 0.216965
#
# Coordination Sequence:
#
# PCOD9342858 Si02
#       8
#     4   4   4   4   4   4   4   4
#     4  10  21  39  60  84 115 156 197 239 292 350
#     4  11  20  32  53  82 113 147 187 234 286 345
#     4  10  20  32  51  79 110 143 180 227 280 338
#     4  10  19  32  53  79 111 144 179 226 283 343
#     4  10  21  36  57  84 114 148 194 243 292 347
#     4  10  20  34  53  80 111 144 185 231 280 337
#     4  10  21  38  61  85 113 152 200 244 290 346
#     4   9  18  33  52  77 107 142 180 226 283 340
#
# _framework density 18.588661999999999
#
# number of rings (size 3 to 8) (size 9 to 14) (size 15 to 20)
#    0.000    2.000    2.500    1.500    0.000    3.500 
#    0.000    1.250    0.000    4.500    0.000    0.000 
#    0.000    0.000    0.000    0.000    0.000    0.000 
#
# Total GULP energy -178242.612858 kJ/mol
# GULP energy per Si atom -5570.081652 kJ/mol
# Density = 1.854635 g / cm^3
# Si number density = 18.588662 Si / 1000 Ang^3
#
#
#
# Elastic Constant Matrix: (Units=GPa)
#
#
# Indices 1 2 3 4 5 6 
#
# 1 104.1291 27.2775 59.9076 0.0000 0.0000 0.0000
# 2 27.2775 28.5477 26.2252 0.0000 0.0000 0.0000
# 3 59.9076 26.2252 97.4497 0.0000 0.0000 0.0000
# 4 0.0000 0.0000 0.0000 25.4712 0.0000 0.0000
# 5 0.0000 0.0000 0.0000 0.0000 9.2185 0.0000
# 6 0.0000 0.0000 0.0000 0.0000 0.0000 18.2458
#
#
#
# Elastic Compliance Matrix: (Units=1/GPa)
#
#
# Indices 1 2 3 4 5 6 
#
# 1 0.016258 -0.008439 -0.007723 0.000000 0.000000 0.000000
# 2 -0.008439 0.050914 -0.008514 0.000000 0.000000 0.000000
# 3 -0.007723 -0.008514 0.017301 0.000000 0.000000 0.000000
# 4 0.000000 0.000000 0.000000 0.039260 0.000000 0.000000
# 5 0.000000 0.000000 0.000000 0.000000 0.108478 0.000000
# 6 0.000000 0.000000 0.000000 0.000000 0.000000 0.054807
#
#
# Mechanical properties :
#
#
# Convention : Reuss Voigt Hill
#
# Bulk Modulus (GPa) = 28.47394 50.77192 39.62293
# Shear Modulus (GPa) = 14.36469 18.36817 16.36643
#
# Velocity S-wave (km/s) = 2.78288 3.14688 2.97046
# Velocity P-wave (km/s) = 5.06726 6.36997 5.75559
#
# Compressibility (1/GPa) = 0.03511983
#
# Stress axis : x y z
#
# Youngs Moduli (GPa) = 61.50986 19.64107 57.80099
#
# Poissons Ratio (x) = 0.16576 0.44641
# Poissons Ratio (y) = 0.51910 0.49209
# Poissons Ratio (z) = 0.47506 0.16722
#
# Static dielectric constant tensor:
#      x y z
#    x 1.673320 0.000000 0.000000 
#    y 0.000000 1.626770 0.000000 
#    z 0.000000 0.000000 1.707310 
# 
# From -- ./inp_files/5049.got.cif
#   From: 2010.05.17/outbox.cif.g08.bks.cpg/sg31_3_cif.got.tgz:5049.got - 2010.06.03 17:08:30.
