data_PCOD9342533
_publ_section_title
;
Structure prediction by ZEFSAII (Michael W. Deem and Ramdas Pophale) SiO2 
 PCOD9342533
Probable space group: P N C 2
;
_chemical_formula_sum "Si O2"
_cell_formula_units_Z 12
_cell_length_a 5.319036
_cell_length_b 5.072134
_cell_length_c 19.639364
_cell_angle_alpha 90.000000
_cell_angle_beta 90.000000
_cell_angle_gamma 90.000000
_cell_volume 529.847717
_symmetry_space_group_name_H-M "P N C 2"
_symmetry_group_IT_number 30
_symmetry_cell_setting 'orthorhombic'
loop_
_space_group_symop_operation_xyz
x,y,z
-x,-y,z
-x,1/2+y,1/2+z
x,1/2-y,1/2+z
loop_
_atom_site_type_symbol
_atom_site_label
_atom_site_fract_x
_atom_site_fract_y
_atom_site_fract_z
Si Si1 0.000000 0.500000 0.641531
Si Si2 0.000000 0.000000 0.736830
Si Si3 0.500000 0.000000 0.415278
Si Si4 0.500000 0.500000 0.323884
Si Si5 0.260312 0.349410 0.049956
O O1 0.221093 0.422104 0.588995
O O2 0.946844 0.254179 0.690194
O O3 0.749102 0.937865 0.780045
O O4 0.577927 0.244227 0.368443
O O5 0.308580 0.138810 0.468941
O O6 0.500000 0.500000 0.079774
O O7 0.000000 0.500000 0.060281
#
# Coordination Sequence:
#
# PCOD9342533 Si02
#       5
#     2   2   2   2   4
#     4  12  26  51  74 111 154 184 260 300 390 446
#     4  12  30  45  76 101 150 208 240 302 358 460
#     4  10  28  45  78 103 152 180 258 302 380 440
#     4  12  28  49  70 105 146 204 248 294 362 452
#     4  10  26  43  76 112 141 191 233 327 382 435
#
# _framework density 22.648015999999998
#
# number of rings (size 3 to 8) (size 9 to 14) (size 15 to 20)
#    1.000    0.000    1.667    2.000   11.667    4.000 
#    0.000    0.000    0.000    0.000    0.000    0.000 
#    0.000    0.000    0.000    0.000    0.000    0.000 
#
# Total GULP energy -66965.585664 kJ/mol
# GULP energy per Si atom -5580.465472 kJ/mol
# Density = 2.259647 g / cm^3
# Si number density = 22.648016 Si / 1000 Ang^3
#
#
#
# Elastic Constant Matrix: (Units=GPa)
#
#
# Indices 1 2 3 4 5 6 
#
# 1 148.0047 28.8344 48.7056 0.0000 0.0000 0.0000
# 2 28.8344 149.3465 65.0632 0.0000 0.0000 0.0000
# 3 48.7056 65.0632 134.6766 0.0000 0.0000 0.0000
# 4 0.0000 0.0000 0.0000 95.8301 0.0000 0.0000
# 5 0.0000 0.0000 0.0000 0.0000 32.3397 0.0000
# 6 0.0000 0.0000 0.0000 0.0000 0.0000 37.8480
#
#
#
# Elastic Compliance Matrix: (Units=1/GPa)
#
#
# Indices 1 2 3 4 5 6 
#
# 1 0.007683 -0.000346 -0.002612 0.000000 0.000000 0.000000
# 2 -0.000346 0.008496 -0.003980 0.000000 0.000000 0.000000
# 3 -0.002612 -0.003980 0.010292 0.000000 0.000000 0.000000
# 4 0.000000 0.000000 0.000000 0.010435 0.000000 0.000000
# 5 0.000000 0.000000 0.000000 0.000000 0.030922 0.000000
# 6 0.000000 0.000000 0.000000 0.000000 0.000000 0.026421
#
#
# Mechanical properties :
#
#
# Convention : Reuss Voigt Hill
#
# Bulk Modulus (GPa) = 79.37745 79.69268 79.53507
# Shear Modulus (GPa) = 44.51426 52.49853 48.50640
#
# Velocity S-wave (km/s) = 4.43819 4.81980 4.63293
# Velocity P-wave (km/s) = 7.83503 8.13867 7.98829
#
# Compressibility (1/GPa) = 0.01259804
#
# Stress axis : x y z
#
# Youngs Moduli (GPa) = 130.15174 117.69826 97.16011
#
# Poissons Ratio (x) = 0.04068 0.25375
# Poissons Ratio (y) = 0.04499 0.38666
# Poissons Ratio (z) = 0.33992 0.46839
#
# Static dielectric constant tensor:
#      x y z
#    x 1.848120 0.000000 0.000000 
#    y 0.000000 1.809180 0.000000 
#    z 0.000000 0.000000 1.876430 
# 
# From -- ./inp_files/5703.got.cif
#   From: 2010.05.17/outbox.cif.g08.bks.cpg/sg30_3_cif.got.tgz:5703.got - 2010.06.03 17:03:02.
