data_PCOD9342856
_publ_section_title
;
Structure prediction by ZEFSAII (Michael W. Deem and Ramdas Pophale) SiO2 
 PCOD9342856
Probable space group: P M N 21
;
_chemical_formula_sum "Si O2"
_cell_formula_units_Z 32
_cell_length_a 9.081314
_cell_length_b 23.946684
_cell_length_c 7.873040
_cell_angle_alpha 90.000000
_cell_angle_beta 90.000000
_cell_angle_gamma 90.000000
_cell_volume 1712.129198
_symmetry_space_group_name_H-M "P M N 21"
_symmetry_group_IT_number 31
_symmetry_cell_setting 'orthorhombic'
loop_
_space_group_symop_operation_xyz
x,y,z
1/2-x,-y,1/2+z
-x,y,z
1/2+x,-y,1/2+z
loop_
_atom_site_type_symbol
_atom_site_label
_atom_site_fract_x
_atom_site_fract_y
_atom_site_fract_z
Si Si1 0.178682 0.638945 0.843130
Si Si2 0.177872 0.561636 0.535117
Si Si3 0.164970 0.176235 0.717741
Si Si4 0.666562 0.025734 0.204381
Si Si5 0.165461 0.130384 0.351167
Si Si6 0.322167 0.444879 0.643724
Si Si7 0.323312 0.236846 0.436920
Si Si8 0.665571 0.077923 0.831596
O O1 0.224762 0.609809 0.667166
O O2 0.224793 0.702740 0.870455
O O3 0.000000 0.639656 0.843018
O O4 0.223670 0.600494 0.002755
O O5 0.249042 0.503764 0.596742
O O6 0.215954 0.571307 0.337542
O O7 0.000000 0.556798 0.545281
O O8 0.151944 0.134957 0.554712
O O9 0.257447 0.225375 0.626510
O O10 0.251462 0.137158 0.847649
O O11 0.000000 0.192448 0.769945
O O12 0.500000 0.018166 0.269172
O O13 0.750863 0.074850 0.301850
O O14 0.753117 0.968104 0.218389
O O15 0.659720 0.047926 0.013026
O O16 0.257857 0.187155 0.319590
O O17 0.000000 0.131741 0.278922
O O18 0.500000 0.450420 0.634648
O O19 0.500000 0.233107 0.442328
O O20 0.500000 0.088599 0.768117
#
# Coordination Sequence:
#
# PCOD9342856 Si02
#       8
#     4   4   4   4   4   4   4   4
#     4   9  18  33  53  79 113 149 190 231 278 337
#     4  10  19  32  52  79 111 148 186 230 282 334
#     4   9  19  35  55  78 104 136 175 218 266 322
#     4  11  23  36  53  80 110 141 180 221 268 326
#     4   9  19  35  55  78 104 136 175 218 266 322
#     4  10  19  32  52  79 111 148 186 230 282 334
#     4   9  17  33  57  77 101 145 182 219 272 323
#     4  11  23  36  53  80 110 141 180 221 268 326
#
# _framework density 18.690180000000002
#
# number of rings (size 3 to 8) (size 9 to 14) (size 15 to 20)
#    0.750    1.500    1.250    2.250    0.000    5.000 
#    0.000    3.750    0.000    4.500    0.000    0.000 
#    0.000    0.000    0.000    0.000    0.000    0.000 
#
# Total GULP energy -178200.872713 kJ/mol
# GULP energy per Si atom -5568.777272 kJ/mol
# Density = 1.864764 g / cm^3
# Si number density = 18.690180 Si / 1000 Ang^3
#
#
#
# Elastic Constant Matrix: (Units=GPa)
#
#
# Indices 1 2 3 4 5 6 
#
# 1 77.1086 16.3458 4.1143 0.0000 0.0000 0.0000
# 2 16.3458 67.3752 2.5302 0.0000 0.0000 0.0000
# 3 4.1143 2.5302 55.8774 0.0000 0.0000 0.0000
# 4 0.0000 0.0000 0.0000 24.9809 0.0000 0.0000
# 5 0.0000 0.0000 0.0000 0.0000 24.8824 0.0000
# 6 0.0000 0.0000 0.0000 0.0000 0.0000 17.3415
#
#
#
# Elastic Compliance Matrix: (Units=1/GPa)
#
#
# Indices 1 2 3 4 5 6 
#
# 1 0.013713 -0.003295 -0.000861 0.000000 0.000000 0.000000
# 2 -0.003295 0.015659 -0.000466 0.000000 0.000000 0.000000
# 3 -0.000861 -0.000466 0.017981 0.000000 0.000000 0.000000
# 4 0.000000 0.000000 0.000000 0.040031 0.000000 0.000000
# 5 0.000000 0.000000 0.000000 0.000000 0.040189 0.000000
# 6 0.000000 0.000000 0.000000 0.000000 0.000000 0.057665
#
#
# Mechanical properties :
#
#
# Convention : Reuss Voigt Hill
#
# Bulk Modulus (GPa) = 26.23999 27.37130 26.80565
# Shear Modulus (GPa) = 24.13313 25.26569 24.69941
#
# Velocity S-wave (km/s) = 3.59725 3.68069 3.63921
# Velocity P-wave (km/s) = 5.59675 5.72188 5.65966
#
# Compressibility (1/GPa) = 0.03810976
#
# Stress axis : x y z
#
# Youngs Moduli (GPa) = 72.92332 63.86079 55.61483
#
# Poissons Ratio (x) = 0.21039 0.04786
# Poissons Ratio (y) = 0.24025 0.02594
# Poissons Ratio (z) = 0.06275 0.02979
#
# Static dielectric constant tensor:
#      x y z
#    x 1.678910 0.000000 0.000000 
#    y 0.000000 1.621360 0.000000 
#    z 0.000000 0.000000 1.682670 
# 
# From -- ./inp_files/1885.got.cif
#   From: 2010.05.17/outbox.cif.g08.bks.cpg/sg31_1_cif.got.tgz:1885.got - 2010.06.03 17:08:30.
