data_PCOD9342830
_publ_section_title
;
Structure prediction by ZEFSAII (Michael W. Deem and Ramdas Pophale) SiO2 
 PCOD9342830
Probable space group: P M N 21
;
_chemical_formula_sum "Si O2"
_cell_formula_units_Z 32
_cell_length_a 8.536602
_cell_length_b 10.518122
_cell_length_c 19.870363
_cell_angle_alpha 90.000000
_cell_angle_beta 90.000000
_cell_angle_gamma 90.000000
_cell_volume 1784.140447
_symmetry_space_group_name_H-M "P M N 21"
_symmetry_group_IT_number 31
_symmetry_cell_setting 'orthorhombic'
loop_
_space_group_symop_operation_xyz
x,y,z
1/2-x,-y,1/2+z
-x,y,z
1/2+x,-y,1/2+z
loop_
_atom_site_type_symbol
_atom_site_label
_atom_site_fract_x
_atom_site_fract_y
_atom_site_fract_z
Si Si1 0.312325 0.775828 0.803520
Si Si2 0.814593 0.863767 0.942065
Si Si3 0.190272 0.519157 0.303510
Si Si4 0.812041 0.770476 0.657058
Si Si5 0.188028 0.516568 0.152449
Si Si6 0.810438 0.889641 0.517551
Si Si7 0.809206 0.637759 0.439242
Si Si8 0.187118 0.382441 0.517981
O O1 0.500000 0.777835 0.799262
O O2 0.257954 0.856877 0.867203
O O3 0.263200 0.627972 0.815774
O O4 0.244020 0.813234 0.730846
O O5 0.000000 0.867660 0.935871
O O6 0.763162 0.736396 0.980994
O O7 0.755688 0.983593 0.984768
O O8 0.237537 0.554575 0.228048
O O9 0.244444 0.610270 0.363231
O O10 0.000000 0.519466 0.304835
O O11 0.741081 0.630168 0.644219
O O12 0.766229 0.861471 0.595108
O O13 0.000000 0.758374 0.656689
O O14 0.263817 0.602407 0.095216
O O15 0.000000 0.522218 0.147768
O O16 0.757372 0.767530 0.473850
O O17 0.000000 0.895462 0.515138
O O18 0.763846 0.514305 0.482394
O O19 0.000000 0.641033 0.439324
O O20 0.000000 0.371196 0.511655
#
# Coordination Sequence:
#
# PCOD9342830 Si02
#       8
#     4   4   4   4   4   4   4   4
#     4  10  19  35  59  84 113 151 191 234 290 348
#     4  12  25  39  56  84 118 153 195 245 291 343
#     4   8  15  29  53  83 112 143 181 230 280 336
#     4  10  19  34  57  86 116 148 193 241 287 340
#     4  10  19  31  52  85 120 151 189 237 291 343
#     4  10  21  38  59  83 113 154 195 236 288 347
#     4   9  16  32  58  84 107 139 188 234 282 338
#     4  11  20  36  60  83 111 149 192 239 289 345
#
# _framework density 17.935807
#
# number of rings (size 3 to 8) (size 9 to 14) (size 15 to 20)
#    0.000    2.000    2.500    3.375    0.000    1.000 
#    0.000    1.250    0.000    4.500    0.000    0.000 
#    0.000    0.000    0.000    0.000    0.000    0.000 
#
# Total GULP energy -178579.951351 kJ/mol
# GULP energy per Si atom -5580.623480 kJ/mol
# Density = 1.789498 g / cm^3
# Si number density = 17.935807 Si / 1000 Ang^3
#
#
#
# Elastic Constant Matrix: (Units=GPa)
#
#
# Indices 1 2 3 4 5 6 
#
# 1 31.1788 9.8045 12.9951 0.0000 0.0000 0.0000
# 2 9.8045 75.8747 44.0311 0.0000 0.0000 0.0000
# 3 12.9951 44.0311 137.3258 0.0000 0.0000 0.0000
# 4 0.0000 0.0000 0.0000 28.6031 0.0000 0.0000
# 5 0.0000 0.0000 0.0000 0.0000 26.0225 0.0000
# 6 0.0000 0.0000 0.0000 0.0000 0.0000 18.5976
#
#
#
# Elastic Compliance Matrix: (Units=1/GPa)
#
#
# Indices 1 2 3 4 5 6 
#
# 1 0.033974 -0.003102 -0.002220 0.000000 0.000000 0.000000
# 2 -0.003102 0.016476 -0.004989 0.000000 0.000000 0.000000
# 3 -0.002220 -0.004989 0.009092 0.000000 0.000000 0.000000
# 4 0.000000 0.000000 0.000000 0.034961 0.000000 0.000000
# 5 0.000000 0.000000 0.000000 0.000000 0.038428 0.000000
# 6 0.000000 0.000000 0.000000 0.000000 0.000000 0.053770
#
#
# Mechanical properties :
#
#
# Convention : Reuss Voigt Hill
#
# Bulk Modulus (GPa) = 25.69438 42.00452 33.84945
# Shear Modulus (GPa) = 22.69669 26.48122 24.58895
#
# Velocity S-wave (km/s) = 3.56116 3.84662 3.70664
# Velocity P-wave (km/s) = 5.59160 6.57258 6.10184
#
# Compressibility (1/GPa) = 0.03891901
#
# Stress axis : x y z
#
# Youngs Moduli (GPa) = 29.43437 60.69558 109.98985
#
# Poissons Ratio (x) = 0.18825 0.24423
# Poissons Ratio (y) = 0.09129 0.54875
# Poissons Ratio (z) = 0.06536 0.30282
#
# Static dielectric constant tensor:
#      x y z
#    x 1.607410 0.000000 0.000000 
#    y 0.000000 1.581990 0.000000 
#    z 0.000000 0.000000 1.634400 
# 
# From -- ./inp_files/5838.got.cif
#   From: 2010.05.17/outbox.cif.g08.bks.cpg/sg31_3_cif.got.tgz:5838.got - 2010.06.03 17:08:30.
