data_PCOD9342509
_publ_section_title
;
Structure prediction by ZEFSAII (Michael W. Deem and Ramdas Pophale) SiO2 
 PCOD9342509
Probable space group: P N C 2
;
_chemical_formula_sum "Si O2"
_cell_formula_units_Z 20
_cell_length_a 14.016658
_cell_length_b 11.669450
_cell_length_c 4.970016
_cell_angle_alpha 90.000000
_cell_angle_beta 90.000000
_cell_angle_gamma 90.000000
_cell_volume 812.929065
_symmetry_space_group_name_H-M "P N C 2"
_symmetry_group_IT_number 30
_symmetry_cell_setting 'orthorhombic'
loop_
_space_group_symop_operation_xyz
x,y,z
-x,-y,z
-x,1/2+y,1/2+z
x,1/2-y,1/2+z
loop_
_atom_site_type_symbol
_atom_site_label
_atom_site_fract_x
_atom_site_fract_y
_atom_site_fract_z
Si Si1 0.500000 0.000000 0.537210
Si Si2 0.651705 0.826728 0.770273
Si Si3 0.000000 0.000000 0.255001
Si Si4 0.193473 0.497366 0.102068
Si Si5 0.345267 0.833066 0.334162
Si Si6 0.111547 0.668255 0.491317
O O1 0.574281 0.925419 0.711165
O O2 0.441385 0.906298 0.367899
O O3 0.640771 0.718332 0.571789
O O4 0.752727 0.882118 0.684363
O O5 0.093584 0.010961 0.441458
O O6 0.010893 0.891316 0.058364
O O7 0.264511 0.576004 0.923706
O O8 0.173538 0.563741 0.380736
O O9 0.340402 0.772553 0.045669
O O10 0.125197 0.759453 0.258063
#
# Coordination Sequence:
#
# PCOD9342509 Si02
#       6
#     2   4   2   4   4   4
#     4  10  24  46  76 108 148 188 240 300 360 468
#     4  11  27  47  75 110 153 195 242 307 379 442
#     4  12  28  48  72 112 142 202 260 316 366 440
#     4  11  27  48  73 107 151 194 256 308 367 444
#     4  11  25  43  73 107 143 187 240 297 366 436
#     4  12  26  46  72 101 140 188 246 309 367 431
#
# _framework density 24.602391999999998
#
# number of rings (size 3 to 8) (size 9 to 14) (size 15 to 20)
#    0.000    0.800    2.000    3.000    5.600    8.000 
#    0.000    0.000    0.000    0.000    0.000    0.000 
#    0.000    0.000    0.000    0.000    0.000    0.000 
#
# Total GULP energy -111995.740380 kJ/mol
# GULP energy per Si atom -5599.787019 kJ/mol
# Density = 2.454640 g / cm^3
# Si number density = 24.602392 Si / 1000 Ang^3
#
#
#
# Elastic Constant Matrix: (Units=GPa)
#
#
# Indices 1 2 3 4 5 6 
#
# 1 131.0453 34.9037 24.6645 0.0000 0.0000 0.0000
# 2 34.9037 80.3809 9.5787 0.0000 0.0000 0.0000
# 3 24.6645 9.5787 113.4450 0.0000 0.0000 0.0000
# 4 0.0000 0.0000 0.0000 23.6544 0.0000 0.0000
# 5 0.0000 0.0000 0.0000 0.0000 20.3455 0.0000
# 6 0.0000 0.0000 0.0000 0.0000 0.0000 48.2686
#
#
#
# Elastic Compliance Matrix: (Units=1/GPa)
#
#
# Indices 1 2 3 4 5 6 
#
# 1 0.008917 -0.003678 -0.001628 0.000000 0.000000 0.000000
# 2 -0.003678 0.014084 -0.000390 0.000000 0.000000 0.000000
# 3 -0.001628 -0.000390 0.009202 0.000000 0.000000 0.000000
# 4 0.000000 0.000000 0.000000 0.042275 0.000000 0.000000
# 5 0.000000 0.000000 0.000000 0.000000 0.049151 0.000000
# 6 0.000000 0.000000 0.000000 0.000000 0.000000 0.020717
#
#
# Mechanical properties :
#
#
# Convention : Reuss Voigt Hill
#
# Bulk Modulus (GPa) = 48.05007 51.46280 49.75643
# Shear Modulus (GPa) = 30.73603 35.50196 33.11900
#
# Velocity S-wave (km/s) = 3.53839 3.80284 3.67300
# Velocity P-wave (km/s) = 6.02218 6.34392 6.18515
#
# Compressibility (1/GPa) = 0.02081162
#
# Stress axis : x y z
#
# Youngs Moduli (GPa) = 112.14516 71.00115 108.67538
#
# Poissons Ratio (x) = 0.26114 0.17694
# Poissons Ratio (y) = 0.41247 0.04233
# Poissons Ratio (z) = 0.18259 0.02766
#
# Static dielectric constant tensor:
#      x y z
#    x 2.067650 0.000000 0.000000 
#    y 0.000000 1.950370 0.000000 
#    z 0.000000 0.000000 1.948380 
# 
# From -- ./inp_files/892.got.cif
#   From: 2010.05.17/outbox.cif.g08.bks.cpg/sg30_1_cif.got.tgz:892.got - 2010.06.03 17:03:02.
