data_PCOD9342404
_publ_section_title
;
Structure prediction by ZEFSAII (Michael W. Deem and Ramdas Pophale) SiO2 
 PCOD9342404
Probable space group: P N C 2
;
_chemical_formula_sum "Si O2"
_cell_formula_units_Z 26
_cell_length_a 11.593024
_cell_length_b 10.879351
_cell_length_c 10.042836
_cell_angle_alpha 90.000000
_cell_angle_beta 90.000000
_cell_angle_gamma 90.000000
_cell_volume 1266.648445
_symmetry_space_group_name_H-M "P N C 2"
_symmetry_group_IT_number 30
_symmetry_cell_setting 'orthorhombic'
loop_
_space_group_symop_operation_xyz
x,y,z
-x,-y,z
-x,1/2+y,1/2+z
x,1/2-y,1/2+z
loop_
_atom_site_type_symbol
_atom_site_label
_atom_site_fract_x
_atom_site_fract_y
_atom_site_fract_z
Si Si1 0.181717 0.073340 0.748750
Si Si2 0.905460 0.106170 0.136704
Si Si3 0.486909 0.198649 0.959410
Si Si4 0.563930 0.627637 0.178836
Si Si5 0.000000 0.000000 0.545587
Si Si6 0.307349 0.985022 0.005816
Si Si7 0.006567 0.753802 0.379194
O O1 0.297956 0.119070 0.677390
O O2 0.099643 0.180239 0.810320
O O3 0.229881 0.998971 0.874064
O O4 0.107989 0.993029 0.646177
O O5 0.913189 0.202843 0.257061
O O6 0.781082 0.042899 0.123414
O O7 0.000000 0.000000 0.159121
O O8 0.938873 0.171220 0.996589
O O9 0.468937 0.214446 0.802577
O O10 0.603678 0.125503 0.987904
O O11 0.382977 0.109437 0.010627
O O12 0.482378 0.322169 0.041339
O O13 0.500000 0.500000 0.212118
O O14 0.976912 0.880511 0.455990
#
# Coordination Sequence:
#
# PCOD9342404 Si02
#       7
#     4   4   4   4   2   4   4
#     4  11  23  44  70  95 140 182 220 279 339 404
#     4  12  25  42  66 100 137 176 228 277 338 405
#     4  10  23  46  72  99 136 175 230 276 339 399
#     4  11  24  45  73 103 134 179 225 280 338 405
#     4  12  26  40  64 106 132 170 238 274 340 402
#     4  10  22  45  72  94 136 185 219 278 340 399
#     4  12  26  41  67 101 134 181 225 277 341 406
#
# _framework density 20.526610999999999
#
# number of rings (size 3 to 8) (size 9 to 14) (size 15 to 20)
#    0.000    0.923    6.923    0.923    6.462    2.462 
#    2.769    0.000    0.000    0.000    0.000    0.000 
#    0.000    0.000    0.000    0.000    0.000    0.000 
#
# Total GULP energy -145225.406261 kJ/mol
# GULP energy per Si atom -5585.592548 kJ/mol
# Density = 2.047989 g / cm^3
# Si number density = 20.526611 Si / 1000 Ang^3
#
#
#
# Elastic Constant Matrix: (Units=GPa)
#
#
# Indices 1 2 3 4 5 6 
#
# 1 78.7203 3.3940 27.8711 0.0000 0.0000 0.0000
# 2 3.3940 49.9832 29.6567 0.0000 0.0000 0.0000
# 3 27.8711 29.6567 92.0807 0.0000 0.0000 0.0000
# 4 0.0000 0.0000 0.0000 39.9322 0.0000 0.0000
# 5 0.0000 0.0000 0.0000 0.0000 -17.7676 0.0000
# 6 0.0000 0.0000 0.0000 0.0000 0.0000 14.7781
#
#
#
# Elastic Compliance Matrix: (Units=1/GPa)
#
#
# Indices 1 2 3 4 5 6 
#
# 1 0.014386 0.001986 -0.004994 0.000000 0.000000 0.000000
# 2 0.001986 0.025007 -0.008655 0.000000 0.000000 0.000000
# 3 -0.004994 -0.008655 0.015159 0.000000 0.000000 0.000000
# 4 0.000000 0.000000 0.000000 0.025042 0.000000 0.000000
# 5 0.000000 0.000000 0.000000 0.000000 -0.056282 0.000000
# 6 0.000000 0.000000 0.000000 0.000000 0.000000 0.067668
#
#
# Mechanical properties :
#
#
# Convention : Reuss Voigt Hill
#
# Bulk Modulus (GPa) = 32.02446 38.06973 35.04709
# Shear Modulus (GPa) = 40.09130 18.04604 29.06867
#
# Velocity S-wave (km/s) = 4.42423 2.96827 3.76725
# Velocity P-wave (km/s) = 6.46016 5.50766 6.00283
#
# Compressibility (1/GPa) = 0.03122613
#
# Stress axis : x y z
#
# Youngs Moduli (GPa) = 69.51342 39.98824 65.96614
#
# Poissons Ratio (x) = -0.07943 0.32944
# Poissons Ratio (y) = -0.13807 0.57096
# Poissons Ratio (z) = 0.34715 0.34611
#
# Static dielectric constant tensor:
#      x y z
#    x 1.745270 0.000000 0.000000 
#    y 0.000000 1.754040 0.000000 
#    z 0.000000 0.000000 1.733560 
# 
# From -- ./inp_files/2380.got.cif
#   From: 2010.05.17/outbox.cif.g08.bks.cpg/sg30_2_cif.got.tgz:2380.got - 2010.06.03 17:03:02.
