data_PCOD9342040
_publ_section_title
;
Structure prediction by ZEFSAII (Michael W. Deem and Ramdas Pophale) SiO2 
 PCOD9342040
Probable space group: P N C 2
;
_chemical_formula_sum "Si O2"
_cell_formula_units_Z 30
_cell_length_a 7.738402
_cell_length_b 14.661898
_cell_length_c 11.898708
_cell_angle_alpha 90.000000
_cell_angle_beta 90.000000
_cell_angle_gamma 90.000000
_cell_volume 1350.023374
_symmetry_space_group_name_H-M "P N C 2"
_symmetry_group_IT_number 30
_symmetry_cell_setting 'orthorhombic'
loop_
_space_group_symop_operation_xyz
x,y,z
-x,-y,z
-x,1/2+y,1/2+z
x,1/2-y,1/2+z
loop_
_atom_site_type_symbol
_atom_site_label
_atom_site_fract_x
_atom_site_fract_y
_atom_site_fract_z
Si Si1 0.930322 0.707635 0.136110
Si Si2 0.146226 0.678380 0.484337
Si Si3 0.288713 0.844755 0.758142
Si Si4 0.237029 0.101771 0.197842
Si Si5 0.197496 0.486873 0.139587
Si Si6 0.700732 0.473202 0.892368
Si Si7 0.000000 0.000000 0.023351
Si Si8 0.620706 0.339069 0.699067
O O1 0.844931 0.798405 0.186980
O O2 0.796990 0.623057 0.130136
O O3 0.097807 0.682087 0.210883
O O4 0.015882 0.740196 0.016668
O O5 0.286860 0.683830 0.387895
O O6 0.241922 0.652822 0.599809
O O7 0.044816 0.587240 0.449862
O O8 0.413852 0.769403 0.704752
O O9 0.312013 0.949579 0.721780
O O10 0.148728 0.038522 0.104788
O O11 0.441691 0.109943 0.177940
O O12 0.213154 0.053036 0.317839
O O13 0.000000 0.500000 0.175315
O O14 0.219481 0.530919 0.015663
O O15 0.500000 0.500000 0.909689
O O16 0.699480 0.383994 0.812562
#
# Coordination Sequence:
#
# PCOD9342040 Si02
#       8
#     4   4   4   4   4   4   2   4
#     4   9  22  39  60  94 122 162 215 264 310 381
#     4  10  21  38  63  89 126 168 205 260 322 374
#     4  10  23  40  62  89 127 167 205 257 322 380
#     4  10  21  41  63  94 121 157 210 265 312 368
#     4  10  23  39  61  92 123 166 208 263 314 378
#     4  10  22  38  63  87 121 162 207 260 310 377
#     4  10  20  36  66  90 120 156 206 268 300 378
#     4  10  22  40  63  90 122 161 212 254 318 386
#
# _framework density 22.221838000000002
#
# number of rings (size 3 to 8) (size 9 to 14) (size 15 to 20)
#    0.000    2.133    1.333    0.000   11.200    1.067 
#    2.400    0.000    5.867    0.000    0.000    0.000 
#    0.000    0.000    0.000    0.000    0.000    0.000 
#
# Total GULP energy -167236.341790 kJ/mol
# GULP energy per Si atom -5574.544726 kJ/mol
# Density = 2.217126 g / cm^3
# Si number density = 22.221838 Si / 1000 Ang^3
#
#
#
# Elastic Constant Matrix: (Units=GPa)
#
#
# Indices 1 2 3 4 5 6 
#
# 1 41.3814 31.1097 3.1124 0.0000 0.0000 0.0000
# 2 31.1097 154.2519 27.8479 0.0000 0.0000 0.0000
# 3 3.1124 27.8479 58.6915 0.0000 0.0000 0.0000
# 4 0.0000 0.0000 0.0000 24.3136 0.0000 0.0000
# 5 0.0000 0.0000 0.0000 0.0000 6.8314 0.0000
# 6 0.0000 0.0000 0.0000 0.0000 0.0000 29.6838
#
#
#
# Elastic Compliance Matrix: (Units=1/GPa)
#
#
# Indices 1 2 3 4 5 6 
#
# 1 0.028579 -0.006005 0.001334 0.000000 0.000000 0.000000
# 2 -0.006005 0.008352 -0.003644 0.000000 0.000000 0.000000
# 3 0.001334 -0.003644 0.018697 0.000000 0.000000 0.000000
# 4 0.000000 0.000000 0.000000 0.041129 0.000000 0.000000
# 5 0.000000 0.000000 0.000000 0.000000 0.146382 0.000000
# 6 0.000000 0.000000 0.000000 0.000000 0.000000 0.033688
#
#
# Mechanical properties :
#
#
# Convention : Reuss Voigt Hill
#
# Bulk Modulus (GPa) = 25.64308 42.05163 33.84735
# Shear Modulus (GPa) = 16.31548 24.98274 20.64911
#
# Velocity S-wave (km/s) = 2.71257 3.35661 3.05163
# Velocity P-wave (km/s) = 4.62335 5.82984 5.26129
#
# Compressibility (1/GPa) = 0.03899688
#
# Stress axis : x y z
#
# Youngs Moduli (GPa) = 34.99035 119.73383 53.48540
#
# Poissons Ratio (x) = 0.71896 -0.07132
# Poissons Ratio (y) = 0.21010 0.19492
# Poissons Ratio (z) = -0.04666 0.43635
#
# Static dielectric constant tensor:
#      x y z
#    x 1.818640 0.000000 0.000000 
#    y 0.000000 1.951380 0.000000 
#    z 0.000000 0.000000 1.840330 
# 
# From -- ./inp_files/3754.got.cif
#   From: 2010.05.17/outbox.cif.g08.bks.cpg/sg30_2_cif.got.tgz:3754.got - 2010.06.03 17:03:02.
