data_PCOD9342571
_publ_section_title
;
Structure prediction by ZEFSAII (Michael W. Deem and Ramdas Pophale) SiO2 
 PCOD9342571
Probable space group: P N C 2
;
_chemical_formula_sum "Si O2"
_cell_formula_units_Z 30
_cell_length_a 5.595668
_cell_length_b 16.986687
_cell_length_c 14.856682
_cell_angle_alpha 90.000000
_cell_angle_beta 90.000000
_cell_angle_gamma 90.000000
_cell_volume 1412.155270
_symmetry_space_group_name_H-M "P N C 2"
_symmetry_group_IT_number 30
_symmetry_cell_setting 'orthorhombic'
loop_
_space_group_symop_operation_xyz
x,y,z
-x,-y,z
-x,1/2+y,1/2+z
x,1/2-y,1/2+z
loop_
_atom_site_type_symbol
_atom_site_label
_atom_site_fract_x
_atom_site_fract_y
_atom_site_fract_z
Si Si1 0.027788 0.727606 0.608730
Si Si2 0.319397 0.744571 0.433224
Si Si3 0.750767 0.542053 0.351301
Si Si4 0.000000 0.500000 0.821701
Si Si5 0.056238 0.295027 0.288919
Si Si6 0.657241 0.397672 0.695602
Si Si7 0.366594 0.387996 0.530741
Si Si8 0.682727 0.861846 0.353422
O O1 0.127840 0.757899 0.513623
O O2 0.229851 0.685898 0.669717
O O3 0.938544 0.790906 0.680546
O O4 0.838072 0.659432 0.584553
O O5 0.494912 0.679181 0.474304
O O6 0.467115 0.824263 0.411945
O O7 0.193418 0.705963 0.345207
O O8 0.500000 0.500000 0.324810
O O9 0.785860 0.630373 0.315538
O O10 0.741045 0.551794 0.459560
O O11 0.000000 0.500000 0.326009
O O12 0.840186 0.448659 0.753118
O O13 0.844440 0.562878 0.879618
O O14 0.162664 0.213785 0.327433
O O15 0.558091 0.423022 0.599578
O O16 0.435333 0.389753 0.761056
#
# Coordination Sequence:
#
# PCOD9342571 Si02
#       8
#     4   4   4   2   4   4   4   4
#     4  11  22  41  70 106 133 191 244 301 358 444
#     4  11  22  41  69 103 137 188 247 297 366 435
#     4  12  28  46  69 109 150 202 244 317 384 453
#     4  12  24  40  58 108 142 190 240 284 376 460
#     4  12  23  45  71 101 146 187 253 294 366 454
#     4  11  23  38  62 100 146 186 222 284 371 442
#     4  11  23  42  65 104 143 183 234 294 379 445
#     4  12  22  41  67  97 142 188 236 295 360 452
#
# _framework density 21.244121
#
# number of rings (size 3 to 8) (size 9 to 14) (size 15 to 20)
#    0.000    0.533    6.667    1.200    1.867    2.133 
#    1.200    0.000    0.000    0.000   26.000    0.000 
#    0.000    0.000    0.000    0.000    0.000    0.000 
#
# Total GULP energy -167433.831575 kJ/mol
# GULP energy per Si atom -5581.127719 kJ/mol
# Density = 2.119577 g / cm^3
# Si number density = 21.244121 Si / 1000 Ang^3
#
#
#
# Elastic Constant Matrix: (Units=GPa)
#
#
# Indices 1 2 3 4 5 6 
#
# 1 78.4604 32.5333 12.4355 0.0000 0.0000 0.0000
# 2 32.5333 94.1257 19.3344 0.0000 0.0000 0.0000
# 3 12.4355 19.3344 59.5744 0.0000 0.0000 0.0000
# 4 0.0000 0.0000 0.0000 9.2756 0.0000 0.0000
# 5 0.0000 0.0000 0.0000 0.0000 63.4965 0.0000
# 6 0.0000 0.0000 0.0000 0.0000 0.0000 36.7323
#
#
#
# Elastic Compliance Matrix: (Units=1/GPa)
#
#
# Indices 1 2 3 4 5 6 
#
# 1 0.015010 -0.004869 -0.001553 0.000000 0.000000 0.000000
# 2 -0.004869 0.012962 -0.003190 0.000000 0.000000 0.000000
# 3 -0.001553 -0.003190 0.018145 0.000000 0.000000 0.000000
# 4 0.000000 0.000000 0.000000 0.107810 0.000000 0.000000
# 5 0.000000 0.000000 0.000000 0.000000 0.015749 0.000000
# 6 0.000000 0.000000 0.000000 0.000000 0.000000 0.027224
#
#
# Mechanical properties :
#
#
# Convention : Reuss Voigt Hill
#
# Bulk Modulus (GPa) = 37.18452 40.08519 38.63486
# Shear Modulus (GPa) = 22.21330 33.09136 27.65233
#
# Velocity S-wave (km/s) = 3.23711 3.95102 3.61175
# Velocity P-wave (km/s) = 5.61367 6.30269 5.96813
#
# Compressibility (1/GPa) = 0.02689291
#
# Stress axis : x y z
#
# Youngs Moduli (GPa) = 66.62048 77.14628 55.11057
#
# Poissons Ratio (x) = 0.37564 0.08559
# Poissons Ratio (y) = 0.32438 0.17583
# Poissons Ratio (z) = 0.10346 0.24613
#
# Static dielectric constant tensor:
#      x y z
#    x 1.844260 0.000000 0.000000 
#    y 0.000000 1.857030 0.000000 
#    z 0.000000 0.000000 1.765590 
# 
# From -- ./inp_files/4757.got.cif
#   From: 2010.05.17/outbox.cif.g08.bks.cpg/sg30_3_cif.got.tgz:4757.got - 2010.06.03 17:03:02.
