data_PCOD9342252
_publ_section_title
;
Structure prediction by ZEFSAII (Michael W. Deem and Ramdas Pophale) SiO2 
 PCOD9342252
Probable space group: P N C 2
;
_chemical_formula_sum "Si O2"
_cell_formula_units_Z 24
_cell_length_a 12.118319
_cell_length_b 10.932246
_cell_length_c 9.005729
_cell_angle_alpha 90.000000
_cell_angle_beta 90.000000
_cell_angle_gamma 90.000000
_cell_volume 1193.082980
_symmetry_space_group_name_H-M "P N C 2"
_symmetry_group_IT_number 30
_symmetry_cell_setting 'orthorhombic'
loop_
_space_group_symop_operation_xyz
x,y,z
-x,-y,z
-x,1/2+y,1/2+z
x,1/2-y,1/2+z
loop_
_atom_site_type_symbol
_atom_site_label
_atom_site_fract_x
_atom_site_fract_y
_atom_site_fract_z
Si Si1 0.157715 0.530598 0.866430
Si Si2 0.065943 0.803055 0.889065
Si Si3 0.608741 0.919178 0.362242
Si Si4 0.130007 0.478264 0.527190
Si Si5 0.083479 0.162875 0.608016
Si Si6 0.303532 0.286014 0.579735
O O1 0.118628 0.669413 0.863438
O O2 0.287567 0.510379 0.880759
O O3 0.126317 0.475266 0.706124
O O4 0.105524 0.451148 0.999803
O O5 0.003650 0.848318 0.740419
O O6 0.160651 0.889674 0.955854
O O7 0.968923 0.770318 0.007047
O O8 0.628815 0.808597 0.478994
O O9 0.623676 0.856286 0.200645
O O10 0.500000 0.000000 0.378281
O O11 0.229856 0.386084 0.489440
O O12 0.000000 0.500000 0.480492
O O13 0.203903 0.208843 0.658159
#
# Coordination Sequence:
#
# PCOD9342252 Si02
#       6
#     4   4   4   4   4   4
#     4  10  22  41  59  92 133 176 225 273 326 392
#     4  12  21  36  58  97 135 180 215 258 330 413
#     4  10  23  47  72  90 127 175 224 292 338 378
#     4  11  20  36  60  92 140 175 208 261 326 408
#     4  11  21  37  64  91 137 177 213 262 326 413
#     4  10  21  42  68  95 128 170 224 269 339 396
#
# _framework density 20.115950999999999
#
# number of rings (size 3 to 8) (size 9 to 14) (size 15 to 20)
#    0.000    1.333    3.333    4.500    0.000    1.333 
#    9.000    0.833    0.000    0.000    0.000    0.000 
#    0.000    0.000    0.000    0.000    0.000    0.000 
#
# Total GULP energy -133707.914588 kJ/mol
# GULP energy per Si atom -5571.163108 kJ/mol
# Density = 2.007017 g / cm^3
# Si number density = 20.115951 Si / 1000 Ang^3
#
#
#
# Elastic Constant Matrix: (Units=GPa)
#
#
# Indices 1 2 3 4 5 6 
#
# 1 130.5469 69.4715 45.3911 0.0000 0.0000 0.0000
# 2 69.4715 109.9532 57.7091 0.0000 0.0000 0.0000
# 3 45.3911 57.7091 117.7707 0.0000 0.0000 0.0000
# 4 0.0000 0.0000 0.0000 39.1127 0.0000 0.0000
# 5 0.0000 0.0000 0.0000 0.0000 19.9482 0.0000
# 6 0.0000 0.0000 0.0000 0.0000 0.0000 94.3409
#
#
#
# Elastic Compliance Matrix: (Units=1/GPa)
#
#
# Indices 1 2 3 4 5 6 
#
# 1 0.011663 -0.006744 -0.001190 0.000000 0.000000 0.000000
# 2 -0.006744 0.016144 -0.005311 0.000000 0.000000 0.000000
# 3 -0.001190 -0.005311 0.011552 0.000000 0.000000 0.000000
# 4 0.000000 0.000000 0.000000 0.025567 0.000000 0.000000
# 5 0.000000 0.000000 0.000000 0.000000 0.050130 0.000000
# 6 0.000000 0.000000 0.000000 0.000000 0.000000 0.010600
#
#
# Mechanical properties :
#
#
# Convention : Reuss Voigt Hill
#
# Bulk Modulus (GPa) = 77.71598 78.15711 77.93655
# Shear Modulus (GPa) = 31.96186 43.06032 37.51109
#
# Velocity S-wave (km/s) = 3.99040 4.63169 4.32295
# Velocity P-wave (km/s) = 7.74267 8.21833 7.98405
#
# Compressibility (1/GPa) = 0.01286737
#
# Stress axis : x y z
#
# Youngs Moduli (GPa) = 85.74161 61.94430 86.56199
#
# Poissons Ratio (x) = 0.41776 0.10304
# Poissons Ratio (y) = 0.57826 0.45975
# Poissons Ratio (z) = 0.10207 0.32900
#
# Static dielectric constant tensor:
#      x y z
#    x 1.722510 0.000000 0.000000 
#    y 0.000000 2.050760 0.000000 
#    z 0.000000 0.000000 1.743170 
# 
# From -- ./inp_files/2342.got.cif
#   From: 2010.05.17/outbox.cif.g08.bks.cpg/sg30_2_cif.got.tgz:2342.got - 2010.06.03 17:03:02.
