data_PCOD9342195
_publ_section_title
;
Structure prediction by ZEFSAII (Michael W. Deem and Ramdas Pophale) SiO2 
 PCOD9342195
Probable space group: P N C 2
;
_chemical_formula_sum "Si O2"
_cell_formula_units_Z 32
_cell_length_a 17.055785
_cell_length_b 10.617273
_cell_length_c 8.536896
_cell_angle_alpha 90.000000
_cell_angle_beta 90.000000
_cell_angle_gamma 90.000000
_cell_volume 1545.911714
_symmetry_space_group_name_H-M "P N C 2"
_symmetry_group_IT_number 30
_symmetry_cell_setting 'orthorhombic'
loop_
_space_group_symop_operation_xyz
x,y,z
-x,-y,z
-x,1/2+y,1/2+z
x,1/2-y,1/2+z
loop_
_atom_site_type_symbol
_atom_site_label
_atom_site_fract_x
_atom_site_fract_y
_atom_site_fract_z
Si Si1 0.583784 0.932579 0.165770
Si Si2 0.216871 0.634777 0.319212
Si Si3 0.056602 0.385487 0.043277
Si Si4 0.768420 0.620972 0.164783
Si Si5 0.127694 0.942768 0.313020
Si Si6 0.660057 0.751571 0.413548
Si Si7 0.273931 0.604171 0.671736
Si Si8 0.082163 0.712128 0.503432
O O1 0.600558 0.831913 0.305165
O O2 0.500000 0.000000 0.153141
O O3 0.641758 0.049292 0.196045
O O4 0.613304 0.855808 0.011541
O O5 0.236607 0.525736 0.201345
O O6 0.255448 0.612242 0.488353
O O7 0.250660 0.763273 0.248615
O O8 0.123325 0.634323 0.362972
O O9 0.139185 0.357497 0.128010
O O10 0.000000 0.500000 0.110293
O O11 0.078734 0.440557 0.872431
O O12 0.006063 0.260179 0.014209
O O13 0.730598 0.690074 0.313711
O O14 0.707676 0.659619 0.031181
O O15 0.212446 0.987816 0.258078
O O16 0.126588 0.845388 0.461469
O O17 0.097374 0.864024 0.163021
#
# Coordination Sequence:
#
# PCOD9342195 Si02
#       8
#     4   4   4   4   4   4   4   4
#     4  11  24  47  73 106 145 173 221 281 347 408
#     4  10  22  38  68  97 130 176 233 280 335 404
#     4  10  22  36  62  89 130 176 227 284 343 386
#     4  11  23  45  70  95 136 187 231 282 345 414
#     4   9  19  36  61  86 123 174 219 275 337 399
#     4  10  25  48  71 101 141 182 231 275 337 446
#     4  10  21  38  67 101 129 173 223 279 332 415
#     4   9  20  36  59  86 131 162 225 285 336 381
#
# _framework density 20.699760000000001
#
# number of rings (size 3 to 8) (size 9 to 14) (size 15 to 20)
#    0.000    2.000    1.250    0.750   14.000    3.000 
#    0.000    3.750   19.250    0.000    0.000    0.000 
#    0.000    0.000    0.000    0.000    0.000    0.000 
#
# Total GULP energy -178304.471218 kJ/mol
# GULP energy per Si atom -5572.014726 kJ/mol
# Density = 2.065265 g / cm^3
# Si number density = 20.699760 Si / 1000 Ang^3
#
#
#
# Elastic Constant Matrix: (Units=GPa)
#
#
# Indices 1 2 3 4 5 6 
#
# 1 177.1103 65.6653 61.8052 0.0000 0.0000 0.0000
# 2 65.6653 91.5746 54.2350 0.0000 0.0000 0.0000
# 3 61.8052 54.2350 101.3873 0.0000 0.0000 0.0000
# 4 0.0000 0.0000 0.0000 26.8314 0.0000 0.0000
# 5 0.0000 0.0000 0.0000 0.0000 14.6796 0.0000
# 6 0.0000 0.0000 0.0000 0.0000 0.0000 40.9540
#
#
#
# Elastic Compliance Matrix: (Units=1/GPa)
#
#
# Indices 1 2 3 4 5 6 
#
# 1 0.008167 -0.004256 -0.002702 0.000000 0.000000 0.000000
# 2 -0.004256 0.018202 -0.007142 0.000000 0.000000 0.000000
# 3 -0.002702 -0.007142 0.015331 0.000000 0.000000 0.000000
# 4 0.000000 0.000000 0.000000 0.037270 0.000000 0.000000
# 5 0.000000 0.000000 0.000000 0.000000 0.068122 0.000000
# 6 0.000000 0.000000 0.000000 0.000000 0.000000 0.024418
#
#
# Mechanical properties :
#
#
# Convention : Reuss Voigt Hill
#
# Bulk Modulus (GPa) = 74.07770 81.49815 77.78792
# Shear Modulus (GPa) = 24.48467 29.05078 26.76772
#
# Velocity S-wave (km/s) = 3.44299 3.75031 3.59993
# Velocity P-wave (km/s) = 7.18818 7.62955 7.41216
#
# Compressibility (1/GPa) = 0.01349934
#
# Stress axis : x y z
#
# Youngs Moduli (GPa) = 122.44297 54.93895 65.22826
#
# Poissons Ratio (x) = 0.23383 0.17624
# Poissons Ratio (y) = 0.52114 0.46588
# Poissons Ratio (z) = 0.33082 0.39239
#
# Static dielectric constant tensor:
#      x y z
#    x 1.761440 0.000000 0.000000 
#    y 0.000000 1.774690 0.000000 
#    z 0.000000 0.000000 1.787830 
# 
# From -- ./inp_files/2709.got.cif
#   From: 2010.05.17/outbox.cif.g08.bks.cpg/sg30_2_cif.got.tgz:2709.got - 2010.06.03 17:03:02.
