data_PCOD9342784
_publ_section_title
;
Structure prediction by ZEFSAII (Michael W. Deem and Ramdas Pophale) SiO2 
 PCOD9342784
Probable space group: P M N 21
;
_chemical_formula_sum "Si O2"
_cell_formula_units_Z 32
_cell_length_a 15.487075
_cell_length_b 9.367828
_cell_length_c 11.580553
_cell_angle_alpha 90.000000
_cell_angle_beta 90.000000
_cell_angle_gamma 90.000000
_cell_volume 1680.109580
_symmetry_space_group_name_H-M "P M N 21"
_symmetry_group_IT_number 31
_symmetry_cell_setting 'orthorhombic'
loop_
_space_group_symop_operation_xyz
x,y,z
1/2-x,-y,1/2+z
-x,y,z
1/2+x,-y,1/2+z
loop_
_atom_site_type_symbol
_atom_site_label
_atom_site_fract_x
_atom_site_fract_y
_atom_site_fract_z
Si Si1 0.904482 0.714251 0.202590
Si Si2 0.906402 0.014180 0.074772
Si Si3 0.096845 0.518281 0.591742
Si Si4 0.902096 0.642427 0.841030
Si Si5 0.098510 0.819351 0.459970
Si Si6 0.235063 0.656723 0.040402
Si Si7 0.596459 0.020478 0.302279
Si Si8 0.277541 0.979113 0.101774
O O1 0.883562 0.779119 0.327417
O O2 0.825946 0.624255 0.151578
O O3 0.000000 0.646159 0.209211
O O4 0.912085 0.848905 0.115282
O O5 0.000000 0.078710 0.107933
O O6 0.813816 0.059323 0.124445
O O7 0.897653 0.022442 0.936382
O O8 0.105860 0.543555 0.728928
O O9 0.101136 0.673382 0.532416
O O10 0.175445 0.426114 0.544890
O O11 0.000000 0.460380 0.569262
O O12 0.897248 0.807446 0.800217
O O13 0.000000 0.624086 0.889931
O O14 0.826187 0.620947 0.932362
O O15 0.000000 0.875134 0.465636
O O16 0.164535 0.929237 0.515269
O O17 0.257530 0.825156 0.046721
O O18 0.500000 0.981388 0.260893
O O19 0.669566 0.959331 0.219804
#
# Coordination Sequence:
#
# PCOD9342784 Si02
#       8
#     4   4   4   4   4   4   4   4
#     4   9  18  34  56  84 113 145 190 236 282 340
#     4   9  19  33  51  79 117 150 183 231 283 334
#     4  10  23  41  58  83 120 156 193 236 286 348
#     4  10  19  39  65  84 110 157 206 234 274 352
#     4  10  21  37  58  82 114 154 189 230 284 350
#     4  11  23  34  60  90 116 143 189 248 296 329
#     4  10  18  34  57  82 108 147 196 234 269 331
#     4  11  21  32  59  88 116 142 194 235 288 336
#
# _framework density 19.046378000000001
#
# number of rings (size 3 to 8) (size 9 to 14) (size 15 to 20)
#    0.000    2.000    3.750    0.750    5.250    1.000 
#    0.000    0.000    0.000    2.250    0.000    0.000 
#    0.000    0.000    0.000    0.000    0.000    0.000 
#
# Total GULP energy -178373.274298 kJ/mol
# GULP energy per Si atom -5574.164822 kJ/mol
# Density = 1.900303 g / cm^3
# Si number density = 19.046378 Si / 1000 Ang^3
#
#
#
# Elastic Constant Matrix: (Units=GPa)
#
#
# Indices 1 2 3 4 5 6 
#
# 1 176.6132 35.1171 61.5515 0.0000 0.0000 0.0000
# 2 35.1171 22.5378 10.0073 0.0000 0.0000 0.0000
# 3 61.5515 10.0073 89.9055 0.0000 0.0000 0.0000
# 4 0.0000 0.0000 0.0000 10.9260 0.0000 0.0000
# 5 0.0000 0.0000 0.0000 0.0000 39.3426 0.0000
# 6 0.0000 0.0000 0.0000 0.0000 0.0000 6.0602
#
#
#
# Elastic Compliance Matrix: (Units=1/GPa)
#
#
# Indices 1 2 3 4 5 6 
#
# 1 0.010290 -0.013576 -0.005534 0.000000 0.000000 0.000000
# 2 -0.013576 0.064589 0.002105 0.000000 0.000000 0.000000
# 3 -0.005534 0.002105 0.014677 0.000000 0.000000 0.000000
# 4 0.000000 0.000000 0.000000 0.091525 0.000000 0.000000
# 5 0.000000 0.000000 0.000000 0.000000 0.025418 0.000000
# 6 0.000000 0.000000 0.000000 0.000000 0.000000 0.165011
#
#
# Mechanical properties :
#
#
# Convention : Reuss Voigt Hill
#
# Bulk Modulus (GPa) = 18.00289 55.82314 36.91302
# Shear Modulus (GPa) = 11.79148 23.42446 17.60797
#
# Velocity S-wave (km/s) = 2.49086 3.51075 3.04382
# Velocity P-wave (km/s) = 4.21250 6.76805 5.63700
#
# Compressibility (1/GPa) = 0.05554665
#
# Stress axis : x y z
#
# Youngs Moduli (GPa) = 97.18068 15.48252 68.13413
#
# Poissons Ratio (x) = 0.21020 0.37703
# Poissons Ratio (y) = 1.31936 -0.14345
# Poissons Ratio (z) = 0.53777 -0.03260
#
# Static dielectric constant tensor:
#      x y z
#    x 1.737690 0.000000 0.000000 
#    y 0.000000 1.635170 0.000000 
#    z 0.000000 0.000000 1.684570 
# 
# From -- ./inp_files/4300.got.cif
#   From: 2010.05.17/outbox.cif.g08.bks.cpg/sg31_3_cif.got.tgz:4300.got - 2010.06.03 17:08:30.
