data_PCOD9342399
_publ_section_title
;
Structure prediction by ZEFSAII (Michael W. Deem and Ramdas Pophale) SiO2 
 PCOD9342399
Probable space group: P N C 2
;
_chemical_formula_sum "Si O2"
_cell_formula_units_Z 16
_cell_length_a 5.126217
_cell_length_b 8.990781
_cell_length_c 14.432916
_cell_angle_alpha 90.000000
_cell_angle_beta 90.000000
_cell_angle_gamma 90.000000
_cell_volume 665.194255
_symmetry_space_group_name_H-M "P N C 2"
_symmetry_group_IT_number 30
_symmetry_cell_setting 'orthorhombic'
loop_
_space_group_symop_operation_xyz
x,y,z
-x,-y,z
-x,1/2+y,1/2+z
x,1/2-y,1/2+z
loop_
_atom_site_type_symbol
_atom_site_label
_atom_site_fract_x
_atom_site_fract_y
_atom_site_fract_z
Si Si1 0.283680 0.760409 0.275590
Si Si2 0.000000 0.500000 0.905614
Si Si3 0.000000 0.000000 0.868554
Si Si4 0.630045 0.750637 0.432350
Si Si5 0.257164 0.605792 0.581027
O O1 0.180131 0.600828 0.305544
O O2 0.567108 0.771853 0.322977
O O3 0.242630 0.785094 0.168413
O O4 0.140102 0.884834 0.337263
O O5 0.210352 0.398386 0.961393
O O6 0.819474 0.891604 0.929854
O O7 0.374351 0.702405 0.492619
O O8 0.500000 0.500000 0.603046
O O9 0.000000 0.500000 0.585419
#
# Coordination Sequence:
#
# PCOD9342399 Si02
#       5
#     4   2   2   4   4
#     4  11  23  47  75 112 153 201 254 320 391 467
#     4  10  22  44  76 112 152 202 252 324 392 460
#     4  10  24  46  80 112 152 206 256 320 396 472
#     4  11  25  46  79 111 156 205 265 321 400 472
#     4  12  28  47  78 114 150 210 269 321 391 477
#
# _framework density 24.053122999999999
#
# number of rings (size 3 to 8) (size 9 to 14) (size 15 to 20)
#    0.000    1.000    1.250    4.500   14.000    0.000 
#    0.000    7.500   11.000    0.000    0.000    0.000 
#    0.000    0.000    0.000    0.000    0.000    0.000 
#
# Total GULP energy -89320.301581 kJ/mol
# GULP energy per Si atom -5582.518849 kJ/mol
# Density = 2.399838 g / cm^3
# Si number density = 24.053123 Si / 1000 Ang^3
#
#
#
# Elastic Constant Matrix: (Units=GPa)
#
#
# Indices 1 2 3 4 5 6 
#
# 1 152.7873 57.8716 43.1050 0.0000 0.0000 0.0000
# 2 57.8716 139.5464 43.1149 0.0000 0.0000 0.0000
# 3 43.1050 43.1149 140.8157 0.0000 0.0000 0.0000
# 4 0.0000 0.0000 0.0000 -1.9451 0.0000 0.0000
# 5 0.0000 0.0000 0.0000 0.0000 -6.6931 0.0000
# 6 0.0000 0.0000 0.0000 0.0000 0.0000 62.0808
#
#
#
# Elastic Compliance Matrix: (Units=1/GPa)
#
#
# Indices 1 2 3 4 5 6 
#
# 1 0.008078 -0.002856 -0.001598 0.000000 0.000000 0.000000
# 2 -0.002856 0.008925 -0.001858 0.000000 0.000000 0.000000
# 3 -0.001598 -0.001858 0.008160 0.000000 0.000000 0.000000
# 4 0.000000 0.000000 0.000000 -0.514116 0.000000 0.000000
# 5 0.000000 0.000000 0.000000 0.000000 -0.149408 0.000000
# 6 0.000000 0.000000 0.000000 0.000000 0.000000 0.016108
#
#
# Mechanical properties :
#
#
# Convention : Reuss Voigt Hill
#
# Bulk Modulus (GPa) = 79.76449 80.14807 79.95628
# Shear Modulus (GPa) = -8.25833 29.95905 10.85036
#
# Velocity S-wave (km/s) = -1.85495 3.53304 2.12622
# Velocity P-wave (km/s) = 5.35220 7.07367 6.27227
#
# Compressibility (1/GPa) = 0.01253691
#
# Stress axis : x y z
#
# Youngs Moduli (GPa) = 123.79657 112.04858 122.55408
#
# Poissons Ratio (x) = 0.32003 0.19586
# Poissons Ratio (y) = 0.35358 0.22774
# Poissons Ratio (z) = 0.19785 0.20822
#
# Static dielectric constant tensor:
#      x y z
#    x 2.099180 0.000000 0.000000 
#    y 0.000000 1.961650 0.000000 
#    z 0.000000 0.000000 1.948370 
# 
# From -- ./inp_files/4540.got.cif
#   From: 2010.05.17/outbox.cif.g08.bks.cpg/sg30_3_cif.got.tgz:4540.got - 2010.06.03 17:03:02.
