data_PCOD9342504
_publ_section_title
;
Structure prediction by ZEFSAII (Michael W. Deem and Ramdas Pophale) SiO2 
 PCOD9342504
Probable space group: P N C 2
;
_chemical_formula_sum "Si O2"
_cell_formula_units_Z 14
_cell_length_a 5.199986
_cell_length_b 4.984750
_cell_length_c 19.818107
_cell_angle_alpha 90.000000
_cell_angle_beta 90.000000
_cell_angle_gamma 90.000000
_cell_volume 513.697823
_symmetry_space_group_name_H-M "P N C 2"
_symmetry_group_IT_number 30
_symmetry_cell_setting 'orthorhombic'
loop_
_space_group_symop_operation_xyz
x,y,z
-x,-y,z
-x,1/2+y,1/2+z
x,1/2-y,1/2+z
loop_
_atom_site_type_symbol
_atom_site_label
_atom_site_fract_x
_atom_site_fract_y
_atom_site_fract_z
Si Si1 0.749508 0.185925 0.029230
Si Si2 0.174900 0.772729 0.382184
Si Si3 0.500000 0.000000 0.785684
Si Si4 0.246763 0.807914 0.178115
O O1 0.746530 0.318015 0.102821
O O2 0.500000 0.000000 0.024524
O O3 0.763315 0.346533 0.959699
O O4 0.000000 0.000000 0.030168
O O5 0.433424 0.726178 0.340612
O O6 0.000000 0.500000 0.381564
O O7 0.000000 0.000000 0.350318
O O8 0.275665 0.927195 0.732760
O O9 0.500000 0.000000 0.185769
O O10 0.000000 0.000000 0.184824
#
# Coordination Sequence:
#
# PCOD9342504 Si02
#       4
#     4   4   2   4
#     4   9  19  46  70 104 143 200 259 321 383 462
#     4  11  26  47  74 109 155 203 259 320 392 465
#     4  12  26  42  72 112 154 202 254 322 390 480
#     4  10  24  45  72 103 152 202 263 321 395 463
#
# _framework density 27.253378000000001
#
# number of rings (size 3 to 8) (size 9 to 14) (size 15 to 20)
#    0.000    1.714    1.429    0.857    8.000    0.000 
#   25.714    0.000    0.000    0.000    0.000    0.000 
#    0.000    0.000    0.000    0.000    0.000    0.000 
#
# Total GULP energy -78296.961103 kJ/mol
# GULP energy per Si atom -5592.640079 kJ/mol
# Density = 2.719135 g / cm^3
# Si number density = 27.253378 Si / 1000 Ang^3
#
#
#
# Elastic Constant Matrix: (Units=GPa)
#
#
# Indices 1 2 3 4 5 6 
#
# 1 214.6676 65.2374 30.5314 0.0000 0.0000 0.0000
# 2 65.2374 115.7499 32.3186 0.0000 0.0000 0.0000
# 3 30.5314 32.3186 249.1505 0.0000 0.0000 0.0000
# 4 0.0000 0.0000 0.0000 -63.8114 0.0000 0.0000
# 5 0.0000 0.0000 0.0000 0.0000 -6.6890 0.0000
# 6 0.0000 0.0000 0.0000 0.0000 0.0000 71.1183
#
#
#
# Elastic Compliance Matrix: (Units=1/GPa)
#
#
# Indices 1 2 3 4 5 6 
#
# 1 0.005641 -0.003099 -0.000289 0.000000 0.000000 0.000000
# 2 -0.003099 0.010666 -0.001004 0.000000 0.000000 0.000000
# 3 -0.000289 -0.001004 0.004179 0.000000 0.000000 0.000000
# 4 0.000000 0.000000 0.000000 -0.015671 0.000000 0.000000
# 5 0.000000 0.000000 0.000000 0.000000 -0.149499 0.000000
# 6 0.000000 0.000000 0.000000 0.000000 0.000000 0.014061
#
#
# Mechanical properties :
#
#
# Convention : Reuss Voigt Hill
#
# Bulk Modulus (GPa) = 85.44891 92.86031 89.15461
# Shear Modulus (GPa) = -42.39497 30.22229 -6.08634
#
# Velocity S-wave (km/s) = -3.94837 3.33368 -1.49603
# Velocity P-wave (km/s) = 3.26120 6.99749 5.45895
#
# Compressibility (1/GPa) = 0.01170290
#
# Stress axis : x y z
#
# Youngs Moduli (GPa) = 177.26768 93.75587 239.27410
#
# Poissons Ratio (x) = 0.29051 0.06923
# Poissons Ratio (y) = 0.54929 0.24019
# Poissons Ratio (z) = 0.05129 0.09412
#
# Static dielectric constant tensor:
#      x y z
#    x 2.100600 0.000000 0.000000 
#    y 0.000000 2.227950 0.000000 
#    z 0.000000 0.000000 2.137130 
# 
# From -- ./inp_files/6658.got.cif
#   From: 2010.05.17/outbox.cif.g08.bks.cpg/sg30_4_cif.got.tgz:6658.got - 2010.06.03 17:03:02.
