data_PCOD9342421
_publ_section_title
;
Structure prediction by ZEFSAII (Michael W. Deem and Ramdas Pophale) SiO2 
 PCOD9342421
Probable space group: P N C 2
;
_chemical_formula_sum "Si O2"
_cell_formula_units_Z 30
_cell_length_a 9.696243
_cell_length_b 10.264742
_cell_length_c 12.556990
_cell_angle_alpha 90.000000
_cell_angle_beta 90.000000
_cell_angle_gamma 90.000000
_cell_volume 1249.790092
_symmetry_space_group_name_H-M "P N C 2"
_symmetry_group_IT_number 30
_symmetry_cell_setting 'orthorhombic'
loop_
_space_group_symop_operation_xyz
x,y,z
-x,-y,z
-x,1/2+y,1/2+z
x,1/2-y,1/2+z
loop_
_atom_site_type_symbol
_atom_site_label
_atom_site_fract_x
_atom_site_fract_y
_atom_site_fract_z
Si Si1 0.000000 0.000000 0.815551
Si Si2 0.736646 0.264861 0.154153
Si Si3 0.564125 0.806883 0.169139
Si Si4 0.962328 0.216258 0.973445
Si Si5 0.382956 0.412021 0.899341
Si Si6 0.277954 0.357877 0.483689
Si Si7 0.122772 0.573415 0.819073
Si Si8 0.724963 0.554768 0.247258
O O1 0.890424 0.919856 0.747094
O O2 0.078939 0.898158 0.890833
O O3 0.586287 0.215468 0.122049
O O4 0.795483 0.178341 0.250033
O O5 0.713563 0.413746 0.193465
O O6 0.850181 0.242545 0.063225
O O7 0.553836 0.866629 0.286594
O O8 0.642892 0.669568 0.190096
O O9 0.653195 0.901069 0.093312
O O10 0.964925 0.348990 0.907228
O O11 0.115876 0.168748 0.002909
O O12 0.500000 0.500000 0.953272
O O13 0.345612 0.282918 0.962464
O O14 0.241349 0.486492 0.872707
O O15 0.309000 0.435144 0.374199
O O16 0.000000 0.500000 0.755685
#
# Coordination Sequence:
#
# PCOD9342421 Si02
#       8
#     2   4   4   4   4   4   4   4
#     4  10  22  48  68 108 142 188 242 308 370 430
#     4  12  27  45  73 108 147 189 246 303 365 440
#     4  11  26  46  69 109 141 195 240 292 373 438
#     4  11  26  43  72 107 137 187 244 297 368 426
#     4  11  24  46  69  96 144 187 237 297 356 436
#     4  10  25  46  73 100 144 189 244 301 369 431
#     4  12  26  47  71 101 144 186 243 297 363 425
#     4  10  24  45  74 101 146 188 241 301 370 436
#
# _framework density 24.004031999999999
#
# number of rings (size 3 to 8) (size 9 to 14) (size 15 to 20)
#    0.000    1.067    4.000    0.400    8.400    1.067 
#    2.400    0.000    0.000    0.000    0.000    0.000 
#    0.000    0.000    0.000    0.000    0.000    0.000 
#
# Total GULP energy -167777.690029 kJ/mol
# GULP energy per Si atom -5592.589668 kJ/mol
# Density = 2.394940 g / cm^3
# Si number density = 24.004032 Si / 1000 Ang^3
#
#
#
# Elastic Constant Matrix: (Units=GPa)
#
#
# Indices 1 2 3 4 5 6 
#
# 1 142.3713 36.1548 41.2566 0.0000 0.0000 0.0000
# 2 36.1548 100.6600 -2.6246 0.0000 0.0000 0.0000
# 3 41.2566 -2.6246 55.2081 0.0000 0.0000 0.0000
# 4 0.0000 0.0000 0.0000 17.4880 0.0000 0.0000
# 5 0.0000 0.0000 0.0000 0.0000 20.0293 0.0000
# 6 0.0000 0.0000 0.0000 0.0000 0.0000 42.1829
#
#
#
# Elastic Compliance Matrix: (Units=1/GPa)
#
#
# Indices 1 2 3 4 5 6 
#
# 1 0.010300 -0.003905 -0.007883 0.000000 0.000000 0.000000
# 2 -0.003905 0.011427 0.003461 0.000000 0.000000 0.000000
# 3 -0.007883 0.003461 0.024168 0.000000 0.000000 0.000000
# 4 0.000000 0.000000 0.000000 0.057182 0.000000 0.000000
# 5 0.000000 0.000000 0.000000 0.000000 0.049927 0.000000
# 6 0.000000 0.000000 0.000000 0.000000 0.000000 0.023706
#
#
# Mechanical properties :
#
#
# Convention : Reuss Voigt Hill
#
# Bulk Modulus (GPa) = 34.19599 49.75700 41.97650
# Shear Modulus (GPa) = 24.61708 30.83685 27.72696
#
# Velocity S-wave (km/s) = 3.20588 3.58809 3.40236
# Velocity P-wave (km/s) = 5.28965 6.15950 5.74108
#
# Compressibility (1/GPa) = 0.02924319
#
# Stress axis : x y z
#
# Youngs Moduli (GPa) = 97.08949 87.51001 41.37625
#
# Poissons Ratio (x) = 0.34172 0.32615
# Poissons Ratio (y) = 0.37913 -0.14322
# Poissons Ratio (z) = 0.76532 -0.30291
#
# Static dielectric constant tensor:
#      x y z
#    x 1.939500 0.000000 0.000000 
#    y 0.000000 1.940460 0.000000 
#    z 0.000000 0.000000 1.991480 
# 
# From -- ./inp_files/5176.got.cif
#   From: 2010.05.17/outbox.cif.g08.bks.cpg/sg30_3_cif.got.tgz:5176.got - 2010.06.03 17:03:02.
