data_PCOD9342926
_publ_section_title
;
Structure prediction by ZEFSAII (Michael W. Deem and Ramdas Pophale) SiO2 
 PCOD9342926
Probable space group: P M N 21
;
_chemical_formula_sum "Si O2"
_cell_formula_units_Z 32
_cell_length_a 15.805910
_cell_length_b 11.890666
_cell_length_c 8.660750
_cell_angle_alpha 90.000000
_cell_angle_beta 90.000000
_cell_angle_gamma 90.000000
_cell_volume 1627.725576
_symmetry_space_group_name_H-M "P M N 21"
_symmetry_group_IT_number 31
_symmetry_cell_setting 'orthorhombic'
loop_
_space_group_symop_operation_xyz
x,y,z
1/2-x,-y,1/2+z
-x,y,z
1/2+x,-y,1/2+z
loop_
_atom_site_type_symbol
_atom_site_label
_atom_site_fract_x
_atom_site_fract_y
_atom_site_fract_z
Si Si1 0.900352 0.416983 0.047960
Si Si2 0.910255 0.703140 0.604784
Si Si3 0.406750 0.553220 0.183709
Si Si4 0.730704 0.380793 0.574974
Si Si5 0.902652 0.936140 0.139364
Si Si6 0.833803 0.171837 0.116298
Si Si7 0.682437 0.186652 0.354076
Si Si8 0.290876 0.209060 0.854947
O O1 0.834917 0.516004 0.095778
O O2 0.872585 0.297223 0.119007
O O3 0.000000 0.441824 0.081713
O O4 0.893145 0.408692 0.860651
O O5 0.909762 0.581589 0.681779
O O6 0.894159 0.794849 0.735740
O O7 0.836594 0.715420 0.483140
O O8 0.000000 0.719655 0.525257
O O9 0.500000 0.594304 0.132878
O O10 0.328371 0.582649 0.074537
O O11 0.704797 0.308035 0.427247
O O12 0.727720 0.292560 0.715435
O O13 0.854193 0.884776 0.287722
O O14 0.000000 0.896854 0.132201
O O15 0.898631 0.070652 0.137933
O O16 0.848548 0.891923 0.992389
O O17 0.762618 0.154274 0.249041
O O18 0.788605 0.160254 0.948145
#
# Coordination Sequence:
#
# PCOD9342926 Si02
#       8
#     4   4   4   4   4   4   4   4
#     4  11  23  37  62  93 125 163 204 246 302 374
#     4  10  19  34  55  86 119 152 191 244 299 355
#     4  10  21  36  57  87 124 162 200 244 300 373
#     4  11  21  38  60  88 123 158 195 252 302 358
#     4  11  23  40  61  87 117 153 203 261 308 360
#     4  11  22  41  61  85 120 162 200 247 306 370
#     4  10  22  37  62  84 115 154 201 245 306 364
#     4  10  22  37  61  88 115 156 203 251 299 360
#
# _framework density 19.659334999999999
#
# number of rings (size 3 to 8) (size 9 to 14) (size 15 to 20)
#    0.000    1.500    2.500    3.375    0.000    2.500 
#    0.000    2.500    0.000    0.000    0.000    0.000 
#    0.000    0.000    0.000    0.000    0.000    0.000 
#
# Total GULP energy -178459.512493 kJ/mol
# GULP energy per Si atom -5576.859765 kJ/mol
# Density = 1.961459 g / cm^3
# Si number density = 19.659335 Si / 1000 Ang^3
#
#
#
# Elastic Constant Matrix: (Units=GPa)
#
#
# Indices 1 2 3 4 5 6 
#
# 1 115.7660 31.4360 12.1523 0.0000 0.0000 0.0000
# 2 31.4360 80.3075 5.6698 0.0000 0.0000 0.0000
# 3 12.1523 5.6698 46.5936 0.0000 0.0000 0.0000
# 4 0.0000 0.0000 0.0000 17.7680 0.0000 0.0000
# 5 0.0000 0.0000 0.0000 0.0000 8.7174 0.0000
# 6 0.0000 0.0000 0.0000 0.0000 0.0000 20.4938
#
#
#
# Elastic Compliance Matrix: (Units=1/GPa)
#
#
# Indices 1 2 3 4 5 6 
#
# 1 0.009869 -0.003713 -0.002122 0.000000 0.000000 0.000000
# 2 -0.003713 0.013957 -0.000730 0.000000 0.000000 0.000000
# 3 -0.002122 -0.000730 0.022104 0.000000 0.000000 0.000000
# 4 0.000000 0.000000 0.000000 0.056281 0.000000 0.000000
# 5 0.000000 0.000000 0.000000 0.000000 0.114713 0.000000
# 6 0.000000 0.000000 0.000000 0.000000 0.000000 0.048795
#
#
# Mechanical properties :
#
#
# Convention : Reuss Voigt Hill
#
# Bulk Modulus (GPa) = 30.48781 37.90926 34.19854
# Shear Modulus (GPa) = 17.25418 22.28976 19.77197
#
# Velocity S-wave (km/s) = 2.96574 3.37085 3.17476
# Velocity P-wave (km/s) = 5.22200 5.87155 5.55627
#
# Compressibility (1/GPa) = 0.03279999
#
# Stress axis : x y z
#
# Youngs Moduli (GPa) = 101.32463 71.64717 45.23973
#
# Poissons Ratio (x) = 0.26606 0.09601
# Poissons Ratio (y) = 0.37626 0.03302
# Poissons Ratio (z) = 0.21503 0.05229
#
# Static dielectric constant tensor:
#      x y z
#    x 1.715680 0.000000 0.000000 
#    y 0.000000 1.684380 0.000000 
#    z 0.000000 0.000000 1.686020 
# 
# From -- ./inp_files/2595.got.cif
#   From: 2010.05.17/outbox.cif.g08.bks.cpg/sg31_2_cif.got.tgz:2595.got - 2010.06.03 17:08:30.
