data_PCOD9342057
_publ_section_title
;
Structure prediction by ZEFSAII (Michael W. Deem and Ramdas Pophale) SiO2 
 PCOD9342057
Probable space group: P N C 2
;
_chemical_formula_sum "Si O2"
_cell_formula_units_Z 28
_cell_length_a 5.477480
_cell_length_b 12.341081
_cell_length_c 21.408752
_cell_angle_alpha 90.000000
_cell_angle_beta 90.000000
_cell_angle_gamma 90.000000
_cell_volume 1447.189339
_symmetry_space_group_name_H-M "P N C 2"
_symmetry_group_IT_number 30
_symmetry_cell_setting 'orthorhombic'
loop_
_space_group_symop_operation_xyz
x,y,z
-x,-y,z
-x,1/2+y,1/2+z
x,1/2-y,1/2+z
loop_
_atom_site_type_symbol
_atom_site_label
_atom_site_fract_x
_atom_site_fract_y
_atom_site_fract_z
Si Si1 0.500000 0.500000 0.314901
Si Si2 0.982841 0.765568 0.317113
Si Si3 0.145214 0.890000 0.914056
Si Si4 0.000000 0.500000 0.630216
Si Si5 0.533163 0.127774 0.278870
Si Si6 0.624073 0.387968 0.538231
Si Si7 0.651411 0.690332 0.653611
Si Si8 0.132911 0.107704 0.716898
O O1 0.659701 0.426167 0.361476
O O2 0.668154 0.568228 0.267788
O O3 0.972639 0.695910 0.380136
O O4 0.220841 0.841437 0.315747
O O5 0.720110 0.819199 0.303741
O O6 0.036869 0.681621 0.260477
O O7 0.267033 0.839591 0.975455
O O8 0.000000 0.000000 0.931380
O O9 0.831803 0.427607 0.585543
O O10 0.837223 0.589104 0.665562
O O11 0.551231 0.168346 0.206746
O O12 0.500000 0.000000 0.279698
O O13 0.500000 0.500000 0.516591
O O14 0.442190 0.322406 0.582949
O O15 0.760483 0.808576 0.666807
O O16 0.000000 0.000000 0.692748
#
# Coordination Sequence:
#
# PCOD9342057 Si02
#       8
#     2   4   4   2   4   4   4   4
#     4  12  20  38  60  90 132 164 208 262 342 390
#     4  11  23  38  62  96 124 168 207 266 330 392
#     4  12  21  35  59  92 130 160 205 269 328 401
#     4  10  20  38  56  84 122 152 210 252 310 372
#     4  11  24  40  63  91 131 165 214 264 328 388
#     4  10  21  35  55  87 121 168 202 258 320 385
#     4  10  24  36  58  89 124 169 211 261 318 394
#     4  11  23  36  61  90 131 163 207 267 333 394
#
# _framework density 19.347849
#
# number of rings (size 3 to 8) (size 9 to 14) (size 15 to 20)
#    0.000    1.143    4.286    3.429    8.000    0.000 
#    0.000    0.000    0.000    0.000    5.571    0.000 
#    0.000    0.000    0.000    0.000    0.000    0.000 
#
# Total GULP energy -156290.257124 kJ/mol
# GULP energy per Si atom -5581.794897 kJ/mol
# Density = 1.930381 g / cm^3
# Si number density = 19.347849 Si / 1000 Ang^3
#
#
#
# Elastic Constant Matrix: (Units=GPa)
#
#
# Indices 1 2 3 4 5 6 
#
# 1 73.2572 32.0059 30.1634 0.0000 0.0000 0.0000
# 2 32.0059 113.5575 47.1914 0.0000 0.0000 0.0000
# 3 30.1634 47.1914 92.4172 0.0000 0.0000 0.0000
# 4 0.0000 0.0000 0.0000 17.1501 0.0000 0.0000
# 5 0.0000 0.0000 0.0000 0.0000 16.2445 0.0000
# 6 0.0000 0.0000 0.0000 0.0000 0.0000 32.8528
#
#
#
# Elastic Compliance Matrix: (Units=1/GPa)
#
#
# Indices 1 2 3 4 5 6 
#
# 1 0.016575 -0.003076 -0.003839 0.000000 0.000000 0.000000
# 2 -0.003076 0.011749 -0.004995 0.000000 0.000000 0.000000
# 3 -0.003839 -0.004995 0.014624 0.000000 0.000000 0.000000
# 4 0.000000 0.000000 0.000000 0.058309 0.000000 0.000000
# 5 0.000000 0.000000 0.000000 0.000000 0.061559 0.000000
# 6 0.000000 0.000000 0.000000 0.000000 0.000000 0.030439
#
#
# Mechanical properties :
#
#
# Convention : Reuss Voigt Hill
#
# Bulk Modulus (GPa) = 52.28162 55.32814 53.80488
# Shear Modulus (GPa) = 22.37609 24.57422 23.47516
#
# Velocity S-wave (km/s) = 3.40445 3.56775 3.48706
# Velocity P-wave (km/s) = 6.52183 6.75503 6.63945
#
# Compressibility (1/GPa) = 0.01912718
#
# Stress axis : x y z
#
# Youngs Moduli (GPa) = 60.33082 85.11263 68.37919
#
# Poissons Ratio (x) = 0.26183 0.26251
# Poissons Ratio (y) = 0.18560 0.34159
# Poissons Ratio (z) = 0.23161 0.42518
#
# Static dielectric constant tensor:
#      x y z
#    x 1.797120 0.000000 0.000000 
#    y 0.000000 1.701640 0.000000 
#    z 0.000000 0.000000 1.672260 
# 
# From -- ./inp_files/6845.got.cif
#   From: 2010.05.17/outbox.cif.g08.bks.cpg/sg30_4_cif.got.tgz:6845.got - 2010.06.03 17:03:02.
