data_PCOD9342630
_publ_section_title
;
Structure prediction by ZEFSAII (Michael W. Deem and Ramdas Pophale) SiO2 
 PCOD9342630
Probable space group: P N C 2
;
_chemical_formula_sum "Si O2"
_cell_formula_units_Z 22
_cell_length_a 4.945506
_cell_length_b 28.074369
_cell_length_c 5.653469
_cell_angle_alpha 90.000000
_cell_angle_beta 90.000000
_cell_angle_gamma 90.000000
_cell_volume 784.938719
_symmetry_space_group_name_H-M "P N C 2"
_symmetry_group_IT_number 30
_symmetry_cell_setting 'orthorhombic'
loop_
_space_group_symop_operation_xyz
x,y,z
-x,-y,z
-x,1/2+y,1/2+z
x,1/2-y,1/2+z
loop_
_atom_site_type_symbol
_atom_site_label
_atom_site_fract_x
_atom_site_fract_y
_atom_site_fract_z
Si Si1 0.491017 0.347097 0.920960
Si Si2 0.898143 0.263348 0.915367
Si Si3 0.000000 0.500000 0.059468
Si Si4 0.361053 0.055860 0.240023
Si Si5 0.157415 0.578302 0.431945
Si Si6 0.508280 0.174595 0.911536
O O1 0.768544 0.316136 0.921204
O O2 0.495583 0.403793 0.906331
O O3 0.371616 0.333123 0.665160
O O4 0.350508 0.333823 0.167300
O O5 0.034559 0.251163 0.663762
O O6 0.646080 0.225963 0.909545
O O7 0.053305 0.546713 0.215311
O O8 0.246952 0.487363 0.890472
O O9 0.577657 0.051363 0.031543
O O10 0.085612 0.076176 0.119938
O O11 0.263865 0.632247 0.397871
#
# Coordination Sequence:
#
# PCOD9342630 Si02
#       6
#     4   4   2   4   4   4
#     4   9  19  38  68 103 142 190 242 305 377 455
#     4   8  14  30  62 100 136 184 236 296 370 454
#     4  12  30  50  80 108 156 210 270 338 398 478
#     4  11  28  50  73 109 150 198 259 322 393 468
#     4  11  28  50  73 109 150 198 259 322 393 468
#     4   9  19  38  68 103 142 190 242 305 377 455
#
# _framework density 28.027666
#
# number of rings (size 3 to 8) (size 9 to 14) (size 15 to 20)
#    0.000    2.182    0.000    0.545   10.182    4.364 
#    0.000    0.000    0.000   34.909    4.727    0.000 
#    0.000    0.000    0.000    0.000    0.000    0.000 
#
# Total GULP energy -123157.073138 kJ/mol
# GULP energy per Si atom -5598.048779 kJ/mol
# Density = 2.796387 g / cm^3
# Si number density = 28.027666 Si / 1000 Ang^3
#
#
#
# Elastic Constant Matrix: (Units=GPa)
#
#
# Indices 1 2 3 4 5 6 
#
# 1 128.9031 38.8581 23.9240 0.0000 0.0000 0.0000
# 2 38.8581 115.4060 11.9722 0.0000 0.0000 0.0000
# 3 23.9240 11.9722 203.1939 0.0000 0.0000 0.0000
# 4 0.0000 0.0000 0.0000 53.2323 0.0000 0.0000
# 5 0.0000 0.0000 0.0000 0.0000 -24.2898 0.0000
# 6 0.0000 0.0000 0.0000 0.0000 0.0000 65.6073
#
#
#
# Elastic Compliance Matrix: (Units=1/GPa)
#
#
# Indices 1 2 3 4 5 6 
#
# 1 0.008783 -0.002867 -0.000865 0.000000 0.000000 0.000000
# 2 -0.002867 0.009655 -0.000231 0.000000 0.000000 0.000000
# 3 -0.000865 -0.000231 0.005037 0.000000 0.000000 0.000000
# 4 0.000000 0.000000 0.000000 0.018786 0.000000 0.000000
# 5 0.000000 0.000000 0.000000 0.000000 -0.041170 0.000000
# 6 0.000000 0.000000 0.000000 0.000000 0.000000 0.015242
#
#
# Mechanical properties :
#
#
# Convention : Reuss Voigt Hill
#
# Bulk Modulus (GPa) = 64.32306 66.33462 65.32884
# Shear Modulus (GPa) = 169.82440 43.75988 106.79214
#
# Velocity S-wave (km/s) = 7.79251 3.95563 6.17941
# Velocity P-wave (km/s) = 10.19627 6.67694 8.61817
#
# Compressibility (1/GPa) = 0.01554652
#
# Stress axis : x y z
#
# Youngs Moduli (GPa) = 113.85983 103.57813 198.53512
#
# Poissons Ratio (x) = 0.29701 0.17176
# Poissons Ratio (y) = 0.32649 0.04591
# Poissons Ratio (z) = 0.09850 0.02395
#
# Static dielectric constant tensor:
#      x y z
#    x 2.059540 0.000000 0.000000 
#    y 0.000000 2.190810 0.000000 
#    z 0.000000 0.000000 2.229820 
# 
# From -- ./inp_files/243.got.cif
#   From: 2010.05.17/outbox.cif.g08.bks.cpg/sg30_1_cif.got.tgz:243.got - 2010.06.03 17:03:02.
