data_PCOD9342966
_publ_section_title
;
Structure prediction by ZEFSAII (Michael W. Deem and Ramdas Pophale) SiO2 
 PCOD9342966
Probable space group: P M N 21
;
_chemical_formula_sum "Si O2"
_cell_formula_units_Z 20
_cell_length_a 25.211120
_cell_length_b 4.919901
_cell_length_c 7.839444
_cell_angle_alpha 90.000000
_cell_angle_beta 90.000000
_cell_angle_gamma 90.000000
_cell_volume 972.374958
_symmetry_space_group_name_H-M "P M N 21"
_symmetry_group_IT_number 31
_symmetry_cell_setting 'orthorhombic'
loop_
_space_group_symop_operation_xyz
x,y,z
1/2-x,-y,1/2+z
-x,y,z
1/2+x,-y,1/2+z
loop_
_atom_site_type_symbol
_atom_site_label
_atom_site_fract_x
_atom_site_fract_y
_atom_site_fract_z
Si Si1 0.500000 0.435274 0.517500
Si Si2 0.386438 0.061087 0.278436
Si Si3 0.500000 0.937283 0.280595
Si Si4 0.780438 0.375418 0.217983
Si Si5 0.218215 0.126200 0.593088
Si Si6 0.886087 0.438773 0.021461
O O1 0.500000 0.628885 0.347809
O O2 0.556218 0.500570 0.602800
O O3 0.500000 0.128078 0.450240
O O4 0.444229 0.011542 0.194557
O O5 0.338022 0.982324 0.158733
O O6 0.385471 0.860788 0.441808
O O7 0.381231 0.358959 0.359220
O O8 0.784535 0.252341 0.405805
O O9 0.740718 0.629988 0.209691
O O10 0.836852 0.472154 0.146155
O O11 0.757822 0.129206 0.103368
#
# Coordination Sequence:
#
# PCOD9342966 Si02
#       6
#     2   4   2   4   4   4
#     4   8  16  30  53  80 105 138 179 218 265 324
#     4  10  19  35  57  81 109 143 182 224 269 325
#     4   8  16  30  53  80 105 138 179 218 265 324
#     4  12  24  38  56  81 112 148 186 229 278 329
#     4  12  24  38  56  81 112 148 186 229 278 329
#     4  10  19  35  57  81 109 143 182 224 269 325
#
# _framework density 20.568197999999999
#
# number of rings (size 3 to 8) (size 9 to 14) (size 15 to 20)
#    0.000    1.600    0.000    7.200    0.000    0.000 
#    0.000    1.000    0.000    0.000    0.000   22.400 
#    0.000    0.000    0.000    0.000    0.000    0.000 
#
# Total GULP energy -111747.294835 kJ/mol
# GULP energy per Si atom -5587.364742 kJ/mol
# Density = 2.052138 g / cm^3
# Si number density = 20.568198 Si / 1000 Ang^3
#
#
#
# Elastic Constant Matrix: (Units=GPa)
#
#
# Indices 1 2 3 4 5 6 
#
# 1 208.3455 30.0891 52.2156 0.0000 0.0000 0.0000
# 2 30.0891 88.4902 6.2634 0.0000 0.0000 0.0000
# 3 52.2156 6.2634 59.7173 0.0000 0.0000 0.0000
# 4 0.0000 0.0000 0.0000 23.9591 0.0000 0.0000
# 5 0.0000 0.0000 0.0000 0.0000 18.6344 0.0000
# 6 0.0000 0.0000 0.0000 0.0000 0.0000 44.7027
#
#
#
# Elastic Compliance Matrix: (Units=1/GPa)
#
#
# Indices 1 2 3 4 5 6 
#
# 1 0.006419 -0.001799 -0.005424 0.000000 0.000000 0.000000
# 2 -0.001799 0.011889 0.000326 0.000000 0.000000 0.000000
# 3 -0.005424 0.000326 0.021454 0.000000 0.000000 0.000000
# 4 0.000000 0.000000 0.000000 0.041738 0.000000 0.000000
# 5 0.000000 0.000000 0.000000 0.000000 0.053664 0.000000
# 6 0.000000 0.000000 0.000000 0.000000 0.000000 0.022370
#
#
# Mechanical properties :
#
#
# Convention : Reuss Voigt Hill
#
# Bulk Modulus (GPa) = 38.50836 59.29880 48.90358
# Shear Modulus (GPa) = 27.78030 35.32490 31.55260
#
# Velocity S-wave (km/s) = 3.67910 4.14871 3.92094
# Velocity P-wave (km/s) = 6.06717 7.20014 6.65780
#
# Compressibility (1/GPa) = 0.02596839
#
# Stress axis : x y z
#
# Youngs Moduli (GPa) = 155.79241 84.10979 46.61161
#
# Poissons Ratio (x) = 0.15129 0.25281
# Poissons Ratio (y) = 0.28022 -0.01518
# Poissons Ratio (z) = 0.84499 -0.02740
#
# Static dielectric constant tensor:
#      x y z
#    x 1.804100 0.000000 0.000000 
#    y 0.000000 1.715890 0.000000 
#    z 0.000000 0.000000 1.686430 
# 
# From -- ./inp_files/3027.got.cif
#   From: 2010.05.17/outbox.cif.g08.bks.cpg/sg31_2_cif.got.tgz:3027.got - 2010.06.03 17:08:30.
