data_PCOD9342296
_publ_section_title
;
Structure prediction by ZEFSAII (Michael W. Deem and Ramdas Pophale) SiO2 
 PCOD9342296
Probable space group: P N C 2
;
_chemical_formula_sum "Si O2"
_cell_formula_units_Z 32
_cell_length_a 14.842843
_cell_length_b 17.055420
_cell_length_c 5.492617
_cell_angle_alpha 90.000000
_cell_angle_beta 90.000000
_cell_angle_gamma 90.000000
_cell_volume 1390.461054
_symmetry_space_group_name_H-M "P N C 2"
_symmetry_group_IT_number 30
_symmetry_cell_setting 'orthorhombic'
loop_
_space_group_symop_operation_xyz
x,y,z
-x,-y,z
-x,1/2+y,1/2+z
x,1/2-y,1/2+z
loop_
_atom_site_type_symbol
_atom_site_label
_atom_site_fract_x
_atom_site_fract_y
_atom_site_fract_z
Si Si1 0.087333 0.047834 0.959500
Si Si2 0.417170 0.034350 0.570349
Si Si3 0.235027 0.015020 0.293948
Si Si4 0.346997 0.924884 0.941983
Si Si5 0.828168 0.096465 0.658148
Si Si6 0.000389 0.700690 0.237762
Si Si7 0.658994 0.230056 0.196886
Si Si8 0.543572 0.710751 0.213861
O O1 0.059851 0.124026 0.804626
O O2 0.133492 0.983408 0.783880
O O3 0.154197 0.066303 0.184767
O O4 0.000000 0.000000 0.054732
O O5 0.311742 0.037233 0.486886
O O6 0.433256 0.122279 0.654350
O O7 0.500000 0.000000 0.400896
O O8 0.418059 0.964613 0.768996
O O9 0.189137 0.933119 0.383023
O O10 0.300295 0.997471 0.071326
O O11 0.267783 0.888070 0.779482
O O12 0.369453 0.859770 0.142555
O O13 0.899053 0.164152 0.712391
O O14 0.986972 0.756871 0.475265
O O15 0.706509 0.262097 0.955055
O O16 0.565265 0.278001 0.220048
O O17 0.575672 0.761624 0.980361
#
# Coordination Sequence:
#
# PCOD9342296 Si02
#       8
#     4   4   4   4   4   4   4   4
#     4   9  21  43  71  99 136 193 230 286 350 437
#     4  11  24  41  67  99 137 188 249 308 354 427
#     4  10  23  41  72 100 136 179 259 290 356 418
#     4  10  23  40  64  96 130 183 239 299 358 429
#     4   9  22  42  66  96 138 184 234 289 355 436
#     4  11  26  42  69 111 147 184 232 291 363 437
#     4  10  22  38  61  88 130 169 219 275 356 425
#     4  10  23  41  62  89 128 176 227 284 356 415
#
# _framework density 23.013947000000002
#
# number of rings (size 3 to 8) (size 9 to 14) (size 15 to 20)
#    0.000    2.000    0.000    1.500   15.750    2.000 
#    0.000    1.250    0.000    0.000    0.000    0.000 
#    0.000    0.000    0.000    0.000    0.000    0.000 
#
# Total GULP energy -178350.997621 kJ/mol
# GULP energy per Si atom -5573.468676 kJ/mol
# Density = 2.296157 g / cm^3
# Si number density = 23.013947 Si / 1000 Ang^3
#
#
#
# Elastic Constant Matrix: (Units=GPa)
#
#
# Indices 1 2 3 4 5 6 
#
# 1 85.7926 33.4034 18.2075 0.0000 0.0000 0.0000
# 2 33.4034 92.2588 18.7863 0.0000 0.0000 0.0000
# 3 18.2075 18.7863 99.2436 0.0000 0.0000 0.0000
# 4 0.0000 0.0000 0.0000 3.2305 0.0000 0.0000
# 5 0.0000 0.0000 0.0000 0.0000 17.7533 0.0000
# 6 0.0000 0.0000 0.0000 0.0000 0.0000 32.7045
#
#
#
# Elastic Compliance Matrix: (Units=1/GPa)
#
#
# Indices 1 2 3 4 5 6 
#
# 1 0.013825 -0.004669 -0.001652 0.000000 0.000000 0.000000
# 2 -0.004669 0.012850 -0.001576 0.000000 0.000000 0.000000
# 3 -0.001652 -0.001576 0.010678 0.000000 0.000000 0.000000
# 4 0.000000 0.000000 0.000000 0.309553 0.000000 0.000000
# 5 0.000000 0.000000 0.000000 0.000000 0.056328 0.000000
# 6 0.000000 0.000000 0.000000 0.000000 0.000000 0.030577
#
#
# Mechanical properties :
#
#
# Convention : Reuss Voigt Hill
#
# Bulk Modulus (GPa) = 46.38638 46.45435 46.42037
# Shear Modulus (GPa) = 10.94593 24.53084 17.73839
#
# Velocity S-wave (km/s) = 2.18324 3.26837 2.77928
# Velocity P-wave (km/s) = 5.15315 5.87130 5.52390
#
# Compressibility (1/GPa) = 0.02155805
#
# Stress axis : x y z
#
# Youngs Moduli (GPa) = 72.33517 77.81867 93.65308
#
# Poissons Ratio (x) = 0.36332 0.15476
# Poissons Ratio (y) = 0.33772 0.14759
# Poissons Ratio (z) = 0.11953 0.12264
#
# Static dielectric constant tensor:
#      x y z
#    x 1.929070 0.000000 0.000000 
#    y 0.000000 1.885280 0.000000 
#    z 0.000000 0.000000 2.009300 
# 
# From -- ./inp_files/961.got.cif
#   From: 2010.05.17/outbox.cif.g08.bks.cpg/sg30_1_cif.got.tgz:961.got - 2010.06.03 17:03:02.
