data_PCOD9342982
_publ_section_title
;
Structure prediction by ZEFSAII (Michael W. Deem and Ramdas Pophale) SiO2 
 PCOD9342982
Probable space group: P M N 21
;
_chemical_formula_sum "Si O2"
_cell_formula_units_Z 32
_cell_length_a 8.613384
_cell_length_b 14.970160
_cell_length_c 12.788568
_cell_angle_alpha 90.000000
_cell_angle_beta 90.000000
_cell_angle_gamma 90.000000
_cell_volume 1649.005744
_symmetry_space_group_name_H-M "P M N 21"
_symmetry_group_IT_number 31
_symmetry_cell_setting 'orthorhombic'
loop_
_space_group_symop_operation_xyz
x,y,z
1/2-x,-y,1/2+z
-x,y,z
1/2+x,-y,1/2+z
loop_
_atom_site_type_symbol
_atom_site_label
_atom_site_fract_x
_atom_site_fract_y
_atom_site_fract_z
Si Si1 0.183156 0.058664 0.951810
Si Si2 0.187377 0.636371 0.723344
Si Si3 0.676736 0.137328 0.754455
Si Si4 0.677422 0.335015 0.848946
Si Si5 0.811488 0.865730 0.012593
Si Si6 0.187976 0.667389 0.959852
Si Si7 0.813929 0.243354 0.050195
Si Si8 0.814502 0.442580 0.658046
O O1 0.212541 0.086073 0.832843
O O2 0.000000 0.054093 0.974240
O O3 0.248680 0.959692 0.968789
O O4 0.244068 0.143203 0.019701
O O5 0.234357 0.632444 0.845156
O O6 0.253876 0.720363 0.660369
O O7 0.235515 0.545920 0.663791
O O8 0.000000 0.641630 0.721002
O O9 0.500000 0.102923 0.765439
O O10 0.674623 0.240297 0.788677
O O11 0.723701 0.132451 0.635179
O O12 0.500000 0.364721 0.866399
O O13 0.763194 0.400195 0.768949
O O14 0.755769 0.310921 0.959260
O O15 0.757989 0.770689 0.968191
O O16 0.000000 0.864747 0.000825
O O17 0.000000 0.666193 0.965494
O O18 0.247001 0.610609 0.058775
O O19 0.000000 0.242209 0.048490
O O20 0.000000 0.438849 0.651245
#
# Coordination Sequence:
#
# PCOD9342982 Si02
#       8
#     4   4   4   4   4   4   4   4
#     4   9  19  34  54  82 114 149 189 237 288 337
#     4  10  24  41  58  84 119 156 195 240 290 349
#     4   9  17  32  53  78 107 143 189 234 278 337
#     4  10  19  35  60  84 109 148 194 238 287 344
#     4   9  17  34  58  81 109 148 191 235 286 343
#     4  10  21  41  63  84 113 155 199 238 290 354
#     4  10  21  37  57  84 119 155 192 238 292 340
#     4  11  23  38  57  87 118 146 189 246 297 342
#
# _framework density 19.405633000000002
#
# number of rings (size 3 to 8) (size 9 to 14) (size 15 to 20)
#    0.000    2.250    1.250    1.125    1.750    3.500 
#    0.000    1.250    0.000    0.000    0.000    0.000 
#    0.000    0.000    0.000    0.000    0.000    0.000 
#
# Total GULP energy -178462.579277 kJ/mol
# GULP energy per Si atom -5576.955602 kJ/mol
# Density = 1.936147 g / cm^3
# Si number density = 19.405633 Si / 1000 Ang^3
#
#
#
# Elastic Constant Matrix: (Units=GPa)
#
#
# Indices 1 2 3 4 5 6 
#
# 1 15.9623 21.4249 12.6153 0.0000 0.0000 0.0000
# 2 21.4249 113.1047 55.9023 0.0000 0.0000 0.0000
# 3 12.6153 55.9023 55.3228 0.0000 0.0000 0.0000
# 4 0.0000 0.0000 0.0000 15.2413 0.0000 0.0000
# 5 0.0000 0.0000 0.0000 0.0000 30.1058 0.0000
# 6 0.0000 0.0000 0.0000 0.0000 0.0000 17.6166
#
#
#
# Elastic Compliance Matrix: (Units=1/GPa)
#
#
# Indices 1 2 3 4 5 6 
#
# 1 0.085065 -0.013038 -0.006223 0.000000 0.000000 0.000000
# 2 -0.013038 0.019661 -0.016894 0.000000 0.000000 0.000000
# 3 -0.006223 -0.016894 0.036566 0.000000 0.000000 0.000000
# 4 0.000000 0.000000 0.000000 0.065611 0.000000 0.000000
# 5 0.000000 0.000000 0.000000 0.000000 0.033216 0.000000
# 6 0.000000 0.000000 0.000000 0.000000 0.000000 0.056765
#
#
# Mechanical properties :
#
#
# Convention : Reuss Voigt Hill
#
# Bulk Modulus (GPa) = 14.49651 40.47496 27.48574
# Shear Modulus (GPa) = 12.74902 18.88923 15.81913
#
# Velocity S-wave (km/s) = 2.56593 3.12330 2.85824
# Velocity P-wave (km/s) = 4.03301 5.82317 5.00872
#
# Compressibility (1/GPa) = 0.06898212
#
# Stress axis : x y z
#
# Youngs Moduli (GPa) = 11.75570 50.86264 27.34814
#
# Poissons Ratio (x) = 0.66313 0.17020
# Poissons Ratio (y) = 0.15327 0.46201
# Poissons Ratio (z) = 0.07316 0.85926
#
# Static dielectric constant tensor:
#      x y z
#    x 1.680020 0.000000 0.000000 
#    y 0.000000 1.700800 0.000000 
#    z 0.000000 0.000000 1.657440 
# 
# From -- ./inp_files/3678.got.cif
#   From: 2010.05.17/outbox.cif.g08.bks.cpg/sg31_2_cif.got.tgz:3678.got - 2010.06.03 17:08:30.
