data_PCOD9342229
_publ_section_title
;
Structure prediction by ZEFSAII (Michael W. Deem and Ramdas Pophale) SiO2 
 PCOD9342229
Probable space group: P N C 2
;
_chemical_formula_sum "Si O2"
_cell_formula_units_Z 28
_cell_length_a 9.089091
_cell_length_b 15.875027
_cell_length_c 7.988557
_cell_angle_alpha 90.000000
_cell_angle_beta 90.000000
_cell_angle_gamma 90.000000
_cell_volume 1152.665415
_symmetry_space_group_name_H-M "P N C 2"
_symmetry_group_IT_number 30
_symmetry_cell_setting 'orthorhombic'
loop_
_space_group_symop_operation_xyz
x,y,z
-x,-y,z
-x,1/2+y,1/2+z
x,1/2-y,1/2+z
loop_
_atom_site_type_symbol
_atom_site_label
_atom_site_fract_x
_atom_site_fract_y
_atom_site_fract_z
Si Si1 0.000000 0.500000 0.675241
Si Si2 0.085506 0.171314 0.651285
Si Si3 0.121807 0.730577 0.877220
Si Si4 0.222550 0.629000 0.590926
Si Si5 0.493036 0.359302 0.408191
Si Si6 0.642538 0.707195 0.743971
Si Si7 0.500000 0.500000 0.134637
Si Si8 0.238356 0.447188 0.950632
O O1 0.923430 0.427083 0.566336
O O2 0.867935 0.528332 0.797858
O O3 0.218368 0.231284 0.710021
O O4 0.144472 0.078652 0.615074
O O5 0.946881 0.194433 0.764953
O O6 0.020553 0.194698 0.469727
O O7 0.205346 0.656566 0.782999
O O8 0.220030 0.779157 0.006978
O O9 0.368605 0.596232 0.504651
O O10 0.388879 0.338955 0.567308
O O11 0.487445 0.268552 0.310786
O O12 0.461024 0.423099 0.257444
O O13 0.676471 0.636040 0.882213
O O14 0.359986 0.512646 0.013574
#
# Coordination Sequence:
#
# PCOD9342229 Si02
#       8
#     2   4   4   4   4   4   2   4
#     4  12  28  48  72 112 152 202 238 312 396 442
#     4  11  18  40  71 100 126 183 250 289 351 435
#     4  10  21  40  70 101 131 185 241 299 347 443
#     4  11  25  44  69 103 149 185 247 302 380 435
#     4  12  26  45  70 110 141 193 252 310 372 448
#     4  12  23  45  78 102 140 197 255 305 361 460
#     4  12  30  46  70 110 148 196 248 312 390 432
#     4  12  26  47  72 106 150 195 244 306 381 449
#
# _framework density 24.291526000000001
#
# number of rings (size 3 to 8) (size 9 to 14) (size 15 to 20)
#    0.000    0.571    5.714    1.714    4.000    2.286 
#    2.571    0.000    0.000    0.000    0.000    0.000 
#    0.000    0.000    0.000    0.000    0.000    0.000 
#
# Total GULP energy -156083.951823 kJ/mol
# GULP energy per Si atom -5574.426851 kJ/mol
# Density = 2.423624 g / cm^3
# Si number density = 24.291526 Si / 1000 Ang^3
#
#
#
# Elastic Constant Matrix: (Units=GPa)
#
#
# Indices 1 2 3 4 5 6 
#
# 1 68.3085 8.6256 34.8625 0.0000 0.0000 0.0000
# 2 8.6256 70.3658 22.4486 0.0000 0.0000 0.0000
# 3 34.8625 22.4486 84.7621 0.0000 0.0000 0.0000
# 4 0.0000 0.0000 0.0000 -39.0474 0.0000 0.0000
# 5 0.0000 0.0000 0.0000 0.0000 29.7509 0.0000
# 6 0.0000 0.0000 0.0000 0.0000 0.0000 29.1174
#
#
#
# Elastic Compliance Matrix: (Units=1/GPa)
#
#
# Indices 1 2 3 4 5 6 
#
# 1 0.018531 0.000175 -0.007668 0.000000 0.000000 0.000000
# 2 0.000175 0.015525 -0.004183 0.000000 0.000000 0.000000
# 3 -0.007668 -0.004183 0.016060 0.000000 0.000000 0.000000
# 4 0.000000 0.000000 0.000000 -0.025610 0.000000 0.000000
# 5 0.000000 0.000000 0.000000 0.000000 0.033612 0.000000
# 6 0.000000 0.000000 0.000000 0.000000 0.000000 0.034344
#
#
# Mechanical properties :
#
#
# Convention : Reuss Voigt Hill
#
# Bulk Modulus (GPa) = 37.36693 39.47888 38.42290
# Shear Modulus (GPa) = 40.08486 14.46415 27.27451
#
# Velocity S-wave (km/s) = 4.06662 2.44281 3.35445
# Velocity P-wave (km/s) = 6.12095 4.92380 5.55472
#
# Compressibility (1/GPa) = 0.02676163
#
# Stress axis : x y z
#
# Youngs Moduli (GPa) = 53.96389 64.41356 62.26834
#
# Poissons Ratio (x) = -0.01126 0.47747
# Poissons Ratio (y) = -0.00943 0.26050
# Poissons Ratio (z) = 0.41380 0.26947
#
# Static dielectric constant tensor:
#      x y z
#    x 2.032930 0.000000 0.000000 
#    y 0.000000 1.946160 0.000000 
#    z 0.000000 0.000000 2.006080 
# 
# From -- ./inp_files/2014.got.cif
#   From: 2010.05.17/outbox.cif.g08.bks.cpg/sg30_2_cif.got.tgz:2014.got - 2010.06.03 17:03:02.
