data_PCOD9342652
_publ_section_title
;
Structure prediction by ZEFSAII (Michael W. Deem and Ramdas Pophale) SiO2 
 PCOD9342652
Probable space group: P N C 2
;
_chemical_formula_sum "Si O2"
_cell_formula_units_Z 16
_cell_length_a 4.745139
_cell_length_b 15.895848
_cell_length_c 8.127364
_cell_angle_alpha 90.000000
_cell_angle_beta 90.000000
_cell_angle_gamma 90.000000
_cell_volume 613.030879
_symmetry_space_group_name_H-M "P N C 2"
_symmetry_group_IT_number 30
_symmetry_cell_setting 'orthorhombic'
loop_
_space_group_symop_operation_xyz
x,y,z
-x,-y,z
-x,1/2+y,1/2+z
x,1/2-y,1/2+z
loop_
_atom_site_type_symbol
_atom_site_label
_atom_site_fract_x
_atom_site_fract_y
_atom_site_fract_z
Si Si1 0.356846 0.656271 0.030060
Si Si2 0.890269 0.909889 0.712733
Si Si3 0.390267 0.409889 0.712733
Si Si4 0.143155 0.656271 0.530061
O O1 0.576977 0.614274 0.158142
O O2 0.250001 0.750000 0.065868
O O3 0.075125 0.601794 0.047450
O O4 0.503155 0.653319 0.853386
O O5 0.000000 0.000000 0.777186
O O6 0.996845 0.846681 0.853387
O O7 0.500000 0.500000 0.777185
O O8 0.575124 0.398206 0.547449
O O9 0.076976 0.385726 0.658143
#
# Coordination Sequence:
#
# PCOD9342652 Si02
#       4
#     4   4   4   4
#     4  12  27  47  73 108 147 192 246 306 368 438
#     4  12  25  47  75 108 146 194 246 304 368 440
#     4  12  25  47  75 108 146 194 246 304 368 440
#     4  12  27  47  73 108 147 192 246 306 368 438
#
# _framework density 26.099826
#
# number of rings (size 3 to 8) (size 9 to 14) (size 15 to 20)
#    0.000    0.000    0.000   10.500    0.000    4.000 
#    0.000    2.500    0.000    0.000    0.000    0.000 
#    0.000    0.000    0.000    0.000    0.000    0.000 
#
# Total GULP energy -89528.786458 kJ/mol
# GULP energy per Si atom -5595.549154 kJ/mol
# Density = 2.604042 g / cm^3
# Si number density = 26.099826 Si / 1000 Ang^3
#
#
#
# Elastic Constant Matrix: (Units=GPa)
#
#
# Indices 1 2 3 4 5 6 
#
# 1 159.6184 50.5412 18.1224 0.0000 0.0000 0.0000
# 2 50.5412 151.9921 9.7149 0.0000 0.0000 0.0000
# 3 18.1224 9.7149 105.8157 0.0000 0.0000 0.0000
# 4 0.0000 0.0000 0.0000 5.7616 0.0000 0.0000
# 5 0.0000 0.0000 0.0000 0.0000 35.4261 0.0000
# 6 0.0000 0.0000 0.0000 0.0000 0.0000 47.2541
#
#
#
# Elastic Compliance Matrix: (Units=1/GPa)
#
#
# Indices 1 2 3 4 5 6 
#
# 1 0.007107 -0.002299 -0.001006 0.000000 0.000000 0.000000
# 2 -0.002299 0.007362 -0.000282 0.000000 0.000000 0.000000
# 3 -0.001006 -0.000282 0.009649 0.000000 0.000000 0.000000
# 4 0.000000 0.000000 0.000000 0.173563 0.000000 0.000000
# 5 0.000000 0.000000 0.000000 0.000000 0.028228 0.000000
# 6 0.000000 0.000000 0.000000 0.000000 0.000000 0.021162
#
#
# Mechanical properties :
#
#
# Convention : Reuss Voigt Hill
#
# Bulk Modulus (GPa) = 59.02141 63.79813 61.40977
# Shear Modulus (GPa) = 19.23874 40.29153 29.76514
#
# Velocity S-wave (km/s) = 2.71794 3.93332 3.38070
# Velocity P-wave (km/s) = 5.70197 6.71751 6.23046
#
# Compressibility (1/GPa) = 0.01694300
#
# Stress axis : x y z
#
# Youngs Moduli (GPa) = 140.70394 135.83641 103.64185
#
# Poissons Ratio (x) = 0.31229 0.10428
# Poissons Ratio (y) = 0.32348 0.02924
# Poissons Ratio (z) = 0.14157 0.03833
#
# Static dielectric constant tensor:
#      x y z
#    x 1.984880 0.000000 0.000000 
#    y 0.000000 2.256810 0.000000 
#    z 0.000000 0.000000 1.989050 
# 
# From -- ./inp_files/1271.got.cif
#   From: 2010.05.17/outbox.cif.g08.bks.cpg/sg30_1_cif.got.tgz:1271.got - 2010.06.03 17:03:02.
