data_PCOD9342424
_publ_section_title
;
Structure prediction by ZEFSAII (Michael W. Deem and Ramdas Pophale) SiO2 
 PCOD9342424
Probable space group: P N C 2
;
_chemical_formula_sum "Si O2"
_cell_formula_units_Z 30
_cell_length_a 11.817790
_cell_length_b 10.395485
_cell_length_c 10.991238
_cell_angle_alpha 90.000000
_cell_angle_beta 90.000000
_cell_angle_gamma 90.000000
_cell_volume 1350.291819
_symmetry_space_group_name_H-M "P N C 2"
_symmetry_group_IT_number 30
_symmetry_cell_setting 'orthorhombic'
loop_
_space_group_symop_operation_xyz
x,y,z
-x,-y,z
-x,1/2+y,1/2+z
x,1/2-y,1/2+z
loop_
_atom_site_type_symbol
_atom_site_label
_atom_site_fract_x
_atom_site_fract_y
_atom_site_fract_z
Si Si1 0.000000 0.500000 0.615060
Si Si2 0.287540 0.704457 0.986722
Si Si3 0.753670 0.671476 0.822945
Si Si4 0.106469 0.576716 0.842943
Si Si5 0.508327 0.149545 0.299915
Si Si6 0.599781 0.091487 0.693267
Si Si7 0.368213 0.518234 0.469713
Si Si8 0.806122 0.681944 0.555258
O O1 0.944007 0.396497 0.709280
O O2 0.906699 0.578844 0.545412
O O3 0.296990 0.611595 0.102270
O O4 0.169028 0.686269 0.917528
O O5 0.396042 0.663161 0.904194
O O6 0.311294 0.852092 0.019192
O O7 0.793123 0.524162 0.814821
O O8 0.619476 0.683332 0.838935
O O9 0.793480 0.731741 0.693891
O O10 0.814276 0.721572 0.943762
O O11 0.000000 0.500000 0.902638
O O12 0.545717 0.266266 0.211896
O O13 0.500000 0.000000 0.260212
O O14 0.638887 0.034063 0.822769
O O15 0.500000 0.000000 0.645220
O O16 0.500000 0.500000 0.492655
O O17 0.306793 0.398254 0.527873
#
# Coordination Sequence:
#
# PCOD9342424 Si02
#       8
#     2   4   4   4   4   4   4   4
#     4   8  22  46  70  88 136 172 236 296 340 412
#     4  11  22  39  69  93 139 188 228 282 353 415
#     4  11  24  40  72  98 139 176 229 282 350 423
#     4   9  21  43  62  96 125 176 232 289 334 410
#     4  11  23  38  62 103 134 183 232 272 356 432
#     4  10  23  38  60  99 147 177 227 294 340 425
#     4  10  24  43  62 104 144 178 225 282 357 436
#     4  11  24  45  70  99 134 184 228 290 351 418
#
# _framework density 22.217419
#
# number of rings (size 3 to 8) (size 9 to 14) (size 15 to 20)
#    0.400    1.333    1.333    2.800    5.600    3.200 
#    0.000    0.000    2.933    0.000    0.000    0.000 
#    0.000    0.000    0.000    0.000    0.000    0.000 
#
# Total GULP energy -167422.847603 kJ/mol
# GULP energy per Si atom -5580.761587 kJ/mol
# Density = 2.216685 g / cm^3
# Si number density = 22.217419 Si / 1000 Ang^3
#
#
#
# Elastic Constant Matrix: (Units=GPa)
#
#
# Indices 1 2 3 4 5 6 
#
# 1 87.8499 -9.7274 5.2733 0.0000 0.0000 0.0000
# 2 -9.7274 52.3853 24.1167 0.0000 0.0000 0.0000
# 3 5.2733 24.1167 55.0863 0.0000 0.0000 0.0000
# 4 0.0000 0.0000 0.0000 33.1904 0.0000 0.0000
# 5 0.0000 0.0000 0.0000 0.0000 1.0306 0.0000
# 6 0.0000 0.0000 0.0000 0.0000 0.0000 14.9894
#
#
#
# Elastic Compliance Matrix: (Units=1/GPa)
#
#
# Indices 1 2 3 4 5 6 
#
# 1 0.011922 0.003430 -0.002643 0.000000 0.000000 0.000000
# 2 0.003430 0.024895 -0.011227 0.000000 0.000000 0.000000
# 3 -0.002643 -0.011227 0.023322 0.000000 0.000000 0.000000
# 4 0.000000 0.000000 0.000000 0.030129 0.000000 0.000000
# 5 0.000000 0.000000 0.000000 0.000000 0.970277 0.000000
# 6 0.000000 0.000000 0.000000 0.000000 0.000000 0.066714
#
#
# Mechanical properties :
#
#
# Convention : Reuss Voigt Hill
#
# Bulk Modulus (GPa) = 25.47229 26.07185 25.77207
# Shear Modulus (GPa) = 4.30580 21.55269 12.92925
#
# Velocity S-wave (km/s) = 1.39364 3.11799 2.41496
# Velocity P-wave (km/s) = 3.75227 4.97221 4.40468
#
# Compressibility (1/GPa) = 0.03925834
#
# Stress axis : x y z
#
# Youngs Moduli (GPa) = 83.88163 40.16860 42.87861
#
# Poissons Ratio (x) = -0.13780 0.11333
# Poissons Ratio (y) = -0.28776 0.48141
# Poissons Ratio (z) = 0.22171 0.45099
#
# Static dielectric constant tensor:
#      x y z
#    x 1.830870 0.000000 0.000000 
#    y 0.000000 1.852570 0.000000 
#    z 0.000000 0.000000 1.890410 
# 
# From -- ./inp_files/4123.got.cif
#   From: 2010.05.17/outbox.cif.g08.bks.cpg/sg30_3_cif.got.tgz:4123.got - 2010.06.03 17:03:02.
