data_PCOD9342226
_publ_section_title
;
Structure prediction by ZEFSAII (Michael W. Deem and Ramdas Pophale) SiO2 
 PCOD9342226
Probable space group: P N C 2
;
_chemical_formula_sum "Si O2"
_cell_formula_units_Z 22
_cell_length_a 13.482488
_cell_length_b 5.234274
_cell_length_c 14.361179
_cell_angle_alpha 90.000000
_cell_angle_beta 90.000000
_cell_angle_gamma 90.000000
_cell_volume 1013.483286
_symmetry_space_group_name_H-M "P N C 2"
_symmetry_group_IT_number 30
_symmetry_cell_setting 'orthorhombic'
loop_
_space_group_symop_operation_xyz
x,y,z
-x,-y,z
-x,1/2+y,1/2+z
x,1/2-y,1/2+z
loop_
_atom_site_type_symbol
_atom_site_label
_atom_site_fract_x
_atom_site_fract_y
_atom_site_fract_z
Si Si1 0.241315 0.245264 0.301300
Si Si2 0.635214 0.255160 0.262084
Si Si3 0.439762 0.765935 0.068091
Si Si4 0.063238 0.252083 0.661663
Si Si5 0.500000 0.000000 0.885748
Si Si6 0.936344 0.748220 0.440146
O O1 0.309211 0.493621 0.299998
O O2 0.166734 0.251515 0.214152
O O3 0.168480 0.242505 0.389363
O O4 0.308368 0.995417 0.294481
O O5 0.638621 0.283401 0.149399
O O6 0.526417 0.282649 0.308949
O O7 0.500000 0.500000 0.053493
O O8 0.500000 0.000000 0.115058
O O9 0.421666 0.896728 0.967046
O O10 0.078266 0.262248 0.550949
O O11 0.000000 0.500000 0.689655
O O12 0.000000 0.000000 0.683528
O O13 0.000000 0.500000 0.411983
O O14 0.000000 0.000000 0.418175
#
# Coordination Sequence:
#
# PCOD9342226 Si02
#       6
#     4   4   4   4   2   4
#     4  12  25  38  64 100 132 163 212 283 326 378
#     4  12  26  42  67  97 134 165 224 278 331 397
#     4  10  23  44  71  90 121 175 224 265 326 410
#     4  10  21  40  65  88 127 176 213 256 323 394
#     4  10  28  44  74  88 130 182 224 266 352 394
#     4  10  21  40  65  90 130 174 218 257 320 404
#
# _framework density 21.707312000000002
#
# number of rings (size 3 to 8) (size 9 to 14) (size 15 to 20)
#    0.545    0.727    0.909    4.364    2.545    2.909 
#    0.000    0.000    0.000    0.000    0.000    0.000 
#    0.000    0.000    0.000    0.000    0.000    0.000 
#
# Total GULP energy -122527.501925 kJ/mol
# GULP energy per Si atom -5569.431906 kJ/mol
# Density = 2.165791 g / cm^3
# Si number density = 21.707312 Si / 1000 Ang^3
#
#
#
# Elastic Constant Matrix: (Units=GPa)
#
#
# Indices 1 2 3 4 5 6 
#
# 1 84.9798 71.2145 36.7708 0.0000 0.0000 0.0000
# 2 71.2145 190.9817 42.0320 0.0000 0.0000 0.0000
# 3 36.7708 42.0320 131.0953 0.0000 0.0000 0.0000
# 4 0.0000 0.0000 0.0000 -2.8504 0.0000 0.0000
# 5 0.0000 0.0000 0.0000 0.0000 11.5012 0.0000
# 6 0.0000 0.0000 0.0000 0.0000 0.0000 42.1777
#
#
#
# Elastic Compliance Matrix: (Units=1/GPa)
#
#
# Indices 1 2 3 4 5 6 
#
# 1 0.018258 -0.006112 -0.003161 0.000000 0.000000 0.000000
# 2 -0.006112 0.007680 -0.000748 0.000000 0.000000 0.000000
# 3 -0.003161 -0.000748 0.008755 0.000000 0.000000 0.000000
# 4 0.000000 0.000000 0.000000 -0.350826 0.000000 0.000000
# 5 0.000000 0.000000 0.000000 0.000000 0.086947 0.000000
# 6 0.000000 0.000000 0.000000 0.000000 0.000000 0.023709
#
#
# Mechanical properties :
#
#
# Convention : Reuss Voigt Hill
#
# Bulk Modulus (GPa) = 68.26395 78.56571 73.41483
# Shear Modulus (GPa) = -27.69286 27.30168 -0.19559
#
# Velocity S-wave (km/s) = -3.57562 3.55028 -0.30050
# Velocity P-wave (km/s) = 3.80381 7.28545 5.81148
#
# Compressibility (1/GPa) = 0.01464902
#
# Stress axis : x y z
#
# Youngs Moduli (GPa) = 54.77178 130.21030 114.22626
#
# Poissons Ratio (x) = 0.79588 0.36111
# Poissons Ratio (y) = 0.33478 0.08543
# Poissons Ratio (z) = 0.17315 0.09739
#
# Static dielectric constant tensor:
#      x y z
#    x 1.888080 0.000000 0.000000 
#    y 0.000000 1.705800 0.000000 
#    z 0.000000 0.000000 1.797900 
# 
# From -- ./inp_files/5391.got.cif
#   From: 2010.05.17/outbox.cif.g08.bks.cpg/sg30_3_cif.got.tgz:5391.got - 2010.06.03 17:03:02.
