data_PCOD9342471
_publ_section_title
;
Structure prediction by ZEFSAII (Michael W. Deem and Ramdas Pophale) SiO2 
 PCOD9342471
Probable space group: P N C 2
;
_chemical_formula_sum "Si O2"
_cell_formula_units_Z 30
_cell_length_a 11.930240
_cell_length_b 11.900882
_cell_length_c 9.255533
_cell_angle_alpha 90.000000
_cell_angle_beta 90.000000
_cell_angle_gamma 90.000000
_cell_volume 1314.104078
_symmetry_space_group_name_H-M "P N C 2"
_symmetry_group_IT_number 30
_symmetry_cell_setting 'orthorhombic'
loop_
_space_group_symop_operation_xyz
x,y,z
-x,-y,z
-x,1/2+y,1/2+z
x,1/2-y,1/2+z
loop_
_atom_site_type_symbol
_atom_site_label
_atom_site_fract_x
_atom_site_fract_y
_atom_site_fract_z
Si Si1 0.500000 0.000000 0.283391
Si Si2 0.613203 0.441061 0.293794
Si Si3 0.699220 0.201624 0.258482
Si Si4 0.150218 0.738359 0.511914
Si Si5 0.505549 0.349721 0.583804
Si Si6 0.010551 0.867123 0.753824
Si Si7 0.754367 0.657127 0.258867
Si Si8 0.641134 0.838182 0.464673
O O1 0.420552 0.059744 0.141500
O O2 0.408651 0.048640 0.402756
O O3 0.500000 0.500000 0.232525
O O4 0.670546 0.332537 0.221937
O O5 0.569243 0.384190 0.441198
O O6 0.703790 0.538690 0.314026
O O7 0.760871 0.194801 0.410117
O O8 0.577889 0.142294 0.237226
O O9 0.779610 0.165918 0.128164
O O10 0.068959 0.812737 0.612426
O O11 0.083880 0.666105 0.393629
O O12 0.455875 0.229944 0.550655
O O13 0.885105 0.824067 0.782020
O O14 0.000000 0.000000 0.735475
O O15 0.684073 0.753712 0.339997
O O16 0.734625 0.649769 0.086972
#
# Coordination Sequence:
#
# PCOD9342471 Si02
#       8
#     2   4   4   4   4   4   4   4
#     4  12  26  40  64 100 150 188 236 278 348 438
#     4  12  23  41  69 103 143 185 231 284 363 447
#     4  11  23  41  72  99 138 185 238 291 364 424
#     4  10  23  46  70 103 136 187 248 311 354 433
#     4  12  23  43  63 103 145 184 234 292 343 438
#     4  11  25  48  75 102 143 186 248 318 375 426
#     4  12  25  44  70  99 140 188 238 294 370 425
#     4  12  26  43  67 102 147 192 233 292 355 440
#
# _framework density 22.829241
#
# number of rings (size 3 to 8) (size 9 to 14) (size 15 to 20)
#    0.000    0.533    4.667    4.000    2.800    1.067 
#    0.000    2.667    0.000    0.000    0.000    0.000 
#    0.000    0.000    0.000    0.000    0.000    0.000 
#
# Total GULP energy -167274.364470 kJ/mol
# GULP energy per Si atom -5575.812149 kJ/mol
# Density = 2.277728 g / cm^3
# Si number density = 22.829241 Si / 1000 Ang^3
#
#
#
# Elastic Constant Matrix: (Units=GPa)
#
#
# Indices 1 2 3 4 5 6 
#
# 1 110.0484 21.9119 37.2765 0.0000 0.0000 0.0000
# 2 21.9119 83.8242 4.5825 0.0000 0.0000 0.0000
# 3 37.2765 4.5825 111.6344 0.0000 0.0000 0.0000
# 4 0.0000 0.0000 0.0000 35.0596 0.0000 0.0000
# 5 0.0000 0.0000 0.0000 0.0000 48.6928 0.0000
# 6 0.0000 0.0000 0.0000 0.0000 0.0000 33.1699
#
#
#
# Elastic Compliance Matrix: (Units=1/GPa)
#
#
# Indices 1 2 3 4 5 6 
#
# 1 0.010795 -0.002631 -0.003497 0.000000 0.000000 0.000000
# 2 -0.002631 0.012598 0.000361 0.000000 0.000000 0.000000
# 3 -0.003497 0.000361 0.010111 0.000000 0.000000 0.000000
# 4 0.000000 0.000000 0.000000 0.028523 0.000000 0.000000
# 5 0.000000 0.000000 0.000000 0.000000 0.020537 0.000000
# 6 0.000000 0.000000 0.000000 0.000000 0.000000 0.030148
#
#
# Mechanical properties :
#
#
# Convention : Reuss Voigt Hill
#
# Bulk Modulus (GPa) = 45.51413 48.11654 46.81534
# Shear Modulus (GPa) = 38.00348 39.50019 38.75184
#
# Velocity S-wave (km/s) = 4.08448 4.16413 4.12450
# Velocity P-wave (km/s) = 6.49800 6.65150 6.57520
#
# Compressibility (1/GPa) = 0.02197120
#
# Stress axis : x y z
#
# Youngs Moduli (GPa) = 92.63425 79.37985 98.90632
#
# Poissons Ratio (x) = 0.20883 0.34584
# Poissons Ratio (y) = 0.24370 -0.03574
# Poissons Ratio (z) = 0.32391 -0.02868
#
# Static dielectric constant tensor:
#      x y z
#    x 1.940890 0.000000 0.000000 
#    y 0.000000 2.378490 0.000000 
#    z 0.000000 0.000000 1.885010 
# 
# From -- ./inp_files/2464.got.cif
#   From: 2010.05.17/outbox.cif.g08.bks.cpg/sg30_2_cif.got.tgz:2464.got - 2010.06.03 17:03:02.
