data_PCOD9342823
_publ_section_title
;
Structure prediction by ZEFSAII (Michael W. Deem and Ramdas Pophale) SiO2 
 PCOD9342823
Probable space group: P M N 21
;
_chemical_formula_sum "Si O2"
_cell_formula_units_Z 32
_cell_length_a 7.524533
_cell_length_b 9.417306
_cell_length_c 21.896365
_cell_angle_alpha 90.000000
_cell_angle_beta 90.000000
_cell_angle_gamma 90.000000
_cell_volume 1551.594593
_symmetry_space_group_name_H-M "P M N 21"
_symmetry_group_IT_number 31
_symmetry_cell_setting 'orthorhombic'
loop_
_space_group_symop_operation_xyz
x,y,z
1/2-x,-y,1/2+z
-x,y,z
1/2+x,-y,1/2+z
loop_
_atom_site_type_symbol
_atom_site_label
_atom_site_fract_x
_atom_site_fract_y
_atom_site_fract_z
Si Si1 0.706453 0.318724 0.222660
Si Si2 0.211664 0.648625 0.221363
Si Si3 0.218218 0.845518 0.604259
Si Si4 0.211625 0.635081 0.853454
Si Si5 0.286649 0.651029 0.986730
Si Si6 0.213411 0.169678 0.601464
Si Si7 0.281934 0.323564 0.983896
Si Si8 0.701634 0.306943 0.852083
O O1 0.500000 0.277167 0.224650
O O2 0.716917 0.488842 0.213235
O O3 0.782523 0.237427 0.164515
O O4 0.777612 0.291997 0.291159
O O5 0.247473 0.743308 0.162684
O O6 0.282345 0.716527 0.284957
O O7 0.000000 0.633684 0.228974
O O8 0.272939 0.767015 0.542159
O O9 0.000000 0.841930 0.604257
O O10 0.276858 0.008327 0.605053
O O11 0.243526 0.705847 0.918772
O O12 0.299587 0.479425 0.856182
O O13 0.000000 0.611748 0.847057
O O14 0.500000 0.645998 0.991495
O O15 0.223900 0.487542 0.991346
O O16 0.218609 0.746438 0.042063
O O17 0.000000 0.162887 0.595750
O O18 0.500000 0.324187 0.981687
O O19 0.219594 0.265712 0.917787
O O20 0.500000 0.251445 0.850794
#
# Coordination Sequence:
#
# PCOD9342823 Si02
#       8
#     4   4   4   4   4   4   4   4
#     4   9  17  31  51  74  98 125 161 201 237 281
#     4  10  19  31  49  73 100 128 157 195 243 289
#     4   9  17  30  49  71  94 123 162 203 237 275
#     4   9  16  26  45  72  97 120 150 193 241 284
#     4   9  17  30  48  69  93 122 157 197 239 284
#     4  10  20  33  49  69  94 127 165 201 237 281
#     4   8  13  25  47  69  88 114 151 194 233 271
#     4   8  15  28  46  69  96 123 153 192 237 283
#
# _framework density 20.623944999999999
#
# number of rings (size 3 to 8) (size 9 to 14) (size 15 to 20)
#    0.000    3.000    0.000    2.250    0.000    3.500 
#    0.000    1.875    0.000    4.500    0.000    0.000 
#    0.000    0.000    0.000    0.000    0.000    0.000 
#
# Total GULP energy -178354.870213 kJ/mol
# GULP energy per Si atom -5573.589694 kJ/mol
# Density = 2.057700 g / cm^3
# Si number density = 20.623945 Si / 1000 Ang^3
#
#
#
# Elastic Constant Matrix: (Units=GPa)
#
#
# Indices 1 2 3 4 5 6 
#
# 1 55.0068 -3.5445 -3.6770 0.0000 0.0000 0.0000
# 2 -3.5445 75.8492 96.3179 0.0000 0.0000 0.0000
# 3 -3.6770 96.3179 263.3316 0.0000 0.0000 0.0000
# 4 0.0000 0.0000 0.0000 -6.7113 0.0000 0.0000
# 5 0.0000 0.0000 0.0000 0.0000 10.5796 0.0000
# 6 0.0000 0.0000 0.0000 0.0000 0.0000 3.3101
#
#
#
# Elastic Compliance Matrix: (Units=1/GPa)
#
#
# Indices 1 2 3 4 5 6 
#
# 1 0.018236 0.000987 -0.000107 0.000000 0.000000 0.000000
# 2 0.000987 0.024672 -0.009011 0.000000 0.000000 0.000000
# 3 -0.000107 -0.009011 0.007092 0.000000 0.000000 0.000000
# 4 0.000000 0.000000 0.000000 -0.149002 0.000000 0.000000
# 5 0.000000 0.000000 0.000000 0.000000 0.094521 0.000000
# 6 0.000000 0.000000 0.000000 0.000000 0.000000 0.302109
#
#
# Mechanical properties :
#
#
# Convention : Reuss Voigt Hill
#
# Bulk Modulus (GPa) = 29.63758 63.59782 46.61770
# Shear Modulus (GPa) = 15.37824 21.77509 18.57666
#
# Velocity S-wave (km/s) = 2.73362 3.25286 3.00448
# Velocity P-wave (km/s) = 4.93612 6.70909 5.88970
#
# Compressibility (1/GPa) = 0.03374095
#
# Stress axis : x y z
#
# Youngs Moduli (GPa) = 54.83637 40.53131 141.00893
#
# Poissons Ratio (x) = -0.04002 0.01502
# Poissons Ratio (y) = -0.05415 1.27056
# Poissons Ratio (z) = 0.00584 0.36521
#
# Static dielectric constant tensor:
#      x y z
#    x 1.789770 0.000000 0.000000 
#    y 0.000000 1.671580 0.000000 
#    z 0.000000 0.000000 1.789230 
# 
# From -- ./inp_files/6455.got.cif
#   From: 2010.05.17/outbox.cif.g08.bks.cpg/sg31_4_cif.got.tgz:6455.got - 2010.06.03 17:08:30.
