data_PCOD9342932
_publ_section_title
;
Structure prediction by ZEFSAII (Michael W. Deem and Ramdas Pophale) SiO2 
 PCOD9342932
Probable space group: P M N 21
;
_chemical_formula_sum "Si O2"
_cell_formula_units_Z 28
_cell_length_a 12.472743
_cell_length_b 10.998600
_cell_length_c 11.176351
_cell_angle_alpha 90.000000
_cell_angle_beta 90.000000
_cell_angle_gamma 90.000000
_cell_volume 1533.202131
_symmetry_space_group_name_H-M "P M N 21"
_symmetry_group_IT_number 31
_symmetry_cell_setting 'orthorhombic'
loop_
_space_group_symop_operation_xyz
x,y,z
1/2-x,-y,1/2+z
-x,y,z
1/2+x,-y,1/2+z
loop_
_atom_site_type_symbol
_atom_site_label
_atom_site_fract_x
_atom_site_fract_y
_atom_site_fract_z
Si Si1 0.116010 0.526596 0.432040
Si Si2 0.754600 0.659224 0.061876
Si Si3 0.374276 0.830096 0.236202
Si Si4 0.379505 0.099762 0.137029
Si Si5 0.622703 0.323145 0.318057
Si Si6 0.221327 0.255267 0.983631
Si Si7 0.680145 0.566994 0.688658
O O1 0.155022 0.425555 0.524158
O O2 0.201433 0.636341 0.433843
O O3 0.114478 0.451690 0.308782
O O4 0.000000 0.577402 0.462109
O O5 0.708027 0.757321 0.151696
O O6 0.831588 0.561371 0.123657
O O7 0.815969 0.701153 0.942601
O O8 0.500000 0.800781 0.213746
O O9 0.347177 0.796183 0.373704
O O10 0.358443 0.970833 0.199590
O O11 0.500000 0.095014 0.084126
O O12 0.380018 0.201181 0.240431
O O13 0.293615 0.148354 0.041154
O O14 0.500000 0.366002 0.335031
O O15 0.698644 0.412972 0.241027
O O16 0.161035 0.324281 0.094215
#
# Coordination Sequence:
#
# PCOD9342932 Si02
#       7
#     4   4   4   4   4   4   4
#     4  10  19  34  56  80 110 142 180 226 276 333
#     4  10  20  35  51  84 112 142 177 223 278 326
#     4  11  23  37  56  82 112 148 186 226 280 332
#     4   9  20  38  59  81 105 144 189 228 274 324
#     4   9  19  36  59  80 107 145 188 227 269 326
#     4  10  20  37  58  79 110 148 183 229 270 328
#     4   9  19  35  51  82 112 139 181 219 281 323
#
# _framework density 18.262430999999999
#
# number of rings (size 3 to 8) (size 9 to 14) (size 15 to 20)
#    0.000    2.286    1.429    0.857    2.000    5.143 
#    0.000    0.000    0.000    1.714    0.000    0.000 
#    0.000    0.000    0.000    0.000    0.000    0.000 
#
# Total GULP energy -155918.687128 kJ/mol
# GULP energy per Si atom -5568.524540 kJ/mol
# Density = 1.822087 g / cm^3
# Si number density = 18.262431 Si / 1000 Ang^3
#
#
#
# Elastic Constant Matrix: (Units=GPa)
#
#
# Indices 1 2 3 4 5 6 
#
# 1 41.9395 15.5540 14.3528 0.0000 0.0000 0.0000
# 2 15.5540 51.0727 7.9412 0.0000 0.0000 0.0000
# 3 14.3528 7.9412 85.9261 0.0000 0.0000 0.0000
# 4 0.0000 0.0000 0.0000 25.7622 0.0000 0.0000
# 5 0.0000 0.0000 0.0000 0.0000 8.7166 0.0000
# 6 0.0000 0.0000 0.0000 0.0000 0.0000 11.0273
#
#
#
# Elastic Compliance Matrix: (Units=1/GPa)
#
#
# Indices 1 2 3 4 5 6 
#
# 1 0.028152 -0.007957 -0.003967 0.000000 0.000000 0.000000
# 2 -0.007957 0.022114 -0.000715 0.000000 0.000000 0.000000
# 3 -0.003967 -0.000715 0.012367 0.000000 0.000000 0.000000
# 4 0.000000 0.000000 0.000000 0.038817 0.000000 0.000000
# 5 0.000000 0.000000 0.000000 0.000000 0.114724 0.000000
# 6 0.000000 0.000000 0.000000 0.000000 0.000000 0.090684
#
#
# Mechanical properties :
#
#
# Convention : Reuss Voigt Hill
#
# Bulk Modulus (GPa) = 26.76947 28.29270 27.53108
# Shear Modulus (GPa) = 14.51013 18.50724 16.50869
#
# Velocity S-wave (km/s) = 2.82181 3.18686 3.00987
# Velocity P-wave (km/s) = 5.03059 5.39141 5.21412
#
# Compressibility (1/GPa) = 0.03735599
#
# Stress axis : x y z
#
# Youngs Moduli (GPa) = 35.52089 45.21967 80.86292
#
# Poissons Ratio (x) = 0.35981 0.32079
# Poissons Ratio (y) = 0.28263 0.05779
# Poissons Ratio (z) = 0.14092 0.03232
#
# Static dielectric constant tensor:
#      x y z
#    x 1.676550 0.000000 0.000000 
#    y 0.000000 1.603610 0.000000 
#    z 0.000000 0.000000 1.680170 
# 
# From -- ./inp_files/4002.got.cif
#   From: 2010.05.17/outbox.cif.g08.bks.cpg/sg31_3_cif.got.tgz:4002.got - 2010.06.03 17:08:30.
