data_PCOD9342695
_publ_section_title
;
Structure prediction by ZEFSAII (Michael W. Deem and Ramdas Pophale) SiO2 
 PCOD9342695
Probable space group: P M N 21
;
_chemical_formula_sum "Si O2"
_cell_formula_units_Z 32
_cell_length_a 9.205981
_cell_length_b 21.127371
_cell_length_c 7.063646
_cell_angle_alpha 90.000000
_cell_angle_beta 90.000000
_cell_angle_gamma 90.000000
_cell_volume 1373.866263
_symmetry_space_group_name_H-M "P M N 21"
_symmetry_group_IT_number 31
_symmetry_cell_setting 'orthorhombic'
loop_
_space_group_symop_operation_xyz
x,y,z
1/2-x,-y,1/2+z
-x,y,z
1/2+x,-y,1/2+z
loop_
_atom_site_type_symbol
_atom_site_label
_atom_site_fract_x
_atom_site_fract_y
_atom_site_fract_z
Si Si1 0.166793 0.797241 0.760840
Si Si2 0.335654 0.449675 0.076285
Si Si3 0.663355 0.917337 0.859637
Si Si4 0.664449 0.158272 0.815655
Si Si5 0.675474 0.296127 0.757797
Si Si6 0.663524 0.424108 0.629687
Si Si7 0.338550 0.957797 0.422667
Si Si8 0.673385 0.673440 0.654782
O O1 0.236188 0.855750 0.872980
O O2 0.164490 0.819553 0.538084
O O3 0.259551 0.732993 0.766191
O O4 0.000000 0.784785 0.815122
O O5 0.500000 0.451870 0.146797
O O6 0.266127 0.518951 0.072395
O O7 0.243978 0.396151 0.186777
O O8 0.340980 0.429211 0.858016
O O9 0.500000 0.907030 0.930860
O O10 0.652042 0.930485 0.633984
O O11 0.736431 0.981343 0.932841
O O12 0.500000 0.138001 0.770211
O O13 0.770630 0.098977 0.799506
O O14 0.700569 0.223206 0.707414
O O15 0.500000 0.300427 0.804099
O O16 0.705783 0.350841 0.605051
O O17 0.776109 0.310243 0.939116
O O18 0.500000 0.434737 0.560271
O O19 0.500000 0.975999 0.357985
O O20 0.500000 0.670460 0.672270
#
# Coordination Sequence:
#
# PCOD9342695 Si02
#       8
#     4   4   4   4   4   4   4   4
#     4   9  16  28  46  68  95 124 156 197 242 283
#     4  10  20  33  49  71  99 129 161 199 242 287
#     4  10  20  33  50  73  99 128 163 200 239 286
#     4   8  14  26  45  67  92 123 155 192 237 281
#     4   8  15  28  45  67  95 124 156 197 242 283
#     4   9  18  32  49  71  98 126 159 199 241 289
#     4  10  20  32  48  72  99 127 160 199 242 287
#     4  10  17  26  44  69  95 123 158 199 239 280
#
# _framework density 23.291931999999999
#
# number of rings (size 3 to 8) (size 9 to 14) (size 15 to 20)
#    0.000    2.750    0.000    4.125    0.000    7.000 
#    0.000    0.000    0.000    1.500    0.000    1.750 
#    0.000    0.000    0.000    0.000    0.000    0.000 
#
# Total GULP energy -178855.682013 kJ/mol
# GULP energy per Si atom -5589.240063 kJ/mol
# Density = 2.323892 g / cm^3
# Si number density = 23.291932 Si / 1000 Ang^3
#
#
#
# Elastic Constant Matrix: (Units=GPa)
#
#
# Indices 1 2 3 4 5 6 
#
# 1 161.2775 101.8501 2.8787 0.0000 0.0000 0.0000
# 2 101.8501 174.1003 23.1024 0.0000 0.0000 0.0000
# 3 2.8787 23.1024 54.7172 0.0000 0.0000 0.0000
# 4 0.0000 0.0000 0.0000 40.4836 0.0000 0.0000
# 5 0.0000 0.0000 0.0000 0.0000 12.7259 0.0000
# 6 0.0000 0.0000 0.0000 0.0000 0.0000 33.7928
#
#
#
# Elastic Compliance Matrix: (Units=1/GPa)
#
#
# Indices 1 2 3 4 5 6 
#
# 1 0.010050 -0.006154 0.002070 0.000000 0.000000 0.000000
# 2 -0.006154 0.009853 -0.003836 0.000000 0.000000 0.000000
# 3 0.002070 -0.003836 0.019787 0.000000 0.000000 0.000000
# 4 0.000000 0.000000 0.000000 0.024701 0.000000 0.000000
# 5 0.000000 0.000000 0.000000 0.000000 0.078580 0.000000
# 6 0.000000 0.000000 0.000000 0.000000 0.000000 0.029592
#
#
# Mechanical properties :
#
#
# Convention : Reuss Voigt Hill
#
# Bulk Modulus (GPa) = 41.93195 71.75081 56.84138
# Shear Modulus (GPa) = 25.46431 34.88471 30.17451
#
# Velocity S-wave (km/s) = 3.31005 3.87423 3.60320
# Velocity P-wave (km/s) = 5.71405 7.13336 6.46279
#
# Compressibility (1/GPa) = 0.02384816
#
# Stress axis : x y z
#
# Youngs Moduli (GPa) = 99.50404 101.49261 50.53912
#
# Poissons Ratio (x) = 0.62457 -0.10459
# Poissons Ratio (y) = 0.61233 0.19388
# Poissons Ratio (z) = -0.20593 0.38936
#
# Static dielectric constant tensor:
#      x y z
#    x 1.817010 0.000000 0.000000 
#    y 0.000000 1.880400 0.000000 
#    z 0.000000 0.000000 1.989520 
# 
# From -- ./inp_files/3772.got.cif
#   From: 2010.05.17/outbox.cif.g08.bks.cpg/sg31_2_cif.got.tgz:3772.got - 2010.06.03 17:08:30.
