data_PCOD9342348
_publ_section_title
;
Structure prediction by ZEFSAII (Michael W. Deem and Ramdas Pophale) SiO2 
 PCOD9342348
Probable space group: P N C 2
;
_chemical_formula_sum "Si O2"
_cell_formula_units_Z 30
_cell_length_a 11.723224
_cell_length_b 7.925179
_cell_length_c 14.440344
_cell_angle_alpha 90.000000
_cell_angle_beta 90.000000
_cell_angle_gamma 90.000000
_cell_volume 1341.632847
_symmetry_space_group_name_H-M "P N C 2"
_symmetry_group_IT_number 30
_symmetry_cell_setting 'orthorhombic'
loop_
_space_group_symop_operation_xyz
x,y,z
-x,-y,z
-x,1/2+y,1/2+z
x,1/2-y,1/2+z
loop_
_atom_site_type_symbol
_atom_site_label
_atom_site_fract_x
_atom_site_fract_y
_atom_site_fract_z
Si Si1 0.324626 0.409256 0.395460
Si Si2 0.112238 0.598412 0.808263
Si Si3 0.550551 0.279148 0.473095
Si Si4 0.500000 0.500000 0.647425
Si Si5 0.942694 0.314614 0.129996
Si Si6 0.284695 0.321309 0.726366
Si Si7 0.836976 0.772297 0.032309
Si Si8 0.767382 0.402780 0.984243
O O1 0.420114 0.281354 0.439805
O O2 0.385934 0.589038 0.404128
O O3 0.294502 0.336764 0.295403
O O4 0.215366 0.407801 0.462660
O O5 0.074669 0.724131 0.727252
O O6 0.199735 0.460947 0.767456
O O7 0.173647 0.681802 0.895338
O O8 0.000000 0.500000 0.840539
O O9 0.552503 0.364768 0.574967
O O10 0.631884 0.118423 0.477853
O O11 0.406046 0.408588 0.708922
O O12 0.000000 0.500000 0.140925
O O13 0.032910 0.216015 0.064861
O O14 0.822768 0.328004 0.077070
O O15 0.235467 0.271367 0.626786
O O16 0.811262 0.594464 0.983166
#
# Coordination Sequence:
#
# PCOD9342348 Si02
#       8
#     4   4   4   2   4   4   4   4
#     4  10  23  42  65  95 130 174 216 280 325 404
#     4  12  24  43  69  97 128 177 221 271 332 401
#     4  10  22  46  62  91 138 169 222 272 336 399
#     4  10  22  42  66  94 132 170 220 280 328 396
#     4  10  24  42  65  97 135 167 218 277 327 392
#     4  12  23  40  71  97 132 176 227 275 340 400
#     4  11  21  43  65  92 133 171 215 277 330 391
#     4  11  25  42  67  96 132 172 218 275 332 400
#
# _framework density 22.360810000000001
#
# number of rings (size 3 to 8) (size 9 to 14) (size 15 to 20)
#    0.000    1.333    5.333    2.000    1.867    2.667 
#    4.800    0.667    0.000    0.000    0.000    0.000 
#    0.000    0.000    0.000    0.000    0.000    0.000 
#
# Total GULP energy -167732.032673 kJ/mol
# GULP energy per Si atom -5591.067756 kJ/mol
# Density = 2.230992 g / cm^3
# Si number density = 22.360810 Si / 1000 Ang^3
#
#
#
# Elastic Constant Matrix: (Units=GPa)
#
#
# Indices 1 2 3 4 5 6 
#
# 1 59.6605 11.2771 1.0582 0.0000 0.0000 0.0000
# 2 11.2771 42.3681 12.0570 0.0000 0.0000 0.0000
# 3 1.0582 12.0570 79.8306 0.0000 0.0000 0.0000
# 4 0.0000 0.0000 0.0000 27.6066 0.0000 0.0000
# 5 0.0000 0.0000 0.0000 0.0000 -7.9653 0.0000
# 6 0.0000 0.0000 0.0000 0.0000 0.0000 39.1721
#
#
#
# Elastic Compliance Matrix: (Units=1/GPa)
#
#
# Indices 1 2 3 4 5 6 
#
# 1 0.017668 -0.004844 0.000497 0.000000 0.000000 0.000000
# 2 -0.004844 0.025991 -0.003861 0.000000 0.000000 0.000000
# 3 0.000497 -0.003861 0.013103 0.000000 0.000000 0.000000
# 4 0.000000 0.000000 0.000000 0.036223 0.000000 0.000000
# 5 0.000000 0.000000 0.000000 0.000000 -0.125544 0.000000
# 6 0.000000 0.000000 0.000000 0.000000 0.000000 0.025528
#
#
# Mechanical properties :
#
#
# Convention : Reuss Voigt Hill
#
# Bulk Modulus (GPa) = 24.78555 25.62708 25.20632
# Shear Modulus (GPa) = 218.96437 22.26046 120.61241
#
# Velocity S-wave (km/s) = 9.90635 3.15860 7.35230
# Velocity P-wave (km/s) = 11.91454 4.97875 9.13083
#
# Compressibility (1/GPa) = 0.04034609
#
# Stress axis : x y z
#
# Youngs Moduli (GPa) = 56.59833 38.47496 76.31779
#
# Poissons Ratio (x) = 0.18639 -0.03796
# Poissons Ratio (y) = 0.27418 0.29468
# Poissons Ratio (z) = -0.02816 0.14856
#
# Static dielectric constant tensor:
#      x y z
#    x 1.847960 0.000000 0.000000 
#    y 0.000000 1.890040 0.000000 
#    z 0.000000 0.000000 1.819390 
# 
# From -- ./inp_files/5492.got.cif
#   From: 2010.05.17/outbox.cif.g08.bks.cpg/sg30_3_cif.got.tgz:5492.got - 2010.06.03 17:03:02.
