data_PCOD9342151
_publ_section_title
;
Structure prediction by ZEFSAII (Michael W. Deem and Ramdas Pophale) SiO2 
 PCOD9342151
Probable space group: P N C 2
;
_chemical_formula_sum "Si O2"
_cell_formula_units_Z 32
_cell_length_a 6.092934
_cell_length_b 18.371607
_cell_length_c 13.781107
_cell_angle_alpha 90.000000
_cell_angle_beta 90.000000
_cell_angle_gamma 90.000000
_cell_volume 1542.615622
_symmetry_space_group_name_H-M "P N C 2"
_symmetry_group_IT_number 30
_symmetry_cell_setting 'orthorhombic'
loop_
_space_group_symop_operation_xyz
x,y,z
-x,-y,z
-x,1/2+y,1/2+z
x,1/2-y,1/2+z
loop_
_atom_site_type_symbol
_atom_site_label
_atom_site_fract_x
_atom_site_fract_y
_atom_site_fract_z
Si Si1 0.297918 0.837668 0.459070
Si Si2 0.016693 0.255409 0.579623
Si Si3 0.250190 0.504279 0.966721
Si Si4 0.240841 0.995354 0.825116
Si Si5 0.320362 0.239498 0.906300
Si Si6 0.379203 0.841391 0.766977
Si Si7 0.749562 0.608468 0.144481
Si Si8 0.933490 0.203744 0.274759
O O1 0.261891 0.914284 0.509729
O O2 0.539414 0.810548 0.434738
O O3 0.175634 0.847729 0.354672
O O4 0.188193 0.770160 0.514852
O O5 0.193595 0.282932 0.502501
O O6 0.095159 0.178034 0.626310
O O7 0.979778 0.314304 0.663460
O O8 0.500000 0.500000 0.918151
O O9 0.000000 0.500000 0.921548
O O10 0.249576 0.443791 0.051296
O O11 0.243795 0.913730 0.783591
O O12 0.500000 0.000000 0.863457
O O13 0.225245 0.054596 0.737530
O O14 0.000000 0.000000 0.878414
O O15 0.461829 0.176009 0.858186
O O16 0.151114 0.265700 0.824815
O O17 0.521053 0.852128 0.670767
O O18 0.235362 0.769945 0.763336
#
# Coordination Sequence:
#
# PCOD9342151 Si02
#       8
#     4   4   4   4   4   4   4   4
#     4  10  24  39  56  89 136 167 217 265 326 396
#     4  11  21  36  62  86 127 169 222 262 320 392
#     4  12  24  37  58  92 132 169 201 258 336 401
#     4  10  21  32  51  83 120 157 202 236 311 395
#     4  10  22  38  55  85 122 171 216 273 310 386
#     4  10  21  36  54  81 128 167 212 258 321 395
#     4  11  21  35  57  92 130 166 203 257 333 407
#     4  10  22  38  59  82 125 176 221 262 319 384
#
# _framework density 20.743988999999999
#
# number of rings (size 3 to 8) (size 9 to 14) (size 15 to 20)
#    0.000    1.500    2.500    3.000    8.750    0.000 
#    0.000    0.000    0.000    0.000    0.000    0.000 
#   45.000    0.000    0.000    0.000    0.000    0.000 
#
# Total GULP energy -178178.114607 kJ/mol
# GULP energy per Si atom -5568.066081 kJ/mol
# Density = 2.069677 g / cm^3
# Si number density = 20.743989 Si / 1000 Ang^3
#
#
#
# Elastic Constant Matrix: (Units=GPa)
#
#
# Indices 1 2 3 4 5 6 
#
# 1 126.8617 10.8167 27.5837 0.0000 0.0000 0.0000
# 2 10.8167 42.6840 -0.3014 0.0000 0.0000 0.0000
# 3 27.5837 -0.3014 76.9477 0.0000 0.0000 0.0000
# 4 0.0000 0.0000 0.0000 10.2863 0.0000 0.0000
# 5 0.0000 0.0000 0.0000 0.0000 23.6094 0.0000
# 6 0.0000 0.0000 0.0000 0.0000 0.0000 21.7754
#
#
#
# Elastic Compliance Matrix: (Units=1/GPa)
#
#
# Indices 1 2 3 4 5 6 
#
# 1 0.008758 -0.002242 -0.003148 0.000000 0.000000 0.000000
# 2 -0.002242 0.024002 0.000898 0.000000 0.000000 0.000000
# 3 -0.003148 0.000898 0.014128 0.000000 0.000000 0.000000
# 4 0.000000 0.000000 0.000000 0.097217 0.000000 0.000000
# 5 0.000000 0.000000 0.000000 0.000000 0.042356 0.000000
# 6 0.000000 0.000000 0.000000 0.000000 0.000000 0.045923
#
#
# Mechanical properties :
#
#
# Convention : Reuss Voigt Hill
#
# Bulk Modulus (GPa) = 26.38264 35.85459 31.11862
# Shear Modulus (GPa) = 19.68467 25.02716 22.35591
#
# Velocity S-wave (km/s) = 3.08382 3.47721 3.28640
# Velocity P-wave (km/s) = 5.04239 5.78300 5.42535
#
# Compressibility (1/GPa) = 0.03790371
#
# Stress axis : x y z
#
# Youngs Moduli (GPa) = 114.17739 41.66246 70.78151
#
# Poissons Ratio (x) = 0.09340 0.22285
# Poissons Ratio (y) = 0.25595 -0.06353
# Poissons Ratio (z) = 0.35948 -0.03740
#
# Static dielectric constant tensor:
#      x y z
#    x 1.913060 0.000000 0.000000 
#    y 0.000000 1.710180 0.000000 
#    z 0.000000 0.000000 1.806470 
# 
# From -- ./inp_files/4772.got.cif
#   From: 2010.05.17/outbox.cif.g08.bks.cpg/sg30_3_cif.got.tgz:4772.got - 2010.06.03 17:03:02.
