data_PCOD9342573
_publ_section_title
;
Structure prediction by ZEFSAII (Michael W. Deem and Ramdas Pophale) SiO2 
 PCOD9342573
Probable space group: P N C 2
;
_chemical_formula_sum "Si O2"
_cell_formula_units_Z 22
_cell_length_a 7.399859
_cell_length_b 23.024787
_cell_length_c 5.295065
_cell_angle_alpha 90.000000
_cell_angle_beta 90.000000
_cell_angle_gamma 90.000000
_cell_volume 902.174114
_symmetry_space_group_name_H-M "P N C 2"
_symmetry_group_IT_number 30
_symmetry_cell_setting 'orthorhombic'
loop_
_space_group_symop_operation_xyz
x,y,z
-x,-y,z
-x,1/2+y,1/2+z
x,1/2-y,1/2+z
loop_
_atom_site_type_symbol
_atom_site_label
_atom_site_fract_x
_atom_site_fract_y
_atom_site_fract_z
Si Si1 0.210101 0.029790 0.670950
Si Si2 0.676066 0.864579 0.372380
Si Si3 0.283893 0.581675 0.853303
Si Si4 0.938605 0.712974 0.136195
Si Si5 0.971344 0.881894 0.996301
Si Si6 0.500000 0.500000 0.492099
O O1 0.222139 0.074669 0.441832
O O2 0.783326 0.036472 0.572184
O O3 0.399447 0.042808 0.807387
O O4 0.075783 0.055687 0.878574
O O5 0.461997 0.877319 0.383233
O O6 0.741113 0.815216 0.568548
O O7 0.785025 0.853405 0.109391
O O8 0.359486 0.534183 0.656068
O O9 0.121917 0.614027 0.711445
O O10 0.976916 0.757782 0.365549
O O11 0.037083 0.656688 0.257285
#
# Coordination Sequence:
#
# PCOD9342573 Si02
#       6
#     4   4   4   4   4   2
#     4  11  22  42  63 101 151 200 241 295 365 448
#     4  11  22  44  73 104 142 192 246 305 378 453
#     4  12  24  43  66 109 153 196 252 306 362 474
#     4  11  24  50  80 106 143 192 251 335 398 445
#     4  11  26  43  75 108 148 202 256 300 388 462
#     4  12  20  38  62  96 152 200 230 294 346 438
#
# _framework density 24.385538
#
# number of rings (size 3 to 8) (size 9 to 14) (size 15 to 20)
#    0.000    0.727    7.273    0.000    0.000    7.273 
#    0.000    1.818    0.000    0.000    0.000    0.000 
#    0.000    0.000    0.000    0.000    0.000    0.000 
#
# Total GULP energy -122498.872764 kJ/mol
# GULP energy per Si atom -5568.130580 kJ/mol
# Density = 2.433004 g / cm^3
# Si number density = 24.385538 Si / 1000 Ang^3
#
#
#
# Elastic Constant Matrix: (Units=GPa)
#
#
# Indices 1 2 3 4 5 6 
#
# 1 104.1337 16.8195 41.5832 0.0000 0.0000 0.0000
# 2 16.8195 82.2703 27.2182 0.0000 0.0000 0.0000
# 3 41.5832 27.2182 146.6513 0.0000 0.0000 0.0000
# 4 0.0000 0.0000 0.0000 52.1368 0.0000 0.0000
# 5 0.0000 0.0000 0.0000 0.0000 45.2874 0.0000
# 6 0.0000 0.0000 0.0000 0.0000 0.0000 26.0480
#
#
#
# Elastic Compliance Matrix: (Units=1/GPa)
#
#
# Indices 1 2 3 4 5 6 
#
# 1 0.010957 -0.001291 -0.002867 0.000000 0.000000 0.000000
# 2 -0.001291 0.013102 -0.002066 0.000000 0.000000 0.000000
# 3 -0.002867 -0.002066 0.008015 0.000000 0.000000 0.000000
# 4 0.000000 0.000000 0.000000 0.019180 0.000000 0.000000
# 5 0.000000 0.000000 0.000000 0.000000 0.022081 0.000000
# 6 0.000000 0.000000 0.000000 0.000000 0.000000 0.038391
#
#
# Mechanical properties :
#
#
# Convention : Reuss Voigt Hill
#
# Bulk Modulus (GPa) = 50.95276 56.03301 53.49288
# Shear Modulus (GPa) = 38.25072 41.19007 39.72039
#
# Velocity S-wave (km/s) = 3.96483 4.11435 4.04028
# Velocity P-wave (km/s) = 6.47301 6.75265 6.61431
#
# Compressibility (1/GPa) = 0.01962602
#
# Stress axis : x y z
#
# Youngs Moduli (GPa) = 91.26989 76.32154 124.76252
#
# Poissons Ratio (x) = 0.09856 0.35770
# Poissons Ratio (y) = 0.11787 0.25771
# Poissons Ratio (z) = 0.26168 0.15765
#
# Static dielectric constant tensor:
#      x y z
#    x 1.987380 0.000000 0.000000 
#    y 0.000000 2.069520 0.000000 
#    z 0.000000 0.000000 2.010750 
# 
# From -- ./inp_files/241.got.cif
#   From: 2010.05.17/outbox.cif.g08.bks.cpg/sg30_1_cif.got.tgz:241.got - 2010.06.03 17:03:02.
