data_PCOD9342031
_publ_section_title
;
Structure prediction by ZEFSAII (Michael W. Deem and Ramdas Pophale) SiO2 
 PCOD9342031
Probable space group: P N C 2
;
_chemical_formula_sum "Si O2"
_cell_formula_units_Z 30
_cell_length_a 8.344979
_cell_length_b 21.116460
_cell_length_c 9.145989
_cell_angle_alpha 90.000000
_cell_angle_beta 90.000000
_cell_angle_gamma 90.000000
_cell_volume 1611.673396
_symmetry_space_group_name_H-M "P N C 2"
_symmetry_group_IT_number 30
_symmetry_cell_setting 'orthorhombic'
loop_
_space_group_symop_operation_xyz
x,y,z
-x,-y,z
-x,1/2+y,1/2+z
x,1/2-y,1/2+z
loop_
_atom_site_type_symbol
_atom_site_label
_atom_site_fract_x
_atom_site_fract_y
_atom_site_fract_z
Si Si1 0.308764 0.117040 0.375000
Si Si2 0.463206 0.262484 0.017500
Si Si3 0.154626 0.302949 0.663740
Si Si4 0.500000 0.000000 0.440419
Si Si5 0.250586 0.954427 0.680319
Si Si6 0.011435 0.299479 0.361652
Si Si7 0.885030 0.913540 0.671325
Si Si8 0.646511 0.176380 0.791046
O O1 0.411088 0.180128 0.410685
O O2 0.207080 0.130778 0.231077
O O3 0.202740 0.104729 0.520646
O O4 0.418136 0.056144 0.353231
O O5 0.306308 0.233486 0.094592
O O6 0.573506 0.294337 0.142244
O O7 0.546675 0.206899 0.924006
O O8 0.027015 0.305718 0.534506
O O9 0.087533 0.264434 0.801177
O O10 0.366261 0.967573 0.543902
O O11 0.338521 0.900278 0.776043
O O12 0.072599 0.928798 0.640677
O O13 0.206319 0.025065 0.737076
O O14 0.110491 0.355715 0.283772
O O15 0.829119 0.302146 0.311613
#
# Coordination Sequence:
#
# PCOD9342031 Si02
#       8
#     4   4   4   2   4   4   4   4
#     4  11  21  37  59  85 115 153 199 241 292 354
#     4  12  21  36  57  86 119 152 190 247 298 353
#     4  12  22  38  58  84 117 158 195 237 293 363
#     4  10  20  36  60  86 116 150 192 240 296 350
#     4   9  19  35  61  86 115 151 199 242 286 351
#     4  11  21  37  58  84 115 153 198 242 293 351
#     4   9  19  37  60  86 110 152 202 246 283 345
#     4  11  23  37  57  90 119 151 193 249 298 344
#
# _framework density 18.614193
#
# number of rings (size 3 to 8) (size 9 to 14) (size 15 to 20)
#    0.000    1.333    5.333    0.800    0.000    1.067 
#    0.000    1.333    0.000   11.200    0.000    0.000 
#    0.000    0.000    0.000    0.000    0.000    0.000 
#
# Total GULP energy -167341.215746 kJ/mol
# GULP energy per Si atom -5578.040525 kJ/mol
# Density = 1.857183 g / cm^3
# Si number density = 18.614193 Si / 1000 Ang^3
#
#
#
# Elastic Constant Matrix: (Units=GPa)
#
#
# Indices 1 2 3 4 5 6 
#
# 1 30.8060 4.7300 -4.6711 0.0000 0.0000 0.0000
# 2 4.7300 51.8587 -11.9756 0.0000 0.0000 0.0000
# 3 -4.6711 -11.9756 40.4039 0.0000 0.0000 0.0000
# 4 0.0000 0.0000 0.0000 30.4868 0.0000 0.0000
# 5 0.0000 0.0000 0.0000 0.0000 21.8483 0.0000
# 6 0.0000 0.0000 0.0000 0.0000 0.0000 28.8652
#
#
#
# Elastic Compliance Matrix: (Units=1/GPa)
#
#
# Indices 1 2 3 4 5 6 
#
# 1 0.033295 -0.002306 0.003166 0.000000 0.000000 0.000000
# 2 -0.002306 0.020860 0.005916 0.000000 0.000000 0.000000
# 3 0.003166 0.005916 0.026870 0.000000 0.000000 0.000000
# 4 0.000000 0.000000 0.000000 0.032801 0.000000 0.000000
# 5 0.000000 0.000000 0.000000 0.000000 0.045770 0.000000
# 6 0.000000 0.000000 0.000000 0.000000 0.000000 0.034644
#
#
# Mechanical properties :
#
#
# Convention : Reuss Voigt Hill
#
# Bulk Modulus (GPa) = 10.57338 11.02614 10.79976
# Shear Modulus (GPa) = 23.56126 25.23908 24.40017
#
# Velocity S-wave (km/s) = 3.56162 3.68626 3.62448
# Velocity P-wave (km/s) = 4.75459 4.90452 4.83014
#
# Compressibility (1/GPa) = 0.09457712
#
# Stress axis : x y z
#
# Youngs Moduli (GPa) = 30.03426 47.93939 37.21678
#
# Poissons Ratio (x) = 0.11054 -0.11782
# Poissons Ratio (y) = 0.06925 -0.22018
# Poissons Ratio (z) = -0.09509 -0.28362
#
# Static dielectric constant tensor:
#      x y z
#    x 1.651650 0.000000 0.000000 
#    y 0.000000 1.671180 0.000000 
#    z 0.000000 0.000000 1.614750 
# 
# From -- ./inp_files/2085.got.cif
#   From: 2010.05.17/outbox.cif.g08.bks.cpg/sg30_2_cif.got.tgz:2085.got - 2010.06.03 17:03:02.
