data_PCOD9342799
_publ_section_title
;
Structure prediction by ZEFSAII (Michael W. Deem and Ramdas Pophale) SiO2 
 PCOD9342799
Probable space group: P M N 21
;
_chemical_formula_sum "Si O2"
_cell_formula_units_Z 32
_cell_length_a 15.190617
_cell_length_b 9.716661
_cell_length_c 10.824095
_cell_angle_alpha 90.000000
_cell_angle_beta 90.000000
_cell_angle_gamma 90.000000
_cell_volume 1597.658890
_symmetry_space_group_name_H-M "P M N 21"
_symmetry_group_IT_number 31
_symmetry_cell_setting 'orthorhombic'
loop_
_space_group_symop_operation_xyz
x,y,z
1/2-x,-y,1/2+z
-x,y,z
1/2+x,-y,1/2+z
loop_
_atom_site_type_symbol
_atom_site_label
_atom_site_fract_x
_atom_site_fract_y
_atom_site_fract_z
Si Si1 0.343318 0.066106 0.895720
Si Si2 0.165503 0.141075 0.020977
Si Si3 0.102748 0.846585 0.125104
Si Si4 0.276712 0.377373 0.491374
Si Si5 0.904286 0.397777 0.911012
Si Si6 0.246110 0.180869 0.276837
Si Si7 0.601748 0.678620 0.130501
Si Si8 0.401852 0.004678 0.162049
O O1 0.383297 0.131433 0.772376
O O2 0.319729 0.909053 0.860680
O O3 0.250122 0.132364 0.932504
O O4 0.397647 0.064075 0.022311
O O5 0.197026 0.208410 0.149289
O O6 0.132700 0.988671 0.057606
O O7 0.097341 0.240426 0.956261
O O8 0.000000 0.821177 0.100050
O O9 0.165758 0.726389 0.075734
O O10 0.327021 0.520349 0.477938
O O11 0.274918 0.310317 0.355248
O O12 0.177795 0.380843 0.543494
O O13 0.892310 0.393265 0.763861
O O14 0.000000 0.460146 0.938954
O O15 0.328715 0.083814 0.240811
O O16 0.500000 0.665303 0.086142
O O17 0.618270 0.842237 0.150987
O O18 0.500000 0.021276 0.213188
#
# Coordination Sequence:
#
# PCOD9342799 Si02
#       8
#     4   4   4   4   4   4   4   4
#     4  10  18  37  58  88 119 158 201 254 304 359
#     4  10  20  38  61  84 118 160 205 251 298 361
#     4  11  22  35  61  93 128 162 200 250 312 370
#     4  12  23  41  63  89 127 163 198 258 314 367
#     4  11  25  41  62  88 121 161 211 254 305 370
#     4  10  20  34  57  88 117 157 191 245 308 361
#     4  10  22  42  67  91 118 165 215 257 304 371
#     4  10  19  34  61  93 122 154 204 257 304 361
#
# _framework density 20.029306999999999
#
# number of rings (size 3 to 8) (size 9 to 14) (size 15 to 20)
#    0.000    1.500    2.500    4.125    1.750    1.000 
#    0.000    0.625    0.000    0.750    0.000    0.000 
#    0.000    0.000    0.000    0.000    0.000    0.000 
#
# Total GULP energy -178750.484928 kJ/mol
# GULP energy per Si atom -5585.952654 kJ/mol
# Density = 1.998372 g / cm^3
# Si number density = 20.029307 Si / 1000 Ang^3
#
#
#
# Elastic Constant Matrix: (Units=GPa)
#
#
# Indices 1 2 3 4 5 6 
#
# 1 131.7683 27.3903 36.3178 0.0000 0.0000 0.0000
# 2 27.3903 49.4649 19.0354 0.0000 0.0000 0.0000
# 3 36.3178 19.0354 67.6006 0.0000 0.0000 0.0000
# 4 0.0000 0.0000 0.0000 16.8803 0.0000 0.0000
# 5 0.0000 0.0000 0.0000 0.0000 14.1116 0.0000
# 6 0.0000 0.0000 0.0000 0.0000 0.0000 14.1641
#
#
#
# Elastic Compliance Matrix: (Units=1/GPa)
#
#
# Indices 1 2 3 4 5 6 
#
# 1 0.009472 -0.003686 -0.004051 0.000000 0.000000 0.000000
# 2 -0.003686 0.024108 -0.004808 0.000000 0.000000 0.000000
# 3 -0.004051 -0.004808 0.018323 0.000000 0.000000 0.000000
# 4 0.000000 0.000000 0.000000 0.059241 0.000000 0.000000
# 5 0.000000 0.000000 0.000000 0.000000 0.070864 0.000000
# 6 0.000000 0.000000 0.000000 0.000000 0.000000 0.070601
#
#
# Mechanical properties :
#
#
# Convention : Reuss Voigt Hill
#
# Bulk Modulus (GPa) = 37.29580 46.03565 41.66572
# Shear Modulus (GPa) = 17.44378 20.10388 18.77383
#
# Velocity S-wave (km/s) = 2.95433 3.17160 3.06489
# Velocity P-wave (km/s) = 5.50440 6.03706 5.77687
#
# Compressibility (1/GPa) = 0.02681267
#
# Stress axis : x y z
#
# Youngs Moduli (GPa) = 105.57751 41.48053 54.57669
#
# Poissons Ratio (x) = 0.15290 0.22107
# Poissons Ratio (y) = 0.38916 0.26241
# Poissons Ratio (z) = 0.42766 0.19944
#
# Static dielectric constant tensor:
#      x y z
#    x 1.754630 0.000000 0.000000 
#    y 0.000000 1.690180 0.000000 
#    z 0.000000 0.000000 1.714050 
# 
# From -- ./inp_files/4292.got.cif
#   From: 2010.05.17/outbox.cif.g08.bks.cpg/sg31_3_cif.got.tgz:4292.got - 2010.06.03 17:08:30.
