data_PCOD9342505
_publ_section_title
;
Structure prediction by ZEFSAII (Michael W. Deem and Ramdas Pophale) SiO2 
 PCOD9342505
Probable space group: P N C 2
;
_chemical_formula_sum "Si O2"
_cell_formula_units_Z 18
_cell_length_a 5.229943
_cell_length_b 16.379394
_cell_length_c 8.734371
_cell_angle_alpha 90.000000
_cell_angle_beta 90.000000
_cell_angle_gamma 90.000000
_cell_volume 748.215017
_symmetry_space_group_name_H-M "P N C 2"
_symmetry_group_IT_number 30
_symmetry_cell_setting 'orthorhombic'
loop_
_space_group_symop_operation_xyz
x,y,z
-x,-y,z
-x,1/2+y,1/2+z
x,1/2-y,1/2+z
loop_
_atom_site_type_symbol
_atom_site_label
_atom_site_fract_x
_atom_site_fract_y
_atom_site_fract_z
Si Si1 0.551924 0.699172 0.050190
Si Si2 0.696380 0.330937 0.360395
Si Si3 0.000000 0.000000 0.261602
Si Si4 0.753479 0.972494 0.550989
Si Si5 0.791465 0.635633 0.533648
O O1 0.361592 0.670612 0.182592
O O2 0.382457 0.739645 0.917789
O O3 0.727866 0.622218 0.012192
O O4 0.729804 0.774916 0.104341
O O5 0.979641 0.352691 0.412246
O O6 0.478168 0.383907 0.449834
O O7 0.215363 0.977989 0.389673
O O8 0.110149 0.071013 0.156270
O O9 0.500000 0.000000 0.631814
O O10 0.000000 0.000000 0.643192
#
# Coordination Sequence:
#
# PCOD9342505 Si02
#       5
#     4   4   2   4   4
#     4  10  24  46  63 104 135 183 223 290 345 416
#     4  10  25  38  72  90 138 175 229 274 343 416
#     4  10  24  46  70 100 140 178 236 286 354 414
#     4  10  25  39  71  93 136 178 228 280 346 417
#     4  10  25  40  70  98 133 181 225 281 341 420
#
# _framework density 24.057255000000001
#
# number of rings (size 3 to 8) (size 9 to 14) (size 15 to 20)
#    2.000    0.000    0.000    1.333    9.333    0.000 
#    6.000    0.000    0.000    0.000    0.000    0.000 
#    0.000    0.000    0.000    0.000    0.000    0.000 
#
# Total GULP energy -100399.274001 kJ/mol
# GULP energy per Si atom -5577.737445 kJ/mol
# Density = 2.400250 g / cm^3
# Si number density = 24.057255 Si / 1000 Ang^3
#
#
#
# Elastic Constant Matrix: (Units=GPa)
#
#
# Indices 1 2 3 4 5 6 
#
# 1 109.9492 -9.2891 -6.7180 0.0000 0.0000 0.0000
# 2 -9.2891 74.9271 -5.6218 0.0000 0.0000 0.0000
# 3 -6.7180 -5.6218 57.5404 0.0000 0.0000 0.0000
# 4 0.0000 0.0000 0.0000 28.0274 0.0000 0.0000
# 5 0.0000 0.0000 0.0000 0.0000 26.2598 0.0000
# 6 0.0000 0.0000 0.0000 0.0000 0.0000 17.6279
#
#
#
# Elastic Compliance Matrix: (Units=1/GPa)
#
#
# Indices 1 2 3 4 5 6 
#
# 1 0.009273 0.001240 0.001204 0.000000 0.000000 0.000000
# 2 0.001240 0.013611 0.001475 0.000000 0.000000 0.000000
# 3 0.001204 0.001475 0.017664 0.000000 0.000000 0.000000
# 4 0.000000 0.000000 0.000000 0.035679 0.000000 0.000000
# 5 0.000000 0.000000 0.000000 0.000000 0.038081 0.000000
# 6 0.000000 0.000000 0.000000 0.000000 0.000000 0.056728
#
#
# Mechanical properties :
#
#
# Convention : Reuss Voigt Hill
#
# Bulk Modulus (GPa) = 20.66773 22.12878 21.39825
# Shear Modulus (GPa) = 27.88189 31.98605 29.93397
#
# Velocity S-wave (km/s) = 3.40807 3.65030 3.53126
# Velocity P-wave (km/s) = 4.90880 5.19467 5.05376
#
# Compressibility (1/GPa) = 0.04838461
#
# Stress axis : x y z
#
# Youngs Moduli (GPa) = 107.83498 73.47180 56.61322
#
# Poissons Ratio (x) = -0.09110 -0.06815
# Poissons Ratio (y) = -0.13371 -0.08348
# Poissons Ratio (z) = -0.12982 -0.10834
#
# Static dielectric constant tensor:
#      x y z
#    x 2.033100 0.000000 0.000000 
#    y 0.000000 1.973100 0.000000 
#    z 0.000000 0.000000 1.876340 
# 
# From -- ./inp_files/1292.got.cif
#   From: 2010.05.17/outbox.cif.g08.bks.cpg/sg30_1_cif.got.tgz:1292.got - 2010.06.03 17:03:02.
