data_PCOD9342812
_publ_section_title
;
Structure prediction by ZEFSAII (Michael W. Deem and Ramdas Pophale) SiO2 
 PCOD9342812
Probable space group: P M N 21
;
_chemical_formula_sum "Si O2"
_cell_formula_units_Z 32
_cell_length_a 13.389735
_cell_length_b 7.924590
_cell_length_c 15.329576
_cell_angle_alpha 90.000000
_cell_angle_beta 90.000000
_cell_angle_gamma 90.000000
_cell_volume 1626.593104
_symmetry_space_group_name_H-M "P M N 21"
_symmetry_group_IT_number 31
_symmetry_cell_setting 'orthorhombic'
loop_
_space_group_symop_operation_xyz
x,y,z
1/2-x,-y,1/2+z
-x,y,z
1/2+x,-y,1/2+z
loop_
_atom_site_type_symbol
_atom_site_label
_atom_site_fract_x
_atom_site_fract_y
_atom_site_fract_z
Si Si1 0.311250 0.255426 0.494130
Si Si2 0.888703 0.394356 0.935114
Si Si3 0.887627 0.821044 0.639133
Si Si4 0.688750 0.755426 0.274008
Si Si5 0.111297 0.894356 0.833024
Si Si6 0.387627 0.678956 0.629005
Si Si7 0.191498 0.971013 0.150972
Si Si8 0.691498 0.528986 0.117166
O O1 0.378606 0.414297 0.467281
O O2 0.307346 0.148193 0.405796
O O3 0.351688 0.137354 0.571535
O O4 0.214813 0.346695 0.536786
O O5 0.807346 0.351807 0.862342
O O6 0.000000 0.368534 0.899084
O O7 0.877847 0.288840 0.024223
O O8 0.877847 0.788840 0.743915
O O9 0.868181 0.640303 0.595258
O O10 0.000000 0.881836 0.622984
O O11 0.800072 0.954275 0.619696
O O12 0.785187 0.846695 0.231352
O O13 0.648312 0.637354 0.196603
O O14 0.621394 0.914297 0.300857
O O15 0.000000 0.868534 0.869054
O O16 0.500000 0.618164 0.645154
O O17 0.300072 0.545725 0.648442
O O18 0.368181 0.859697 0.672880
#
# Coordination Sequence:
#
# PCOD9342812 Si02
#       8
#     4   4   4   4   4   4   4   4
#     4  10  19  31  46  72 109 139 166 201 248 318
#     4  10  19  30  50  80 108 134 165 214 275 318
#     4   9  18  34  55  79 105 132 170 217 264 314
#     4  10  19  31  46  72 109 139 166 201 248 318
#     4  10  19  30  50  80 108 134 165 214 275 318
#     4   9  18  34  55  79 105 132 170 217 264 314
#     4   9  19  33  49  76 108 141 172 204 260 316
#     4   9  19  33  49  76 108 141 172 204 260 316
#
# _framework density 19.673020999999999
#
# number of rings (size 3 to 8) (size 9 to 14) (size 15 to 20)
#    0.000    2.500    0.000    2.250    0.000    5.000 
#    0.000    3.750    0.000    0.000    0.000   87.500 
#    0.000    0.000    0.000    0.000    0.000    0.000 
#
# Total GULP energy -178165.619244 kJ/mol
# GULP energy per Si atom -5567.675601 kJ/mol
# Density = 1.962824 g / cm^3
# Si number density = 19.673021 Si / 1000 Ang^3
#
#
#
# Elastic Constant Matrix: (Units=GPa)
#
#
# Indices 1 2 3 4 5 6 
#
# 1 50.1373 12.7046 11.8230 0.0000 0.0000 0.0000
# 2 12.7046 83.3956 29.7824 0.0000 0.0000 0.0000
# 3 11.8230 29.7824 58.5425 0.0000 0.0000 0.0000
# 4 0.0000 0.0000 0.0000 33.0281 0.0000 0.0000
# 5 0.0000 0.0000 0.0000 0.0000 12.8707 0.0000
# 6 0.0000 0.0000 0.0000 0.0000 0.0000 18.0042
#
#
#
# Elastic Compliance Matrix: (Units=1/GPa)
#
#
# Indices 1 2 3 4 5 6 
#
# 1 0.021234 -0.002082 -0.003229 0.000000 0.000000 0.000000
# 2 -0.002082 0.014857 -0.007138 0.000000 0.000000 0.000000
# 3 -0.003229 -0.007138 0.021365 0.000000 0.000000 0.000000
# 4 0.000000 0.000000 0.000000 0.030277 0.000000 0.000000
# 5 0.000000 0.000000 0.000000 0.000000 0.077696 0.000000
# 6 0.000000 0.000000 0.000000 0.000000 0.000000 0.055543
#
#
# Mechanical properties :
#
#
# Convention : Reuss Voigt Hill
#
# Bulk Modulus (GPa) = 30.71375 33.41060 32.06217
# Shear Modulus (GPa) = 19.47622 21.96495 20.72059
#
# Velocity S-wave (km/s) = 3.14983 3.34503 3.24890
# Velocity P-wave (km/s) = 5.37351 5.65144 5.51423
#
# Compressibility (1/GPa) = 0.03255871
#
# Stress axis : x y z
#
# Youngs Moduli (GPa) = 47.09378 67.30707 46.80525
#
# Poissons Ratio (x) = 0.14010 0.15115
# Poissons Ratio (y) = 0.09803 0.33409
# Poissons Ratio (z) = 0.15209 0.48044
#
# Static dielectric constant tensor:
#      x y z
#    x 1.692270 0.000000 0.000000 
#    y 0.000000 1.771490 0.000000 
#    z 0.000000 0.000000 1.735680 
# 
# From -- ./inp_files/5463.got.cif
#   From: 2010.05.17/outbox.cif.g08.bks.cpg/sg31_3_cif.got.tgz:5463.got - 2010.06.03 17:08:30.
