data_PCOD9342060
_publ_section_title
;
Structure prediction by ZEFSAII (Michael W. Deem and Ramdas Pophale) SiO2 
 PCOD9342060
Probable space group: P N C 2
;
_chemical_formula_sum "Si O2"
_cell_formula_units_Z 32
_cell_length_a 11.952915
_cell_length_b 8.117462
_cell_length_c 15.579348
_cell_angle_alpha 90.000000
_cell_angle_beta 90.000000
_cell_angle_gamma 90.000000
_cell_volume 1511.622591
_symmetry_space_group_name_H-M "P N C 2"
_symmetry_group_IT_number 30
_symmetry_cell_setting 'orthorhombic'
loop_
_space_group_symop_operation_xyz
x,y,z
-x,-y,z
-x,1/2+y,1/2+z
x,1/2-y,1/2+z
loop_
_atom_site_type_symbol
_atom_site_label
_atom_site_fract_x
_atom_site_fract_y
_atom_site_fract_z
Si Si1 0.662238 0.853356 0.463260
Si Si2 0.098330 0.275115 0.417632
Si Si3 0.585214 0.851307 0.803349
Si Si4 0.941290 0.319561 0.065983
Si Si5 0.967607 0.196466 0.756472
Si Si6 0.314396 0.780528 0.508614
Si Si7 0.228166 0.924001 0.854234
Si Si8 0.518240 0.801081 0.620457
O O1 0.794117 0.826364 0.448539
O O2 0.600540 0.766818 0.384187
O O3 0.616928 0.774879 0.551684
O O4 0.641365 0.046791 0.470884
O O5 0.142709 0.458887 0.404579
O O6 0.001854 0.267544 0.487231
O O7 0.050406 0.221158 0.324964
O O8 0.550483 0.756254 0.717224
O O9 0.500000 0.000000 0.820780
O O10 0.701794 0.951966 0.794109
O O11 0.967499 0.244057 0.159238
O O12 0.000000 0.500000 0.065682
O O13 0.808032 0.315695 0.049391
O O14 0.843762 0.200746 0.797543
O O15 0.000000 0.000000 0.753213
O O16 0.301310 0.659743 0.428007
O O17 0.404816 0.727817 0.580073
O O18 0.500000 0.000000 0.626774
#
# Coordination Sequence:
#
# PCOD9342060 Si02
#       8
#     4   4   4   4   4   4   4   4
#     4  10  21  37  64  88 121 159 205 256 314 366
#     4  10  20  38  59  90 122 159 209 254 299 375
#     4  10  21  38  64  87 116 159 206 260 306 373
#     4  11  21  35  64  89 125 166 206 254 310 368
#     4   9  20  34  56  88 115 158 210 244 294 380
#     4  11  21  38  65  90 126 161 203 261 316 371
#     4  10  21  36  64  85 125 159 207 254 316 365
#     4   9  21  37  60  91 115 154 212 253 302 384
#
# _framework density 21.169304
#
# number of rings (size 3 to 8) (size 9 to 14) (size 15 to 20)
#    0.000    2.000    2.500    0.750    5.250    2.000 
#    0.000    0.000   13.750   11.250    0.000    0.000 
#    0.000    0.000    0.000    0.000    0.000    0.000 
#
# Total GULP energy -178624.316322 kJ/mol
# GULP energy per Si atom -5582.009885 kJ/mol
# Density = 2.112112 g / cm^3
# Si number density = 21.169304 Si / 1000 Ang^3
#
#
#
# Elastic Constant Matrix: (Units=GPa)
#
#
# Indices 1 2 3 4 5 6 
#
# 1 106.6232 11.7503 54.0350 0.0000 0.0000 0.0000
# 2 11.7503 19.6770 23.6145 0.0000 0.0000 0.0000
# 3 54.0350 23.6145 140.2859 0.0000 0.0000 0.0000
# 4 0.0000 0.0000 0.0000 24.2034 0.0000 0.0000
# 5 0.0000 0.0000 0.0000 0.0000 30.0582 0.0000
# 6 0.0000 0.0000 0.0000 0.0000 0.0000 29.2879
#
#
#
# Elastic Compliance Matrix: (Units=1/GPa)
#
#
# Indices 1 2 3 4 5 6 
#
# 1 0.011715 -0.001980 -0.004179 0.000000 0.000000 0.000000
# 2 -0.001980 0.064021 -0.010014 0.000000 0.000000 0.000000
# 3 -0.004179 -0.010014 0.010424 0.000000 0.000000 0.000000
# 4 0.000000 0.000000 0.000000 0.041317 0.000000 0.000000
# 5 0.000000 0.000000 0.000000 0.000000 0.033269 0.000000
# 6 0.000000 0.000000 0.000000 0.000000 0.000000 0.034144
#
#
# Mechanical properties :
#
#
# Convention : Reuss Voigt Hill
#
# Bulk Modulus (GPa) = 18.58286 49.48729 34.03508
# Shear Modulus (GPa) = 20.39375 28.52231 24.45803
#
# Velocity S-wave (km/s) = 3.10718 3.67460 3.40274
# Velocity P-wave (km/s) = 4.65511 6.43671 5.61699
#
# Compressibility (1/GPa) = 0.05381302
#
# Stress axis : x y z
#
# Youngs Moduli (GPa) = 85.36137 15.61983 95.93626
#
# Poissons Ratio (x) = 0.03093 0.40091
# Poissons Ratio (y) = 0.16906 0.96070
# Poissons Ratio (z) = 0.35672 0.15642
#
# Static dielectric constant tensor:
#      x y z
#    x 1.845670 0.000000 0.000000 
#    y 0.000000 1.791430 0.000000 
#    z 0.000000 0.000000 1.773320 
# 
# From -- ./inp_files/5535.got.cif
#   From: 2010.05.17/outbox.cif.g08.bks.cpg/sg30_3_cif.got.tgz:5535.got - 2010.06.03 17:03:02.
