data_PCOD9342716
_publ_section_title
;
Structure prediction by ZEFSAII (Michael W. Deem and Ramdas Pophale) SiO2 
 PCOD9342716
Probable space group: P M N 21
;
_chemical_formula_sum "Si O2"
_cell_formula_units_Z 24
_cell_length_a 7.547966
_cell_length_b 8.005797
_cell_length_c 14.451993
_cell_angle_alpha 90.000000
_cell_angle_beta 90.000000
_cell_angle_gamma 90.000000
_cell_volume 873.297569
_symmetry_space_group_name_H-M "P M N 21"
_symmetry_group_IT_number 31
_symmetry_cell_setting 'orthorhombic'
loop_
_space_group_symop_operation_xyz
x,y,z
1/2-x,-y,1/2+z
-x,y,z
1/2+x,-y,1/2+z
loop_
_atom_site_type_symbol
_atom_site_label
_atom_site_fract_x
_atom_site_fract_y
_atom_site_fract_z
Si Si1 0.211463 0.922414 0.983720
Si Si2 0.209222 0.585935 0.107969
Si Si3 0.282651 0.613828 0.435724
Si Si4 0.200512 0.128338 0.146038
Si Si5 0.290690 0.292772 0.325722
Si Si6 0.203659 0.182904 0.767301
O O1 0.228531 0.749364 0.041653
O O2 0.279578 0.866462 0.883754
O O3 0.000000 0.957445 0.976525
O O4 0.286804 0.066680 0.050218
O O5 0.270607 0.434114 0.040710
O O6 0.000000 0.565378 0.126104
O O7 0.294456 0.649198 0.203405
O O8 0.500000 0.615891 0.436658
O O9 0.218084 0.457785 0.373309
O O10 0.233081 0.769438 0.370260
O O11 0.200448 0.958397 0.208012
O O12 0.000000 0.174989 0.125159
O O13 0.268079 0.265716 0.217397
O O14 0.500000 0.297572 0.343202
O O15 0.000000 0.125367 0.773888
#
# Coordination Sequence:
#
# PCOD9342716 Si02
#       6
#     4   4   4   4   4   4
#     4   7  13  27  47  64  85 119 155 184 223 275
#     4   8  14  29  49  67  89 123 159 192 228 274
#     4   8  16  31  51  70  93 124 157 189 233 286
#     4  10  19  32  48  70  97 125 155 192 233 277
#     4   9  16  31  52  70  88 119 158 195 230 273
#     4  10  18  30  49  73  96 124 158 192 229 277
#
# _framework density 27.482040999999999
#
# number of rings (size 3 to 8) (size 9 to 14) (size 15 to 20)
#    0.000    3.333    0.000    4.000    0.000    0.000 
#    0.000   13.333    0.000    6.000    0.000    0.000 
#    0.000    0.000    0.000    0.000    0.000    0.000 
#
# Total GULP energy -134118.565167 kJ/mol
# GULP energy per Si atom -5588.273549 kJ/mol
# Density = 2.741949 g / cm^3
# Si number density = 27.482041 Si / 1000 Ang^3
#
#
#
# Elastic Constant Matrix: (Units=GPa)
#
#
# Indices 1 2 3 4 5 6 
#
# 1 57.5256 -2.2698 -1.5787 0.0000 0.0000 0.0000
# 2 -2.2698 111.4367 31.3471 0.0000 0.0000 0.0000
# 3 -1.5787 31.3471 219.6018 0.0000 0.0000 0.0000
# 4 0.0000 0.0000 0.0000 67.7037 0.0000 0.0000
# 5 0.0000 0.0000 0.0000 0.0000 35.3956 0.0000
# 6 0.0000 0.0000 0.0000 0.0000 0.0000 9.8780
#
#
#
# Elastic Compliance Matrix: (Units=1/GPa)
#
#
# Indices 1 2 3 4 5 6 
#
# 1 0.017399 0.000333 0.000078 0.000000 0.000000 0.000000
# 2 0.000333 0.009355 -0.001333 0.000000 0.000000 0.000000
# 3 0.000078 -0.001333 0.004745 0.000000 0.000000 0.000000
# 4 0.000000 0.000000 0.000000 0.014770 0.000000 0.000000
# 5 0.000000 0.000000 0.000000 0.000000 0.028252 0.000000
# 6 0.000000 0.000000 0.000000 0.000000 0.000000 0.101235
#
#
# Mechanical properties :
#
#
# Convention : Reuss Voigt Hill
#
# Bulk Modulus (GPa) = 33.72338 49.28460 41.50399
# Shear Modulus (GPa) = 26.66865 46.66650 36.66758
#
# Velocity S-wave (km/s) = 3.11851 4.12524 3.65668
# Velocity P-wave (km/s) = 5.02638 6.37671 5.74138
#
# Compressibility (1/GPa) = 0.02965302
#
# Stress axis : x y z
#
# Youngs Moduli (GPa) = 57.47522 106.88942 210.76850
#
# Poissons Ratio (x) = -0.03555 -0.01636
# Poissons Ratio (y) = -0.01911 0.28097
# Poissons Ratio (z) = -0.00446 0.14249
#
# Static dielectric constant tensor:
#      x y z
#    x 1.995430 0.000000 0.000000 
#    y 0.000000 2.274580 0.000000 
#    z 0.000000 0.000000 2.161780 
# 
# From -- ./inp_files/5697.got.cif
#   From: 2010.05.17/outbox.cif.g08.bks.cpg/sg31_3_cif.got.tgz:5697.got - 2010.06.03 17:08:30.
