data_PCOD9342613
_publ_section_title
;
Structure prediction by ZEFSAII (Michael W. Deem and Ramdas Pophale) SiO2 
 PCOD9342613
Probable space group: P N C 2
;
_chemical_formula_sum "Si O2"
_cell_formula_units_Z 20
_cell_length_a 15.033741
_cell_length_b 4.965406
_cell_length_c 11.355967
_cell_angle_alpha 90.000000
_cell_angle_beta 90.000000
_cell_angle_gamma 90.000000
_cell_volume 847.707353
_symmetry_space_group_name_H-M "P N C 2"
_symmetry_group_IT_number 30
_symmetry_cell_setting 'orthorhombic'
loop_
_space_group_symop_operation_xyz
x,y,z
-x,-y,z
-x,1/2+y,1/2+z
x,1/2-y,1/2+z
loop_
_atom_site_type_symbol
_atom_site_label
_atom_site_fract_x
_atom_site_fract_y
_atom_site_fract_z
Si Si1 0.636182 0.725553 0.215490
Si Si2 0.897640 0.597625 0.844803
Si Si3 0.500000 0.500000 0.028891
Si Si4 0.236701 0.767926 0.219349
Si Si5 0.500000 0.000000 0.896982
Si Si6 0.103521 0.073388 0.602460
O O1 0.577137 0.645488 0.103442
O O2 0.689357 0.001504 0.200117
O O3 0.565986 0.686264 0.320582
O O4 0.708317 0.499337 0.241236
O O5 0.827383 0.358611 0.824989
O O6 0.884600 0.767503 0.725132
O O7 0.879918 0.712942 0.975709
O O8 0.000000 0.500000 0.842565
O O9 0.546473 0.241274 0.967853
O O10 0.168066 0.815100 0.615585
O O11 0.000000 0.000000 0.601527
#
# Coordination Sequence:
#
# PCOD9342613 Si02
#       6
#     4   4   2   4   2   4
#     4  11  26  45  71 109 145 186 247 308 378 457
#     4  11  25  46  73 107 152 206 259 313 380 454
#     4  11  24  47  74 100 144 195 240 303 382 466
#     4  12  24  46  70 110 148 193 251 315 377 443
#     4  11  24  47  74 102 142 197 242 301 384 464
#     4  11  25  46  74 107 152 208 258 314 381 452
#
# _framework density 23.593048
#
# number of rings (size 3 to 8) (size 9 to 14) (size 15 to 20)
#    0.000    0.800    4.000    2.400    0.000   10.400 
#    3.600    0.000    0.000    0.000    0.000    0.000 
#    0.000    0.000    0.000    0.000    0.000    0.000 
#
# Total GULP energy -111610.376266 kJ/mol
# GULP energy per Si atom -5580.518813 kJ/mol
# Density = 2.353935 g / cm^3
# Si number density = 23.593048 Si / 1000 Ang^3
#
#
#
# Elastic Constant Matrix: (Units=GPa)
#
#
# Indices 1 2 3 4 5 6 
#
# 1 111.3646 10.4243 23.9840 0.0000 0.0000 0.0000
# 2 10.4243 92.8549 56.2372 0.0000 0.0000 0.0000
# 3 23.9840 56.2372 162.3501 0.0000 0.0000 0.0000
# 4 0.0000 0.0000 0.0000 25.9870 0.0000 0.0000
# 5 0.0000 0.0000 0.0000 0.0000 -80.3859 0.0000
# 6 0.0000 0.0000 0.0000 0.0000 0.0000 35.2618
#
#
#
# Elastic Compliance Matrix: (Units=1/GPa)
#
#
# Indices 1 2 3 4 5 6 
#
# 1 0.009280 -0.000268 -0.001278 0.000000 0.000000 0.000000
# 2 -0.000268 0.013636 -0.004684 0.000000 0.000000 0.000000
# 3 -0.001278 -0.004684 0.007971 0.000000 0.000000 0.000000
# 4 0.000000 0.000000 0.000000 0.038481 0.000000 0.000000
# 5 0.000000 0.000000 0.000000 0.000000 -0.012440 0.000000
# 6 0.000000 0.000000 0.000000 0.000000 0.000000 0.028359
#
#
# Mechanical properties :
#
#
# Convention : Reuss Voigt Hill
#
# Bulk Modulus (GPa) = 54.26718 60.87341 57.57029
# Shear Modulus (GPa) = 48.12802 14.56749 31.34775
#
# Velocity S-wave (km/s) = 4.52145 2.48755 3.64907
# Velocity P-wave (km/s) = 7.09291 5.84020 6.49682
#
# Compressibility (1/GPa) = 0.01842734
#
# Stress axis : x y z
#
# Youngs Moduli (GPa) = 107.76036 73.33304 125.45657
#
# Poissons Ratio (x) = 0.01963 0.16036
# Poissons Ratio (y) = 0.02884 0.58764
# Poissons Ratio (z) = 0.13774 0.34350
#
# Static dielectric constant tensor:
#      x y z
#    x 1.948910 0.000000 0.000000 
#    y 0.000000 1.950130 0.000000 
#    z 0.000000 0.000000 2.014130 
# 
# From -- ./inp_files/4213.got.cif
#   From: 2010.05.17/outbox.cif.g08.bks.cpg/sg30_3_cif.got.tgz:4213.got - 2010.06.03 17:03:02.
