data_PCOD9342332
_publ_section_title
;
Structure prediction by ZEFSAII (Michael W. Deem and Ramdas Pophale) SiO2 
 PCOD9342332
Probable space group: P N C 2
;
_chemical_formula_sum "Si O2"
_cell_formula_units_Z 30
_cell_length_a 11.716374
_cell_length_b 9.539300
_cell_length_c 13.564126
_cell_angle_alpha 90.000000
_cell_angle_beta 90.000000
_cell_angle_gamma 90.000000
_cell_volume 1516.008195
_symmetry_space_group_name_H-M "P N C 2"
_symmetry_group_IT_number 30
_symmetry_cell_setting 'orthorhombic'
loop_
_space_group_symop_operation_xyz
x,y,z
-x,-y,z
-x,1/2+y,1/2+z
x,1/2-y,1/2+z
loop_
_atom_site_type_symbol
_atom_site_label
_atom_site_fract_x
_atom_site_fract_y
_atom_site_fract_z
Si Si1 0.388791 0.449757 0.952550
Si Si2 0.715200 0.747066 0.110583
Si Si3 0.127294 0.508211 0.136754
Si Si4 0.500000 0.500000 0.436165
Si Si5 0.269931 0.743541 0.248350
Si Si6 0.715525 0.065938 0.061714
Si Si7 0.539064 0.737653 0.292267
Si Si8 0.193418 0.676490 0.950377
O O1 0.500000 0.500000 0.010180
O O2 0.428925 0.379317 0.850953
O O3 0.309841 0.585025 0.947531
O O4 0.329961 0.329043 0.013450
O O5 0.820003 0.647177 0.139749
O O6 0.615409 0.739953 0.193639
O O7 0.746051 0.904721 0.080535
O O8 0.214466 0.608118 0.196273
O O9 0.000000 0.500000 0.177362
O O10 0.120946 0.580839 0.026714
O O11 0.407186 0.571224 0.507391
O O12 0.565829 0.608380 0.365404
O O13 0.284480 0.863546 0.167799
O O14 0.401924 0.719808 0.280210
O O15 0.182853 0.793431 0.334119
O O16 0.794216 0.169361 0.997467
#
# Coordination Sequence:
#
# PCOD9342332 Si02
#       8
#     4   4   4   2   4   4   4   4
#     4  11  21  37  54  90 135 171 210 251 324 399
#     4  11  25  37  63  93 129 172 215 271 328 393
#     4  10  25  48  68  90 127 173 232 284 327 381
#     4  12  20  34  54  92 140 170 202 254 316 402
#     4  11  22  40  66  94 130 174 213 264 335 404
#     4  11  22  38  56  93 131 166 214 261 324 392
#     4  12  23  34  60  98 138 169 215 255 329 415
#     4  10  22  41  65  90 128 176 215 265 333 392
#
# _framework density 19.788810999999999
#
# number of rings (size 3 to 8) (size 9 to 14) (size 15 to 20)
#    0.000    1.067    4.000    2.400    6.533    0.000 
#    0.000    8.000    0.000    0.000    0.000    0.000 
#    0.000    0.000    0.000    0.000    0.000    0.000 
#
# Total GULP energy -167203.476806 kJ/mol
# GULP energy per Si atom -5573.449227 kJ/mol
# Density = 1.974377 g / cm^3
# Si number density = 19.788811 Si / 1000 Ang^3
#
#
#
# Elastic Constant Matrix: (Units=GPa)
#
#
# Indices 1 2 3 4 5 6 
#
# 1 67.6268 31.4824 7.3070 0.0000 0.0000 0.0000
# 2 31.4824 151.4757 31.9652 0.0000 0.0000 0.0000
# 3 7.3070 31.9652 84.1629 0.0000 0.0000 0.0000
# 4 0.0000 0.0000 0.0000 11.7881 0.0000 0.0000
# 5 0.0000 0.0000 0.0000 0.0000 9.7658 0.0000
# 6 0.0000 0.0000 0.0000 0.0000 0.0000 8.1290
#
#
#
# Elastic Compliance Matrix: (Units=1/GPa)
#
#
# Indices 1 2 3 4 5 6 
#
# 1 0.016373 -0.003373 -0.000140 0.000000 0.000000 0.000000
# 2 -0.003373 0.007872 -0.002697 0.000000 0.000000 0.000000
# 3 -0.000140 -0.002697 0.012918 0.000000 0.000000 0.000000
# 4 0.000000 0.000000 0.000000 0.084831 0.000000 0.000000
# 5 0.000000 0.000000 0.000000 0.000000 0.102398 0.000000
# 6 0.000000 0.000000 0.000000 0.000000 0.000000 0.123016
#
#
# Mechanical properties :
#
#
# Convention : Reuss Voigt Hill
#
# Bulk Modulus (GPa) = 40.41747 49.41941 44.91844
# Shear Modulus (GPa) = 13.58415 21.43731 17.51073
#
# Velocity S-wave (km/s) = 2.62287 3.29493 2.97792
# Velocity P-wave (km/s) = 5.44439 6.28514 5.87981
#
# Compressibility (1/GPa) = 0.02474177
#
# Stress axis : x y z
#
# Youngs Moduli (GPa) = 61.07787 127.03378 77.41020
#
# Poissons Ratio (x) = 0.42851 0.01086
# Poissons Ratio (y) = 0.20603 0.20877
# Poissons Ratio (z) = 0.00857 0.34260
#
# Static dielectric constant tensor:
#      x y z
#    x 1.698100 0.000000 0.000000 
#    y 0.000000 1.738640 0.000000 
#    z 0.000000 0.000000 1.764730 
# 
# From -- ./inp_files/5480.got.cif
#   From: 2010.05.17/outbox.cif.g08.bks.cpg/sg30_3_cif.got.tgz:5480.got - 2010.06.03 17:03:02.
