data_PCOD9342493
_publ_section_title
;
Structure prediction by ZEFSAII (Michael W. Deem and Ramdas Pophale) SiO2 
 PCOD9342493
Probable space group: P N C 2
;
_chemical_formula_sum "Si O2"
_cell_formula_units_Z 26
_cell_length_a 12.449073
_cell_length_b 6.733273
_cell_length_c 13.598243
_cell_angle_alpha 90.000000
_cell_angle_beta 90.000000
_cell_angle_gamma 90.000000
_cell_volume 1139.845620
_symmetry_space_group_name_H-M "P N C 2"
_symmetry_group_IT_number 30
_symmetry_cell_setting 'orthorhombic'
loop_
_space_group_symop_operation_xyz
x,y,z
-x,-y,z
-x,1/2+y,1/2+z
x,1/2-y,1/2+z
loop_
_atom_site_type_symbol
_atom_site_label
_atom_site_fract_x
_atom_site_fract_y
_atom_site_fract_z
Si Si1 0.617667 0.023850 0.525820
Si Si2 0.288387 0.412284 0.523116
Si Si3 0.000000 0.000000 0.711466
Si Si4 0.979473 0.229188 0.372031
Si Si5 0.589551 0.351305 0.685688
Si Si6 0.728940 0.295599 0.366761
Si Si7 0.925513 0.154008 0.085994
O O1 0.686262 0.820758 0.535002
O O2 0.500000 0.000000 0.476517
O O3 0.584361 0.143046 0.625065
O O4 0.692798 0.160764 0.458697
O O5 0.373222 0.507397 0.596780
O O6 0.298703 0.485001 0.409631
O O7 0.179803 0.525495 0.560400
O O8 0.950720 0.845457 0.791018
O O9 0.077175 0.864004 0.643372
O O10 0.855017 0.272489 0.348914
O O11 0.988843 0.296238 0.484945
O O12 0.000000 0.000000 0.369296
O O13 0.500000 0.500000 0.730895
O O14 0.668486 0.288461 0.772849
O O15 0.000000 0.000000 0.144739
#
# Coordination Sequence:
#
# PCOD9342493 Si02
#       7
#     4   4   2   4   4   4   4
#     4  11  23  44  70  99 143 193 234 312 374 444
#     4  10  24  43  67 102 138 183 242 291 368 441
#     4  12  24  42  70  98 146 188 242 302 376 442
#     4  11  24  44  67 102 143 188 246 306 371 452
#     4  11  22  44  67 101 140 179 241 295 366 445
#     4  10  25  41  67 103 139 183 240 305 360 443
#     4  11  24  42  70 101 139 192 241 304 370 446
#
# _framework density 22.810106000000001
#
# number of rings (size 3 to 8) (size 9 to 14) (size 15 to 20)
#    0.000    1.231    3.077    1.846    2.154    3.692 
#    2.769    0.000    0.000    0.000    0.000    0.000 
#    0.000    0.000    0.000    0.000    0.000    0.000 
#
# Total GULP energy -144751.190761 kJ/mol
# GULP energy per Si atom -5567.353491 kJ/mol
# Density = 2.275819 g / cm^3
# Si number density = 22.810106 Si / 1000 Ang^3
#
#
#
# Elastic Constant Matrix: (Units=GPa)
#
#
# Indices 1 2 3 4 5 6 
#
# 1 81.6405 44.6845 22.2254 0.0000 0.0000 0.0000
# 2 44.6845 192.1844 48.9909 0.0000 0.0000 0.0000
# 3 22.2254 48.9909 102.3465 0.0000 0.0000 0.0000
# 4 0.0000 0.0000 0.0000 -27.0097 0.0000 0.0000
# 5 0.0000 0.0000 0.0000 0.0000 22.2374 0.0000
# 6 0.0000 0.0000 0.0000 0.0000 0.0000 36.0651
#
#
#
# Elastic Compliance Matrix: (Units=1/GPa)
#
#
# Indices 1 2 3 4 5 6 
#
# 1 0.014297 -0.002885 -0.001724 0.000000 0.000000 0.000000
# 2 -0.002885 0.006509 -0.002489 0.000000 0.000000 0.000000
# 3 -0.001724 -0.002489 0.011337 0.000000 0.000000 0.000000
# 4 0.000000 0.000000 0.000000 -0.037024 0.000000 0.000000
# 5 0.000000 0.000000 0.000000 0.000000 0.044969 0.000000
# 6 0.000000 0.000000 0.000000 0.000000 0.000000 0.027728
#
#
# Mechanical properties :
#
#
# Convention : Reuss Voigt Hill
#
# Bulk Modulus (GPa) = 55.72019 67.55256 61.63638
# Shear Modulus (GPa) = 56.82275 23.60993 40.21634
#
# Velocity S-wave (km/s) = 4.99653 3.22073 4.20348
# Velocity P-wave (km/s) = 7.60052 6.59623 7.11612
#
# Compressibility (1/GPa) = 0.01794682
#
# Stress axis : x y z
#
# Youngs Moduli (GPa) = 69.94456 153.64376 88.21037
#
# Poissons Ratio (x) = 0.44322 0.15206
# Poissons Ratio (y) = 0.20177 0.21956
# Poissons Ratio (z) = 0.12057 0.38243
#
# Static dielectric constant tensor:
#      x y z
#    x 1.944080 0.000000 0.000000 
#    y 0.000000 2.034750 0.000000 
#    z 0.000000 0.000000 1.887920 
# 
# From -- ./inp_files/5610.got.cif
#   From: 2010.05.17/outbox.cif.g08.bks.cpg/sg30_3_cif.got.tgz:5610.got - 2010.06.03 17:03:02.
