data_PCOD9342788
_publ_section_title
;
Structure prediction by ZEFSAII (Michael W. Deem and Ramdas Pophale) SiO2 
 PCOD9342788
Probable space group: P M N 21
;
_chemical_formula_sum "Si O2"
_cell_formula_units_Z 28
_cell_length_a 13.807835
_cell_length_b 11.799747
_cell_length_c 6.985819
_cell_angle_alpha 90.000000
_cell_angle_beta 90.000000
_cell_angle_gamma 90.000000
_cell_volume 1138.192222
_symmetry_space_group_name_H-M "P M N 21"
_symmetry_group_IT_number 31
_symmetry_cell_setting 'orthorhombic'
loop_
_space_group_symop_operation_xyz
x,y,z
1/2-x,-y,1/2+z
-x,y,z
1/2+x,-y,1/2+z
loop_
_atom_site_type_symbol
_atom_site_label
_atom_site_fract_x
_atom_site_fract_y
_atom_site_fract_z
Si Si1 0.610603 0.578640 0.727360
Si Si2 0.395012 0.528590 0.183975
Si Si3 0.890867 0.947592 0.638118
Si Si4 0.796676 0.651967 0.213997
Si Si5 0.689360 0.294256 0.140417
Si Si6 0.391095 0.980787 0.716809
Si Si7 0.747363 0.876284 0.999487
O O1 0.500000 0.614002 0.681035
O O2 0.612061 0.556338 0.956856
O O3 0.636547 0.452626 0.647513
O O4 0.700488 0.660944 0.676655
O O5 0.500000 0.564981 0.251435
O O6 0.377838 0.395961 0.214683
O O7 0.305512 0.594891 0.268348
O O8 0.846733 0.828924 0.710578
O O9 0.000000 0.964269 0.704587
O O10 0.894744 0.937870 0.404047
O O11 0.825193 0.060786 0.656294
O O12 0.830664 0.704118 0.412822
O O13 0.775454 0.751000 0.064095
O O14 0.500000 0.943036 0.675483
O O15 0.339861 0.041539 0.538612
O O16 0.322296 0.886757 0.813638
#
# Coordination Sequence:
#
# PCOD9342788 Si02
#       7
#     4   4   4   4   4   4   4
#     4   9  20  36  53  77 109 144 181 225 278 332
#     4   9  19  33  52  78 105 137 179 225 277 333
#     4   9  19  35  58  81 108 146 187 230 281 334
#     4  10  19  32  55  79 106 139 179 226 278 326
#     4  10  18  35  57  79 103 145 186 229 270 331
#     4   9  20  37  58  82 112 150 190 235 289 341
#     4  10  19  36  57  84 113 147 190 240 285 341
#
# _framework density 24.600415999999999
#
# number of rings (size 3 to 8) (size 9 to 14) (size 15 to 20)
#    0.857    1.714    1.429    0.429    0.000    4.000 
#    0.000    3.571    0.000    7.714    0.000    0.000 
#    0.000    0.000    0.000    0.000    0.000    0.000 
#
# Total GULP energy -156192.435059 kJ/mol
# GULP energy per Si atom -5578.301252 kJ/mol
# Density = 2.454442 g / cm^3
# Si number density = 24.600416 Si / 1000 Ang^3
#
#
#
# Elastic Constant Matrix: (Units=GPa)
#
#
# Indices 1 2 3 4 5 6 
#
# 1 108.5712 -6.5201 -1.4817 0.0000 0.0000 0.0000
# 2 -6.5201 84.0269 17.5673 0.0000 0.0000 0.0000
# 3 -1.4817 17.5673 84.4787 0.0000 0.0000 0.0000
# 4 0.0000 0.0000 0.0000 40.4707 0.0000 0.0000
# 5 0.0000 0.0000 0.0000 0.0000 28.0779 0.0000
# 6 0.0000 0.0000 0.0000 0.0000 0.0000 9.3724
#
#
#
# Elastic Compliance Matrix: (Units=1/GPa)
#
#
# Indices 1 2 3 4 5 6 
#
# 1 0.009254 0.000715 0.000014 0.000000 0.000000 0.000000
# 2 0.000715 0.012497 -0.002586 0.000000 0.000000 0.000000
# 3 0.000014 -0.002586 0.012375 0.000000 0.000000 0.000000
# 4 0.000000 0.000000 0.000000 0.024709 0.000000 0.000000
# 5 0.000000 0.000000 0.000000 0.000000 0.035615 0.000000
# 6 0.000000 0.000000 0.000000 0.000000 0.000000 0.106697
#
#
# Mechanical properties :
#
#
# Convention : Reuss Voigt Hill
#
# Bulk Modulus (GPa) = 32.88255 32.91199 32.89727
# Shear Modulus (GPa) = 23.25588 33.41827 28.33708
#
# Velocity S-wave (km/s) = 3.07798 3.68971 3.39764
# Velocity P-wave (km/s) = 5.10173 5.61779 5.36597
#
# Compressibility (1/GPa) = 0.03041127
#
# Stress axis : x y z
#
# Youngs Moduli (GPa) = 108.06509 80.01825 80.80581
#
# Poissons Ratio (x) = -0.05723 -0.00110
# Poissons Ratio (y) = -0.07729 0.20898
# Poissons Ratio (z) = -0.00147 0.20695
#
# Static dielectric constant tensor:
#      x y z
#    x 1.953760 0.000000 0.000000 
#    y 0.000000 1.920940 0.000000 
#    z 0.000000 0.000000 2.069560 
# 
# From -- ./inp_files/4001.got.cif
#   From: 2010.05.17/outbox.cif.g08.bks.cpg/sg31_3_cif.got.tgz:4001.got - 2010.06.03 17:08:30.
