data_PCOD9342193
_publ_section_title
;
Structure prediction by ZEFSAII (Michael W. Deem and Ramdas Pophale) SiO2 
 PCOD9342193
Probable space group: P N C 2
;
_chemical_formula_sum "Si O2"
_cell_formula_units_Z 30
_cell_length_a 15.410521
_cell_length_b 10.584310
_cell_length_c 8.673040
_cell_angle_alpha 90.000000
_cell_angle_beta 90.000000
_cell_angle_gamma 90.000000
_cell_volume 1414.657226
_symmetry_space_group_name_H-M "P N C 2"
_symmetry_group_IT_number 30
_symmetry_cell_setting 'orthorhombic'
loop_
_space_group_symop_operation_xyz
x,y,z
-x,-y,z
-x,1/2+y,1/2+z
x,1/2-y,1/2+z
loop_
_atom_site_type_symbol
_atom_site_label
_atom_site_fract_x
_atom_site_fract_y
_atom_site_fract_z
Si Si1 0.089557 0.930840 0.882470
Si Si2 0.596863 0.999282 0.752993
Si Si3 0.500000 0.000000 0.227216
Si Si4 0.418156 0.659793 0.954477
Si Si5 0.732614 0.955775 0.007126
Si Si6 0.590563 0.737539 0.566607
Si Si7 0.254225 0.643758 0.788346
Si Si8 0.142645 0.817306 0.568158
O O1 0.093920 0.899070 0.698554
O O2 0.095016 0.798797 0.979152
O O3 0.000000 0.000000 0.917462
O O4 0.171651 0.017533 0.937212
O O5 0.606560 0.863213 0.668107
O O6 0.500000 0.000000 0.819654
O O7 0.597209 0.108675 0.624838
O O8 0.666451 0.015422 0.884278
O O9 0.574695 0.040260 0.343505
O O10 0.461449 0.118634 0.138496
O O11 0.513347 0.721291 0.948260
O O12 0.332497 0.713839 0.878815
O O13 0.685221 0.818240 0.022069
O O14 0.729692 0.027640 0.171216
O O15 0.212331 0.747036 0.676434
O O16 0.189245 0.607759 0.928799
#
# Coordination Sequence:
#
# PCOD9342193 Si02
#       8
#     4   4   2   4   4   4   4   4
#     4  10  22  46  74 105 137 173 227 279 354 418
#     4  10  23  42  61  88 135 184 232 278 340 403
#     4  12  22  38  54  88 124 176 224 280 328 382
#     4  11  22  41  61  90 130 186 236 279 327 403
#     4  11  23  41  64  94 134 176 230 289 338 405
#     4  11  24  39  60  90 136 177 231 283 337 403
#     4  10  21  38  65  95 127 174 230 275 335 387
#     4   9  21  43  71 101 134 170 222 288 330 415
#
# _framework density 21.20655
#
# number of rings (size 3 to 8) (size 9 to 14) (size 15 to 20)
#    0.000    1.600    3.333    1.600    2.800    1.067 
#    7.200    6.000    0.000    0.000    0.000    0.000 
#    0.000    0.000    0.000    0.000    0.000    0.000 
#
# Total GULP energy -167108.048284 kJ/mol
# GULP energy per Si atom -5570.268276 kJ/mol
# Density = 2.115828 g / cm^3
# Si number density = 21.206550 Si / 1000 Ang^3
#
#
#
# Elastic Constant Matrix: (Units=GPa)
#
#
# Indices 1 2 3 4 5 6 
#
# 1 153.0490 43.6458 64.4904 0.0000 0.0000 0.0000
# 2 43.6458 83.3325 38.6621 0.0000 0.0000 0.0000
# 3 64.4904 38.6621 136.4610 0.0000 0.0000 0.0000
# 4 0.0000 0.0000 0.0000 16.4105 0.0000 0.0000
# 5 0.0000 0.0000 0.0000 0.0000 18.1808 0.0000
# 6 0.0000 0.0000 0.0000 0.0000 0.0000 23.9245
#
#
#
# Elastic Compliance Matrix: (Units=1/GPa)
#
#
# Indices 1 2 3 4 5 6 
#
# 1 0.008797 -0.003084 -0.003284 0.000000 0.000000 0.000000
# 2 -0.003084 0.014897 -0.002763 0.000000 0.000000 0.000000
# 3 -0.003284 -0.002763 0.009663 0.000000 0.000000 0.000000
# 4 0.000000 0.000000 0.000000 0.060937 0.000000 0.000000
# 5 0.000000 0.000000 0.000000 0.000000 0.055003 0.000000
# 6 0.000000 0.000000 0.000000 0.000000 0.000000 0.041798
#
#
# Mechanical properties :
#
#
# Convention : Reuss Voigt Hill
#
# Bulk Modulus (GPa) = 66.24535 74.04879 70.14707
# Shear Modulus (GPa) = 23.32214 26.77277 25.04746
#
# Velocity S-wave (km/s) = 3.31986 3.55699 3.44047
# Velocity P-wave (km/s) = 6.78242 7.20161 6.99516
#
# Compressibility (1/GPa) = 0.01509540
#
# Stress axis : x y z
#
# Youngs Moduli (GPa) = 113.67567 67.12585 103.48975
#
# Poissons Ratio (x) = 0.20702 0.33982
# Poissons Ratio (y) = 0.35058 0.28597
# Poissons Ratio (z) = 0.37327 0.18548
#
# Static dielectric constant tensor:
#      x y z
#    x 1.971300 0.000000 0.000000 
#    y 0.000000 1.832540 0.000000 
#    z 0.000000 0.000000 1.823060 
# 
# From -- ./inp_files/2664.got.cif
#   From: 2010.05.17/outbox.cif.g08.bks.cpg/sg30_2_cif.got.tgz:2664.got - 2010.06.03 17:03:02.
