data_PCOD9342516
_publ_section_title
;
Structure prediction by ZEFSAII (Michael W. Deem and Ramdas Pophale) SiO2 
 PCOD9342516
Probable space group: P N C 2
;
_chemical_formula_sum "Si O2"
_cell_formula_units_Z 26
_cell_length_a 7.003515
_cell_length_b 24.868037
_cell_length_c 5.782226
_cell_angle_alpha 90.000000
_cell_angle_beta 90.000000
_cell_angle_gamma 90.000000
_cell_volume 1007.053702
_symmetry_space_group_name_H-M "P N C 2"
_symmetry_group_IT_number 30
_symmetry_cell_setting 'orthorhombic'
loop_
_space_group_symop_operation_xyz
x,y,z
-x,-y,z
-x,1/2+y,1/2+z
x,1/2-y,1/2+z
loop_
_atom_site_type_symbol
_atom_site_label
_atom_site_fract_x
_atom_site_fract_y
_atom_site_fract_z
Si Si1 0.000000 0.000000 0.438241
Si Si2 0.097932 0.128788 0.811846
Si Si3 0.543143 0.887326 0.527399
Si Si4 0.744823 0.453658 0.305102
Si Si5 0.727467 0.947275 0.150435
Si Si6 0.309726 0.720680 0.933377
Si Si7 0.108558 0.246285 0.926878
O O1 0.815583 0.009567 0.593086
O O2 0.932592 0.952015 0.279224
O O3 0.028753 0.185971 0.898099
O O4 0.240969 0.131319 0.591712
O O5 0.922957 0.087529 0.809547
O O6 0.243928 0.104424 0.994969
O O7 0.435841 0.918931 0.733207
O O8 0.562548 0.931278 0.325517
O O9 0.418136 0.836047 0.453977
O O10 0.715474 0.496558 0.510018
O O11 0.350909 0.748182 0.680218
O O12 0.077768 0.715767 0.932878
O O13 0.210110 0.253791 0.677487
#
# Coordination Sequence:
#
# PCOD9342516 Si02
#       7
#     2   4   4   4   4   4   4
#     4  12  22  46  76 108 154 216 260 332 400 484
#     4  12  26  48  80 115 153 212 276 330 417 511
#     4  12  30  47  85 122 163 218 285 343 436 511
#     4  12  25  52  76 113 167 210 271 342 411 504
#     4  12  26  51  76 118 165 214 278 341 412 509
#     4  10  24  51  79 117 162 210 275 353 429 507
#     4  10  24  47  80 111 151 205 266 337 418 494
#
# _framework density 25.817888
#
# number of rings (size 3 to 8) (size 9 to 14) (size 15 to 20)
#    0.000    0.615    4.615    1.846    4.308    8.615 
#    0.000    0.000    0.000    0.000    0.000    0.000 
#    0.000    0.000    0.000    0.000    0.000    0.000 
#
# Total GULP energy -145263.402405 kJ/mol
# GULP energy per Si atom -5587.053939 kJ/mol
# Density = 2.575913 g / cm^3
# Si number density = 25.817888 Si / 1000 Ang^3
#
#
#
# Elastic Constant Matrix: (Units=GPa)
#
#
# Indices 1 2 3 4 5 6 
#
# 1 117.2988 23.3434 38.6573 0.0000 0.0000 0.0000
# 2 23.3434 83.1870 36.4348 0.0000 0.0000 0.0000
# 3 38.6573 36.4348 167.6042 0.0000 0.0000 0.0000
# 4 0.0000 0.0000 0.0000 27.9176 0.0000 0.0000
# 5 0.0000 0.0000 0.0000 0.0000 18.2143 0.0000
# 6 0.0000 0.0000 0.0000 0.0000 0.0000 42.2055
#
#
#
# Elastic Compliance Matrix: (Units=1/GPa)
#
#
# Indices 1 2 3 4 5 6 
#
# 1 0.009486 -0.001883 -0.001779 0.000000 0.000000 0.000000
# 2 -0.001883 0.013660 -0.002535 0.000000 0.000000 0.000000
# 3 -0.001779 -0.002535 0.006928 0.000000 0.000000 0.000000
# 4 0.000000 0.000000 0.000000 0.035820 0.000000 0.000000
# 5 0.000000 0.000000 0.000000 0.000000 0.054902 0.000000
# 6 0.000000 0.000000 0.000000 0.000000 0.000000 0.023694
#
#
# Mechanical properties :
#
#
# Convention : Reuss Voigt Hill
#
# Bulk Modulus (GPa) = 56.56004 62.77346 59.66675
# Shear Modulus (GPa) = 30.71710 35.64444 33.18077
#
# Velocity S-wave (km/s) = 3.45303 3.71969 3.58884
# Velocity P-wave (km/s) = 6.15246 6.54330 6.35089
#
# Compressibility (1/GPa) = 0.01768033
#
# Stress axis : x y z
#
# Youngs Moduli (GPa) = 105.41724 73.20722 144.34633
#
# Poissons Ratio (x) = 0.13784 0.25674
# Poissons Ratio (y) = 0.19849 0.36594
# Poissons Ratio (z) = 0.18750 0.18559
#
# Static dielectric constant tensor:
#      x y z
#    x 2.012560 0.000000 0.000000 
#    y 0.000000 1.998740 0.000000 
#    z 0.000000 0.000000 2.142380 
# 
# From -- ./inp_files/488.got.cif
#   From: 2010.05.17/outbox.cif.g08.bks.cpg/sg30_1_cif.got.tgz:488.got - 2010.06.03 17:03:02.
