data_PCOD9342590
_publ_section_title
;
Structure prediction by ZEFSAII (Michael W. Deem and Ramdas Pophale) SiO2 
 PCOD9342590
Probable space group: P N C 2
;
_chemical_formula_sum "Si O2"
_cell_formula_units_Z 24
_cell_length_a 21.193818
_cell_length_b 5.516431
_cell_length_c 9.185611
_cell_angle_alpha 90.000000
_cell_angle_beta 90.000000
_cell_angle_gamma 90.000000
_cell_volume 1073.928680
_symmetry_space_group_name_H-M "P N C 2"
_symmetry_group_IT_number 30
_symmetry_cell_setting 'orthorhombic'
loop_
_space_group_symop_operation_xyz
x,y,z
-x,-y,z
-x,1/2+y,1/2+z
x,1/2-y,1/2+z
loop_
_atom_site_type_symbol
_atom_site_label
_atom_site_fract_x
_atom_site_fract_y
_atom_site_fract_z
Si Si1 0.260622 0.996145 0.641370
Si Si2 0.640511 0.378225 0.728060
Si Si3 0.696111 0.734238 0.395433
Si Si4 0.119279 0.514061 0.045520
Si Si5 0.924475 0.989639 0.883908
Si Si6 0.573779 0.029546 0.938377
O O1 0.287273 0.235903 0.561367
O O2 0.257065 0.057586 0.812087
O O3 0.194288 0.952544 0.568868
O O4 0.317508 0.808141 0.632408
O O5 0.695881 0.508292 0.819022
O O6 0.596068 0.267112 0.852887
O O7 0.592980 0.481726 0.607360
O O8 0.623437 0.660493 0.369590
O O9 0.097997 0.759372 0.961790
O O10 0.092175 0.494586 0.210973
O O11 0.101886 0.261927 0.959088
O O12 0.000000 0.000000 0.898582
O O13 0.500000 0.000000 0.917975
#
# Coordination Sequence:
#
# PCOD9342590 Si02
#       6
#     4   4   4   4   4   4
#     4  11  25  42  71  96 136 168 235 278 354 414
#     4  11  24  43  63  92 129 172 209 289 340 398
#     4  11  23  43  63  95 132 173 212 293 346 398
#     4  12  28  45  80 112 145 203 249 300 364 443
#     4  12  26  49  73 111 155 196 245 302 362 429
#     4  11  26  41  64  92 125 175 228 274 344 426
#
# _framework density 22.347852
#
# number of rings (size 3 to 8) (size 9 to 14) (size 15 to 20)
#    0.000    0.667    3.333    3.500    7.000    0.000 
#    0.000    0.000    0.000    0.000    0.000    0.000 
#    0.000    0.000    0.000    0.000    0.000    0.000 
#
# Total GULP energy -133747.171605 kJ/mol
# GULP energy per Si atom -5572.798817 kJ/mol
# Density = 2.229699 g / cm^3
# Si number density = 22.347852 Si / 1000 Ang^3
#
#
#
# Elastic Constant Matrix: (Units=GPa)
#
#
# Indices 1 2 3 4 5 6 
#
# 1 102.3196 1.3113 1.4858 0.0000 0.0000 0.0000
# 2 1.3113 83.2413 37.8895 0.0000 0.0000 0.0000
# 3 1.4858 37.8895 116.9318 0.0000 0.0000 0.0000
# 4 0.0000 0.0000 0.0000 26.0828 0.0000 0.0000
# 5 0.0000 0.0000 0.0000 0.0000 34.8957 0.0000
# 6 0.0000 0.0000 0.0000 0.0000 0.0000 17.2541
#
#
#
# Elastic Compliance Matrix: (Units=1/GPa)
#
#
# Indices 1 2 3 4 5 6 
#
# 1 0.009776 -0.000114 -0.000087 0.000000 0.000000 0.000000
# 2 -0.000114 0.014093 -0.004565 0.000000 0.000000 0.000000
# 3 -0.000087 -0.004565 0.010032 0.000000 0.000000 0.000000
# 4 0.000000 0.000000 0.000000 0.038339 0.000000 0.000000
# 5 0.000000 0.000000 0.000000 0.000000 0.028657 0.000000
# 6 0.000000 0.000000 0.000000 0.000000 0.000000 0.057957
#
#
# Mechanical properties :
#
#
# Convention : Reuss Voigt Hill
#
# Bulk Modulus (GPa) = 41.03718 42.65176 41.84447
# Shear Modulus (GPa) = 28.32688 33.10026 30.71357
#
# Velocity S-wave (km/s) = 3.56412 3.85273 3.71123
# Velocity P-wave (km/s) = 5.94475 6.23845 6.09337
#
# Compressibility (1/GPa) = 0.02436815
#
# Stress axis : x y z
#
# Youngs Moduli (GPa) = 102.29106 70.95726 99.67768
#
# Poissons Ratio (x) = 0.00811 0.00869
# Poissons Ratio (y) = 0.01169 0.45504
# Poissons Ratio (z) = 0.00892 0.32393
#
# Static dielectric constant tensor:
#      x y z
#    x 1.777130 0.000000 0.000000 
#    y 0.000000 2.222080 0.000000 
#    z 0.000000 0.000000 1.844000 
# 
# From -- ./inp_files/2808.got.cif
#   From: 2010.05.17/outbox.cif.g08.bks.cpg/sg30_2_cif.got.tgz:2808.got - 2010.06.03 17:03:02.
