data_PCOD9342499
_publ_section_title
;
Structure prediction by ZEFSAII (Michael W. Deem and Ramdas Pophale) SiO2 
 PCOD9342499
Probable space group: P N C 2
;
_chemical_formula_sum "Si O2"
_cell_formula_units_Z 20
_cell_length_a 7.494607
_cell_length_b 12.337944
_cell_length_c 10.444189
_cell_angle_alpha 90.000000
_cell_angle_beta 90.000000
_cell_angle_gamma 90.000000
_cell_volume 965.753702
_symmetry_space_group_name_H-M "P N C 2"
_symmetry_group_IT_number 30
_symmetry_cell_setting 'orthorhombic'
loop_
_space_group_symop_operation_xyz
x,y,z
-x,-y,z
-x,1/2+y,1/2+z
x,1/2-y,1/2+z
loop_
_atom_site_type_symbol
_atom_site_label
_atom_site_fract_x
_atom_site_fract_y
_atom_site_fract_z
Si Si1 0.820822 0.562551 0.213000
Si Si2 0.677654 0.444495 0.964368
Si Si3 0.000000 0.000000 0.294629
Si Si4 0.500000 0.000000 0.898273
Si Si5 0.759508 0.795320 0.256609
Si Si6 0.473132 0.268695 0.507213
O O1 0.669138 0.531905 0.313343
O O2 0.870840 0.687921 0.225266
O O3 0.000000 0.500000 0.236201
O O4 0.737149 0.524608 0.078370
O O5 0.500000 0.500000 0.903440
O O6 0.849701 0.436964 0.875758
O O7 0.618879 0.326438 0.011749
O O8 0.876485 0.903664 0.236982
O O9 0.457437 0.888107 0.970597
O O10 0.668652 0.773517 0.396833
O O11 0.609879 0.785676 0.147107
#
# Coordination Sequence:
#
# PCOD9342499 Si02
#       6
#     4   4   2   2   4   4
#     4  11  22  42  69  99 136 184 239 280 339 426
#     4  12  21  44  72  98 135 189 235 281 341 430
#     4  12  26  40  70 106 140 182 234 292 358 402
#     4  10  24  44  66 104 140 186 224 292 356 404
#     4  11  24  47  67 103 141 178 234 291 338 427
#     4  11  24  46  72  97 144 181 232 287 348 415
#
# _framework density 20.709212000000001
#
# number of rings (size 3 to 8) (size 9 to 14) (size 15 to 20)
#    0.000    0.800    6.000    1.200    2.800    1.600 
#   10.800    0.000    0.000    0.000    0.000    0.000 
#    0.000    0.000    0.000    0.000    0.000    0.000 
#
# Total GULP energy -111533.333258 kJ/mol
# GULP energy per Si atom -5576.666663 kJ/mol
# Density = 2.066208 g / cm^3
# Si number density = 20.709212 Si / 1000 Ang^3
#
#
#
# Elastic Constant Matrix: (Units=GPa)
#
#
# Indices 1 2 3 4 5 6 
#
# 1 97.2862 39.1014 13.4259 0.0000 0.0000 0.0000
# 2 39.1014 183.9629 25.7686 0.0000 0.0000 0.0000
# 3 13.4259 25.7686 57.4109 0.0000 0.0000 0.0000
# 4 0.0000 0.0000 0.0000 25.0913 0.0000 0.0000
# 5 0.0000 0.0000 0.0000 0.0000 4.7028 0.0000
# 6 0.0000 0.0000 0.0000 0.0000 0.0000 31.2089
#
#
#
# Elastic Compliance Matrix: (Units=1/GPa)
#
#
# Indices 1 2 3 4 5 6 
#
# 1 0.011389 -0.002185 -0.001683 0.000000 0.000000 0.000000
# 2 -0.002185 0.006220 -0.002281 0.000000 0.000000 0.000000
# 3 -0.001683 -0.002281 0.018835 0.000000 0.000000 0.000000
# 4 0.000000 0.000000 0.000000 0.039854 0.000000 0.000000
# 5 0.000000 0.000000 0.000000 0.000000 0.212640 0.000000
# 6 0.000000 0.000000 0.000000 0.000000 0.000000 0.032042
#
#
# Mechanical properties :
#
#
# Convention : Reuss Voigt Hill
#
# Bulk Modulus (GPa) = 41.41196 55.02797 48.21997
# Shear Modulus (GPa) = 14.64868 29.55822 22.10345
#
# Velocity S-wave (km/s) = 2.66249 3.78206 3.27054
# Velocity P-wave (km/s) = 5.43066 6.76028 6.13162
#
# Compressibility (1/GPa) = 0.02414761
#
# Stress axis : x y z
#
# Youngs Moduli (GPa) = 87.80083 160.77698 53.09128
#
# Poissons Ratio (x) = 0.35132 0.08934
# Poissons Ratio (y) = 0.19186 0.12109
# Poissons Ratio (z) = 0.14774 0.36669
#
# Static dielectric constant tensor:
#      x y z
#    x 1.727730 0.000000 0.000000 
#    y 0.000000 1.827090 0.000000 
#    z 0.000000 0.000000 1.799310 
# 
# From -- ./inp_files/1739.got.cif
#   From: 2010.05.17/outbox.cif.g08.bks.cpg/sg30_1_cif.got.tgz:1739.got - 2010.06.03 17:03:02.
