data_PCOD9342393
_publ_section_title
;
Structure prediction by ZEFSAII (Michael W. Deem and Ramdas Pophale) SiO2 
 PCOD9342393
Probable space group: P N C 2
;
_chemical_formula_sum "Si O2"
_cell_formula_units_Z 16
_cell_length_a 5.375176
_cell_length_b 5.235677
_cell_length_c 23.075450
_cell_angle_alpha 90.000000
_cell_angle_beta 90.000000
_cell_angle_gamma 90.000000
_cell_volume 649.405129
_symmetry_space_group_name_H-M "P N C 2"
_symmetry_group_IT_number 30
_symmetry_cell_setting 'orthorhombic'
loop_
_space_group_symop_operation_xyz
x,y,z
-x,-y,z
-x,1/2+y,1/2+z
x,1/2-y,1/2+z
loop_
_atom_site_type_symbol
_atom_site_label
_atom_site_fract_x
_atom_site_fract_y
_atom_site_fract_z
Si Si1 0.328956 0.754394 0.437340
Si Si2 0.000000 0.000000 0.848120
Si Si3 0.331779 0.745509 0.068745
Si Si4 0.000000 0.000000 0.158269
Si Si5 0.751213 0.647290 0.769891
O O1 0.500000 0.500000 0.434728
O O2 0.111064 0.708534 0.391934
O O3 0.230131 0.777946 0.503183
O O4 0.500000 0.000000 0.425244
O O5 0.217520 0.091983 0.804623
O O6 0.500000 0.500000 0.080124
O O7 0.127028 0.793738 0.117121
O O8 0.500000 0.000000 0.069487
O O9 0.198446 0.140479 0.200737
O O10 0.500000 0.500000 0.782344
O O11 0.000000 0.500000 0.789545
#
# Coordination Sequence:
#
# PCOD9342393 Si02
#       5
#     4   2   4   2   4
#     4  10  25  43  73 110 151 200 256 317 392 470
#     4  12  27  44  78 102 161 204 264 322 398 462
#     4  10  22  44  71 109 148 194 252 318 390 466
#     4  10  23  42  74 100 149 196 258 316 396 458
#     4  10  27  46  69 111 147 198 264 314 385 461
#
# _framework density 24.637936
#
# number of rings (size 3 to 8) (size 9 to 14) (size 15 to 20)
#    0.750    1.000    0.000    1.500    7.000    5.000 
#    0.000    7.500    0.000    0.000    0.000    0.000 
#    0.000    0.000    0.000    0.000    0.000    0.000 
#
# Total GULP energy -89568.483897 kJ/mol
# GULP energy per Si atom -5598.030244 kJ/mol
# Density = 2.458186 g / cm^3
# Si number density = 24.637936 Si / 1000 Ang^3
#
#
#
# Elastic Constant Matrix: (Units=GPa)
#
#
# Indices 1 2 3 4 5 6 
#
# 1 128.4905 60.2760 80.7919 0.0000 0.0000 0.0000
# 2 60.2760 159.2561 71.9963 0.0000 0.0000 0.0000
# 3 80.7919 71.9963 211.4528 0.0000 0.0000 0.0000
# 4 0.0000 0.0000 0.0000 3539.1819 0.0000 0.0000
# 5 0.0000 0.0000 0.0000 0.0000 17.1579 0.0000
# 6 0.0000 0.0000 0.0000 0.0000 0.0000 34.8534
#
#
#
# Elastic Compliance Matrix: (Units=1/GPa)
#
#
# Indices 1 2 3 4 5 6 
#
# 1 0.011154 -0.002713 -0.003338 0.000000 0.000000 0.000000
# 2 -0.002713 0.008081 -0.001715 0.000000 0.000000 0.000000
# 3 -0.003338 -0.001715 0.006589 0.000000 0.000000 0.000000
# 4 0.000000 0.000000 0.000000 0.000283 0.000000 0.000000
# 5 0.000000 0.000000 0.000000 0.000000 0.058282 0.000000
# 6 0.000000 0.000000 0.000000 0.000000 0.000000 0.028692
#
#
# Mechanical properties :
#
#
# Convention : Reuss Voigt Hill
#
# Bulk Modulus (GPa) = 97.16038 102.81417 99.98728
# Shear Modulus (GPa) = 37.86651 737.31432 387.59042
#
# Velocity S-wave (km/s) = 3.92461 17.31789 12.55611
# Velocity P-wave (km/s) = 7.74969 21.01666 15.83915
#
# Compressibility (1/GPa) = 0.01029226
#
# Stress axis : x y z
#
# Youngs Moduli (GPa) = 89.65288 123.74370 151.77696
#
# Poissons Ratio (x) = 0.33566 0.50666
# Poissons Ratio (y) = 0.24319 0.26032
# Poissons Ratio (z) = 0.29928 0.21223
#
# Static dielectric constant tensor:
#      x y z
#    x 1.955490 0.000000 0.000000 
#    y 0.000000 -5.150910 0.000000 
#    z 0.000000 0.000000 1.940990 
# 
# From -- ./inp_files/6717.got.cif
#   From: 2010.05.17/outbox.cif.g08.bks.cpg/sg30_4_cif.got.tgz:6717.got - 2010.06.03 17:03:02.
