data_PCOD9342430
_publ_section_title
;
Structure prediction by ZEFSAII (Michael W. Deem and Ramdas Pophale) SiO2 
 PCOD9342430
Probable space group: P N C 2
;
_chemical_formula_sum "Si O2"
_cell_formula_units_Z 28
_cell_length_a 11.351673
_cell_length_b 18.886880
_cell_length_c 5.117025
_cell_angle_alpha 90.000000
_cell_angle_beta 90.000000
_cell_angle_gamma 90.000000
_cell_volume 1097.078318
_symmetry_space_group_name_H-M "P N C 2"
_symmetry_group_IT_number 30
_symmetry_cell_setting 'orthorhombic'
loop_
_space_group_symop_operation_xyz
x,y,z
-x,-y,z
-x,1/2+y,1/2+z
x,1/2-y,1/2+z
loop_
_atom_site_type_symbol
_atom_site_label
_atom_site_fract_x
_atom_site_fract_y
_atom_site_fract_z
Si Si1 0.811816 0.949924 0.107250
Si Si2 0.814121 0.797412 0.666742
Si Si3 0.397089 0.704091 0.628639
Si Si4 0.988438 0.581067 0.013994
Si Si5 0.379272 0.998565 0.727881
Si Si6 0.380362 0.132584 0.385318
Si Si7 0.240652 0.903149 0.409153
O O1 0.940745 0.928002 0.213754
O O2 0.730429 0.885250 0.202201
O O3 0.787436 0.021070 0.276968
O O4 0.743020 0.973779 0.848805
O O5 0.840557 0.754578 0.926484
O O6 0.893909 0.868420 0.654433
O O7 0.677021 0.818854 0.612689
O O8 0.391205 0.730841 0.333984
O O9 0.516915 0.665146 0.714656
O O10 0.291199 0.651787 0.704078
O O11 0.000000 0.500000 0.121994
O O12 0.115311 0.617407 0.027427
O O13 0.412292 0.057299 0.512067
O O14 0.500000 0.000000 0.898363
O O15 0.341734 0.922725 0.616850
#
# Coordination Sequence:
#
# PCOD9342430 Si02
#       7
#     4   4   4   4   4   4   4
#     4   9  22  39  71 101 134 175 234 299 368 426
#     4  11  25  45  71 102 143 195 249 308 373 447
#     4  12  28  43  66  98 140 192 235 286 359 440
#     4   9  21  49  67 102 140 188 252 304 372 437
#     4  11  22  38  73 108 139 183 233 311 379 441
#     4  10  23  41  65 101 142 178 239 296 370 439
#     4  10  23  44  64  99 138 181 234 297 361 441
#
# _framework density 25.522334000000001
#
# number of rings (size 3 to 8) (size 9 to 14) (size 15 to 20)
#    0.000    1.714    1.429    1.714   10.000    1.143 
#    5.143    2.857    0.000    0.000    0.000    0.000 
#    0.000    0.000    0.000    0.000    0.000    0.000 
#
# Total GULP energy -156541.425950 kJ/mol
# GULP energy per Si atom -5590.765212 kJ/mol
# Density = 2.546424 g / cm^3
# Si number density = 25.522334 Si / 1000 Ang^3
#
#
#
# Elastic Constant Matrix: (Units=GPa)
#
#
# Indices 1 2 3 4 5 6 
#
# 1 133.6357 19.4639 -5.1395 0.0000 0.0000 0.0000
# 2 19.4639 103.0805 26.1617 0.0000 0.0000 0.0000
# 3 -5.1395 26.1617 68.9564 0.0000 0.0000 0.0000
# 4 0.0000 0.0000 0.0000 35.7228 0.0000 0.0000
# 5 0.0000 0.0000 0.0000 0.0000 15.5499 0.0000
# 6 0.0000 0.0000 0.0000 0.0000 0.0000 48.9340
#
#
#
# Elastic Compliance Matrix: (Units=1/GPa)
#
#
# Indices 1 2 3 4 5 6 
#
# 1 0.007792 -0.001791 0.001260 0.000000 0.000000 0.000000
# 2 -0.001791 0.011147 -0.004362 0.000000 0.000000 0.000000
# 3 0.001260 -0.004362 0.016251 0.000000 0.000000 0.000000
# 4 0.000000 0.000000 0.000000 0.027993 0.000000 0.000000
# 5 0.000000 0.000000 0.000000 0.000000 0.064309 0.000000
# 6 0.000000 0.000000 0.000000 0.000000 0.000000 0.020436
#
#
# Mechanical properties :
#
#
# Convention : Reuss Voigt Hill
#
# Bulk Modulus (GPa) = 39.36505 42.96054 41.16280
# Shear Modulus (GPa) = 30.08743 37.72044 33.90394
#
# Velocity S-wave (km/s) = 3.43719 3.84857 3.64868
# Velocity P-wave (km/s) = 5.58656 6.05126 5.82354
#
# Compressibility (1/GPa) = 0.02540324
#
# Stress axis : x y z
#
# Youngs Moduli (GPa) = 128.33020 89.71372 61.53488
#
# Poissons Ratio (x) = 0.16070 -0.07756
# Poissons Ratio (y) = 0.22987 0.26844
# Poissons Ratio (z) = -0.16174 0.39137
#
# Static dielectric constant tensor:
#      x y z
#    x 2.040660 0.000000 0.000000 
#    y 0.000000 2.014890 0.000000 
#    z 0.000000 0.000000 2.138040 
# 
# From -- ./inp_files/772.got.cif
#   From: 2010.05.17/outbox.cif.g08.bks.cpg/sg30_1_cif.got.tgz:772.got - 2010.06.03 17:03:02.
