data_PCOD9342514
_publ_section_title
;
Structure prediction by ZEFSAII (Michael W. Deem and Ramdas Pophale) SiO2 
 PCOD9342514
Probable space group: P N C 2
;
_chemical_formula_sum "Si O2"
_cell_formula_units_Z 22
_cell_length_a 10.067731
_cell_length_b 5.081107
_cell_length_c 18.256055
_cell_angle_alpha 90.000000
_cell_angle_beta 90.000000
_cell_angle_gamma 90.000000
_cell_volume 933.892482
_symmetry_space_group_name_H-M "P N C 2"
_symmetry_group_IT_number 30
_symmetry_cell_setting 'orthorhombic'
loop_
_space_group_symop_operation_xyz
x,y,z
-x,-y,z
-x,1/2+y,1/2+z
x,1/2-y,1/2+z
loop_
_atom_site_type_symbol
_atom_site_label
_atom_site_fract_x
_atom_site_fract_y
_atom_site_fract_z
Si Si1 0.500000 0.000000 0.708431
Si Si2 0.158437 0.439980 0.890997
Si Si3 0.778103 0.066298 0.980757
Si Si4 0.000000 0.500000 0.199823
Si Si5 0.356324 0.112941 0.118439
Si Si6 0.746230 0.293777 0.748760
Si Si7 0.000000 0.500000 0.599218
O O1 0.617487 0.898425 0.652888
O O2 0.402574 0.824015 0.759359
O O3 0.181987 0.147260 0.920087
O O4 0.215868 0.498083 0.811084
O O5 0.000000 0.500000 0.892740
O O6 0.234044 0.651043 0.943258
O O7 0.668363 0.932251 0.033193
O O8 0.891097 0.098416 0.041631
O O9 0.129557 0.591776 0.245136
O O10 0.964989 0.747407 0.148248
O O11 0.500000 0.000000 0.135357
O O12 0.261353 0.946881 0.171463
#
# Coordination Sequence:
#
# PCOD9342514 Si02
#       7
#     2   4   4   2   4   4   2
#     4  10  24  50  74 104 144 194 254 318 370 442
#     4  12  28  45  69 108 154 193 238 300 377 449
#     4  12  25  46  69 104 148 190 233 304 371 443
#     4  12  26  39  80 113 140 186 262 312 372 437
#     4  10  24  47  76 105 137 192 256 312 366 444
#     4  11  27  45  75 107 151 197 250 315 376 453
#     4  12  22  41  70 111 138 186 240 306 372 439
#
# _framework density 23.557317000000001
#
# number of rings (size 3 to 8) (size 9 to 14) (size 15 to 20)
#    0.000    0.727    3.636    2.182   11.455    0.000 
#    1.636    0.000    0.000    0.000    0.000    0.000 
#    0.000    0.000    0.000    0.000    0.000    0.000 
#
# Total GULP energy -122796.547770 kJ/mol
# GULP energy per Si atom -5581.661262 kJ/mol
# Density = 2.350370 g / cm^3
# Si number density = 23.557317 Si / 1000 Ang^3
#
#
#
# Elastic Constant Matrix: (Units=GPa)
#
#
# Indices 1 2 3 4 5 6 
#
# 1 93.7919 14.4852 24.6164 0.0000 0.0000 0.0000
# 2 14.4852 90.9237 18.1766 0.0000 0.0000 0.0000
# 3 24.6164 18.1766 109.6462 0.0000 0.0000 0.0000
# 4 0.0000 0.0000 0.0000 40.6912 0.0000 0.0000
# 5 0.0000 0.0000 0.0000 0.0000 -38.0814 0.0000
# 6 0.0000 0.0000 0.0000 0.0000 0.0000 30.9377
#
#
#
# Elastic Compliance Matrix: (Units=1/GPa)
#
#
# Indices 1 2 3 4 5 6 
#
# 1 0.011490 -0.001360 -0.002354 0.000000 0.000000 0.000000
# 2 -0.001360 0.011536 -0.001607 0.000000 0.000000 0.000000
# 3 -0.002354 -0.001607 0.009915 0.000000 0.000000 0.000000
# 4 0.000000 0.000000 0.000000 0.024575 0.000000 0.000000
# 5 0.000000 0.000000 0.000000 0.000000 -0.026260 0.000000
# 6 0.000000 0.000000 0.000000 0.000000 0.000000 0.032323
#
#
# Mechanical properties :
#
#
# Convention : Reuss Voigt Hill
#
# Bulk Modulus (GPa) = 44.84510 45.43534 45.14022
# Shear Modulus (GPa) = 61.23317 22.51506 41.87411
#
# Velocity S-wave (km/s) = 5.10389 3.09489 4.22066
# Velocity P-wave (km/s) = 7.33559 5.66570 6.55404
#
# Compressibility (1/GPa) = 0.02229898
#
# Stress axis : x y z
#
# Youngs Moduli (GPa) = 87.03393 86.68399 100.85548
#
# Poissons Ratio (x) = 0.11788 0.23742
# Poissons Ratio (y) = 0.11835 0.16209
# Poissons Ratio (z) = 0.20489 0.13931
#
# Static dielectric constant tensor:
#      x y z
#    x 2.086320 0.000000 0.000000 
#    y 0.000000 2.749700 0.000000 
#    z 0.000000 0.000000 1.893140 
# 
# From -- ./inp_files/5418.got.cif
#   From: 2010.05.17/outbox.cif.g08.bks.cpg/sg30_3_cif.got.tgz:5418.got - 2010.06.03 17:03:02.
