data_PCOD9342903
_publ_section_title
;
Structure prediction by ZEFSAII (Michael W. Deem and Ramdas Pophale) SiO2 
 PCOD9342903
Probable space group: P M N 21
;
_chemical_formula_sum "Si O2"
_cell_formula_units_Z 32
_cell_length_a 7.676859
_cell_length_b 11.069988
_cell_length_c 14.427455
_cell_angle_alpha 90.000000
_cell_angle_beta 90.000000
_cell_angle_gamma 90.000000
_cell_volume 1226.084614
_symmetry_space_group_name_H-M "P M N 21"
_symmetry_group_IT_number 31
_symmetry_cell_setting 'orthorhombic'
loop_
_space_group_symop_operation_xyz
x,y,z
1/2-x,-y,1/2+z
-x,y,z
1/2+x,-y,1/2+z
loop_
_atom_site_type_symbol
_atom_site_label
_atom_site_fract_x
_atom_site_fract_y
_atom_site_fract_z
Si Si1 0.705893 0.292971 0.365060
Si Si2 0.798303 0.577956 0.698174
Si Si3 0.708408 0.204130 0.640286
Si Si4 0.710185 0.803831 0.483470
Si Si5 0.710747 0.935966 0.661713
Si Si6 0.703574 0.349293 0.815625
Si Si7 0.800321 0.441555 0.530521
Si Si8 0.796045 0.959878 0.877427
O O1 0.500000 0.274568 0.351565
O O2 0.785441 0.322918 0.264886
O O3 0.722414 0.405838 0.432945
O O4 0.777450 0.170049 0.408718
O O5 0.798562 0.459121 0.764345
O O6 0.716590 0.537693 0.601039
O O7 0.000000 0.608229 0.680296
O O8 0.500000 0.214622 0.623737
O O9 0.741509 0.234132 0.748848
O O10 0.792844 0.314334 0.585840
O O11 0.758249 0.067297 0.618573
O O12 0.500000 0.802401 0.485265
O O13 0.767898 0.831885 0.589224
O O14 0.761569 0.688645 0.421312
O O15 0.777117 0.919965 0.423897
O O16 0.500000 0.932592 0.668204
O O17 0.780757 0.945609 0.766167
O O18 0.500000 0.377668 0.806338
O O19 0.000000 0.474220 0.514870
O O20 0.000000 0.964457 0.902966
#
# Coordination Sequence:
#
# PCOD9342903 Si02
#       8
#     4   4   4   4   4   4   4   4
#     4  10  21  40  61  81 113 156 190 226 285 347
#     4   9  20  39  60  81 112 149 186 231 286 339
#     4   9  17  32  54  78 109 146 184 227 276 330
#     4  10  20  34  54  80 115 152 184 223 279 343
#     4  10  20  35  54  80 115 152 187 227 278 336
#     4  10  19  33  56  81 106 138 183 236 277 322
#     4  10  20  34  57  88 113 143 191 243 281 323
#     4  10  21  37  58  83 113 152 191 229 278 338
#
# _framework density 26.099340999999999
#
# number of rings (size 3 to 8) (size 9 to 14) (size 15 to 20)
#    0.000    2.250    1.250    1.500    0.000    5.000 
#    2.250    1.250    0.000    0.000    0.000    0.000 
#    0.000    0.000    0.000    0.000    0.000    0.000 
#
# Total GULP energy -178840.957503 kJ/mol
# GULP energy per Si atom -5588.779922 kJ/mol
# Density = 2.603994 g / cm^3
# Si number density = 26.099341 Si / 1000 Ang^3
#
#
#
# Elastic Constant Matrix: (Units=GPa)
#
#
# Indices 1 2 3 4 5 6 
#
# 1 54.3773 2.9535 -2.3255 0.0000 0.0000 0.0000
# 2 2.9535 68.4722 20.3480 0.0000 0.0000 0.0000
# 3 -2.3255 20.3480 139.3222 0.0000 0.0000 0.0000
# 4 0.0000 0.0000 0.0000 56.5773 0.0000 0.0000
# 5 0.0000 0.0000 0.0000 0.0000 4.6343 0.0000
# 6 0.0000 0.0000 0.0000 0.0000 0.0000 11.6793
#
#
#
# Elastic Compliance Matrix: (Units=1/GPa)
#
#
# Indices 1 2 3 4 5 6 
#
# 1 0.018459 -0.000928 0.000444 0.000000 0.000000 0.000000
# 2 -0.000928 0.015314 -0.002252 0.000000 0.000000 0.000000
# 3 0.000444 -0.002252 0.007514 0.000000 0.000000 0.000000
# 4 0.000000 0.000000 0.000000 0.017675 0.000000 0.000000
# 5 0.000000 0.000000 0.000000 0.000000 0.215785 0.000000
# 6 0.000000 0.000000 0.000000 0.000000 0.000000 0.085622
#
#
# Mechanical properties :
#
#
# Convention : Reuss Voigt Hill
#
# Bulk Modulus (GPa) = 27.92194 33.79152 30.85673
# Shear Modulus (GPa) = 13.23524 30.65788 21.94656
#
# Velocity S-wave (km/s) = 2.25435 3.43105 2.90295
# Velocity P-wave (km/s) = 4.18303 5.35458 4.80465
#
# Compressibility (1/GPa) = 0.03581413
#
# Stress axis : x y z
#
# Youngs Moduli (GPa) = 54.17295 65.30084 133.08621
#
# Poissons Ratio (x) = 0.06060 -0.05905
# Poissons Ratio (y) = 0.05028 0.29972
# Poissons Ratio (z) = -0.02403 0.14706
#
# Static dielectric constant tensor:
#      x y z
#    x 1.941700 0.000000 0.000000 
#    y 0.000000 2.124420 0.000000 
#    z 0.000000 0.000000 2.103900 
# 
# From -- ./inp_files/5096.got.cif
#   From: 2010.05.17/outbox.cif.g08.bks.cpg/sg31_3_cif.got.tgz:5096.got - 2010.06.03 17:08:30.
