data_PCOD9342127
_publ_section_title
;
Structure prediction by ZEFSAII (Michael W. Deem and Ramdas Pophale) SiO2 
 PCOD9342127
Probable space group: P N C 2
;
_chemical_formula_sum "Si O2"
_cell_formula_units_Z 24
_cell_length_a 5.139822
_cell_length_b 22.217062
_cell_length_c 8.426924
_cell_angle_alpha 90.000000
_cell_angle_beta 90.000000
_cell_angle_gamma 90.000000
_cell_volume 962.285148
_symmetry_space_group_name_H-M "P N C 2"
_symmetry_group_IT_number 30
_symmetry_cell_setting 'orthorhombic'
loop_
_space_group_symop_operation_xyz
x,y,z
-x,-y,z
-x,1/2+y,1/2+z
x,1/2-y,1/2+z
loop_
_atom_site_type_symbol
_atom_site_label
_atom_site_fract_x
_atom_site_fract_y
_atom_site_fract_z
Si Si1 0.166654 0.757445 0.855880
Si Si2 0.683692 0.816675 0.008985
Si Si3 0.573776 0.563239 0.328895
Si Si4 0.836601 0.557357 0.986030
Si Si5 0.754066 0.143114 0.628099
Si Si6 0.529704 0.651993 0.847363
O O1 0.410651 0.789331 0.946502
O O2 0.138906 0.796120 0.696741
O O3 0.262894 0.690228 0.818240
O O4 0.902897 0.772102 0.945869
O O5 0.708879 0.883970 0.931564
O O6 0.689664 0.823337 0.198788
O O7 0.500000 0.500000 0.409341
O O8 0.313896 0.596383 0.266062
O O9 0.720989 0.546634 0.163395
O O10 0.617604 0.581718 0.863581
O O11 0.000000 0.500000 0.931856
O O12 0.050690 0.609128 0.012806
O O13 0.483117 0.160226 0.539810
#
# Coordination Sequence:
#
# PCOD9342127 Si02
#       6
#     4   4   4   4   4   4
#     4  11  25  47  72 100 147 199 253 309 385 483
#     4  11  26  46  71 109 148 193 252 317 394 458
#     4  10  20  42  70 104 141 192 254 308 369 468
#     4  11  22  43  74 104 147 199 260 315 385 476
#     4  10  22  42  71 100 141 195 254 309 380 467
#     4  11  27  43  69 111 150 193 251 328 398 464
#
# _framework density 24.940631
#
# number of rings (size 3 to 8) (size 9 to 14) (size 15 to 20)
#    0.000    1.333    3.333    1.000    4.667    1.333 
#    3.000    0.833    0.000    0.000    0.000    0.000 
#    0.000    0.000    0.000    0.000    0.000    0.000 
#
# Total GULP energy -133699.217684 kJ/mol
# GULP energy per Si atom -5570.800737 kJ/mol
# Density = 2.488386 g / cm^3
# Si number density = 24.940631 Si / 1000 Ang^3
#
#
#
# Elastic Constant Matrix: (Units=GPa)
#
#
# Indices 1 2 3 4 5 6 
#
# 1 117.9231 61.1366 41.2410 0.0000 0.0000 0.0000
# 2 61.1366 164.3357 42.4968 0.0000 0.0000 0.0000
# 3 41.2410 42.4968 83.3068 0.0000 0.0000 0.0000
# 4 0.0000 0.0000 0.0000 37.3003 0.0000 0.0000
# 5 0.0000 0.0000 0.0000 0.0000 28.3980 0.0000
# 6 0.0000 0.0000 0.0000 0.0000 0.0000 56.2877
#
#
#
# Elastic Compliance Matrix: (Units=1/GPa)
#
#
# Indices 1 2 3 4 5 6 
#
# 1 0.011596 -0.003259 -0.004078 0.000000 0.000000 0.000000
# 2 -0.003259 0.007926 -0.002430 0.000000 0.000000 0.000000
# 3 -0.004078 -0.002430 0.015262 0.000000 0.000000 0.000000
# 4 0.000000 0.000000 0.000000 0.026809 0.000000 0.000000
# 5 0.000000 0.000000 0.000000 0.000000 0.035214 0.000000
# 6 0.000000 0.000000 0.000000 0.000000 0.000000 0.017766
#
#
# Mechanical properties :
#
#
# Convention : Reuss Voigt Hill
#
# Bulk Modulus (GPa) = 65.57352 72.81273 69.19312
# Shear Modulus (GPa) = 35.92196 39.10995 37.51595
#
# Velocity S-wave (km/s) = 3.79924 3.96425 3.88262
# Velocity P-wave (km/s) = 6.75238 7.08601 6.92120
#
# Compressibility (1/GPa) = 0.01525006
#
# Stress axis : x y z
#
# Youngs Moduli (GPa) = 86.23565 126.16698 65.52218
#
# Poissons Ratio (x) = 0.41124 0.26719
# Poissons Ratio (y) = 0.28108 0.15920
# Poissons Ratio (z) = 0.35166 0.30654
#
# Static dielectric constant tensor:
#      x y z
#    x 2.094780 0.000000 0.000000 
#    y 0.000000 2.067440 0.000000 
#    z 0.000000 0.000000 2.032110 
# 
# From -- ./inp_files/1399.got.cif
#   From: 2010.05.17/outbox.cif.g08.bks.cpg/sg30_1_cif.got.tgz:1399.got - 2010.06.03 17:03:02.
