data_PCOD9342520
_publ_section_title
;
Structure prediction by ZEFSAII (Michael W. Deem and Ramdas Pophale) SiO2 
 PCOD9342520
Probable space group: P N C 2
;
_chemical_formula_sum "Si O2"
_cell_formula_units_Z 28
_cell_length_a 8.692658
_cell_length_b 18.032849
_cell_length_c 8.632890
_cell_angle_alpha 90.000000
_cell_angle_beta 90.000000
_cell_angle_gamma 90.000000
_cell_volume 1353.234765
_symmetry_space_group_name_H-M "P N C 2"
_symmetry_group_IT_number 30
_symmetry_cell_setting 'orthorhombic'
loop_
_space_group_symop_operation_xyz
x,y,z
-x,-y,z
-x,1/2+y,1/2+z
x,1/2-y,1/2+z
loop_
_atom_site_type_symbol
_atom_site_label
_atom_site_fract_x
_atom_site_fract_y
_atom_site_fract_z
Si Si1 0.500000 0.000000 0.429410
Si Si2 0.693837 0.742144 0.954479
Si Si3 0.244771 0.842124 0.187090
Si Si4 0.586706 0.337596 0.352625
Si Si5 0.105643 0.331640 0.699392
Si Si6 0.260502 0.480183 0.679691
Si Si7 0.398488 0.653235 0.021585
Si Si8 0.500000 0.000000 0.917745
O O1 0.379339 0.040387 0.316341
O O2 0.591603 0.064106 0.515227
O O3 0.785050 0.793390 0.073224
O O4 0.572501 0.683748 0.023630
O O5 0.575634 0.794911 0.861064
O O6 0.821309 0.698647 0.857233
O O7 0.324620 0.823558 0.354447
O O8 0.072232 0.811616 0.181467
O O9 0.229755 0.932416 0.193626
O O10 0.334027 0.826710 0.023400
O O11 0.670264 0.320174 0.187468
O O12 0.555783 0.425428 0.338606
O O13 0.126558 0.420437 0.685864
O O14 0.359432 0.472481 0.524550
#
# Coordination Sequence:
#
# PCOD9342520 Si02
#       8
#     2   4   4   4   4   4   4   2
#     4   9  17  34  66  99 121 164 223 273 306 379
#     4  12  24  40  66  90 128 178 218 264 320 394
#     4  10  25  42  68  96 128 173 215 272 338 385
#     4  11  22  41  66  96 128 170 220 268 317 388
#     4  12  23  44  62  97 136 169 212 275 336 393
#     4   9  17  36  70  92 125 170 217 265 330 387
#     4  11  22  41  66  96 128 170 220 268 317 388
#     4   9  17  34  66  99 121 164 223 273 306 379
#
# _framework density 20.691163
#
# number of rings (size 3 to 8) (size 9 to 14) (size 15 to 20)
#    0.000    1.429    4.286    2.571    0.000    1.143 
#    2.571    0.000    0.000    3.429    0.000    0.000 
#    0.000    0.000    0.000    0.000    0.000    0.000 
#
# Total GULP energy -156059.351630 kJ/mol
# GULP energy per Si atom -5573.548273 kJ/mol
# Density = 2.064407 g / cm^3
# Si number density = 20.691163 Si / 1000 Ang^3
#
#
#
# Elastic Constant Matrix: (Units=GPa)
#
#
# Indices 1 2 3 4 5 6 
#
# 1 90.7740 -5.8084 15.9887 0.0000 0.0000 0.0000
# 2 -5.8084 60.4598 13.5914 0.0000 0.0000 0.0000
# 3 15.9887 13.5914 96.4045 0.0000 0.0000 0.0000
# 4 0.0000 0.0000 0.0000 -21.0308 0.0000 0.0000
# 5 0.0000 0.0000 0.0000 0.0000 16.1747 0.0000
# 6 0.0000 0.0000 0.0000 0.0000 0.0000 29.1925
#
#
#
# Elastic Compliance Matrix: (Units=1/GPa)
#
#
# Indices 1 2 3 4 5 6 
#
# 1 0.011493 0.001583 -0.002129 0.000000 0.000000 0.000000
# 2 0.001583 0.017299 -0.002701 0.000000 0.000000 0.000000
# 3 -0.002129 -0.002701 0.011107 0.000000 0.000000 0.000000
# 4 0.000000 0.000000 0.000000 -0.047549 0.000000 0.000000
# 5 0.000000 0.000000 0.000000 0.000000 0.061825 0.000000
# 6 0.000000 0.000000 0.000000 0.000000 0.000000 0.034255
#
#
# Mechanical properties :
#
#
# Convention : Reuss Voigt Hill
#
# Bulk Modulus (GPa) = 29.93727 32.79796 31.36762
# Shear Modulus (GPa) = 47.14312 19.79172 33.46742
#
# Velocity S-wave (km/s) = 4.77846 3.09614 4.02615
# Velocity P-wave (km/s) = 6.70410 5.35416 6.06679
#
# Compressibility (1/GPa) = 0.03340318
#
# Stress axis : x y z
#
# Youngs Moduli (GPa) = 87.01190 57.80594 90.03372
#
# Poissons Ratio (x) = -0.09149 0.19170
# Poissons Ratio (y) = -0.13772 0.24322
# Poissons Ratio (z) = 0.18527 0.15616
#
# Static dielectric constant tensor:
#      x y z
#    x 1.685980 0.000000 0.000000 
#    y 0.000000 1.827930 0.000000 
#    z 0.000000 0.000000 1.804750 
# 
# From -- ./inp_files/2026.got.cif
#   From: 2010.05.17/outbox.cif.g08.bks.cpg/sg30_2_cif.got.tgz:2026.got - 2010.06.03 17:03:02.
