data_PCOD9342021
_publ_section_title
;
Structure prediction by ZEFSAII (Michael W. Deem and Ramdas Pophale) SiO2 
 PCOD9342021
Probable space group: P N C 2
;
_chemical_formula_sum "Si O2"
_cell_formula_units_Z 20
_cell_length_a 5.594433
_cell_length_b 10.729415
_cell_length_c 14.094586
_cell_angle_alpha 90.000000
_cell_angle_beta 90.000000
_cell_angle_gamma 90.000000
_cell_volume 846.027431
_symmetry_space_group_name_H-M "P N C 2"
_symmetry_group_IT_number 30
_symmetry_cell_setting 'orthorhombic'
loop_
_space_group_symop_operation_xyz
x,y,z
-x,-y,z
-x,1/2+y,1/2+z
x,1/2-y,1/2+z
loop_
_atom_site_type_symbol
_atom_site_label
_atom_site_fract_x
_atom_site_fract_y
_atom_site_fract_z
Si Si1 0.797782 0.680596 0.527440
Si Si2 0.617000 0.375558 0.086152
Si Si3 0.383000 0.375559 0.343466
Si Si4 0.202218 0.819404 0.402178
Si Si5 0.000000 0.273005 0.714809
O O1 0.581383 0.772108 0.558949
O O2 0.720168 0.584441 0.447222
O O3 0.000000 0.750000 0.464809
O O4 0.898236 0.644475 0.629272
O O5 0.500000 0.500000 0.122554
O O6 0.806096 0.315225 0.159937
O O7 0.720169 0.415559 0.982397
O O8 0.500000 0.500000 0.307065
O O9 0.581383 0.272108 0.370670
O O10 0.193904 0.315225 0.269682
O O11 0.101765 0.855525 0.300347
#
# Coordination Sequence:
#
# PCOD9342021 Si02
#       5
#     4   4   4   4   4
#     4   9  20  36  56  82 118 155 192 243 298 352
#     4  10  21  37  59  87 118 152 195 247 302 359
#     4  10  21  37  59  87 118 152 195 247 302 359
#     4   9  20  36  56  82 118 155 192 243 298 352
#     4  10  20  35  58  85 116 156 198 243 298 363
#
# _framework density 23.639894000000002
#
# number of rings (size 3 to 8) (size 9 to 14) (size 15 to 20)
#    0.000    2.400    0.000    1.200    0.000   11.200 
#    0.000    0.000    0.000   69.600    0.000    0.000 
#    0.000    0.000    0.000    0.000    0.000    0.000 
#
# Total GULP energy -111389.909178 kJ/mol
# GULP energy per Si atom -5569.495459 kJ/mol
# Density = 2.358609 g / cm^3
# Si number density = 23.639894 Si / 1000 Ang^3
#
#
#
# Elastic Constant Matrix: (Units=GPa)
#
#
# Indices 1 2 3 4 5 6 
#
# 1 114.9098 28.9828 63.1872 0.0000 0.0000 0.0000
# 2 28.9828 48.7515 34.8455 0.0000 0.0000 0.0000
# 3 63.1872 34.8455 297.6378 0.0000 0.0000 0.0000
# 4 0.0000 0.0000 0.0000 8.9131 0.0000 0.0000
# 5 0.0000 0.0000 0.0000 0.0000 35.9876 0.0000
# 6 0.0000 0.0000 0.0000 0.0000 0.0000 24.9962
#
#
#
# Elastic Compliance Matrix: (Units=1/GPa)
#
#
# Indices 1 2 3 4 5 6 
#
# 1 0.010981 -0.005306 -0.001710 0.000000 0.000000 0.000000
# 2 -0.005306 0.024949 -0.001794 0.000000 0.000000 0.000000
# 3 -0.001710 -0.001794 0.003933 0.000000 0.000000 0.000000
# 4 0.000000 0.000000 0.000000 0.112195 0.000000 0.000000
# 5 0.000000 0.000000 0.000000 0.000000 0.027787 0.000000
# 6 0.000000 0.000000 0.000000 0.000000 0.000000 0.040006
#
#
# Mechanical properties :
#
#
# Convention : Reuss Voigt Hill
#
# Bulk Modulus (GPa) = 44.95958 79.48112 62.22035
# Shear Modulus (GPa) = 20.41764 36.26496 28.34130
#
# Velocity S-wave (km/s) = 2.94206 3.92095 3.46624
# Velocity P-wave (km/s) = 5.53179 7.36160 6.51129
#
# Compressibility (1/GPa) = 0.02224220
#
# Stress axis : x y z
#
# Youngs Moduli (GPa) = 91.06564 40.08149 254.26487
#
# Poissons Ratio (x) = 0.21267 0.43480
# Poissons Ratio (y) = 0.48319 0.45627
# Poissons Ratio (z) = 0.15573 0.07192
#
# Static dielectric constant tensor:
#      x y z
#    x 2.164940 0.000000 0.000000 
#    y 0.000000 1.885010 0.000000 
#    z 0.000000 0.000000 1.963870 
# 
# From -- ./inp_files/3061.got.cif
#   From: 2010.05.17/outbox.cif.g08.bks.cpg/sg30_2_cif.got.tgz:3061.got - 2010.06.03 17:03:02.
