data_PCOD9342530
_publ_section_title
;
Structure prediction by ZEFSAII (Michael W. Deem and Ramdas Pophale) SiO2 
 PCOD9342530
Probable space group: P N C 2
;
_chemical_formula_sum "Si O2"
_cell_formula_units_Z 20
_cell_length_a 12.644553
_cell_length_b 4.644731
_cell_length_c 13.499574
_cell_angle_alpha 90.000000
_cell_angle_beta 90.000000
_cell_angle_gamma 90.000000
_cell_volume 792.837369
_symmetry_space_group_name_H-M "P N C 2"
_symmetry_group_IT_number 30
_symmetry_cell_setting 'orthorhombic'
loop_
_space_group_symop_operation_xyz
x,y,z
-x,-y,z
-x,1/2+y,1/2+z
x,1/2-y,1/2+z
loop_
_atom_site_type_symbol
_atom_site_label
_atom_site_fract_x
_atom_site_fract_y
_atom_site_fract_z
Si Si1 0.206357 0.776392 0.902470
Si Si2 0.000000 0.000000 0.969875
Si Si3 0.209376 0.243913 0.535872
Si Si4 0.323527 0.933182 0.211409
Si Si5 0.500000 0.000000 0.341735
Si Si6 0.500000 0.500000 0.122049
Si Si7 0.500000 0.500000 0.479529
O O1 0.246840 0.685353 0.796515
O O2 0.451641 0.761158 0.905071
O O3 0.079237 0.811818 0.903433
O O4 0.228090 0.578194 0.999595
O O5 0.916703 0.813539 0.033266
O O6 0.256725 0.382232 0.633928
O O7 0.250407 0.417959 0.438854
O O8 0.409019 0.123607 0.271967
O O9 0.400702 0.679563 0.168381
O O10 0.450881 0.240036 0.053584
#
# Coordination Sequence:
#
# PCOD9342530 Si02
#       7
#     4   2   4   4   2   2   2
#     4  10  25  47  80 117 159 206 272 340 414 489
#     4   8  22  52  78 112 158 200 268 340 430 472
#     4  10  25  47  79 117 163 201 271 343 409 496
#     4  12  28  50  80 122 166 217 287 326 415 499
#     4  11  27  46  74 112 164 218 280 326 398 494
#     4  11  27  46  74 116 168 220 276 334 402 498
#     4  10  26  46  74  98 160 224 264 338 406 442
#
# _framework density 25.225854999999999
#
# number of rings (size 3 to 8) (size 9 to 14) (size 15 to 20)
#    1.200    0.400    0.000    1.800    8.400    8.000 
#    3.600    0.000    0.000    0.000    0.000    0.000 
#    0.000    0.000    0.000    0.000    0.000    0.000 
#
# Total GULP energy -111503.106712 kJ/mol
# GULP energy per Si atom -5575.155336 kJ/mol
# Density = 2.516844 g / cm^3
# Si number density = 25.225855 Si / 1000 Ang^3
#
#
#
# Elastic Constant Matrix: (Units=GPa)
#
#
# Indices 1 2 3 4 5 6 
#
# 1 166.1248 32.0058 84.5164 0.0000 0.0000 0.0000
# 2 32.0058 109.1195 17.9449 0.0000 0.0000 0.0000
# 3 84.5164 17.9449 123.6145 0.0000 0.0000 0.0000
# 4 0.0000 0.0000 0.0000 32.8457 0.0000 0.0000
# 5 0.0000 0.0000 0.0000 0.0000 25.7842 0.0000
# 6 0.0000 0.0000 0.0000 0.0000 0.0000 42.9376
#
#
#
# Elastic Compliance Matrix: (Units=1/GPa)
#
#
# Indices 1 2 3 4 5 6 
#
# 1 0.009553 -0.001770 -0.006274 0.000000 0.000000 0.000000
# 2 -0.001770 0.009716 -0.000200 0.000000 0.000000 0.000000
# 3 -0.006274 -0.000200 0.012409 0.000000 0.000000 0.000000
# 4 0.000000 0.000000 0.000000 0.030445 0.000000 0.000000
# 5 0.000000 0.000000 0.000000 0.000000 0.038783 0.000000
# 6 0.000000 0.000000 0.000000 0.000000 0.000000 0.023290
#
#
# Mechanical properties :
#
#
# Convention : Reuss Voigt Hill
#
# Bulk Modulus (GPa) = 65.84028 74.19921 70.01975
# Shear Modulus (GPa) = 34.30576 37.93960 36.12268
#
# Velocity S-wave (km/s) = 3.69174 3.88235 3.78824
# Velocity P-wave (km/s) = 6.65800 7.04093 6.85214
#
# Compressibility (1/GPa) = 0.01518827
#
# Stress axis : x y z
#
# Youngs Moduli (GPa) = 104.68306 102.91897 80.58985
#
# Poissons Ratio (x) = 0.18217 0.50564
# Poissons Ratio (y) = 0.18530 0.01614
# Poissons Ratio (z) = 0.65681 0.02061
#
# Static dielectric constant tensor:
#      x y z
#    x 2.104550 0.000000 0.000000 
#    y 0.000000 2.008800 0.000000 
#    z 0.000000 0.000000 2.051630 
# 
# From -- ./inp_files/6480.got.cif
#   From: 2010.05.17/outbox.cif.g08.bks.cpg/sg30_4_cif.got.tgz:6480.got - 2010.06.03 17:03:02.
