data_PCOD9342609
_publ_section_title
;
Structure prediction by ZEFSAII (Michael W. Deem and Ramdas Pophale) SiO2 
 PCOD9342609
Probable space group: P N C 2
;
_chemical_formula_sum "Si O2"
_cell_formula_units_Z 26
_cell_length_a 18.528322
_cell_length_b 8.450858
_cell_length_c 7.048169
_cell_angle_alpha 90.000000
_cell_angle_beta 90.000000
_cell_angle_gamma 90.000000
_cell_volume 1103.603840
_symmetry_space_group_name_H-M "P N C 2"
_symmetry_group_IT_number 30
_symmetry_cell_setting 'orthorhombic'
loop_
_space_group_symop_operation_xyz
x,y,z
-x,-y,z
-x,1/2+y,1/2+z
x,1/2-y,1/2+z
loop_
_atom_site_type_symbol
_atom_site_label
_atom_site_fract_x
_atom_site_fract_y
_atom_site_fract_z
Si Si1 0.115608 0.985208 0.751960
Si Si2 0.730670 0.604433 0.210649
Si Si3 0.576486 0.948509 0.291330
Si Si4 0.269541 0.475646 0.769285
Si Si5 0.000000 0.000000 0.020078
Si Si6 0.575458 0.571373 0.238477
Si Si7 0.882306 0.381779 0.816325
O O1 0.114148 0.806879 0.831276
O O2 0.106927 0.966159 0.522813
O O3 0.193874 0.054214 0.797974
O O4 0.054070 0.082403 0.865380
O O5 0.732493 0.794696 0.197258
O O6 0.657640 0.537887 0.307398
O O7 0.730145 0.539861 0.997494
O O8 0.649418 0.031843 0.218605
O O9 0.576086 0.760814 0.256387
O O10 0.575998 0.973675 0.517150
O O11 0.500000 0.000000 0.213457
O O12 0.196576 0.570966 0.732668
O O13 0.055777 0.925564 0.168580
O O14 0.500000 0.500000 0.313296
#
# Coordination Sequence:
#
# PCOD9342609 Si02
#       7
#     4   4   4   4   2   4   4
#     4  11  24  45  66  93 126 161 207 255 309 373
#     4   9  20  37  59  87 119 159 200 248 302 362
#     4   9  18  34  55  83 121 156 200 246 293 351
#     4   9  20  37  59  87 119 159 200 248 302 362
#     4  12  26  44  68  92 126 160 198 266 310 374
#     4   9  18  34  55  83 121 156 200 246 293 351
#     4  11  24  45  66  93 126 161 207 255 309 373
#
# _framework density 23.559176999999998
#
# number of rings (size 3 to 8) (size 9 to 14) (size 15 to 20)
#    0.000    2.154    1.538    0.462    2.154    3.077 
#    5.538    0.000    0.000    0.000    0.000    0.000 
#    0.000    0.000    0.000    0.000    0.000    0.000 
#
# Total GULP energy -144928.368168 kJ/mol
# GULP energy per Si atom -5574.168006 kJ/mol
# Density = 2.350556 g / cm^3
# Si number density = 23.559177 Si / 1000 Ang^3
#
#
#
# Elastic Constant Matrix: (Units=GPa)
#
#
# Indices 1 2 3 4 5 6 
#
# 1 262.6474 48.8217 47.3918 0.0000 0.0000 0.0000
# 2 48.8217 0.3333 10.6831 0.0000 0.0000 0.0000
# 3 47.3918 10.6831 117.8909 0.0000 0.0000 0.0000
# 4 0.0000 0.0000 0.0000 14.9797 0.0000 0.0000
# 5 0.0000 0.0000 0.0000 0.0000 -7.3179 0.0000
# 6 0.0000 0.0000 0.0000 0.0000 0.0000 56.9562
#
#
#
# Elastic Compliance Matrix: (Units=1/GPa)
#
#
# Indices 1 2 3 4 5 6 
#
# 1 0.000297 0.020833 -0.002007 0.000000 0.000000 0.000000
# 2 0.020833 -0.113974 0.001953 0.000000 0.000000 0.000000
# 3 -0.002007 0.001953 0.009112 0.000000 0.000000 0.000000
# 4 0.000000 0.000000 0.000000 0.066757 0.000000 0.000000
# 5 0.000000 0.000000 0.000000 0.000000 -0.136651 0.000000
# 6 0.000000 0.000000 0.000000 0.000000 0.000000 0.017557
#
#
# Mechanical properties :
#
#
# Convention : Reuss Voigt Hill
#
# Bulk Modulus (GPa) = -15.87156 66.07386 25.10115
# Shear Modulus (GPa) = -22.78304 31.18860 4.20278
#
# Velocity S-wave (km/s) = -3.11313 3.64241 1.33709
# Velocity P-wave (km/s) = 4.43549 6.76730 3.61405
#
# Compressibility (1/GPa) = -0.06300576
#
# Stress axis : x y z
#
# Youngs Moduli (GPa) = 3366.77784 -8.77397 109.74123
#
# Poissons Ratio (x) = 0.18279 0.22028
# Poissons Ratio (y) = -70.14113 -0.21434
# Poissons Ratio (z) = 6.75807 0.01714
#
# Static dielectric constant tensor:
#      x y z
#    x 1.978060 0.000000 0.000000 
#    y 0.000000 1.846380 0.000000 
#    z 0.000000 0.000000 1.976580 
# 
# From -- ./inp_files/2776.got.cif
#   From: 2010.05.17/outbox.cif.g08.bks.cpg/sg30_2_cif.got.tgz:2776.got - 2010.06.03 17:03:02.
