data_PCOD9342726
_publ_section_title
;
Structure prediction by ZEFSAII (Michael W. Deem and Ramdas Pophale) SiO2 
 PCOD9342726
Probable space group: P M N 21
;
_chemical_formula_sum "Si O2"
_cell_formula_units_Z 32
_cell_length_a 9.223858
_cell_length_b 19.093630
_cell_length_c 7.935289
_cell_angle_alpha 90.000000
_cell_angle_beta 90.000000
_cell_angle_gamma 90.000000
_cell_volume 1397.538752
_symmetry_space_group_name_H-M "P M N 21"
_symmetry_group_IT_number 31
_symmetry_cell_setting 'orthorhombic'
loop_
_space_group_symop_operation_xyz
x,y,z
1/2-x,-y,1/2+z
-x,y,z
1/2+x,-y,1/2+z
loop_
_atom_site_type_symbol
_atom_site_label
_atom_site_fract_x
_atom_site_fract_y
_atom_site_fract_z
Si Si1 0.164177 0.489732 0.106770
Si Si2 0.165507 0.224789 0.721839
Si Si3 0.830487 0.972573 0.729124
Si Si4 0.328650 0.650466 0.439401
Si Si5 0.332567 0.606046 0.943292
Si Si6 0.332063 0.847274 0.591647
Si Si7 0.668779 0.099858 0.593726
Si Si8 0.827792 0.721559 0.749903
O O1 0.185112 0.432605 0.957212
O O2 0.175392 0.442774 0.274196
O O3 0.000000 0.517162 0.096405
O O4 0.271294 0.553911 0.083248
O O5 0.196978 0.305789 0.768968
O O6 0.173080 0.187793 0.907106
O O7 0.000000 0.219132 0.660431
O O8 0.270817 0.178544 0.608564
O O9 0.815696 0.935269 0.910212
O O10 0.000000 0.977737 0.688995
O O11 0.747482 0.921018 0.602355
O O12 0.759539 0.048548 0.714285
O O13 0.500000 0.665806 0.485512
O O14 0.218406 0.680700 0.578300
O O15 0.500000 0.624140 0.970846
O O16 0.240183 0.674548 0.897706
O O17 0.500000 0.855450 0.638348
O O18 0.250650 0.795182 0.719424
O O19 0.500000 0.099531 0.639380
O O20 0.000000 0.728881 0.765024
#
# Coordination Sequence:
#
# PCOD9342726 Si02
#       8
#     4   4   4   4   4   4   4   4
#     4   9  18  33  52  75 104 139 180 225 269 317
#     4   9  18  34  57  82 107 138 176 217 261 314
#     4  11  24  40  57  80 109 141 179 220 262 312
#     4   8  16  32  52  76 107 139 175 220 266 315
#     4  10  20  34  52  76 107 142 180 223 270 319
#     4  10  20  36  58  83 109 138 175 218 265 316
#     4  11  24  39  56  81 111 142 177 219 264 311
#     4  10  18  30  52  79 106 139 178 218 263 316
#
# _framework density 22.897397000000002
#
# number of rings (size 3 to 8) (size 9 to 14) (size 15 to 20)
#    0.000    2.250    0.000    4.875    0.000   10.000 
#    0.000    1.250    0.000    6.000    0.000    0.000 
#    0.000    0.000    0.000    0.000    0.000    0.000 
#
# Total GULP energy -178942.896800 kJ/mol
# GULP energy per Si atom -5591.965525 kJ/mol
# Density = 2.284528 g / cm^3
# Si number density = 22.897397 Si / 1000 Ang^3
#
#
#
# Elastic Constant Matrix: (Units=GPa)
#
#
# Indices 1 2 3 4 5 6 
#
# 1 126.3687 46.0499 42.6733 0.0000 0.0000 0.0000
# 2 46.0499 103.7896 17.1449 0.0000 0.0000 0.0000
# 3 42.6733 17.1449 65.7158 0.0000 0.0000 0.0000
# 4 0.0000 0.0000 0.0000 39.3845 0.0000 0.0000
# 5 0.0000 0.0000 0.0000 0.0000 -22.1481 0.0000
# 6 0.0000 0.0000 0.0000 0.0000 0.0000 -30.6858
#
#
#
# Elastic Compliance Matrix: (Units=1/GPa)
#
#
# Indices 1 2 3 4 5 6 
#
# 1 0.011576 -0.004070 -0.006455 0.000000 0.000000 0.000000
# 2 -0.004070 0.011500 -0.000357 0.000000 0.000000 0.000000
# 3 -0.006455 -0.000357 0.019502 0.000000 0.000000 0.000000
# 4 0.000000 0.000000 0.000000 0.025391 0.000000 0.000000
# 5 0.000000 0.000000 0.000000 0.000000 -0.045151 0.000000
# 6 0.000000 0.000000 0.000000 0.000000 0.000000 -0.032588
#
#
# Mechanical properties :
#
#
# Convention : Reuss Voigt Hill
#
# Bulk Modulus (GPa) = 48.04730 56.40116 52.22423
# Shear Modulus (GPa) = 264.08715 9.97717 137.03216
#
# Velocity S-wave (km/s) = 10.75106 2.08969 7.74442
# Velocity P-wave (km/s) = 13.23417 5.52340 10.14029
#
# Compressibility (1/GPa) = 0.02081282
#
# Stress axis : x y z
#
# Youngs Moduli (GPa) = 86.38263 86.95904 51.27625
#
# Poissons Ratio (x) = 0.35392 0.33101
# Poissons Ratio (y) = 0.35157 0.01832
# Poissons Ratio (z) = 0.55764 0.03108
#
# Static dielectric constant tensor:
#      x y z
#    x 1.768140 0.000000 0.000000 
#    y 0.000000 1.879290 0.000000 
#    z 0.000000 0.000000 1.941170 
# 
# From -- ./inp_files/1856.got.cif
#   From: 2010.05.17/outbox.cif.g08.bks.cpg/sg31_1_cif.got.tgz:1856.got - 2010.06.03 17:08:30.
