data_PCOD9342997
_publ_section_title
;
Structure prediction by ZEFSAII (Michael W. Deem and Ramdas Pophale) SiO2 
 PCOD9342997
Probable space group: P M N 21
;
_chemical_formula_sum "Si O2"
_cell_formula_units_Z 24
_cell_length_a 16.167542
_cell_length_b 8.723653
_cell_length_c 8.989780
_cell_angle_alpha 90.000000
_cell_angle_beta 90.000000
_cell_angle_gamma 90.000000
_cell_volume 1267.918807
_symmetry_space_group_name_H-M "P M N 21"
_symmetry_group_IT_number 31
_symmetry_cell_setting 'orthorhombic'
loop_
_space_group_symop_operation_xyz
x,y,z
1/2-x,-y,1/2+z
-x,y,z
1/2+x,-y,1/2+z
loop_
_atom_site_type_symbol
_atom_site_label
_atom_site_fract_x
_atom_site_fract_y
_atom_site_fract_z
Si Si1 0.591620 0.774193 0.546650
Si Si2 0.238570 0.842995 0.402900
Si Si3 0.740905 0.671759 0.102917
Si Si4 0.176812 0.657443 0.660452
Si Si5 0.677311 0.826423 0.833673
Si Si6 0.907825 0.585408 0.954980
O O1 0.500000 0.826589 0.499989
O O2 0.671183 0.862516 0.480044
O O3 0.600986 0.792055 0.725316
O O4 0.599917 0.596135 0.494906
O O5 0.253932 0.721285 0.272971
O O6 0.174269 0.778914 0.526046
O O7 0.205276 0.997872 0.330596
O O8 0.705546 0.501582 0.089478
O O9 0.680468 0.779055 0.006183
O O10 0.834368 0.670887 0.040925
O O11 0.251907 0.720233 0.760878
O O12 0.105635 0.620425 0.779444
O O13 0.000000 0.633086 0.999526
#
# Coordination Sequence:
#
# PCOD9342997 Si02
#       6
#     4   4   4   4   4   4
#     4  10  20  38  59  85 116 152 201 248 296 347
#     4  11  20  36  60  87 117 156 195 238 293 358
#     4  11  18  35  61  84 114 149 199 238 286 351
#     4  10  19  36  56  83 113 152 198 238 282 350
#     4  10  21  35  56  87 117 155 195 236 291 358
#     4  10  20  36  58  86 113 148 196 254 296 332
#
# _framework density 18.928659
#
# number of rings (size 3 to 8) (size 9 to 14) (size 15 to 20)
#    0.000    1.667    5.000    3.000    0.000    0.000 
#    0.000   10.833    0.000    0.000    0.000    0.000 
#    0.000    0.000    0.000    0.000    0.000    0.000 
#
# Total GULP energy -133666.503333 kJ/mol
# GULP energy per Si atom -5569.437639 kJ/mol
# Density = 1.888558 g / cm^3
# Si number density = 18.928659 Si / 1000 Ang^3
#
#
#
# Elastic Constant Matrix: (Units=GPa)
#
#
# Indices 1 2 3 4 5 6 
#
# 1 77.9742 15.5283 28.0497 0.0000 0.0000 0.0000
# 2 15.5283 46.9528 -3.0676 0.0000 0.0000 0.0000
# 3 28.0497 -3.0676 80.1512 0.0000 0.0000 0.0000
# 4 0.0000 0.0000 0.0000 34.9737 0.0000 0.0000
# 5 0.0000 0.0000 0.0000 0.0000 17.6664 0.0000
# 6 0.0000 0.0000 0.0000 0.0000 0.0000 3.8545
#
#
#
# Elastic Compliance Matrix: (Units=1/GPa)
#
#
# Indices 1 2 3 4 5 6 
#
# 1 0.016058 -0.005692 -0.005838 0.000000 0.000000 0.000000
# 2 -0.005692 0.023369 0.002886 0.000000 0.000000 0.000000
# 3 -0.005838 0.002886 0.014630 0.000000 0.000000 0.000000
# 4 0.000000 0.000000 0.000000 0.028593 0.000000 0.000000
# 5 0.000000 0.000000 0.000000 0.000000 0.056605 0.000000
# 6 0.000000 0.000000 0.000000 0.000000 0.000000 0.259437
#
#
# Mechanical properties :
#
#
# Convention : Reuss Voigt Hill
#
# Bulk Modulus (GPa) = 27.19574 31.78877 29.49226
# Shear Modulus (GPa) = 11.67582 22.27010 16.97296
#
# Velocity S-wave (km/s) = 2.48631 3.43378 2.99771
# Velocity P-wave (km/s) = 4.75825 5.70540 5.25321
#
# Compressibility (1/GPa) = 0.03677047
#
# Stress axis : x y z
#
# Youngs Moduli (GPa) = 62.27301 42.79151 68.35349
#
# Poissons Ratio (x) = 0.24358 0.39902
# Poissons Ratio (y) = 0.35447 -0.19730
# Poissons Ratio (z) = 0.36353 -0.12352
#
# Static dielectric constant tensor:
#      x y z
#    x 1.658630 0.000000 0.000000 
#    y 0.000000 1.634860 0.000000 
#    z 0.000000 0.000000 1.714790 
# 
# From -- ./inp_files/2767.got.cif
#   From: 2010.05.17/outbox.cif.g08.bks.cpg/sg31_2_cif.got.tgz:2767.got - 2010.06.03 17:08:30.
