data_PCOD9342898
_publ_section_title
;
Structure prediction by ZEFSAII (Michael W. Deem and Ramdas Pophale) SiO2 
 PCOD9342898
Probable space group: P M N 21
;
_chemical_formula_sum "Si O2"
_cell_formula_units_Z 32
_cell_length_a 8.374640
_cell_length_b 11.894560
_cell_length_c 16.853388
_cell_angle_alpha 90.000000
_cell_angle_beta 90.000000
_cell_angle_gamma 90.000000
_cell_volume 1678.810774
_symmetry_space_group_name_H-M "P M N 21"
_symmetry_group_IT_number 31
_symmetry_cell_setting 'orthorhombic'
loop_
_space_group_symop_operation_xyz
x,y,z
1/2-x,-y,1/2+z
-x,y,z
1/2+x,-y,1/2+z
loop_
_atom_site_type_symbol
_atom_site_label
_atom_site_fract_x
_atom_site_fract_y
_atom_site_fract_z
Si Si1 0.194591 0.315004 0.506660
Si Si2 0.307080 0.433489 0.036201
Si Si3 0.177328 0.099472 0.084614
Si Si4 0.312406 0.874713 0.122645
Si Si5 0.814548 0.714234 0.686285
Si Si6 0.188963 0.778704 0.439707
Si Si7 0.808865 0.189248 0.346388
Si Si8 0.308951 0.062140 0.794486
O O1 0.253739 0.442256 0.517528
O O2 0.233300 0.244463 0.585713
O O3 0.249807 0.247227 0.428092
O O4 0.000000 0.320750 0.500778
O O5 0.500000 0.439389 0.044674
O O6 0.251295 0.373376 0.118708
O O7 0.277535 0.350524 0.961660
O O8 0.295665 0.164842 0.143220
O O9 0.201171 0.154724 0.000292
O O10 0.000000 0.116501 0.116727
O O11 0.217748 0.970381 0.076466
O O12 0.500000 0.889826 0.108265
O O13 0.273617 0.901107 0.213396
O O14 0.731623 0.731556 0.770995
O O15 0.000000 0.689191 0.699823
O O16 0.215025 0.835460 0.355509
O O17 0.000000 0.797296 0.459269
O O18 0.000000 0.181051 0.353560
O O19 0.753997 0.060237 0.328037
O O20 0.500000 0.051940 0.780282
#
# Coordination Sequence:
#
# PCOD9342898 Si02
#       8
#     4   4   4   4   4   4   4   4
#     4   9  19  36  56  79 108 147 190 226 270 325
#     4   8  16  34  57  78 104 142 187 225 261 321
#     4  11  20  32  53  80 110 140 175 224 278 323
#     4  11  21  34  54  78 108 147 184 222 271 332
#     4  10  19  33  56  82 108 143 183 223 270 327
#     4   9  18  34  57  81 106 142 182 220 269 325
#     4  10  19  33  55  80 109 143 181 230 279 325
#     4  10  20  34  52  80 115 144 176 226 278 328
#
# _framework density 19.061112999999999
#
# number of rings (size 3 to 8) (size 9 to 14) (size 15 to 20)
#    0.000    2.250    1.250    3.375    0.000    2.500 
#    2.250    2.500    0.000   10.500    0.000    0.000 
#    0.000    0.000    0.000    0.000    0.000    0.000 
#
# Total GULP energy -178274.471698 kJ/mol
# GULP energy per Si atom -5571.077241 kJ/mol
# Density = 1.901773 g / cm^3
# Si number density = 19.061113 Si / 1000 Ang^3
#
#
#
# Elastic Constant Matrix: (Units=GPa)
#
#
# Indices 1 2 3 4 5 6 
#
# 1 7.8482 14.4818 11.4796 0.0000 0.0000 0.0000
# 2 14.4818 136.4612 68.0584 0.0000 0.0000 0.0000
# 3 11.4796 68.0584 77.5316 0.0000 0.0000 0.0000
# 4 0.0000 0.0000 0.0000 20.3268 0.0000 0.0000
# 5 0.0000 0.0000 0.0000 0.0000 23.9010 0.0000
# 6 0.0000 0.0000 0.0000 0.0000 0.0000 10.7413
#
#
#
# Elastic Compliance Matrix: (Units=1/GPa)
#
#
# Indices 1 2 3 4 5 6 
#
# 1 0.169619 -0.009739 -0.016566 0.000000 0.000000 0.000000
# 2 -0.009739 0.013594 -0.010491 0.000000 0.000000 0.000000
# 3 -0.016566 -0.010491 0.024560 0.000000 0.000000 0.000000
# 4 0.000000 0.000000 0.000000 0.049196 0.000000 0.000000
# 5 0.000000 0.000000 0.000000 0.000000 0.041839 0.000000
# 6 0.000000 0.000000 0.000000 0.000000 0.000000 0.093099
#
#
# Mechanical properties :
#
#
# Convention : Reuss Voigt Hill
#
# Bulk Modulus (GPa) = 7.45255 45.54229 26.49742
# Shear Modulus (GPa) = 9.79959 19.51522 14.65741
#
# Velocity S-wave (km/s) = 2.26987 3.20320 2.77604
# Velocity P-wave (km/s) = 3.28452 6.13394 4.92003
#
# Compressibility (1/GPa) = 0.13418225
#
# Stress axis : x y z
#
# Youngs Moduli (GPa) = 5.89556 73.56296 40.71696
#
# Poissons Ratio (x) = 0.71641 0.67451
# Poissons Ratio (y) = 0.05742 0.42716
# Poissons Ratio (z) = 0.09766 0.77174
#
# Static dielectric constant tensor:
#      x y z
#    x 1.665220 0.000000 0.000000 
#    y 0.000000 1.717690 0.000000 
#    z 0.000000 0.000000 1.699810 
# 
# From -- ./inp_files/5912.got.cif
#   From: 2010.05.17/outbox.cif.g08.bks.cpg/sg31_3_cif.got.tgz:5912.got - 2010.06.03 17:08:30.
