data_PCOD9342092
_publ_section_title
;
Structure prediction by ZEFSAII (Michael W. Deem and Ramdas Pophale) SiO2 
 PCOD9342092
Probable space group: P N C 2
;
_chemical_formula_sum "Si O2"
_cell_formula_units_Z 30
_cell_length_a 8.042512
_cell_length_b 12.103897
_cell_length_c 14.872510
_cell_angle_alpha 90.000000
_cell_angle_beta 90.000000
_cell_angle_gamma 90.000000
_cell_volume 1447.775445
_symmetry_space_group_name_H-M "P N C 2"
_symmetry_group_IT_number 30
_symmetry_cell_setting 'orthorhombic'
loop_
_space_group_symop_operation_xyz
x,y,z
-x,-y,z
-x,1/2+y,1/2+z
x,1/2-y,1/2+z
loop_
_atom_site_type_symbol
_atom_site_label
_atom_site_fract_x
_atom_site_fract_y
_atom_site_fract_z
Si Si1 0.950164 0.877140 0.391860
Si Si2 0.465516 0.871043 0.629823
Si Si3 0.673487 0.061086 0.959339
Si Si4 0.415430 0.381959 0.949590
Si Si5 0.000000 0.500000 0.353840
Si Si6 0.035347 0.772882 0.743675
Si Si7 0.852845 0.265223 0.054224
Si Si8 0.593206 0.265047 0.306707
O O1 0.777436 0.891717 0.440325
O O2 0.921694 0.804939 0.303635
O O3 0.072928 0.814872 0.462032
O O4 0.000000 0.000000 0.366314
O O5 0.557253 0.821355 0.543819
O O6 0.275206 0.852714 0.598706
O O7 0.503688 0.804507 0.719232
O O8 0.500000 0.000000 0.646338
O O9 0.614794 0.132382 0.873633
O O10 0.500000 0.000000 0.989634
O O11 0.756287 0.151134 0.028534
O O12 0.834064 0.993711 0.918007
O O13 0.500000 0.500000 0.960942
O O14 0.503587 0.326022 0.865590
O O15 0.985146 0.394439 0.287366
O O16 0.017660 0.756238 0.636919
O O17 0.223240 0.733827 0.771066
#
# Coordination Sequence:
#
# PCOD9342092 Si02
#       8
#     4   4   4   4   2   4   4   4
#     4  12  24  43  66  93 136 185 222 279 350 415
#     4  10  20  39  65  97 126 166 219 279 332 407
#     4  11  23  42  71  98 140 187 228 288 358 413
#     4  11  23  40  66  93 130 175 229 277 341 413
#     4  10  22  44  68 100 138 180 238 296 350 420
#     4  10  23  43  66  95 133 178 227 289 346 414
#     4  11  23  45  65 100 138 175 230 289 347 423
#     4  10  20  40  65  92 133 163 224 280 337 403
#
# _framework density 20.721444999999999
#
# number of rings (size 3 to 8) (size 9 to 14) (size 15 to 20)
#    0.000    1.333    4.000    2.800    2.800    1.067 
#    6.000    5.333    0.000    0.000    0.000    0.000 
#    0.000    0.000    0.000    0.000    0.000    0.000 
#
# Total GULP energy -167242.380453 kJ/mol
# GULP energy per Si atom -5574.746015 kJ/mol
# Density = 2.067428 g / cm^3
# Si number density = 20.721445 Si / 1000 Ang^3
#
#
#
# Elastic Constant Matrix: (Units=GPa)
#
#
# Indices 1 2 3 4 5 6 
#
# 1 48.1856 20.0289 -1.7858 0.0000 0.0000 0.0000
# 2 20.0289 62.2883 42.1274 0.0000 0.0000 0.0000
# 3 -1.7858 42.1274 121.2555 0.0000 0.0000 0.0000
# 4 0.0000 0.0000 0.0000 17.4928 0.0000 0.0000
# 5 0.0000 0.0000 0.0000 0.0000 2552.9252 0.0000
# 6 0.0000 0.0000 0.0000 0.0000 0.0000 34.0348
#
#
#
# Elastic Compliance Matrix: (Units=1/GPa)
#
#
# Indices 1 2 3 4 5 6 
#
# 1 0.025503 -0.011051 0.004215 0.000000 0.000000 0.000000
# 2 -0.011051 0.025774 -0.009117 0.000000 0.000000 0.000000
# 3 0.004215 -0.009117 0.011477 0.000000 0.000000 0.000000
# 4 0.000000 0.000000 0.000000 0.057166 0.000000 0.000000
# 5 0.000000 0.000000 0.000000 0.000000 0.000392 0.000000
# 6 0.000000 0.000000 0.000000 0.000000 0.000000 0.029382
#
#
# Mechanical properties :
#
#
# Convention : Reuss Voigt Hill
#
# Bulk Modulus (GPa) = 32.41834 39.16338 35.79086
# Shear Modulus (GPa) = 26.05748 532.31448 279.18598
#
# Velocity S-wave (km/s) = 3.54999 16.04520 11.62004
# Velocity P-wave (km/s) = 5.69930 19.03169 14.04791
#
# Compressibility (1/GPa) = 0.03084673
#
# Stress axis : x y z
#
# Youngs Moduli (GPa) = 39.21122 38.79829 87.13250
#
# Poissons Ratio (x) = 0.42877 -0.36727
# Poissons Ratio (y) = 0.43334 0.79443
# Poissons Ratio (z) = -0.16528 0.35374
#
# Static dielectric constant tensor:
#      x y z
#    x -24.109400 0.000000 0.000000 
#    y 0.000000 1.679800 0.000000 
#    z 0.000000 0.000000 1.769050 
# 
# From -- ./inp_files/5163.got.cif
#   From: 2010.05.17/outbox.cif.g08.bks.cpg/sg30_3_cif.got.tgz:5163.got - 2010.06.03 17:03:02.
