data_PCOD9342583
_publ_section_title
;
Structure prediction by ZEFSAII (Michael W. Deem and Ramdas Pophale) SiO2 
 PCOD9342583
Probable space group: P N C 2
;
_chemical_formula_sum "Si O2"
_cell_formula_units_Z 24
_cell_length_a 4.998100
_cell_length_b 15.870328
_cell_length_c 13.876812
_cell_angle_alpha 90.000000
_cell_angle_beta 90.000000
_cell_angle_gamma 90.000000
_cell_volume 1100.729354
_symmetry_space_group_name_H-M "P N C 2"
_symmetry_group_IT_number 30
_symmetry_cell_setting 'orthorhombic'
loop_
_space_group_symop_operation_xyz
x,y,z
-x,-y,z
-x,1/2+y,1/2+z
x,1/2-y,1/2+z
loop_
_atom_site_type_symbol
_atom_site_label
_atom_site_fract_x
_atom_site_fract_y
_atom_site_fract_z
Si Si1 0.268772 0.163388 0.592940
Si Si2 0.234174 0.716058 0.589234
Si Si3 0.371440 0.828356 0.295826
Si Si4 0.876687 0.591558 0.891449
Si Si5 0.553999 0.634105 0.299446
Si Si6 0.929937 0.091025 0.920741
O O1 0.510396 0.226175 0.564802
O O2 0.197602 0.105003 0.503011
O O3 0.362701 0.116350 0.689494
O O4 0.011415 0.221751 0.614520
O O5 0.299712 0.661114 0.683684
O O6 0.160359 0.656374 0.501325
O O7 0.611445 0.887656 0.330916
O O8 0.465201 0.731809 0.302700
O O9 0.109375 0.843959 0.359797
O O10 0.000000 0.500000 0.874152
O O11 0.305773 0.582495 0.341937
O O12 0.808387 0.623797 0.367052
O O13 0.000000 0.000000 0.963209
#
# Coordination Sequence:
#
# PCOD9342583 Si02
#       6
#     4   4   4   4   4   4
#     4  11  23  41  68  96 125 170 222 265 309 374
#     4  11  23  41  68  96 125 170 222 265 309 374
#     4  11  23  43  68  94 127 170 220 264 310 377
#     4  12  25  42  66  98 134 168 206 265 329 381
#     4  11  23  43  68  94 127 170 220 264 310 377
#     4  12  25  42  66  98 134 168 206 265 329 381
#
# _framework density 21.803726999999999
#
# number of rings (size 3 to 8) (size 9 to 14) (size 15 to 20)
#    0.000    0.667    0.000   11.000    0.000    1.333 
#    0.000   10.000    0.000    0.000    0.000    0.000 
#    0.000    0.000    0.000    0.000    0.000    0.000 
#
# Total GULP energy -134495.740909 kJ/mol
# GULP energy per Si atom -5603.989205 kJ/mol
# Density = 2.175410 g / cm^3
# Si number density = 21.803727 Si / 1000 Ang^3
#
#
#
# Elastic Constant Matrix: (Units=GPa)
#
#
# Indices 1 2 3 4 5 6 
#
# 1 132.5998 2.9935 14.7859 0.0000 0.0000 0.0000
# 2 2.9935 28.9632 2.7439 0.0000 0.0000 0.0000
# 3 14.7859 2.7439 67.1293 0.0000 0.0000 0.0000
# 4 0.0000 0.0000 0.0000 -2.5539 0.0000 0.0000
# 5 0.0000 0.0000 0.0000 0.0000 38.3475 0.0000
# 6 0.0000 0.0000 0.0000 0.0000 0.0000 33.8502
#
#
#
# Elastic Compliance Matrix: (Units=1/GPa)
#
#
# Indices 1 2 3 4 5 6 
#
# 1 0.007743 -0.000641 -0.001679 0.000000 0.000000 0.000000
# 2 -0.000641 0.034714 -0.001278 0.000000 0.000000 0.000000
# 3 -0.001679 -0.001278 0.015319 0.000000 0.000000 0.000000
# 4 0.000000 0.000000 0.000000 -0.391562 0.000000 0.000000
# 5 0.000000 0.000000 0.000000 0.000000 0.026077 0.000000
# 6 0.000000 0.000000 0.000000 0.000000 0.000000 0.029542
#
#
# Mechanical properties :
#
#
# Convention : Reuss Voigt Hill
#
# Bulk Modulus (GPa) = 19.77092 29.97100 24.87096
# Shear Modulus (GPa) = -19.67647 27.80669 4.06511
#
# Velocity S-wave (km/s) = -3.00732 3.57503 1.36692
# Velocity P-wave (km/s) = 1.72373 5.55129 3.73132
#
# Compressibility (1/GPa) = 0.05057934
#
# Stress axis : x y z
#
# Youngs Moduli (GPa) = 129.14517 28.80694 65.27950
#
# Poissons Ratio (x) = 0.01847 0.10962
# Poissons Ratio (y) = 0.08281 0.08341
# Poissons Ratio (z) = 0.21688 0.03681
#
# Static dielectric constant tensor:
#      x y z
#    x 1.777600 0.000000 0.000000 
#    y 0.000000 1.808300 0.000000 
#    z 0.000000 0.000000 1.795090 
# 
# From -- ./inp_files/4683.got.cif
#   From: 2010.05.17/outbox.cif.g08.bks.cpg/sg30_3_cif.got.tgz:4683.got - 2010.06.03 17:03:02.
