data_PCOD9342602
_publ_section_title
;
Structure prediction by ZEFSAII (Michael W. Deem and Ramdas Pophale) SiO2 
 PCOD9342602
Probable space group: P N C 2
;
_chemical_formula_sum "Si O2"
_cell_formula_units_Z 24
_cell_length_a 8.499857
_cell_length_b 11.630828
_cell_length_c 8.879664
_cell_angle_alpha 90.000000
_cell_angle_beta 90.000000
_cell_angle_gamma 90.000000
_cell_volume 877.846911
_symmetry_space_group_name_H-M "P N C 2"
_symmetry_group_IT_number 30
_symmetry_cell_setting 'orthorhombic'
loop_
_space_group_symop_operation_xyz
x,y,z
-x,-y,z
-x,1/2+y,1/2+z
x,1/2-y,1/2+z
loop_
_atom_site_type_symbol
_atom_site_label
_atom_site_fract_x
_atom_site_fract_y
_atom_site_fract_z
Si Si1 0.795515 0.602645 0.628450
Si Si2 0.845556 0.060004 0.886258
Si Si3 0.462552 0.690053 0.690537
Si Si4 0.100917 0.168306 0.465098
Si Si5 0.629416 0.579317 0.182429
Si Si6 0.759761 0.195707 0.440008
O O1 0.837761 0.477988 0.561684
O O2 0.606713 0.614640 0.632620
O O3 0.867872 0.697226 0.511226
O O4 0.861675 0.636054 0.792247
O O5 0.696969 0.999384 0.812903
O O6 0.835017 0.193696 0.855616
O O7 0.000000 0.000000 0.822768
O O8 0.555829 0.804228 0.748354
O O9 0.350415 0.745230 0.564196
O O10 0.355311 0.636561 0.820985
O O11 0.231798 0.109252 0.568783
O O12 0.918452 0.135392 0.496080
O O13 0.500000 0.500000 0.103242
#
# Coordination Sequence:
#
# PCOD9342602 Si02
#       6
#     4   4   4   4   4   4
#     4  11  23  46  72 106 142 195 236 297 363 433
#     4  12  26  45  75 105 144 188 243 301 367 435
#     4  11  24  42  72 100 143 190 241 288 360 436
#     4  11  24  44  76 100 151 187 243 296 367 430
#     4  11  24  47  73 105 142 193 245 295 355 431
#     4  12  25  44  71 107 139 190 240 301 366 433
#
# _framework density 27.339618999999999
#
# number of rings (size 3 to 8) (size 9 to 14) (size 15 to 20)
#    0.000    0.667    3.333    6.000    2.333    0.000 
#    6.000    0.833    0.000    0.000    0.000    0.000 
#    0.000    0.000    0.000    0.000    0.000    0.000 
#
# Total GULP energy -134626.338699 kJ/mol
# GULP energy per Si atom -5609.430779 kJ/mol
# Density = 2.727739 g / cm^3
# Si number density = 27.339619 Si / 1000 Ang^3
#
#
#
# Elastic Constant Matrix: (Units=GPa)
#
#
# Indices 1 2 3 4 5 6 
#
# 1 196.4254 -3.3468 33.5629 0.0000 0.0000 0.0000
# 2 -3.3468 72.9978 -11.6443 0.0000 0.0000 0.0000
# 3 33.5629 -11.6443 118.4793 0.0000 0.0000 0.0000
# 4 0.0000 0.0000 0.0000 28.4265 0.0000 0.0000
# 5 0.0000 0.0000 0.0000 0.0000 50.6911 0.0000
# 6 0.0000 0.0000 0.0000 0.0000 0.0000 48.3987
#
#
#
# Elastic Compliance Matrix: (Units=1/GPa)
#
#
# Indices 1 2 3 4 5 6 
#
# 1 0.005350 0.000004 -0.001515 0.000000 0.000000 0.000000
# 2 0.000004 0.013917 0.001367 0.000000 0.000000 0.000000
# 3 -0.001515 0.001367 0.009004 0.000000 0.000000 0.000000
# 4 0.000000 0.000000 0.000000 0.035178 0.000000 0.000000
# 5 0.000000 0.000000 0.000000 0.000000 0.019727 0.000000
# 6 0.000000 0.000000 0.000000 0.000000 0.000000 0.020662
#
#
# Mechanical properties :
#
#
# Convention : Reuss Voigt Hill
#
# Bulk Modulus (GPa) = 35.73800 47.22734 41.48267
# Shear Modulus (GPa) = 44.07022 50.12529 47.09776
#
# Velocity S-wave (km/s) = 4.01927 4.28650 4.15504
# Velocity P-wave (km/s) = 5.88554 6.46611 6.18265
#
# Compressibility (1/GPa) = 0.02798142
#
# Stress axis : x y z
#
# Youngs Moduli (GPa) = 186.91766 71.85334 111.06365
#
# Poissons Ratio (x) = -0.00026 0.16828
# Poissons Ratio (y) = -0.00067 -0.15180
# Poissons Ratio (z) = 0.28321 -0.09821
#
# Static dielectric constant tensor:
#      x y z
#    x 2.167540 0.000000 0.000000 
#    y 0.000000 2.182170 0.000000 
#    z 0.000000 0.000000 2.087270 
# 
# From -- ./inp_files/1815.got.cif
#   From: 2010.05.17/outbox.cif.g08.bks.cpg/sg30_1_cif.got.tgz:1815.got - 2010.06.03 17:03:02.
