data_PCOD9342692
_publ_section_title
;
Structure prediction by ZEFSAII (Michael W. Deem and Ramdas Pophale) SiO2 
 PCOD9342692
Probable space group: P M N 21
;
_chemical_formula_sum "Si O2"
_cell_formula_units_Z 32
_cell_length_a 7.941204
_cell_length_b 7.646758
_cell_length_c 21.405132
_cell_angle_alpha 90.000000
_cell_angle_beta 90.000000
_cell_angle_gamma 90.000000
_cell_volume 1299.815194
_symmetry_space_group_name_H-M "P M N 21"
_symmetry_group_IT_number 31
_symmetry_cell_setting 'orthorhombic'
loop_
_space_group_symop_operation_xyz
x,y,z
1/2-x,-y,1/2+z
-x,y,z
1/2+x,-y,1/2+z
loop_
_atom_site_type_symbol
_atom_site_label
_atom_site_fract_x
_atom_site_fract_y
_atom_site_fract_z
Si Si1 0.704161 0.756318 0.876360
Si Si2 0.300516 0.025497 0.630834
Si Si3 0.801292 0.233627 0.790162
Si Si4 0.691245 0.863003 0.747727
Si Si5 0.693282 0.889682 0.001524
Si Si6 0.301425 0.361737 0.921150
Si Si7 0.807006 0.512591 0.041650
Si Si8 0.306252 0.589283 0.171608
O O1 0.500000 0.783485 0.872827
O O2 0.731292 0.561273 0.899725
O O3 0.777146 0.775532 0.807252
O O4 0.766010 0.884845 0.931458
O O5 0.500000 0.045795 0.642548
O O6 0.235300 0.876913 0.678205
O O7 0.277857 0.005087 0.557265
O O8 0.211793 0.207412 0.649716
O O9 0.695132 0.065624 0.769699
O O10 0.777920 0.258456 0.863698
O O11 0.746914 0.394158 0.743893
O O12 0.000000 0.205132 0.777384
O O13 0.500000 0.795602 0.742294
O O14 0.500000 0.945039 0.998294
O O15 0.699836 0.684888 0.023056
O O16 0.500000 0.327499 0.921170
O O17 0.237801 0.360842 0.992494
O O18 0.784073 0.485262 0.115762
O O19 0.000000 0.563051 0.031239
O O20 0.500000 0.535524 0.171409
#
# Coordination Sequence:
#
# PCOD9342692 Si02
#       8
#     4   4   4   4   4   4   4   4
#     4   8  16  30  48  69  90 118 157 193 225 271
#     4   9  15  23  40  65  89 113 146 188 231 271
#     4  10  20  32  47  71  99 124 155 195 234 275
#     4   9  17  31  49  68  92 122 155 190 229 275
#     4   9  15  25  42  63  89 118 150 188 229 272
#     4  10  19  32  50  70  94 126 160 192 234 283
#     4  10  17  26  43  67  93 117 150 195 236 274
#     4   9  16  27  43  63  90 120 151 189 232 275
#
# _framework density 24.618883
#
# number of rings (size 3 to 8) (size 9 to 14) (size 15 to 20)
#    0.000    2.750    0.000    5.250    0.000    2.000 
#    0.000    3.750    0.000    1.500    0.000    7.000 
#    0.000    0.000    0.000    0.000    0.000    0.000 
#
# Total GULP energy -178477.927843 kJ/mol
# GULP energy per Si atom -5577.435245 kJ/mol
# Density = 2.456285 g / cm^3
# Si number density = 24.618883 Si / 1000 Ang^3
#
#
#
# Elastic Constant Matrix: (Units=GPa)
#
#
# Indices 1 2 3 4 5 6 
#
# 1 44.2597 27.6259 -26.1812 0.0000 0.0000 0.0000
# 2 27.6259 -4.5043 131.0730 0.0000 0.0000 0.0000
# 3 -26.1812 131.0730 28.4909 0.0000 0.0000 0.0000
# 4 0.0000 0.0000 0.0000 37.0944 0.0000 0.0000
# 5 0.0000 0.0000 0.0000 0.0000 44.2346 0.0000
# 6 0.0000 0.0000 0.0000 0.0000 0.0000 -11.6800
#
#
#
# Elastic Compliance Matrix: (Units=1/GPa)
#
#
# Indices 1 2 3 4 5 6 
#
# 1 0.017764 0.004330 -0.003595 0.000000 0.000000 0.000000
# 2 0.004330 -0.000591 0.006696 0.000000 0.000000 0.000000
# 3 -0.003595 0.006696 0.000988 0.000000 0.000000 0.000000
# 4 0.000000 0.000000 0.000000 0.026958 0.000000 0.000000
# 5 0.000000 0.000000 0.000000 0.000000 0.022607 0.000000
# 6 0.000000 0.000000 0.000000 0.000000 0.000000 -0.085617
#
#
# Mechanical properties :
#
#
# Convention : Reuss Voigt Hill
#
# Bulk Modulus (GPa) = 30.28138 37.03130 33.65634
# Shear Modulus (GPa) = -229.94865 9.64505 -110.15180
#
# Velocity S-wave (km/s) = -9.67503 1.98148 -6.69626
# Velocity P-wave (km/s) = 10.60573 4.50660 6.78866
#
# Compressibility (1/GPa) = 0.03302359
#
# Stress axis : x y z
#
# Youngs Moduli (GPa) = 56.29206 -1692.88112 1012.23720
#
# Poissons Ratio (x) = 7.32998 3.63938
# Poissons Ratio (y) = -0.24374 -6.77838
# Poissons Ratio (z) = 0.20239 11.33627
#
# Static dielectric constant tensor:
#      x y z
#    x 1.798240 0.000000 0.000000 
#    y 0.000000 2.000320 0.000000 
#    z 0.000000 0.000000 2.078890 
# 
# From -- ./inp_files/6496.got.cif
#   From: 2010.05.17/outbox.cif.g08.bks.cpg/sg31_4_cif.got.tgz:6496.got - 2010.06.03 17:08:30.
