data_PCOD9342357
_publ_section_title
;
Structure prediction by ZEFSAII (Michael W. Deem and Ramdas Pophale) SiO2 
 PCOD9342357
Probable space group: P N C 2
;
_chemical_formula_sum "Si O2"
_cell_formula_units_Z 20
_cell_length_a 5.094398
_cell_length_b 22.553377
_cell_length_c 7.663030
_cell_angle_alpha 90.000000
_cell_angle_beta 90.000000
_cell_angle_gamma 90.000000
_cell_volume 880.450565
_symmetry_space_group_name_H-M "P N C 2"
_symmetry_group_IT_number 30
_symmetry_cell_setting 'orthorhombic'
loop_
_space_group_symop_operation_xyz
x,y,z
-x,-y,z
-x,1/2+y,1/2+z
x,1/2-y,1/2+z
loop_
_atom_site_type_symbol
_atom_site_label
_atom_site_fract_x
_atom_site_fract_y
_atom_site_fract_z
Si Si1 0.250000 0.209902 0.551080
Si Si2 0.500000 0.500000 0.176495
Si Si3 0.750000 0.294356 0.551080
Si Si4 0.396075 0.871616 0.738722
Si Si5 0.896075 0.371616 0.863439
Si Si6 0.000000 0.000000 0.425667
O O1 0.000330 0.252066 0.576007
O O2 0.499669 0.252066 0.526153
O O3 0.338433 0.165755 0.705482
O O4 0.161567 0.165755 0.396678
O O5 0.548695 0.439864 0.282791
O O6 0.750000 0.511014 0.051081
O O7 0.764619 0.163579 0.883221
O O8 0.735381 0.336421 0.718939
O O9 0.250000 0.872543 0.551080
O O10 0.951305 0.439864 0.819370
#
# Coordination Sequence:
#
# PCOD9342357 Si02
#       6
#     4   2   4   4   4   2
#     4  12  24  44  68 100 138 178 216 280 340 404
#     4  10  22  42  70  92 126 178 228 270 334 398
#     4  12  28  40  68 104 136 172 226 272 342 408
#     4  11  25  45  69  98 134 181 224 280 336 398
#     4  11  25  45  69  98 134 181 224 280 336 398
#     4  10  22  42  70  92 126 178 228 270 334 398
#
# _framework density 22.715643
#
# number of rings (size 3 to 8) (size 9 to 14) (size 15 to 20)
#    0.000    0.800    4.000    2.400    5.600    0.000 
#    0.000   10.000    0.000    0.000    0.000    0.000 
#    0.000    0.000    0.000    0.000    0.000    0.000 
#
# Total GULP energy -111928.624599 kJ/mol
# GULP energy per Si atom -5596.431230 kJ/mol
# Density = 2.266394 g / cm^3
# Si number density = 22.715643 Si / 1000 Ang^3
#
#
#
# Elastic Constant Matrix: (Units=GPa)
#
#
# Indices 1 2 3 4 5 6 
#
# 1 137.3232 51.3147 17.7588 0.0000 0.0000 0.0000
# 2 51.3147 235.1116 55.5040 0.0000 0.0000 0.0000
# 3 17.7588 55.5040 79.9422 0.0000 0.0000 0.0000
# 4 0.0000 0.0000 0.0000 -21.7821 0.0000 0.0000
# 5 0.0000 0.0000 0.0000 0.0000 17.0654 0.0000
# 6 0.0000 0.0000 0.0000 0.0000 0.0000 4.2196
#
#
#
# Elastic Compliance Matrix: (Units=1/GPa)
#
#
# Indices 1 2 3 4 5 6 
#
# 1 0.007959 -0.001578 -0.000672 0.000000 0.000000 0.000000
# 2 -0.001578 0.005400 -0.003399 0.000000 0.000000 0.000000
# 3 -0.000672 -0.003399 0.015018 0.000000 0.000000 0.000000
# 4 0.000000 0.000000 0.000000 -0.045909 0.000000 0.000000
# 5 0.000000 0.000000 0.000000 0.000000 0.058598 0.000000
# 6 0.000000 0.000000 0.000000 0.000000 0.000000 0.236989
#
#
# Mechanical properties :
#
#
# Convention : Reuss Voigt Hill
#
# Bulk Modulus (GPa) = 58.55283 77.94799 68.25041
# Shear Modulus (GPa) = 16.94649 21.75387 19.35018
#
# Velocity S-wave (km/s) = 2.73431 3.09797 2.92180
# Velocity P-wave (km/s) = 5.98340 6.86918 6.44153
#
# Compressibility (1/GPa) = 0.01707859
#
# Stress axis : x y z
#
# Youngs Moduli (GPa) = 125.64669 185.18027 66.58643
#
# Poissons Ratio (x) = 0.29229 0.04476
# Poissons Ratio (y) = 0.19832 0.22631
# Poissons Ratio (z) = 0.08445 0.62937
#
# Static dielectric constant tensor:
#      x y z
#    x 1.915290 0.000000 0.000000 
#    y 0.000000 1.859210 0.000000 
#    z 0.000000 0.000000 1.843450 
# 
# From -- ./inp_files/1382.got.cif
#   From: 2010.05.17/outbox.cif.g08.bks.cpg/sg30_1_cif.got.tgz:1382.got - 2010.06.03 17:03:02.
