data_PCOD9342680
_publ_section_title
;
Structure prediction by ZEFSAII (Michael W. Deem and Ramdas Pophale) SiO2 
 PCOD9342680
Probable space group: P M N 21
;
_chemical_formula_sum "Si O2"
_cell_formula_units_Z 22
_cell_length_a 15.257534
_cell_length_b 7.115087
_cell_length_c 6.684100
_cell_angle_alpha 90.000000
_cell_angle_beta 90.000000
_cell_angle_gamma 90.000000
_cell_volume 725.617085
_symmetry_space_group_name_H-M "P M N 21"
_symmetry_group_IT_number 31
_symmetry_cell_setting 'orthorhombic'
loop_
_space_group_symop_operation_xyz
x,y,z
1/2-x,-y,1/2+z
-x,y,z
1/2+x,-y,1/2+z
loop_
_atom_site_type_symbol
_atom_site_label
_atom_site_fract_x
_atom_site_fract_y
_atom_site_fract_z
Si Si1 0.500000 0.242455 0.311930
Si Si2 0.000000 0.301351 0.803332
Si Si3 0.168581 0.696796 0.750083
Si Si4 0.602975 0.339391 0.811194
Si Si5 0.197985 0.275925 0.769787
Si Si6 0.500000 0.942224 0.947168
Si Si7 0.847349 0.236735 0.301490
O O1 0.500000 0.474384 0.334801
O O2 0.401375 0.209639 0.396596
O O3 0.500000 0.080120 0.135269
O O4 0.900706 0.225279 0.861911
O O5 0.000000 0.258279 0.565236
O O6 0.109461 0.656418 0.555896
O O7 0.200323 0.497022 0.825860
O O8 0.256160 0.804347 0.689807
O O9 0.500000 0.286444 0.769274
O O10 0.697405 0.235319 0.780781
O O11 0.614831 0.558221 0.744675
O O12 0.182198 0.245472 0.534183
O O13 0.582780 0.927384 0.806220
#
# Coordination Sequence:
#
# PCOD9342680 Si02
#       7
#     2   2   4   4   4   2   4
#     4  10  18  32  54  78  98 146 184 202 274 336
#     4   8  16  34  53  77 111 139 181 231 257 335
#     4   9  17  30  50  74 108 142 182 226 268 329
#     4  10  16  29  51  80 111 145 184 227 272 338
#     4   8  16  28  52  78 106 148 183 224 282 317
#     4  10  18  32  57  77 103 145 179 219 275 323
#     4   9  17  32  50  75 109 143 182 232 273 320
#
# _framework density 30.319023000000001
#
# number of rings (size 3 to 8) (size 9 to 14) (size 15 to 20)
#    0.000    2.909    1.818    1.091    2.545    0.000 
#    1.636    4.545    8.000    0.000    0.000    6.364 
#    0.000    0.000    0.000    0.000    0.000    0.000 
#
# Total GULP energy -122480.701976 kJ/mol
# GULP energy per Si atom -5567.304635 kJ/mol
# Density = 3.025002 g / cm^3
# Si number density = 30.319023 Si / 1000 Ang^3
#
#
#
# Elastic Constant Matrix: (Units=GPa)
#
#
# Indices 1 2 3 4 5 6 
#
# 1 415.2248 87.9638 38.8357 0.0000 0.0000 0.0000
# 2 87.9638 113.1398 16.7778 0.0000 0.0000 0.0000
# 3 38.8357 16.7778 80.9296 0.0000 0.0000 0.0000
# 4 0.0000 0.0000 0.0000 15.5937 0.0000 0.0000
# 5 0.0000 0.0000 0.0000 0.0000 62.2958 0.0000
# 6 0.0000 0.0000 0.0000 0.0000 0.0000 50.9699
#
#
#
# Elastic Compliance Matrix: (Units=1/GPa)
#
#
# Indices 1 2 3 4 5 6 
#
# 1 0.002955 -0.002154 -0.000972 0.000000 0.000000 0.000000
# 2 -0.002154 0.010688 -0.001182 0.000000 0.000000 0.000000
# 3 -0.000972 -0.001182 0.013068 0.000000 0.000000 0.000000
# 4 0.000000 0.000000 0.000000 0.064128 0.000000 0.000000
# 5 0.000000 0.000000 0.000000 0.000000 0.016052 0.000000
# 6 0.000000 0.000000 0.000000 0.000000 0.000000 0.019619
#
#
# Mechanical properties :
#
#
# Convention : Reuss Voigt Hill
#
# Bulk Modulus (GPa) = 55.26048 99.60542 77.43295
# Shear Modulus (GPa) = 35.42085 56.81966 46.12025
#
# Velocity S-wave (km/s) = 3.42171 4.33374 3.90444
# Velocity P-wave (km/s) = 5.82037 7.61351 6.77651
#
# Compressibility (1/GPa) = 0.01809612
#
# Stress axis : x y z
#
# Youngs Moduli (GPa) = 338.35474 93.55910 76.52362
#
# Poissons Ratio (x) = 0.20150 0.07436
# Poissons Ratio (y) = 0.72872 0.09048
# Poissons Ratio (z) = 0.32880 0.11062
#
# Static dielectric constant tensor:
#      x y z
#    x 2.595870 0.000000 0.000000 
#    y 0.000000 2.448990 0.000000 
#    z 0.000000 0.000000 2.743560 
# 
# From -- ./inp_files/2420.got.cif
#   From: 2010.05.17/outbox.cif.g08.bks.cpg/sg31_2_cif.got.tgz:2420.got - 2010.06.03 17:08:30.
