data_PCOD9342484
_publ_section_title
;
Structure prediction by ZEFSAII (Michael W. Deem and Ramdas Pophale) SiO2 
 PCOD9342484
Probable space group: P N C 2
;
_chemical_formula_sum "Si O2"
_cell_formula_units_Z 18
_cell_length_a 5.121382
_cell_length_b 10.774560
_cell_length_c 14.685713
_cell_angle_alpha 90.000000
_cell_angle_beta 90.000000
_cell_angle_gamma 90.000000
_cell_volume 810.367008
_symmetry_space_group_name_H-M "P N C 2"
_symmetry_group_IT_number 30
_symmetry_cell_setting 'orthorhombic'
loop_
_space_group_symop_operation_xyz
x,y,z
-x,-y,z
-x,1/2+y,1/2+z
x,1/2-y,1/2+z
loop_
_atom_site_type_symbol
_atom_site_label
_atom_site_fract_x
_atom_site_fract_y
_atom_site_fract_z
Si Si1 0.254715 0.573275 0.056710
Si Si2 0.500000 0.000000 0.183318
Si Si3 0.000000 0.500000 0.552636
Si Si4 0.500000 0.000000 0.733880
Si Si5 0.444772 0.259141 0.815476
Si Si6 0.958712 0.233064 0.932176
O O1 0.500000 0.500000 0.017186
O O2 0.298784 0.566770 0.164365
O O3 0.000000 0.500000 0.031409
O O4 0.202418 0.704180 0.014704
O O5 0.538042 0.874091 0.244282
O O6 0.248441 0.983422 0.118515
O O7 0.054190 0.389661 0.482039
O O8 0.630095 0.881471 0.782042
O O9 0.733519 0.233920 0.855855
O O10 0.217558 0.292667 0.887910
#
# Coordination Sequence:
#
# PCOD9342484 Si02
#       6
#     4   2   2   2   4   4
#     4  10  24  40  72  93 132 178 241 274 333 420
#     4  12  28  46  70 108 146 188 230 306 366 426
#     4  12  26  48  74 100 146 192 240 284 372 442
#     4  10  26  44  72  98 140 186 238 278 350 424
#     4  12  27  44  71 105 146 178 235 300 361 408
#     4  12  26  45  72 103 140 184 237 291 354 424
#
# _framework density 22.212157999999999
#
# number of rings (size 3 to 8) (size 9 to 14) (size 15 to 20)
#    0.667    0.000    0.000    6.667   10.889    0.000 
#    0.000    0.000    0.000    0.000    0.000    0.000 
#    0.000    0.000    0.000    0.000    0.000    0.000 
#
# Total GULP energy -100303.354700 kJ/mol
# GULP energy per Si atom -5572.408594 kJ/mol
# Density = 2.216160 g / cm^3
# Si number density = 22.212158 Si / 1000 Ang^3
#
#
#
# Elastic Constant Matrix: (Units=GPa)
#
#
# Indices 1 2 3 4 5 6 
#
# 1 146.3499 -3.5766 48.8488 0.0000 0.0000 0.0000
# 2 -3.5766 56.2146 49.9433 0.0000 0.0000 0.0000
# 3 48.8488 49.9433 92.2123 0.0000 0.0000 0.0000
# 4 0.0000 0.0000 0.0000 43.0356 0.0000 0.0000
# 5 0.0000 0.0000 0.0000 0.0000 59.6760 0.0000
# 6 0.0000 0.0000 0.0000 0.0000 0.0000 16.5404
#
#
#
# Elastic Compliance Matrix: (Units=1/GPa)
#
#
# Indices 1 2 3 4 5 6 
#
# 1 0.011168 0.011500 -0.012145 0.000000 0.000000 0.000000
# 2 0.011500 0.046131 -0.031078 0.000000 0.000000 0.000000
# 3 -0.012145 -0.031078 0.034110 0.000000 0.000000 0.000000
# 4 0.000000 0.000000 0.000000 0.023237 0.000000 0.000000
# 5 0.000000 0.000000 0.000000 0.000000 0.016757 0.000000
# 6 0.000000 0.000000 0.000000 0.000000 0.000000 0.060458
#
#
# Mechanical properties :
#
#
# Convention : Reuss Voigt Hill
#
# Bulk Modulus (GPa) = 35.75852 53.91197 44.83524
# Shear Modulus (GPa) = 18.89454 37.15447 28.02450
#
# Velocity S-wave (km/s) = 2.91974 4.09431 3.55586
# Velocity P-wave (km/s) = 5.24405 6.83193 6.08996
#
# Compressibility (1/GPa) = 0.02796536
#
# Stress axis : x y z
#
# Youngs Moduli (GPa) = 89.54395 21.67725 29.31677
#
# Poissons Ratio (x) = -0.24930 0.35605
# Poissons Ratio (y) = -1.02980 0.91109
# Poissons Ratio (z) = 1.08749 0.67368
#
# Static dielectric constant tensor:
#      x y z
#    x 1.774350 0.000000 0.000000 
#    y 0.000000 2.162610 0.000000 
#    z 0.000000 0.000000 1.850450 
# 
# From -- ./inp_files/3024.got.cif
#   From: 2010.05.17/outbox.cif.g08.bks.cpg/sg30_2_cif.got.tgz:3024.got - 2010.06.03 17:03:02.
