data_PCOD9342877
_publ_section_title
;
Structure prediction by ZEFSAII (Michael W. Deem and Ramdas Pophale) SiO2 
 PCOD9342877
Probable space group: P M N 21
;
_chemical_formula_sum "Si O2"
_cell_formula_units_Z 32
_cell_length_a 8.272494
_cell_length_b 11.007888
_cell_length_c 14.333350
_cell_angle_alpha 90.000000
_cell_angle_beta 90.000000
_cell_angle_gamma 90.000000
_cell_volume 1305.233371
_symmetry_space_group_name_H-M "P M N 21"
_symmetry_group_IT_number 31
_symmetry_cell_setting 'orthorhombic'
loop_
_space_group_symop_operation_xyz
x,y,z
1/2-x,-y,1/2+z
-x,y,z
1/2+x,-y,1/2+z
loop_
_atom_site_type_symbol
_atom_site_label
_atom_site_fract_x
_atom_site_fract_y
_atom_site_fract_z
Si Si1 0.193941 0.075772 0.143880
Si Si2 0.190771 0.823022 0.249480
Si Si3 0.187698 0.944963 0.968605
Si Si4 0.313145 0.691027 0.419590
Si Si5 0.809404 0.556824 0.595561
Si Si6 0.814257 0.467737 0.304487
Si Si7 0.808044 0.789917 0.809746
Si Si8 0.186598 0.285089 0.570378
O O1 0.225513 0.954026 0.204697
O O2 0.000000 0.094127 0.140636
O O3 0.274310 0.182494 0.201810
O O4 0.255788 0.043695 0.040379
O O5 0.239545 0.798263 0.355919
O O6 0.287096 0.732013 0.181442
O O7 0.000000 0.800070 0.240046
O O8 0.258729 0.903107 0.870394
O O9 0.000000 0.976635 0.954464
O O10 0.200277 0.816055 0.024031
O O11 0.500000 0.716831 0.433927
O O12 0.239056 0.657517 0.519874
O O13 0.289127 0.570624 0.355384
O O14 0.718152 0.547741 0.693988
O O15 0.779717 0.424773 0.548158
O O16 0.000000 0.565414 0.616217
O O17 0.776018 0.333139 0.341336
O O18 0.000000 0.500621 0.321271
O O19 0.000000 0.779566 0.823575
O O20 0.000000 0.256855 0.547540
#
# Coordination Sequence:
#
# PCOD9342877 Si02
#       8
#     4   4   4   4   4   4   4   4
#     4   9  20  40  63  88 119 157 203 256 310 366
#     4  10  20  37  61  85 117 157 199 251 306 360
#     4   9  20  38  61  88 119 159 206 253 306 369
#     4  12  24  39  61  92 127 165 208 254 308 374
#     4  11  23  39  59  89 126 164 207 253 307 374
#     4  12  25  42  64  91 127 169 207 257 316 372
#     4  11  23  41  64  91 123 162 207 259 313 372
#     4  10  19  32  57  88 118 151 197 253 300 357
#
# _framework density 24.516687999999998
#
# number of rings (size 3 to 8) (size 9 to 14) (size 15 to 20)
#    0.000    1.500    1.250    5.250    0.000    7.000 
#    2.250    0.000    0.000    0.000    0.000    0.000 
#    0.000    0.000    0.000    0.000    0.000    0.000 
#
# Total GULP energy -179063.444383 kJ/mol
# GULP energy per Si atom -5595.732637 kJ/mol
# Density = 2.446089 g / cm^3
# Si number density = 24.516688 Si / 1000 Ang^3
#
#
#
# Elastic Constant Matrix: (Units=GPa)
#
#
# Indices 1 2 3 4 5 6 
#
# 1 20.2264 16.3604 -4.5434 0.0000 0.0000 0.0000
# 2 16.3604 67.1748 14.7092 0.0000 0.0000 0.0000
# 3 -4.5434 14.7092 125.6305 0.0000 0.0000 0.0000
# 4 0.0000 0.0000 0.0000 51.0788 0.0000 0.0000
# 5 0.0000 0.0000 0.0000 0.0000 32.0291 0.0000
# 6 0.0000 0.0000 0.0000 0.0000 0.0000 -23.2719
#
#
#
# Elastic Compliance Matrix: (Units=1/GPa)
#
#
# Indices 1 2 3 4 5 6 
#
# 1 0.063685 -0.016436 0.004228 0.000000 0.000000 0.000000
# 2 -0.016436 0.019520 -0.002880 0.000000 0.000000 0.000000
# 3 0.004228 -0.002880 0.008450 0.000000 0.000000 0.000000
# 4 0.000000 0.000000 0.000000 0.019578 0.000000 0.000000
# 5 0.000000 0.000000 0.000000 0.000000 0.031222 0.000000
# 6 0.000000 0.000000 0.000000 0.000000 0.000000 -0.042970
#
#
# Mechanical properties :
#
#
# Convention : Reuss Voigt Hill
#
# Bulk Modulus (GPa) = 16.26604 29.56492 22.91548
# Shear Modulus (GPa) = 33.29930 24.40089 28.85010
#
# Velocity S-wave (km/s) = 3.68942 3.15822 3.43411
# Velocity P-wave (km/s) = 4.97977 5.03830 5.00912
#
# Compressibility (1/GPa) = 0.06147778
#
# Stress axis : x y z
#
# Youngs Moduli (GPa) = 15.70237 51.22903 118.34423
#
# Poissons Ratio (x) = 0.84201 -0.50031
# Poissons Ratio (y) = 0.25809 0.34082
# Poissons Ratio (z) = -0.06638 0.14753
#
# Static dielectric constant tensor:
#      x y z
#    x 1.822670 0.000000 0.000000 
#    y 0.000000 1.980680 0.000000 
#    z 0.000000 0.000000 2.016160 
# 
# From -- ./inp_files/4914.got.cif
#   From: 2010.05.17/outbox.cif.g08.bks.cpg/sg31_3_cif.got.tgz:4914.got - 2010.06.03 17:08:30.
