data_PCOD9342807
_publ_section_title
;
Structure prediction by ZEFSAII (Michael W. Deem and Ramdas Pophale) SiO2 
 PCOD9342807
Probable space group: P M N 21
;
_chemical_formula_sum "Si O2"
_cell_formula_units_Z 32
_cell_length_a 9.345826
_cell_length_b 11.784506
_cell_length_c 17.886671
_cell_angle_alpha 90.000000
_cell_angle_beta 90.000000
_cell_angle_gamma 90.000000
_cell_volume 1969.965370
_symmetry_space_group_name_H-M "P M N 21"
_symmetry_group_IT_number 31
_symmetry_cell_setting 'orthorhombic'
loop_
_space_group_symop_operation_xyz
x,y,z
1/2-x,-y,1/2+z
-x,y,z
1/2+x,-y,1/2+z
loop_
_atom_site_type_symbol
_atom_site_label
_atom_site_fract_x
_atom_site_fract_y
_atom_site_fract_z
Si Si1 0.329249 0.766897 0.048110
Si Si2 0.837394 0.661719 0.828152
Si Si3 0.835243 0.652600 0.436843
Si Si4 0.335546 0.448957 0.494655
Si Si5 0.671924 0.118612 0.411539
Si Si6 0.329236 0.859128 0.371378
Si Si7 0.830459 0.251346 0.714027
Si Si8 0.837153 0.538384 0.271022
O O1 0.500000 0.761533 0.035395
O O2 0.301675 0.803189 0.133507
O O3 0.258956 0.642625 0.038428
O O4 0.254609 0.845576 0.986402
O O5 0.840581 0.601289 0.909870
O O6 0.789224 0.789415 0.847436
O O7 0.738403 0.583331 0.777336
O O8 0.000000 0.663199 0.799490
O O9 0.742657 0.569724 0.489105
O O10 0.758708 0.772610 0.423098
O O11 0.837015 0.591615 0.355098
O O12 0.000000 0.663492 0.461082
O O13 0.500000 0.456025 0.520734
O O14 0.500000 0.131709 0.423270
O O15 0.701384 0.989972 0.388462
O O16 0.500000 0.840140 0.381689
O O17 0.294707 0.826378 0.285434
O O18 0.748317 0.369845 0.722986
O O19 0.000000 0.275042 0.717820
O O20 0.000000 0.528235 0.245960
#
# Coordination Sequence:
#
# PCOD9342807 Si02
#       8
#     4   4   4   4   4   4   4   4
#     4  10  19  30  46  69  95 121 152 195 245 290
#     4   8  14  25  41  62  87 113 143 181 224 269
#     4   9  16  26  42  67  94 116 144 185 230 270
#     4   9  16  27  44  65  89 118 148 179 223 277
#     4   9  18  31  48  69  92 124 165 202 235 277
#     4   9  17  31  49  68  92 125 166 201 230 276
#     4   9  18  31  47  67  92 122 154 191 237 288
#     4   9  16  25  41  65  89 113 142 180 226 273
#
# _framework density 16.243939999999998
#
# number of rings (size 3 to 8) (size 9 to 14) (size 15 to 20)
#    0.000    3.000    0.000    2.250    0.000    7.500 
#    0.000    0.000    0.000    1.500    0.000    7.000 
#    0.000    0.000    0.000    0.000    0.000    0.000 
#
# Total GULP energy -178187.984193 kJ/mol
# GULP energy per Si atom -5568.374506 kJ/mol
# Density = 1.620697 g / cm^3
# Si number density = 16.243940 Si / 1000 Ang^3
#
#
#
# Elastic Constant Matrix: (Units=GPa)
#
#
# Indices 1 2 3 4 5 6 
#
# 1 70.9678 63.6123 34.4848 0.0000 0.0000 0.0000
# 2 63.6123 137.3277 36.0696 0.0000 0.0000 0.0000
# 3 34.4848 36.0696 48.6202 0.0000 0.0000 0.0000
# 4 0.0000 0.0000 0.0000 10.7115 0.0000 0.0000
# 5 0.0000 0.0000 0.0000 0.0000 15.9002 0.0000
# 6 0.0000 0.0000 0.0000 0.0000 0.0000 21.3253
#
#
#
# Elastic Compliance Matrix: (Units=1/GPa)
#
#
# Indices 1 2 3 4 5 6 
#
# 1 0.029914 -0.010289 -0.013584 0.000000 0.000000 0.000000
# 2 -0.010289 0.012583 -0.002037 0.000000 0.000000 0.000000
# 3 -0.013584 -0.002037 0.031714 0.000000 0.000000 0.000000
# 4 0.000000 0.000000 0.000000 0.093358 0.000000 0.000000
# 5 0.000000 0.000000 0.000000 0.000000 0.062892 0.000000
# 6 0.000000 0.000000 0.000000 0.000000 0.000000 0.046893
#
#
# Mechanical properties :
#
#
# Convention : Reuss Voigt Hill
#
# Bulk Modulus (GPa) = 44.66234 58.36100 51.51167
# Shear Modulus (GPa) = 14.85275 17.77066 16.31170
#
# Velocity S-wave (km/s) = 3.02711 3.31114 3.17230
# Velocity P-wave (km/s) = 6.30653 7.11506 6.72296
#
# Compressibility (1/GPa) = 0.02239023
#
# Stress axis : x y z
#
# Youngs Moduli (GPa) = 33.42897 79.47327 31.53184
#
# Poissons Ratio (x) = 0.81768 0.42834
# Poissons Ratio (y) = 0.34394 0.06424
# Poissons Ratio (z) = 0.45411 0.16191
#
# Static dielectric constant tensor:
#      x y z
#    x 1.550310 0.000000 0.000000 
#    y 0.000000 1.532740 0.000000 
#    z 0.000000 0.000000 1.550920 
# 
# From -- ./inp_files/5837.got.cif
#   From: 2010.05.17/outbox.cif.g08.bks.cpg/sg31_3_cif.got.tgz:5837.got - 2010.06.03 17:08:30.
