data_PCOD9342642
_publ_section_title
;
Structure prediction by ZEFSAII (Michael W. Deem and Ramdas Pophale) SiO2 
 PCOD9342642
Probable space group: P N C 2
;
_chemical_formula_sum "Si O2"
_cell_formula_units_Z 24
_cell_length_a 11.565210
_cell_length_b 17.741078
_cell_length_c 4.811765
_cell_angle_alpha 90.000000
_cell_angle_beta 90.000000
_cell_angle_gamma 90.000000
_cell_volume 987.274539
_symmetry_space_group_name_H-M "P N C 2"
_symmetry_group_IT_number 30
_symmetry_cell_setting 'orthorhombic'
loop_
_space_group_symop_operation_xyz
x,y,z
-x,-y,z
-x,1/2+y,1/2+z
x,1/2-y,1/2+z
loop_
_atom_site_type_symbol
_atom_site_label
_atom_site_fract_x
_atom_site_fract_y
_atom_site_fract_z
Si Si1 0.374552 0.036251 0.012530
Si Si2 0.790833 0.416851 0.223761
Si Si3 0.119118 0.201828 0.441216
Si Si4 0.378846 0.797876 0.436917
Si Si5 0.367056 0.136669 0.514638
Si Si6 0.948413 0.422640 0.706956
O O1 0.364822 0.059851 0.332500
O O2 0.500000 0.000000 0.966247
O O3 0.363088 0.112586 0.835131
O O4 0.279917 0.979691 0.893146
O O5 0.702896 0.360699 0.068943
O O6 0.873959 0.383520 0.463592
O O7 0.869821 0.445617 0.970876
O O8 0.092892 0.225311 0.754390
O O9 0.254847 0.182914 0.428456
O O10 0.045567 0.132505 0.327544
O O11 0.358276 0.777438 0.117912
O O12 0.511851 0.822585 0.462977
O O13 0.000000 0.500000 0.586633
#
# Coordination Sequence:
#
# PCOD9342642 Si02
#       6
#     4   4   4   4   4   4
#     4  12  24  42  72 105 142 183 231 297 368 441
#     4  12  26  45  71 105 139 185 237 295 373 432
#     4  12  26  47  74 105 141 196 250 303 368 442
#     4  12  26  44  68 101 145 189 231 288 360 440
#     4  12  25  45  71 104 146 183 238 300 363 439
#     4  12  27  48  74 104 145 190 250 311 368 437
#
# _framework density 24.309348
#
# number of rings (size 3 to 8) (size 9 to 14) (size 15 to 20)
#    0.000    0.000    1.667    9.000    2.333    4.000 
#    0.000    0.000    0.000    0.000    0.000    0.000 
#    0.000    0.000    0.000    0.000    0.000    0.000 
#
# Total GULP energy -134581.431054 kJ/mol
# GULP energy per Si atom -5607.559627 kJ/mol
# Density = 2.425402 g / cm^3
# Si number density = 24.309348 Si / 1000 Ang^3
#
#
#
# Elastic Constant Matrix: (Units=GPa)
#
#
# Indices 1 2 3 4 5 6 
#
# 1 125.8797 38.3830 35.6770 0.0000 0.0000 0.0000
# 2 38.3830 63.4146 -0.3273 0.0000 0.0000 0.0000
# 3 35.6770 -0.3273 100.0814 0.0000 0.0000 0.0000
# 4 0.0000 0.0000 0.0000 44.7093 0.0000 0.0000
# 5 0.0000 0.0000 0.0000 0.0000 38.8414 0.0000
# 6 0.0000 0.0000 0.0000 0.0000 0.0000 34.2531
#
#
#
# Elastic Compliance Matrix: (Units=1/GPa)
#
#
# Indices 1 2 3 4 5 6 
#
# 1 0.011137 -0.006762 -0.003992 0.000000 0.000000 0.000000
# 2 -0.006762 0.019875 0.002475 0.000000 0.000000 0.000000
# 3 -0.003992 0.002475 0.011423 0.000000 0.000000 0.000000
# 4 0.000000 0.000000 0.000000 0.022367 0.000000 0.000000
# 5 0.000000 0.000000 0.000000 0.000000 0.025746 0.000000
# 6 0.000000 0.000000 0.000000 0.000000 0.000000 0.029194
#
#
# Mechanical properties :
#
#
# Convention : Reuss Voigt Hill
#
# Bulk Modulus (GPa) = 38.64307 48.53791 43.59049
# Shear Modulus (GPa) = 34.50049 37.93695 36.21872
#
# Velocity S-wave (km/s) = 3.77135 3.95472 3.86412
# Velocity P-wave (km/s) = 5.90720 6.39243 6.15460
#
# Compressibility (1/GPa) = 0.02587786
#
# Stress axis : x y z
#
# Youngs Moduli (GPa) = 89.78761 50.31522 87.54151
#
# Poissons Ratio (x) = 0.34022 0.34950
# Poissons Ratio (y) = 0.60712 -0.21670
# Poissons Ratio (z) = 0.35846 -0.12455
#
# Static dielectric constant tensor:
#      x y z
#    x 1.908320 0.000000 0.000000 
#    y 0.000000 1.915790 0.000000 
#    z 0.000000 0.000000 1.857270 
# 
# From -- ./inp_files/702.got.cif
#   From: 2010.05.17/outbox.cif.g08.bks.cpg/sg30_1_cif.got.tgz:702.got - 2010.06.03 17:03:02.
