data_PCOD9342781
_publ_section_title
;
Structure prediction by ZEFSAII (Michael W. Deem and Ramdas Pophale) SiO2 
 PCOD9342781
Probable space group: P M N 21
;
_chemical_formula_sum "Si O2"
_cell_formula_units_Z 32
_cell_length_a 16.656474
_cell_length_b 8.739999
_cell_length_c 11.696206
_cell_angle_alpha 90.000000
_cell_angle_beta 90.000000
_cell_angle_gamma 90.000000
_cell_volume 1702.705202
_symmetry_space_group_name_H-M "P M N 21"
_symmetry_group_IT_number 31
_symmetry_cell_setting 'orthorhombic'
loop_
_space_group_symop_operation_xyz
x,y,z
1/2-x,-y,1/2+z
-x,y,z
1/2+x,-y,1/2+z
loop_
_atom_site_type_symbol
_atom_site_label
_atom_site_fract_x
_atom_site_fract_y
_atom_site_fract_z
Si Si1 0.904587 0.810033 0.174390
Si Si2 0.158264 0.926144 0.941023
Si Si3 0.088739 0.092936 0.337499
Si Si4 0.769685 0.286590 0.288641
Si Si5 0.414854 0.078440 0.076239
Si Si6 0.253262 0.353871 0.800584
Si Si7 0.253504 0.198356 0.044979
Si Si8 0.590384 0.827341 0.270048
O O1 0.832622 0.709060 0.232438
O O2 0.000000 0.766670 0.192962
O O3 0.893861 0.976764 0.233526
O O4 0.887188 0.831439 0.039324
O O5 0.200483 0.818625 0.846515
O O6 0.105674 0.054367 0.875312
O O7 0.224879 0.029874 0.006360
O O8 0.151658 0.226943 0.353723
O O9 0.000000 0.156714 0.322160
O O10 0.089204 0.983574 0.447679
O O11 0.751550 0.464056 0.298103
O O12 0.792722 0.255518 0.155815
O O13 0.500000 0.154731 0.096828
O O14 0.342739 0.190943 0.093713
O O15 0.408668 0.933902 0.158662
O O16 0.167834 0.282467 0.760010
O O17 0.255660 0.299185 0.932151
O O18 0.500000 0.760005 0.281047
#
# Coordination Sequence:
#
# PCOD9342781 Si02
#       8
#     4   4   4   4   4   4   4   4
#     4  11  22  40  64  90 124 163 208 257 307 364
#     4  11  21  37  65  89 117 159 215 260 300 356
#     4  10  20  36  60  90 115 155 214 265 302 353
#     4  12  24  39  62  91 128 166 202 253 313 378
#     4  10  18  33  62  89 110 145 207 269 306 346
#     4  11  26  39  60  89 132 170 199 242 319 384
#     4  11  21  40  60  89 118 162 211 254 304 361
#     4  10  21  40  62  89 120 162 211 262 311 362
#
# _framework density 18.793624000000001
#
# number of rings (size 3 to 8) (size 9 to 14) (size 15 to 20)
#    0.000    1.250    5.000    1.875    1.750    0.500 
#    0.000    1.875    0.000    0.000    0.000    0.000 
#    0.000    0.000    0.000    0.000    0.000    0.000 
#
# Total GULP energy -178258.115014 kJ/mol
# GULP energy per Si atom -5570.566094 kJ/mol
# Density = 1.875085 g / cm^3
# Si number density = 18.793624 Si / 1000 Ang^3
#
#
#
# Elastic Constant Matrix: (Units=GPa)
#
#
# Indices 1 2 3 4 5 6 
#
# 1 96.5159 22.1764 -0.3361 0.0000 0.0000 0.0000
# 2 22.1764 52.0421 3.9612 0.0000 0.0000 0.0000
# 3 -0.3361 3.9612 78.9314 0.0000 0.0000 0.0000
# 4 0.0000 0.0000 0.0000 13.0541 0.0000 0.0000
# 5 0.0000 0.0000 0.0000 0.0000 21.9389 0.0000
# 6 0.0000 0.0000 0.0000 0.0000 0.0000 15.5244
#
#
#
# Elastic Compliance Matrix: (Units=1/GPa)
#
#
# Indices 1 2 3 4 5 6 
#
# 1 0.011492 -0.004920 0.000296 0.000000 0.000000 0.000000
# 2 -0.004920 0.021395 -0.001095 0.000000 0.000000 0.000000
# 3 0.000296 -0.001095 0.012725 0.000000 0.000000 0.000000
# 4 0.000000 0.000000 0.000000 0.076604 0.000000 0.000000
# 5 0.000000 0.000000 0.000000 0.000000 0.045581 0.000000
# 6 0.000000 0.000000 0.000000 0.000000 0.000000 0.064415
#
#
# Mechanical properties :
#
#
# Convention : Reuss Voigt Hill
#
# Bulk Modulus (GPa) = 29.26056 31.01026 30.13541
# Shear Modulus (GPa) = 19.60463 23.54934 21.57699
#
# Velocity S-wave (km/s) = 3.23329 3.54368 3.39204
# Velocity P-wave (km/s) = 5.43527 5.76887 5.60455
#
# Compressibility (1/GPa) = 0.03417570
#
# Stress axis : x y z
#
# Youngs Moduli (GPa) = 87.01390 46.74005 78.58286
#
# Poissons Ratio (x) = 0.22995 -0.02325
# Poissons Ratio (y) = 0.42808 0.08602
# Poissons Ratio (z) = -0.02574 0.05116
#
# Static dielectric constant tensor:
#      x y z
#    x 1.676650 0.000000 0.000000 
#    y 0.000000 1.606840 0.000000 
#    z 0.000000 0.000000 1.675500 
# 
# From -- ./inp_files/4261.got.cif
#   From: 2010.05.17/outbox.cif.g08.bks.cpg/sg31_3_cif.got.tgz:4261.got - 2010.06.03 17:08:30.
