data_PCOD9342511
_publ_section_title
;
Structure prediction by ZEFSAII (Michael W. Deem and Ramdas Pophale) SiO2 
 PCOD9342511
Probable space group: P N C 2
;
_chemical_formula_sum "Si O2"
_cell_formula_units_Z 16
_cell_length_a 4.965958
_cell_length_b 5.839764
_cell_length_c 23.255661
_cell_angle_alpha 90.000000
_cell_angle_beta 90.000000
_cell_angle_gamma 90.000000
_cell_volume 674.414698
_symmetry_space_group_name_H-M "P N C 2"
_symmetry_group_IT_number 30
_symmetry_cell_setting 'orthorhombic'
loop_
_space_group_symop_operation_xyz
x,y,z
-x,-y,z
-x,1/2+y,1/2+z
x,1/2-y,1/2+z
loop_
_atom_site_type_symbol
_atom_site_label
_atom_site_fract_x
_atom_site_fract_y
_atom_site_fract_z
Si Si1 0.258120 0.662420 0.053440
Si Si2 0.259413 0.655533 0.302304
Si Si3 0.500000 0.500000 0.642011
Si Si4 0.847479 0.249675 0.925352
Si Si5 0.000000 0.000000 0.213423
O O1 0.500000 0.500000 0.066894
O O2 0.303288 0.857543 0.099894
O O3 0.000000 0.500000 0.057658
O O4 0.289412 0.746948 0.987804
O O5 0.500000 0.500000 0.281355
O O6 0.324834 0.748423 0.366470
O O7 0.166335 0.834853 0.255412
O O8 0.000000 0.500000 0.310865
O O9 0.744312 0.614163 0.679438
O O10 0.000000 0.500000 0.922787
O O11 0.000000 0.000000 0.926760
#
# Coordination Sequence:
#
# PCOD9342511 Si02
#       5
#     4   4   2   4   2
#     4  11  27  47  75 115 152 201 258 325 402 473
#     4  11  25  46  75 110 151 202 257 327 401 471
#     4  12  28  46  80 104 158 208 268 330 396 486
#     4  10  24  46  79 119 160 202 257 331 408 484
#     4  12  26  50  72 110 152 208 272 328 394 488
#
# _framework density 23.724274999999999
#
# number of rings (size 3 to 8) (size 9 to 14) (size 15 to 20)
#    0.000    1.000    1.250    3.000   10.500    8.000 
#    2.250    0.000    0.000    0.000    0.000    0.000 
#    0.000    0.000    0.000    0.000    0.000    0.000 
#
# Total GULP energy -89187.983644 kJ/mol
# GULP energy per Si atom -5574.248978 kJ/mol
# Density = 2.367028 g / cm^3
# Si number density = 23.724275 Si / 1000 Ang^3
#
#
#
# Elastic Constant Matrix: (Units=GPa)
#
#
# Indices 1 2 3 4 5 6 
#
# 1 99.4176 4.1573 27.3037 0.0000 0.0000 0.0000
# 2 4.1573 86.8286 33.6730 0.0000 0.0000 0.0000
# 3 27.3037 33.6730 128.1592 0.0000 0.0000 0.0000
# 4 0.0000 0.0000 0.0000 29.0128 0.0000 0.0000
# 5 0.0000 0.0000 0.0000 0.0000 54.7359 0.0000
# 6 0.0000 0.0000 0.0000 0.0000 0.0000 38.9683
#
#
#
# Elastic Compliance Matrix: (Units=1/GPa)
#
#
# Indices 1 2 3 4 5 6 
#
# 1 0.010697 0.000414 -0.002388 0.000000 0.000000 0.000000
# 2 0.000414 0.012840 -0.003462 0.000000 0.000000 0.000000
# 3 -0.002388 -0.003462 0.009221 0.000000 0.000000 0.000000
# 4 0.000000 0.000000 0.000000 0.034468 0.000000 0.000000
# 5 0.000000 0.000000 0.000000 0.000000 0.018270 0.000000
# 6 0.000000 0.000000 0.000000 0.000000 0.000000 0.025662
#
#
# Mechanical properties :
#
#
# Convention : Reuss Voigt Hill
#
# Bulk Modulus (GPa) = 45.69021 49.40815 47.54918
# Shear Modulus (GPa) = 38.66283 41.16151 39.91217
#
# Velocity S-wave (km/s) = 4.04130 4.16985 4.10608
# Velocity P-wave (km/s) = 6.40912 6.63737 6.52424
#
# Compressibility (1/GPa) = 0.02188653
#
# Stress axis : x y z
#
# Youngs Moduli (GPa) = 93.48396 77.88407 108.44801
#
# Poissons Ratio (x) = -0.03223 0.25894
# Poissons Ratio (y) = -0.03868 0.37541
# Poissons Ratio (z) = 0.22321 0.26961
#
# Static dielectric constant tensor:
#      x y z
#    x 1.892280 0.000000 0.000000 
#    y 0.000000 1.907160 0.000000 
#    z 0.000000 0.000000 2.024860 
# 
# From -- ./inp_files/6705.got.cif
#   From: 2010.05.17/outbox.cif.g08.bks.cpg/sg30_4_cif.got.tgz:6705.got - 2010.06.03 17:03:02.
