data_PCOD9342343
_publ_section_title
;
Structure prediction by ZEFSAII (Michael W. Deem and Ramdas Pophale) SiO2 
 PCOD9342343
Probable space group: P N C 2
;
_chemical_formula_sum "Si O2"
_cell_formula_units_Z 20
_cell_length_a 5.087035
_cell_length_b 27.819564
_cell_length_c 5.603181
_cell_angle_alpha 90.000000
_cell_angle_beta 90.000000
_cell_angle_gamma 90.000000
_cell_volume 792.957108
_symmetry_space_group_name_H-M "P N C 2"
_symmetry_group_IT_number 30
_symmetry_cell_setting 'orthorhombic'
loop_
_space_group_symop_operation_xyz
x,y,z
-x,-y,z
-x,1/2+y,1/2+z
x,1/2-y,1/2+z
loop_
_atom_site_type_symbol
_atom_site_label
_atom_site_fract_x
_atom_site_fract_y
_atom_site_fract_z
Si Si1 0.279914 0.096036 0.922980
Si Si2 0.622309 0.778583 0.840731
Si Si3 0.127757 0.842720 0.753916
Si Si4 0.833411 0.894218 0.400392
Si Si5 0.500000 0.000000 0.805609
Si Si6 0.000000 0.000000 0.473578
O O1 0.964718 0.108669 0.893136
O O2 0.342880 0.103217 0.640921
O O3 0.404704 0.044263 0.962003
O O4 0.327143 0.122616 0.172106
O O5 0.595026 0.747933 0.595056
O O6 0.905252 0.804022 0.825008
O O7 0.399009 0.819213 0.817959
O O8 0.063085 0.857708 0.481016
O O9 0.940313 0.948345 0.353591
O O10 0.748473 0.010443 0.638557
#
# Coordination Sequence:
#
# PCOD9342343 Si02
#       6
#     4   4   4   4   2   2
#     4   9  22  40  67  95 137 175 220 269 316 390
#     4  12  28  46  75  98 134 168 219 280 350 410
#     4  10  26  46  71 102 132 174 221 276 336 396
#     4   9  22  40  67  95 137 175 220 269 316 390
#     4  10  22  42  64  98 138 182 224 266 322 376
#     4  10  22  42  64  98 138 182 224 266 322 376
#
# _framework density 25.222045999999999
#
# number of rings (size 3 to 8) (size 9 to 14) (size 15 to 20)
#    1.200    0.800    0.000    1.200    8.400    6.400 
#    0.000    8.000    0.000    0.000    0.000    0.000 
#    0.000    0.000    0.000    0.000    0.000    0.000 
#
# Total GULP energy -111372.831710 kJ/mol
# GULP energy per Si atom -5568.641585 kJ/mol
# Density = 2.516464 g / cm^3
# Si number density = 25.222046 Si / 1000 Ang^3
#
#
#
# Elastic Constant Matrix: (Units=GPa)
#
#
# Indices 1 2 3 4 5 6 
#
# 1 118.0940 45.1776 36.2243 0.0000 0.0000 0.0000
# 2 45.1776 101.0451 37.5003 0.0000 0.0000 0.0000
# 3 36.2243 37.5003 187.7986 0.0000 0.0000 0.0000
# 4 0.0000 0.0000 0.0000 35.9355 0.0000 0.0000
# 5 0.0000 0.0000 0.0000 0.0000 8.1279 0.0000
# 6 0.0000 0.0000 0.0000 0.0000 0.0000 56.7669
#
#
#
# Elastic Compliance Matrix: (Units=1/GPa)
#
#
# Indices 1 2 3 4 5 6 
#
# 1 0.010447 -0.004237 -0.001169 0.000000 0.000000 0.000000
# 2 -0.004237 0.012407 -0.001660 0.000000 0.000000 0.000000
# 3 -0.001169 -0.001660 0.005882 0.000000 0.000000 0.000000
# 4 0.000000 0.000000 0.000000 0.027828 0.000000 0.000000
# 5 0.000000 0.000000 0.000000 0.000000 0.123033 0.000000
# 6 0.000000 0.000000 0.000000 0.000000 0.000000 0.017616
#
#
# Mechanical properties :
#
#
# Convention : Reuss Voigt Hill
#
# Bulk Modulus (GPa) = 68.47683 71.63803 70.05743
# Shear Modulus (GPa) = 23.12525 39.36843 31.24684
#
# Velocity S-wave (km/s) = 3.03127 3.95508 3.52358
# Velocity P-wave (km/s) = 6.28172 7.02292 6.66263
#
# Compressibility (1/GPa) = 0.01460348
#
# Stress axis : x y z
#
# Youngs Moduli (GPa) = 95.71762 80.59857 170.01381
#
# Poissons Ratio (x) = 0.34151 0.19876
# Poissons Ratio (y) = 0.40557 0.28226
# Poissons Ratio (z) = 0.11190 0.13381
#
# Static dielectric constant tensor:
#      x y z
#    x 1.989990 0.000000 0.000000 
#    y 0.000000 2.178880 0.000000 
#    z 0.000000 0.000000 2.062380 
# 
# From -- ./inp_files/235.got.cif
#   From: 2010.05.17/outbox.cif.g08.bks.cpg/sg30_1_cif.got.tgz:235.got - 2010.06.03 17:03:02.
