data_PCOD9342472
_publ_section_title
;
Structure prediction by ZEFSAII (Michael W. Deem and Ramdas Pophale) SiO2 
 PCOD9342472
Probable space group: P N C 2
;
_chemical_formula_sum "Si O2"
_cell_formula_units_Z 20
_cell_length_a 12.379424
_cell_length_b 5.492810
_cell_length_c 12.054973
_cell_angle_alpha 90.000000
_cell_angle_beta 90.000000
_cell_angle_gamma 90.000000
_cell_volume 819.711932
_symmetry_space_group_name_H-M "P N C 2"
_symmetry_group_IT_number 30
_symmetry_cell_setting 'orthorhombic'
loop_
_space_group_symop_operation_xyz
x,y,z
-x,-y,z
-x,1/2+y,1/2+z
x,1/2-y,1/2+z
loop_
_atom_site_type_symbol
_atom_site_label
_atom_site_fract_x
_atom_site_fract_y
_atom_site_fract_z
Si Si1 0.500000 0.500000 0.317111
Si Si2 0.185391 0.066615 0.038391
Si Si3 0.341562 0.405912 0.927231
Si Si4 0.657475 0.312246 0.145414
Si Si5 0.000000 0.000000 0.196557
Si Si6 0.187310 0.777537 0.815462
O O1 0.580187 0.684283 0.385769
O O2 0.559345 0.319627 0.231091
O O3 0.160738 0.896501 0.932834
O O4 0.235608 0.297100 0.982934
O O5 0.281244 0.930419 0.105153
O O6 0.085002 0.126291 0.114812
O O7 0.283945 0.581700 0.838229
O O8 0.383409 0.566669 0.030582
O O9 0.753752 0.440371 0.219865
O O10 0.922947 0.170364 0.268321
#
# Coordination Sequence:
#
# PCOD9342472 Si02
#       6
#     2   4   4   4   2   4
#     4  12  26  44  76 102 136 198 224 296 360 408
#     4  10  23  47  66 108 142 182 242 291 346 434
#     4  11  26  46  72 104 144 182 243 291 346 429
#     4  10  25  45  69 100 144 181 235 284 351 423
#     4  10  24  40  74 102 138 190 228 286 362 408
#     4  10  23  48  69 104 145 186 233 294 353 424
#
# _framework density 24.398816
#
# number of rings (size 3 to 8) (size 9 to 14) (size 15 to 20)
#    0.000    1.600    2.000    0.000   11.200    0.800 
#    0.000    2.000    0.000    0.000    0.000    0.000 
#    0.000    0.000    0.000    0.000    0.000    0.000 
#
# Total GULP energy -111514.319450 kJ/mol
# GULP energy per Si atom -5575.715972 kJ/mol
# Density = 2.434328 g / cm^3
# Si number density = 24.398816 Si / 1000 Ang^3
#
#
#
# Elastic Constant Matrix: (Units=GPa)
#
#
# Indices 1 2 3 4 5 6 
#
# 1 107.9275 26.4888 42.6291 0.0000 0.0000 0.0000
# 2 26.4888 34.9064 21.8808 0.0000 0.0000 0.0000
# 3 42.6291 21.8808 143.6996 0.0000 0.0000 0.0000
# 4 0.0000 0.0000 0.0000 -60.5047 0.0000 0.0000
# 5 0.0000 0.0000 0.0000 0.0000 42.2019 0.0000
# 6 0.0000 0.0000 0.0000 0.0000 0.0000 -1.1701
#
#
#
# Elastic Compliance Matrix: (Units=1/GPa)
#
#
# Indices 1 2 3 4 5 6 
#
# 1 0.012104 -0.007666 -0.002423 0.000000 0.000000 0.000000
# 2 -0.007666 0.036526 -0.003288 0.000000 0.000000 0.000000
# 3 -0.002423 -0.003288 0.008178 0.000000 0.000000 0.000000
# 4 0.000000 0.000000 0.000000 -0.016528 0.000000 0.000000
# 5 0.000000 0.000000 0.000000 0.000000 0.023696 0.000000
# 6 0.000000 0.000000 0.000000 0.000000 0.000000 -0.854625
#
#
# Mechanical properties :
#
#
# Convention : Reuss Voigt Hill
#
# Bulk Modulus (GPa) = 33.27274 52.05898 42.66586
# Shear Modulus (GPa) = -6.63240 9.14107 1.25434
#
# Velocity S-wave (km/s) = -1.65052 1.93769 0.71778
# Velocity P-wave (km/s) = 3.16770 5.13704 4.26752
#
# Compressibility (1/GPa) = 0.03005463
#
# Stress axis : x y z
#
# Youngs Moduli (GPa) = 82.61579 27.37748 122.27205
#
# Poissons Ratio (x) = 0.20988 0.29632
# Poissons Ratio (y) = 0.63335 0.40198
# Poissons Ratio (z) = 0.20022 0.09001
#
# Static dielectric constant tensor:
#      x y z
#    x 2.001530 0.000000 0.000000 
#    y 0.000000 2.024770 0.000000 
#    z 0.000000 0.000000 2.130510 
# 
# From -- ./inp_files/4212.got.cif
#   From: 2010.05.17/outbox.cif.g08.bks.cpg/sg30_3_cif.got.tgz:4212.got - 2010.06.03 17:03:02.
