data_PCOD9342561
_publ_section_title
;
Structure prediction by ZEFSAII (Michael W. Deem and Ramdas Pophale) SiO2 
 PCOD9342561
Probable space group: P N C 2
;
_chemical_formula_sum "Si O2"
_cell_formula_units_Z 24
_cell_length_a 15.544817
_cell_length_b 9.095466
_cell_length_c 8.779063
_cell_angle_alpha 90.000000
_cell_angle_beta 90.000000
_cell_angle_gamma 90.000000
_cell_volume 1241.248493
_symmetry_space_group_name_H-M "P N C 2"
_symmetry_group_IT_number 30
_symmetry_cell_setting 'orthorhombic'
loop_
_space_group_symop_operation_xyz
x,y,z
-x,-y,z
-x,1/2+y,1/2+z
x,1/2-y,1/2+z
loop_
_atom_site_type_symbol
_atom_site_label
_atom_site_fract_x
_atom_site_fract_y
_atom_site_fract_z
Si Si1 0.754831 0.151860 0.928790
Si Si2 0.343475 0.201382 0.119524
Si Si3 0.754219 0.044384 0.271137
Si Si4 0.594361 0.552661 0.342059
Si Si5 0.836046 0.688689 0.978383
Si Si6 0.901705 0.952947 0.789451
O O1 0.743232 0.322851 0.889210
O O2 0.666699 0.069395 0.879621
O O3 0.834389 0.080619 0.836194
O O4 0.772776 0.117469 0.106693
O O5 0.369225 0.344191 0.210658
O O6 0.255258 0.239443 0.029192
O O7 0.324772 0.065615 0.233472
O O8 0.411491 0.149622 0.995471
O O9 0.822044 0.931631 0.345611
O O10 0.500000 0.500000 0.301132
O O11 0.874577 0.611595 0.126072
O O12 0.890161 0.822479 0.911674
O O13 0.000000 0.000000 0.786539
#
# Coordination Sequence:
#
# PCOD9342561 Si02
#       6
#     4   4   4   4   4   4
#     4  11  23  42  63 104 134 178 230 290 338 401
#     4  11  20  44  70  92 131 192 220 275 346 410
#     4  11  22  39  74  90 133 184 226 278 347 406
#     4  11  24  41  68 101 135 176 236 279 338 413
#     4  12  20  46  70  92 133 191 226 275 349 414
#     4  12  25  42  69 101 136 179 238 283 340 412
#
# _framework density 19.335370000000001
#
# number of rings (size 3 to 8) (size 9 to 14) (size 15 to 20)
#    0.000    0.667    8.333    1.000    0.000    5.333 
#    0.000    2.500    0.000    0.000    0.000    0.000 
#    0.000    0.000    0.000    0.000    0.000    0.000 
#
# Total GULP energy -134041.571357 kJ/mol
# GULP energy per Si atom -5585.065473 kJ/mol
# Density = 1.929136 g / cm^3
# Si number density = 19.335370 Si / 1000 Ang^3
#
#
#
# Elastic Constant Matrix: (Units=GPa)
#
#
# Indices 1 2 3 4 5 6 
#
# 1 70.6683 23.9468 11.6298 0.0000 0.0000 0.0000
# 2 23.9468 96.0663 16.5611 0.0000 0.0000 0.0000
# 3 11.6298 16.5611 54.5415 0.0000 0.0000 0.0000
# 4 0.0000 0.0000 0.0000 41.8336 0.0000 0.0000
# 5 0.0000 0.0000 0.0000 0.0000 20.8751 0.0000
# 6 0.0000 0.0000 0.0000 0.0000 0.0000 24.0333
#
#
#
# Elastic Compliance Matrix: (Units=1/GPa)
#
#
# Indices 1 2 3 4 5 6 
#
# 1 0.015721 -0.003525 -0.002282 0.000000 0.000000 0.000000
# 2 -0.003525 0.011775 -0.002824 0.000000 0.000000 0.000000
# 3 -0.002282 -0.002824 0.019679 0.000000 0.000000 0.000000
# 4 0.000000 0.000000 0.000000 0.023904 0.000000 0.000000
# 5 0.000000 0.000000 0.000000 0.000000 0.047904 0.000000
# 6 0.000000 0.000000 0.000000 0.000000 0.000000 0.041609
#
#
# Mechanical properties :
#
#
# Convention : Reuss Voigt Hill
#
# Bulk Modulus (GPa) = 33.43042 36.17236 34.80139
# Shear Modulus (GPa) = 26.62068 28.62429 27.62248
#
# Velocity S-wave (km/s) = 3.71453 3.85178 3.78378
# Velocity P-wave (km/s) = 5.97698 6.20727 6.09321
#
# Compressibility (1/GPa) = 0.02991287
#
# Stress axis : x y z
#
# Youngs Moduli (GPa) = 63.61021 84.92531 50.81668
#
# Poissons Ratio (x) = 0.29940 0.11595
# Poissons Ratio (y) = 0.22425 0.14349
# Poissons Ratio (z) = 0.14514 0.23980
#
# Static dielectric constant tensor:
#      x y z
#    x 1.697630 0.000000 0.000000 
#    y 0.000000 1.681770 0.000000 
#    z 0.000000 0.000000 1.695300 
# 
# From -- ./inp_files/2614.got.cif
#   From: 2010.05.17/outbox.cif.g08.bks.cpg/sg30_2_cif.got.tgz:2614.got - 2010.06.03 17:03:02.
