data_PCOD9342866
_publ_section_title
;
Structure prediction by ZEFSAII (Michael W. Deem and Ramdas Pophale) SiO2 
 PCOD9342866
Probable space group: P M N 21
;
_chemical_formula_sum "Si O2"
_cell_formula_units_Z 32
_cell_length_a 7.535680
_cell_length_b 10.927000
_cell_length_c 14.549454
_cell_angle_alpha 90.000000
_cell_angle_beta 90.000000
_cell_angle_gamma 90.000000
_cell_volume 1198.036603
_symmetry_space_group_name_H-M "P M N 21"
_symmetry_group_IT_number 31
_symmetry_cell_setting 'orthorhombic'
loop_
_space_group_symop_operation_xyz
x,y,z
1/2-x,-y,1/2+z
-x,y,z
1/2+x,-y,1/2+z
loop_
_atom_site_type_symbol
_atom_site_label
_atom_site_fract_x
_atom_site_fract_y
_atom_site_fract_z
Si Si1 0.284728 0.445154 0.010320
Si Si2 0.798057 0.025751 0.838688
Si Si3 0.797692 0.412152 0.676263
Si Si4 0.213841 0.793154 0.625236
Si Si5 0.297333 0.289325 0.853438
Si Si6 0.206364 0.354752 0.294182
Si Si7 0.205563 0.202273 0.460305
Si Si8 0.716862 0.939237 0.130494
O O1 0.500000 0.458775 0.012940
O O2 0.220081 0.553073 0.076828
O O3 0.233159 0.318836 0.060961
O O4 0.231907 0.411216 0.906955
O O5 0.797778 0.163785 0.877172
O O6 0.723279 0.049273 0.736059
O O7 0.000000 0.981782 0.828160
O O8 0.707934 0.924909 0.902248
O O9 0.709268 0.318701 0.745748
O O10 0.796581 0.540343 0.733260
O O11 0.000000 0.370411 0.666622
O O12 0.285787 0.762494 0.726391
O O13 0.000000 0.791069 0.631091
O O14 0.265149 0.926927 0.591475
O O15 0.500000 0.270572 0.882215
O O16 0.278831 0.306996 0.391903
O O17 0.000000 0.392327 0.305600
O O18 0.280249 0.164804 0.559995
O O19 0.000000 0.237246 0.473140
O O20 0.500000 0.929189 0.132574
#
# Coordination Sequence:
#
# PCOD9342866 Si02
#       8
#     4   4   4   4   4   4   4   4
#     4   8  17  34  60  85 106 146 193 228 275 343
#     4  11  22  37  58  86 119 155 193 235 285 340
#     4  10  21  40  62  83 110 146 191 237 283 337
#     4   9  15  30  55  78 105 144 190 230 268 322
#     4  11  22  40  62  85 116 151 191 236 287 342
#     4  10  19  32  54  82 110 139 182 234 284 327
#     4  10  20  36  57  82 114 153 194 232 278 338
#     4   9  18  33  54  79 112 156 194 222 272 349
#
# _framework density 26.710366
#
# number of rings (size 3 to 8) (size 9 to 14) (size 15 to 20)
#    0.000    2.250    1.250    3.000    0.000    2.500 
#    2.250   10.625    0.000    0.000    0.000    0.000 
#    0.000    0.000    0.000    0.000    0.000    0.000 
#
# Total GULP energy -178927.708751 kJ/mol
# GULP energy per Si atom -5591.490898 kJ/mol
# Density = 2.664957 g / cm^3
# Si number density = 26.710366 Si / 1000 Ang^3
#
#
#
# Elastic Constant Matrix: (Units=GPa)
#
#
# Indices 1 2 3 4 5 6 
#
# 1 72.4055 -2.5088 -0.5287 0.0000 0.0000 0.0000
# 2 -2.5088 120.8576 24.1132 0.0000 0.0000 0.0000
# 3 -0.5287 24.1132 164.7704 0.0000 0.0000 0.0000
# 4 0.0000 0.0000 0.0000 58.7568 0.0000 0.0000
# 5 0.0000 0.0000 0.0000 0.0000 56.4190 0.0000
# 6 0.0000 0.0000 0.0000 0.0000 0.0000 15.2461
#
#
#
# Elastic Compliance Matrix: (Units=1/GPa)
#
#
# Indices 1 2 3 4 5 6 
#
# 1 0.013821 0.000286 0.000002 0.000000 0.000000 0.000000
# 2 0.000286 0.008529 -0.001247 0.000000 0.000000 0.000000
# 3 0.000002 -0.001247 0.006252 0.000000 0.000000 0.000000
# 4 0.000000 0.000000 0.000000 0.017019 0.000000 0.000000
# 5 0.000000 0.000000 0.000000 0.000000 0.017725 0.000000
# 6 0.000000 0.000000 0.000000 0.000000 0.000000 0.065591
#
#
# Mechanical properties :
#
#
# Convention : Reuss Voigt Hill
#
# Bulk Modulus (GPa) = 37.47447 44.46498 40.96972
# Shear Modulus (GPa) = 35.77870 48.54821 42.16345
#
# Velocity S-wave (km/s) = 3.66390 4.26793 3.97740
# Velocity P-wave (km/s) = 5.65325 6.40080 6.03860
#
# Compressibility (1/GPa) = 0.02668484
#
# Stress axis : x y z
#
# Youngs Moduli (GPa) = 72.35339 117.24713 159.95937
#
# Poissons Ratio (x) = -0.03358 -0.00039
# Poissons Ratio (y) = -0.02072 0.19951
# Poissons Ratio (z) = -0.00018 0.14624
#
# Static dielectric constant tensor:
#      x y z
#    x 1.938300 0.000000 0.000000 
#    y 0.000000 2.102870 0.000000 
#    z 0.000000 0.000000 2.144770 
# 
# From -- ./inp_files/5050.got.cif
#   From: 2010.05.17/outbox.cif.g08.bks.cpg/sg31_3_cif.got.tgz:5050.got - 2010.06.03 17:08:30.
