data_PCOD9342194
_publ_section_title
;
Structure prediction by ZEFSAII (Michael W. Deem and Ramdas Pophale) SiO2 
 PCOD9342194
Probable space group: P N C 2
;
_chemical_formula_sum "Si O2"
_cell_formula_units_Z 26
_cell_length_a 8.059861
_cell_length_b 16.566693
_cell_length_c 9.617075
_cell_angle_alpha 90.000000
_cell_angle_beta 90.000000
_cell_angle_gamma 90.000000
_cell_volume 1284.122274
_symmetry_space_group_name_H-M "P N C 2"
_symmetry_group_IT_number 30
_symmetry_cell_setting 'orthorhombic'
loop_
_space_group_symop_operation_xyz
x,y,z
-x,-y,z
-x,1/2+y,1/2+z
x,1/2-y,1/2+z
loop_
_atom_site_type_symbol
_atom_site_label
_atom_site_fract_x
_atom_site_fract_y
_atom_site_fract_z
Si Si1 0.000000 0.000000 0.383760
Si Si2 0.706034 0.735898 0.635347
Si Si3 0.362326 0.584443 0.171659
Si Si4 0.504524 0.207976 0.875880
Si Si5 0.024170 0.666311 0.763319
Si Si6 0.820716 0.224720 0.532399
Si Si7 0.279723 0.079343 0.583081
O O1 0.849917 0.957691 0.471860
O O2 0.068557 0.926165 0.292610
O O3 0.552568 0.741758 0.741451
O O4 0.645132 0.706492 0.485519
O O5 0.769351 0.829705 0.625431
O O6 0.840171 0.678820 0.705327
O O7 0.435162 0.623745 0.310893
O O8 0.219096 0.641317 0.111026
O O9 0.518526 0.587687 0.061209
O O10 0.292185 0.494888 0.191821
O O11 0.656042 0.249014 0.952823
O O12 0.133526 0.709628 0.646671
O O13 0.046162 0.711869 0.910555
#
# Coordination Sequence:
#
# PCOD9342194 Si02
#       7
#     2   4   4   4   4   4   4
#     4  12  24  42  64  96 142 166 220 276 338 402
#     4  11  23  41  66  95 131 177 221 265 336 406
#     4  10  21  38  66  99 126 164 228 276 322 374
#     4  11  20  40  67  94 127 173 223 274 322 401
#     4  12  26  41  66  97 134 177 219 275 341 398
#     4  12  21  42  67  95 128 173 225 273 325 401
#     4  10  21  39  65  97 128 169 224 268 319 408
#
# _framework density 20.247292000000002
#
# number of rings (size 3 to 8) (size 9 to 14) (size 15 to 20)
#    0.000    0.923    6.154    2.769    0.000    0.000 
#    0.000    7.692    0.000    0.000    0.000    0.000 
#    0.000    0.000    0.000    0.000    0.000    0.000 
#
# Total GULP energy -144964.490187 kJ/mol
# GULP energy per Si atom -5575.557315 kJ/mol
# Density = 2.020121 g / cm^3
# Si number density = 20.247292 Si / 1000 Ang^3
#
#
#
# Elastic Constant Matrix: (Units=GPa)
#
#
# Indices 1 2 3 4 5 6 
#
# 1 37.5646 8.2184 26.1991 0.0000 0.0000 0.0000
# 2 8.2184 96.0189 50.5272 0.0000 0.0000 0.0000
# 3 26.1991 50.5272 112.9272 0.0000 0.0000 0.0000
# 4 0.0000 0.0000 0.0000 26.6875 0.0000 0.0000
# 5 0.0000 0.0000 0.0000 0.0000 50.1643 0.0000
# 6 0.0000 0.0000 0.0000 0.0000 0.0000 33.5715
#
#
#
# Elastic Compliance Matrix: (Units=1/GPa)
#
#
# Indices 1 2 3 4 5 6 
#
# 1 0.031929 0.001524 -0.008089 0.000000 0.000000 0.000000
# 2 0.001524 0.013695 -0.006481 0.000000 0.000000 0.000000
# 3 -0.008089 -0.006481 0.013632 0.000000 0.000000 0.000000
# 4 0.000000 0.000000 0.000000 0.037471 0.000000 0.000000
# 5 0.000000 0.000000 0.000000 0.000000 0.019934 0.000000
# 6 0.000000 0.000000 0.000000 0.000000 0.000000 0.029787
#
#
# Mechanical properties :
#
#
# Convention : Reuss Voigt Hill
#
# Bulk Modulus (GPa) = 30.15425 46.26666 38.21045
# Shear Modulus (GPa) = 27.23382 32.85573 30.04478
#
# Velocity S-wave (km/s) = 3.67148 4.03267 3.85631
# Velocity P-wave (km/s) = 5.73571 6.67710 6.22423
#
# Compressibility (1/GPa) = 0.03316283
#
# Stress axis : x y z
#
# Youngs Moduli (GPa) = 31.31919 73.02153 73.35792
#
# Poissons Ratio (x) = -0.11128 0.59343
# Poissons Ratio (y) = -0.04773 0.47543
# Poissons Ratio (z) = 0.25336 0.47325
#
# Static dielectric constant tensor:
#      x y z
#    x 1.808600 0.000000 0.000000 
#    y 0.000000 1.726310 0.000000 
#    z 0.000000 0.000000 1.713120 
# 
# From -- ./inp_files/2004.got.cif
#   From: 2010.05.17/outbox.cif.g08.bks.cpg/sg30_2_cif.got.tgz:2004.got - 2010.06.03 17:03:02.
