data_PCOD9342756
_publ_section_title
;
Structure prediction by ZEFSAII (Michael W. Deem and Ramdas Pophale) SiO2 
 PCOD9342756
Probable space group: P M N 21
;
_chemical_formula_sum "Si O2"
_cell_formula_units_Z 32
_cell_length_a 7.496983
_cell_length_b 11.207819
_cell_length_c 14.477902
_cell_angle_alpha 90.000000
_cell_angle_beta 90.000000
_cell_angle_gamma 90.000000
_cell_volume 1216.503233
_symmetry_space_group_name_H-M "P M N 21"
_symmetry_group_IT_number 31
_symmetry_cell_setting 'orthorhombic'
loop_
_space_group_symop_operation_xyz
x,y,z
1/2-x,-y,1/2+z
-x,y,z
1/2+x,-y,1/2+z
loop_
_atom_site_type_symbol
_atom_site_label
_atom_site_fract_x
_atom_site_fract_y
_atom_site_fract_z
Si Si1 0.713735 0.797784 0.708660
Si Si2 0.218692 0.192346 0.861642
Si Si3 0.279623 0.292110 0.479431
Si Si4 0.300620 0.440220 0.319642
Si Si5 0.788342 0.566410 0.140548
Si Si6 0.791906 0.062091 0.685145
Si Si7 0.206057 0.961794 0.972471
Si Si8 0.216710 0.335357 0.028526
O O1 0.500000 0.788963 0.717552
O O2 0.794034 0.686886 0.765073
O O3 0.759124 0.770192 0.601211
O O4 0.773309 0.930904 0.732274
O O5 0.279228 0.160454 0.757946
O O6 0.000000 0.196888 0.857764
O O7 0.276363 0.304244 0.924967
O O8 0.278455 0.079139 0.924244
O O9 0.500000 0.288495 0.475383
O O10 0.214393 0.399940 0.415150
O O11 0.224530 0.318815 0.584539
O O12 0.212987 0.165239 0.444494
O O13 0.500000 0.474612 0.344438
O O14 0.244035 0.539696 0.246988
O O15 0.719977 0.453072 0.081518
O O16 0.000000 0.565900 0.131127
O O17 0.707761 0.045410 0.584176
O O18 0.000000 0.084239 0.670261
O O19 0.000000 0.961877 0.943911
O O20 0.000000 0.341839 0.025616
#
# Coordination Sequence:
#
# PCOD9342756 Si02
#       8
#     4   4   4   4   4   4   4   4
#     4  10  18  32  55  78 104 143 184 219 263 324
#     4   9  17  31  51  75 102 140 179 214 266 331
#     4   9  19  36  57  79 108 151 191 222 268 339
#     4  10  19  34  57  86 110 138 186 237 278 312
#     4   9  18  35  57  80 105 140 189 231 273 333
#     4  11  21  32  50  81 114 140 176 227 277 322
#     4  10  19  36  57  74 104 148 187 219 266 334
#     4   8  14  28  52  73  91 126 176 219 253 311
#
# _framework density 26.304905000000002
#
# number of rings (size 3 to 8) (size 9 to 14) (size 15 to 20)
#    0.000    2.500    1.250    2.625    0.000    2.000 
#    2.250    5.625    0.000    0.000    0.000    0.000 
#    0.000    0.000    0.000    0.000    0.000    0.000 
#
# Total GULP energy -178779.836184 kJ/mol
# GULP energy per Si atom -5586.869881 kJ/mol
# Density = 2.624503 g / cm^3
# Si number density = 26.304905 Si / 1000 Ang^3
#
#
#
# Elastic Constant Matrix: (Units=GPa)
#
#
# Indices 1 2 3 4 5 6 
#
# 1 76.5672 -2.0692 -8.2598 0.0000 0.0000 0.0000
# 2 -2.0692 54.9318 22.5711 0.0000 0.0000 0.0000
# 3 -8.2598 22.5711 145.3954 0.0000 0.0000 0.0000
# 4 0.0000 0.0000 0.0000 59.7604 0.0000 0.0000
# 5 0.0000 0.0000 0.0000 0.0000 7.7096 0.0000
# 6 0.0000 0.0000 0.0000 0.0000 0.0000 9.3697
#
#
#
# Elastic Compliance Matrix: (Units=1/GPa)
#
#
# Indices 1 2 3 4 5 6 
#
# 1 0.013143 0.000201 0.000715 0.000000 0.000000 0.000000
# 2 0.000201 0.019448 -0.003008 0.000000 0.000000 0.000000
# 3 0.000715 -0.003008 0.007385 0.000000 0.000000 0.000000
# 4 0.000000 0.000000 0.000000 0.016734 0.000000 0.000000
# 5 0.000000 0.000000 0.000000 0.000000 0.129708 0.000000
# 6 0.000000 0.000000 0.000000 0.000000 0.000000 0.106727
#
#
# Mechanical properties :
#
#
# Convention : Reuss Voigt Hill
#
# Bulk Modulus (GPa) = 27.93769 33.48653 30.71211
# Shear Modulus (GPa) = 16.16773 33.01142 24.58958
#
# Velocity S-wave (km/s) = 2.48186 3.54637 3.06075
# Velocity P-wave (km/s) = 4.34242 5.43386 4.91851
#
# Compressibility (1/GPa) = 0.03579395
#
# Stress axis : x y z
#
# Youngs Moduli (GPa) = 76.08594 51.41973 135.40331
#
# Poissons Ratio (x) = -0.01034 -0.09687
# Poissons Ratio (y) = -0.01530 0.40724
# Poissons Ratio (z) = -0.05443 0.15465
#
# Static dielectric constant tensor:
#      x y z
#    x 2.017770 0.000000 0.000000 
#    y 0.000000 2.090640 0.000000 
#    z 0.000000 0.000000 2.115550 
# 
# From -- ./inp_files/5031.got.cif
#   From: 2010.05.17/outbox.cif.g08.bks.cpg/sg31_3_cif.got.tgz:5031.got - 2010.06.03 17:08:30.
