data_PCOD9342933
_publ_section_title
;
Structure prediction by ZEFSAII (Michael W. Deem and Ramdas Pophale) SiO2 
 PCOD9342933
Probable space group: P M N 21
;
_chemical_formula_sum "Si O2"
_cell_formula_units_Z 32
_cell_length_a 7.690922
_cell_length_b 11.000764
_cell_length_c 14.394804
_cell_angle_alpha 90.000000
_cell_angle_beta 90.000000
_cell_angle_gamma 90.000000
_cell_volume 1217.887044
_symmetry_space_group_name_H-M "P M N 21"
_symmetry_group_IT_number 31
_symmetry_cell_setting 'orthorhombic'
loop_
_space_group_symop_operation_xyz
x,y,z
1/2-x,-y,1/2+z
-x,y,z
1/2+x,-y,1/2+z
loop_
_atom_site_type_symbol
_atom_site_label
_atom_site_fract_x
_atom_site_fract_y
_atom_site_fract_z
Si Si1 0.709732 0.296899 0.365530
Si Si2 0.199130 0.580841 0.693977
Si Si3 0.792428 0.188301 0.642571
Si Si4 0.710592 0.802609 0.479702
Si Si5 0.701349 0.923560 0.663507
Si Si6 0.702178 0.348707 0.809771
Si Si7 0.791447 0.428426 0.536834
Si Si8 0.797570 0.958762 0.875329
O O1 0.500000 0.289164 0.360727
O O2 0.780314 0.321115 0.262422
O O3 0.753015 0.410366 0.430010
O O4 0.780592 0.170836 0.405701
O O5 0.197775 0.457756 0.757682
O O6 0.281713 0.538934 0.597496
O O7 0.000000 0.616746 0.677388
O O8 0.749394 0.229959 0.747871
O O9 0.726285 0.302750 0.582985
O O10 0.000000 0.179761 0.633827
O O11 0.713823 0.058502 0.618068
O O12 0.500000 0.801213 0.481214
O O13 0.768327 0.827831 0.586105
O O14 0.765245 0.688257 0.416621
O O15 0.776964 0.920984 0.421690
O O16 0.500000 0.898897 0.681375
O O17 0.790698 0.945368 0.763127
O O18 0.500000 0.377465 0.798874
O O19 0.000000 0.432048 0.548068
O O20 0.000000 0.961052 0.901430
#
# Coordination Sequence:
#
# PCOD9342933 Si02
#       8
#     4   4   4   4   4   4   4   4
#     4  10  21  39  62  86 115 156 198 236 289 355
#     4   9  20  40  61  82 116 156 190 236 300 351
#     4  10  19  34  56  81 115 154 187 233 293 341
#     4  10  21  37  56  81 120 159 188 230 294 351
#     4  11  22  35  55  86 118 153 195 237 282 344
#     4  11  21  34  57  85 109 141 194 245 283 336
#     4   9  19  35  58  86 114 151 195 241 292 341
#     4  10  21  38  59  83 117 160 193 232 291 351
#
# _framework density 26.275016000000001
#
# number of rings (size 3 to 8) (size 9 to 14) (size 15 to 20)
#    0.000    2.000    1.250    3.375    0.000    5.500 
#    2.250    0.000    0.000    0.000    0.000    0.000 
#    0.000    0.000    0.000    0.000    0.000    0.000 
#
# Total GULP energy -178969.570193 kJ/mol
# GULP energy per Si atom -5592.799069 kJ/mol
# Density = 2.621521 g / cm^3
# Si number density = 26.275016 Si / 1000 Ang^3
#
#
#
# Elastic Constant Matrix: (Units=GPa)
#
#
# Indices 1 2 3 4 5 6 
#
# 1 90.0972 8.6166 -2.6675 0.0000 0.0000 0.0000
# 2 8.6166 85.7273 14.3668 0.0000 0.0000 0.0000
# 3 -2.6675 14.3668 132.2372 0.0000 0.0000 0.0000
# 4 0.0000 0.0000 0.0000 49.1881 0.0000 0.0000
# 5 0.0000 0.0000 0.0000 0.0000 20.5966 0.0000
# 6 0.0000 0.0000 0.0000 0.0000 0.0000 21.6873
#
#
#
# Elastic Compliance Matrix: (Units=1/GPa)
#
#
# Indices 1 2 3 4 5 6 
#
# 1 0.011223 -0.001188 0.000355 0.000000 0.000000 0.000000
# 2 -0.001188 0.012007 -0.001328 0.000000 0.000000 0.000000
# 3 0.000355 -0.001328 0.007714 0.000000 0.000000 0.000000
# 4 0.000000 0.000000 0.000000 0.020330 0.000000 0.000000
# 5 0.000000 0.000000 0.000000 0.000000 0.048552 0.000000
# 6 0.000000 0.000000 0.000000 0.000000 0.000000 0.046110
#
#
# Mechanical properties :
#
#
# Convention : Reuss Voigt Hill
#
# Bulk Modulus (GPa) = 37.56221 38.74372 38.15296
# Shear Modulus (GPa) = 31.42066 37.47746 34.44906
#
# Velocity S-wave (km/s) = 3.46184 3.78081 3.62483
# Velocity P-wave (km/s) = 5.50508 5.81694 5.66316
#
# Compressibility (1/GPa) = 0.02662250
#
# Stress axis : x y z
#
# Youngs Moduli (GPa) = 89.10096 83.28548 129.64001
#
# Poissons Ratio (x) = 0.09891 -0.04608
# Poissons Ratio (y) = 0.10582 0.17222
# Poissons Ratio (z) = -0.03167 0.11064
#
# Static dielectric constant tensor:
#      x y z
#    x 1.930300 0.000000 0.000000 
#    y 0.000000 2.128300 0.000000 
#    z 0.000000 0.000000 2.151940 
# 
# From -- ./inp_files/5097.got.cif
#   From: 2010.05.17/outbox.cif.g08.bks.cpg/sg31_3_cif.got.tgz:5097.got - 2010.06.03 17:08:30.
