data_PCOD9342600
_publ_section_title
;
Structure prediction by ZEFSAII (Michael W. Deem and Ramdas Pophale) SiO2 
 PCOD9342600
Probable space group: P N C 2
;
_chemical_formula_sum "Si O2"
_cell_formula_units_Z 16
_cell_length_a 5.595832
_cell_length_b 5.144541
_cell_length_c 22.848622
_cell_angle_alpha 90.000000
_cell_angle_beta 90.000000
_cell_angle_gamma 90.000000
_cell_volume 657.765837
_symmetry_space_group_name_H-M "P N C 2"
_symmetry_group_IT_number 30
_symmetry_cell_setting 'orthorhombic'
loop_
_space_group_symop_operation_xyz
x,y,z
-x,-y,z
-x,1/2+y,1/2+z
x,1/2-y,1/2+z
loop_
_atom_site_type_symbol
_atom_site_label
_atom_site_fract_x
_atom_site_fract_y
_atom_site_fract_z
Si Si1 0.000000 0.500000 0.375000
Si Si2 0.357837 0.249604 0.294415
Si Si3 0.000000 0.000000 0.451986
Si Si4 0.740657 0.846852 0.037592
Si Si5 0.168395 0.250398 0.167291
O O1 0.883379 0.700454 0.328199
O O2 0.912206 0.264673 0.418293
O O3 0.500000 0.500000 0.314097
O O4 0.331011 0.249912 0.224692
O O5 0.500000 0.000000 0.313604
O O6 0.208760 0.110620 0.493691
O O7 0.703418 0.757201 0.104848
O O8 0.500000 0.000000 0.020740
O O9 0.000000 0.000000 0.039202
O O10 0.000000 0.500000 0.169438
O O11 0.000000 0.000000 0.172585
#
# Coordination Sequence:
#
# PCOD9342600 Si02
#       5
#     2   4   2   4   4
#     4  12  28  51  76 109 160 210 274 334 400 476
#     4  12  26  47  77 115 150 205 261 330 403 484
#     4  12  26  53  76 111 154 226 266 344 394 484
#     4  11  26  52  80 119 159 210 267 335 411 487
#     4  11  23  45  78 114 157 199 252 331 412 489
#
# _framework density 24.324769
#
# number of rings (size 3 to 8) (size 9 to 14) (size 15 to 20)
#    0.000    0.500    3.750    3.750    1.750    4.000 
#    9.000    0.000    0.000    0.000    0.000    0.000 
#    0.000    0.000    0.000    0.000    0.000    0.000 
#
# Total GULP energy -89337.060971 kJ/mol
# GULP energy per Si atom -5583.566311 kJ/mol
# Density = 2.426941 g / cm^3
# Si number density = 24.324769 Si / 1000 Ang^3
#
#
#
# Elastic Constant Matrix: (Units=GPa)
#
#
# Indices 1 2 3 4 5 6 
#
# 1 74.5162 50.9933 20.6328 0.0000 0.0000 0.0000
# 2 50.9933 220.6597 41.3336 0.0000 0.0000 0.0000
# 3 20.6328 41.3336 128.8805 0.0000 0.0000 0.0000
# 4 0.0000 0.0000 0.0000 42.5654 0.0000 0.0000
# 5 0.0000 0.0000 0.0000 0.0000 64.5117 0.0000
# 6 0.0000 0.0000 0.0000 0.0000 0.0000 53.6994
#
#
#
# Elastic Compliance Matrix: (Units=1/GPa)
#
#
# Indices 1 2 3 4 5 6 
#
# 1 0.016203 -0.003467 -0.001482 0.000000 0.000000 0.000000
# 2 -0.003467 0.005563 -0.001229 0.000000 0.000000 0.000000
# 3 -0.001482 -0.001229 0.008391 0.000000 0.000000 0.000000
# 4 0.000000 0.000000 0.000000 0.023493 0.000000 0.000000
# 5 0.000000 0.000000 0.000000 0.000000 0.015501 0.000000
# 6 0.000000 0.000000 0.000000 0.000000 0.000000 0.018622
#
#
# Mechanical properties :
#
#
# Convention : Reuss Voigt Hill
#
# Bulk Modulus (GPa) = 56.17834 72.21955 64.19894
# Shear Modulus (GPa) = 47.14196 52.89505 50.01851
#
# Velocity S-wave (km/s) = 4.40707 4.66825 4.53954
# Velocity P-wave (km/s) = 7.00297 7.66883 7.34345
#
# Compressibility (1/GPa) = 0.01780045
#
# Stress axis : x y z
#
# Youngs Moduli (GPa) = 61.71836 179.75068 119.18063
#
# Poissons Ratio (x) = 0.62315 0.17664
# Poissons Ratio (y) = 0.21396 0.14650
# Poissons Ratio (z) = 0.09147 0.22095
#
# Static dielectric constant tensor:
#      x y z
#    x 1.920310 0.000000 0.000000 
#    y 0.000000 1.908550 0.000000 
#    z 0.000000 0.000000 1.928820 
# 
# From -- ./inp_files/7126.got.cif
#   From: 2010.05.17/outbox.cif.g08.bks.cpg/sg30_4_cif.got.tgz:7126.got - 2010.06.03 17:03:02.
