data_PCOD9342925
_publ_section_title
;
Structure prediction by ZEFSAII (Michael W. Deem and Ramdas Pophale) SiO2 
 PCOD9342925
Probable space group: P M N 21
;
_chemical_formula_sum "Si O2"
_cell_formula_units_Z 32
_cell_length_a 8.106161
_cell_length_b 15.153390
_cell_length_c 12.644843
_cell_angle_alpha 90.000000
_cell_angle_beta 90.000000
_cell_angle_gamma 90.000000
_cell_volume 1553.239646
_symmetry_space_group_name_H-M "P M N 21"
_symmetry_group_IT_number 31
_symmetry_cell_setting 'orthorhombic'
loop_
_space_group_symop_operation_xyz
x,y,z
1/2-x,-y,1/2+z
-x,y,z
1/2+x,-y,1/2+z
loop_
_atom_site_type_symbol
_atom_site_label
_atom_site_fract_x
_atom_site_fract_y
_atom_site_fract_z
Si Si1 0.799867 0.946100 0.576320
Si Si2 0.800986 0.359761 0.800459
Si Si3 0.700057 0.667506 0.060469
Si Si4 0.302790 0.449090 0.359012
Si Si5 0.311472 0.864035 0.020293
Si Si6 0.808620 0.313810 0.193120
Si Si7 0.803407 0.762823 0.479473
Si Si8 0.311643 0.140699 0.295789
O O1 0.743214 0.862788 0.504977
O O2 0.766861 0.919588 0.696766
O O3 0.000000 0.949661 0.562658
O O4 0.733049 0.043734 0.556001
O O5 0.750022 0.363303 0.677625
O O6 0.746910 0.449263 0.859523
O O7 0.738712 0.275281 0.865043
O O8 0.000000 0.356283 0.801852
O O9 0.500000 0.669008 0.055405
O O10 0.761979 0.768504 0.047528
O O11 0.755332 0.606244 0.963233
O O12 0.500000 0.447964 0.350473
O O13 0.231574 0.403796 0.253099
O O14 0.500000 0.862349 0.060627
O O15 0.306862 0.869131 0.893935
O O16 0.700959 0.239708 0.251705
O O17 0.000000 0.292731 0.210378
O O18 0.771005 0.302064 0.069286
O O19 0.000000 0.762756 0.494169
O O20 0.500000 0.122608 0.328391
#
# Coordination Sequence:
#
# PCOD9342925 Si02
#       8
#     4   4   4   4   4   4   4   4
#     4   8  18  35  55  82 116 155 199 242 298 353
#     4  10  24  42  59  87 124 161 200 247 302 363
#     4  10  22  40  61  87 120 158 202 248 301 362
#     4  11  23  39  60  87 119 154 197 251 302 358
#     4  10  19  35  59  84 115 157 199 247 299 358
#     4  11  21  36  60  86 114 152 198 248 301 359
#     4  10  21  39  61  86 120 160 201 251 301 352
#     4  10  19  34  55  83 116 151 196 250 298 351
#
# _framework density 20.602101000000001
#
# number of rings (size 3 to 8) (size 9 to 14) (size 15 to 20)
#    0.000    2.000    1.250    3.000    1.750    2.500 
#    0.000    5.000    0.000    0.000    0.000    0.000 
#    0.000    0.000    0.000    0.000    0.000    0.000 
#
# Total GULP energy -178554.653606 kJ/mol
# GULP energy per Si atom -5579.832925 kJ/mol
# Density = 2.055521 g / cm^3
# Si number density = 20.602101 Si / 1000 Ang^3
#
#
#
# Elastic Constant Matrix: (Units=GPa)
#
#
# Indices 1 2 3 4 5 6 
#
# 1 34.6048 12.6448 13.6817 0.0000 0.0000 0.0000
# 2 12.6448 128.0556 52.1391 0.0000 0.0000 0.0000
# 3 13.6817 52.1391 61.8394 0.0000 0.0000 0.0000
# 4 0.0000 0.0000 0.0000 18.8349 0.0000 0.0000
# 5 0.0000 0.0000 0.0000 0.0000 27.1151 0.0000
# 6 0.0000 0.0000 0.0000 0.0000 0.0000 12.7780
#
#
#
# Elastic Compliance Matrix: (Units=1/GPa)
#
#
# Indices 1 2 3 4 5 6 
#
# 1 0.031683 -0.000418 -0.006657 0.000000 0.000000 0.000000
# 2 -0.000418 0.011897 -0.009938 0.000000 0.000000 0.000000
# 3 -0.006657 -0.009938 0.026023 0.000000 0.000000 0.000000
# 4 0.000000 0.000000 0.000000 0.053093 0.000000 0.000000
# 5 0.000000 0.000000 0.000000 0.000000 0.036880 0.000000
# 6 0.000000 0.000000 0.000000 0.000000 0.000000 0.078260
#
#
# Mechanical properties :
#
#
# Convention : Reuss Voigt Hill
#
# Bulk Modulus (GPa) = 28.10908 42.38122 35.24515
# Shear Modulus (GPa) = 17.62300 21.48119 19.55209
#
# Velocity S-wave (km/s) = 2.92789 3.23254 3.08398
# Velocity P-wave (km/s) = 5.01034 5.87779 5.46131
#
# Compressibility (1/GPa) = 0.03557569
#
# Stress axis : x y z
#
# Youngs Moduli (GPa) = 31.56312 84.05614 38.42739
#
# Poissons Ratio (x) = 0.03513 0.25582
# Poissons Ratio (y) = 0.01319 0.38190
# Poissons Ratio (z) = 0.21013 0.83537
#
# Static dielectric constant tensor:
#      x y z
#    x 1.756690 0.000000 0.000000 
#    y 0.000000 1.767020 0.000000 
#    z 0.000000 0.000000 1.725000 
# 
# From -- ./inp_files/3701.got.cif
#   From: 2010.05.17/outbox.cif.g08.bks.cpg/sg31_2_cif.got.tgz:3701.got - 2010.06.03 17:08:30.
