data_PCOD9342684
_publ_section_title
;
Structure prediction by ZEFSAII (Michael W. Deem and Ramdas Pophale) SiO2 
 PCOD9342684
Probable space group: P M N 21
;
_chemical_formula_sum "Si O2"
_cell_formula_units_Z 24
_cell_length_a 15.026320
_cell_length_b 7.012979
_cell_length_c 10.103896
_cell_angle_alpha 90.000000
_cell_angle_beta 90.000000
_cell_angle_gamma 90.000000
_cell_volume 1064.741150
_symmetry_space_group_name_H-M "P M N 21"
_symmetry_group_IT_number 31
_symmetry_cell_setting 'orthorhombic'
loop_
_space_group_symop_operation_xyz
x,y,z
1/2-x,-y,1/2+z
-x,y,z
1/2+x,-y,1/2+z
loop_
_atom_site_type_symbol
_atom_site_label
_atom_site_fract_x
_atom_site_fract_y
_atom_site_fract_z
Si Si1 0.692061 0.081062 0.698920
Si Si2 0.674840 0.030521 0.418306
Si Si3 0.000000 0.880319 0.781180
Si Si4 0.500000 0.279694 0.747713
Si Si5 0.000000 0.506740 0.971766
Si Si6 0.817233 0.531955 0.909985
Si Si7 0.500000 0.416492 0.049673
Si Si8 0.312048 0.558332 0.123296
O O1 0.681755 0.949101 0.567637
O O2 0.593156 0.163259 0.730806
O O3 0.767792 0.239979 0.661496
O O4 0.736494 0.994901 0.831423
O O5 0.588005 0.004236 0.325219
O O6 0.664736 0.253948 0.456481
O O7 0.000000 0.688972 0.872495
O O8 0.000000 0.783014 0.635325
O O9 0.500000 0.429159 0.624652
O O10 0.500000 0.371351 0.893696
O O11 0.906266 0.411909 0.935573
O O12 0.795486 0.553840 0.757858
O O13 0.736551 0.465330 0.998311
O O14 0.415058 0.541001 0.091474
#
# Coordination Sequence:
#
# PCOD9342684 Si02
#       8
#     4   4   2   2   2   4   2   4
#     4  11  24  39  65  90 128 162 214 259 308 371
#     4  10  21  39  61  90 118 167 208 255 310 374
#     4  10  18  41  64  81 116 168 200 251 308 388
#     4  12  22  42  61  95 122 175 206 253 317 392
#     4  10  16  40  60  79 111 165 200 242 298 380
#     4  10  20  37  62  84 123 154 211 250 315 368
#     4  12  24  35  65  95 127 158 216 254 327 378
#     4  11  21  37  58  96 118 161 198 267 304 376
#
# _framework density 22.540690000000001
#
# number of rings (size 3 to 8) (size 9 to 14) (size 15 to 20)
#    0.000    1.333    8.333    1.000    2.333    2.000 
#    0.000    3.333    0.000    2.000    0.000    0.000 
#    0.000    0.000    0.000    0.000    0.000    0.000 
#
# Total GULP energy -133634.468482 kJ/mol
# GULP energy per Si atom -5568.102853 kJ/mol
# Density = 2.248939 g / cm^3
# Si number density = 22.540690 Si / 1000 Ang^3
#
#
#
# Elastic Constant Matrix: (Units=GPa)
#
#
# Indices 1 2 3 4 5 6 
#
# 1 181.5663 13.2401 44.0935 0.0000 0.0000 0.0000
# 2 13.2401 36.0463 -11.1643 0.0000 0.0000 0.0000
# 3 44.0935 -11.1643 148.4269 0.0000 0.0000 0.0000
# 4 0.0000 0.0000 0.0000 22.1165 0.0000 0.0000
# 5 0.0000 0.0000 0.0000 0.0000 7.6977 0.0000
# 6 0.0000 0.0000 0.0000 0.0000 0.0000 6.0985
#
#
#
# Elastic Compliance Matrix: (Units=1/GPa)
#
#
# Indices 1 2 3 4 5 6 
#
# 1 0.006224 -0.002927 -0.002069 0.000000 0.000000 0.000000
# 2 -0.002927 0.029780 0.003109 0.000000 0.000000 0.000000
# 3 -0.002069 0.003109 0.007586 0.000000 0.000000 0.000000
# 4 0.000000 0.000000 0.000000 0.045215 0.000000 0.000000
# 5 0.000000 0.000000 0.000000 0.000000 0.129910 0.000000
# 6 0.000000 0.000000 0.000000 0.000000 0.000000 0.163974
#
#
# Mechanical properties :
#
#
# Convention : Reuss Voigt Hill
#
# Bulk Modulus (GPa) = 25.11489 50.93088 38.02289
# Shear Modulus (GPa) = 12.50835 28.50721 20.50778
#
# Velocity S-wave (km/s) = 2.35824 3.56012 3.01958
# Velocity P-wave (km/s) = 4.31060 6.28836 5.39095
#
# Compressibility (1/GPa) = 0.03981701
#
# Stress axis : x y z
#
# Youngs Moduli (GPa) = 160.68115 33.57935 131.82450
#
# Poissons Ratio (x) = 0.09828 0.27274
# Poissons Ratio (y) = 0.47027 -0.40990
# Poissons Ratio (z) = 0.33244 -0.10441
#
# Static dielectric constant tensor:
#      x y z
#    x 1.980970 0.000000 0.000000 
#    y 0.000000 1.961610 0.000000 
#    z 0.000000 0.000000 1.931180 
# 
# From -- ./inp_files/2136.got.cif
#   From: 2010.05.17/outbox.cif.g08.bks.cpg/sg31_2_cif.got.tgz:2136.got - 2010.06.03 17:08:30.
