data_PCOD9342794
_publ_section_title
;
Structure prediction by ZEFSAII (Michael W. Deem and Ramdas Pophale) SiO2 
 PCOD9342794
Probable space group: P M N 21
;
_chemical_formula_sum "Si O2"
_cell_formula_units_Z 32
_cell_length_a 16.175356
_cell_length_b 8.842832
_cell_length_c 11.475684
_cell_angle_alpha 90.000000
_cell_angle_beta 90.000000
_cell_angle_gamma 90.000000
_cell_volume 1641.435428
_symmetry_space_group_name_H-M "P M N 21"
_symmetry_group_IT_number 31
_symmetry_cell_setting 'orthorhombic'
loop_
_space_group_symop_operation_xyz
x,y,z
1/2-x,-y,1/2+z
-x,y,z
1/2+x,-y,1/2+z
loop_
_atom_site_type_symbol
_atom_site_label
_atom_site_fract_x
_atom_site_fract_y
_atom_site_fract_z
Si Si1 0.090930 0.954388 0.081980
Si Si2 0.174685 0.219072 0.000964
Si Si3 0.161468 0.977573 0.579290
Si Si4 0.161905 0.021984 0.328562
Si Si5 0.257969 0.500137 0.083405
Si Si6 0.095480 0.681852 0.688454
Si Si7 0.275136 0.763151 0.252623
Si Si8 0.800194 0.744342 0.911723
O O1 0.110366 0.024937 0.210299
O O2 0.000000 0.886467 0.082621
O O3 0.098062 0.107820 0.008974
O O4 0.152840 0.836552 0.016206
O O5 0.173978 0.272159 0.867623
O O6 0.251937 0.108796 0.043458
O O7 0.189886 0.368309 0.076271
O O8 0.106838 0.853909 0.643822
O O9 0.122065 0.026824 0.456164
O O10 0.182219 0.120619 0.661310
O O11 0.237431 0.142364 0.342825
O O12 0.200535 0.856585 0.308517
O O13 0.346293 0.420407 0.105281
O O14 0.246533 0.613304 0.189996
O O15 0.249878 0.607494 0.970737
O O16 0.134866 0.683398 0.817550
O O17 0.000000 0.637313 0.687376
#
# Coordination Sequence:
#
# PCOD9342794 Si02
#       8
#     4   4   4   4   4   4   4   4
#     4  12  23  38  62  96 128 159 209 279 322 358
#     4  10  20  35  56  91 123 161 201 249 310 381
#     4  10  18  35  65  86 115 166 215 252 298 381
#     4  11  18  36  66  88 119 159 215 262 303 376
#     4  11  22  38  64  94 124 169 210 251 313 399
#     4  11  24  41  61  96 136 166 205 274 333 372
#     4  11  17  36  64  92 110 156 226 252 285 366
#     4  12  21  41  71  91 119 174 225 257 309 387
#
# _framework density 19.49513
#
# number of rings (size 3 to 8) (size 9 to 14) (size 15 to 20)
#    0.000    1.000    7.500    1.875    0.000    0.500 
#    0.000    4.375    0.000    0.000    0.000    0.000 
#    0.000    0.000    0.000    0.000    0.000    0.000 
#
# Total GULP energy -178143.647694 kJ/mol
# GULP energy per Si atom -5566.988990 kJ/mol
# Density = 1.945076 g / cm^3
# Si number density = 19.495130 Si / 1000 Ang^3
#
#
#
# Elastic Constant Matrix: (Units=GPa)
#
#
# Indices 1 2 3 4 5 6 
#
# 1 70.7692 22.8486 21.5218 0.0000 0.0000 0.0000
# 2 22.8486 94.4627 26.5936 0.0000 0.0000 0.0000
# 3 21.5218 26.5936 112.1913 0.0000 0.0000 0.0000
# 4 0.0000 0.0000 0.0000 45.7552 0.0000 0.0000
# 5 0.0000 0.0000 0.0000 0.0000 2.2281 0.0000
# 6 0.0000 0.0000 0.0000 0.0000 0.0000 13.4163
#
#
#
# Elastic Compliance Matrix: (Units=1/GPa)
#
#
# Indices 1 2 3 4 5 6 
#
# 1 0.015856 -0.003192 -0.002285 0.000000 0.000000 0.000000
# 2 -0.003192 0.011986 -0.002229 0.000000 0.000000 0.000000
# 3 -0.002285 -0.002229 0.009880 0.000000 0.000000 0.000000
# 4 0.000000 0.000000 0.000000 0.021855 0.000000 0.000000
# 5 0.000000 0.000000 0.000000 0.000000 0.448811 0.000000
# 6 0.000000 0.000000 0.000000 0.000000 0.000000 0.074536
#
#
# Mechanical properties :
#
#
# Convention : Reuss Voigt Hill
#
# Bulk Modulus (GPa) = 44.82270 46.59460 45.70865
# Shear Modulus (GPa) = 8.25393 26.04387 17.14890
#
# Velocity S-wave (km/s) = 2.05986 3.65898 2.96911
# Velocity P-wave (km/s) = 5.35715 6.46556 5.93727
#
# Compressibility (1/GPa) = 0.02231012
#
# Stress axis : x y z
#
# Youngs Moduli (GPa) = 63.06804 83.43274 101.21463
#
# Poissons Ratio (x) = 0.26631 0.23128
# Poissons Ratio (y) = 0.20131 0.22558
# Poissons Ratio (z) = 0.14411 0.18595
#
# Static dielectric constant tensor:
#      x y z
#    x 1.751530 0.000000 0.000000 
#    y 0.000000 1.693820 0.000000 
#    z 0.000000 0.000000 1.808440 
# 
# From -- ./inp_files/4437.got.cif
#   From: 2010.05.17/outbox.cif.g08.bks.cpg/sg31_3_cif.got.tgz:4437.got - 2010.06.03 17:08:30.
