data_PCOD9342596
_publ_section_title
;
Structure prediction by ZEFSAII (Michael W. Deem and Ramdas Pophale) SiO2 
 PCOD9342596
Probable space group: P N C 2
;
_chemical_formula_sum "Si O2"
_cell_formula_units_Z 32
_cell_length_a 17.589921
_cell_length_b 6.505020
_cell_length_c 13.032646
_cell_angle_alpha 90.000000
_cell_angle_beta 90.000000
_cell_angle_gamma 90.000000
_cell_volume 1491.231689
_symmetry_space_group_name_H-M "P N C 2"
_symmetry_group_IT_number 30
_symmetry_cell_setting 'orthorhombic'
loop_
_space_group_symop_operation_xyz
x,y,z
-x,-y,z
-x,1/2+y,1/2+z
x,1/2-y,1/2+z
loop_
_atom_site_type_symbol
_atom_site_label
_atom_site_fract_x
_atom_site_fract_y
_atom_site_fract_z
Si Si1 0.422115 0.486556 0.453650
Si Si2 0.928386 0.343394 0.766361
Si Si3 0.169872 0.121292 0.129547
Si Si4 0.330128 0.621293 0.912821
Si Si5 0.168839 0.793006 0.948984
Si Si6 0.428386 0.343394 0.776008
Si Si7 0.668839 0.793006 0.593384
Si Si8 0.077885 0.513444 0.088718
O O1 0.500000 0.500000 0.517315
O O2 0.394496 0.706616 0.418794
O O3 0.442087 0.327460 0.363348
O O4 0.353733 0.392158 0.517874
O O5 0.856837 0.474830 0.721820
O O6 0.942087 0.172540 0.679020
O O7 0.000000 0.500000 0.779172
O O8 0.897616 0.218045 0.864491
O O9 0.249956 0.236954 0.141609
O O10 0.105504 0.293384 0.123574
O O11 0.170702 0.992214 0.022576
O O12 0.356837 0.474830 0.820548
O O13 0.250044 0.736954 0.900759
O O14 0.329297 0.492214 0.019792
O O15 0.146267 0.607842 0.024494
O O16 0.500000 0.500000 0.763196
O O17 0.397616 0.218045 0.677877
O O18 0.000000 0.500000 0.025054
#
# Coordination Sequence:
#
# PCOD9342596 Si02
#       8
#     4   4   4   4   4   4   4   4
#     4  11  23  44  65  94 140 173 217 283 334 396
#     4  11  24  43  67 100 131 175 226 277 336 399
#     4  11  23  44  67  95 138 172 222 284 329 394
#     4  11  23  44  67  95 138 172 222 284 329 394
#     4  11  24  42  68  99 129 177 228 270 342 399
#     4  11  24  43  67 100 131 175 226 277 336 399
#     4  11  24  42  68  99 129 177 228 270 342 399
#     4  11  23  44  65  94 140 173 217 283 334 396
#
# _framework density 21.458770000000001
#
# number of rings (size 3 to 8) (size 9 to 14) (size 15 to 20)
#    0.000    1.000    5.000    1.500    0.000    3.000 
#    4.500    0.000    0.000    0.000    0.000    0.000 
#    0.000    0.000    0.000    0.000    0.000    0.000 
#
# Total GULP energy -178541.336256 kJ/mol
# GULP energy per Si atom -5579.416758 kJ/mol
# Density = 2.140993 g / cm^3
# Si number density = 21.458770 Si / 1000 Ang^3
#
#
#
# Elastic Constant Matrix: (Units=GPa)
#
#
# Indices 1 2 3 4 5 6 
#
# 1 115.6339 13.8741 12.0873 0.0000 0.0000 0.0000
# 2 13.8741 51.0749 -13.0996 0.0000 0.0000 0.0000
# 3 12.0873 -13.0996 50.7558 0.0000 0.0000 0.0000
# 4 0.0000 0.0000 0.0000 -4.3350 0.0000 0.0000
# 5 0.0000 0.0000 0.0000 0.0000 23.7593 0.0000
# 6 0.0000 0.0000 0.0000 0.0000 0.0000 35.4844
#
#
#
# Elastic Compliance Matrix: (Units=1/GPa)
#
#
# Indices 1 2 3 4 5 6 
#
# 1 0.009372 -0.003339 -0.003094 0.000000 0.000000 0.000000
# 2 -0.003339 0.022157 0.006514 0.000000 0.000000 0.000000
# 3 -0.003094 0.006514 0.022120 0.000000 0.000000 0.000000
# 4 0.000000 0.000000 0.000000 -0.230678 0.000000 0.000000
# 5 0.000000 0.000000 0.000000 0.000000 0.042089 0.000000
# 6 0.000000 0.000000 0.000000 0.000000 0.000000 0.028181
#
#
# Mechanical properties :
#
#
# Convention : Reuss Voigt Hill
#
# Bulk Modulus (GPa) = 18.58386 27.02092 22.80239
# Shear Modulus (GPa) = -56.19003 24.62191 -15.78406
#
# Velocity S-wave (km/s) = -5.12269 3.39101 -2.71505
# Velocity P-wave (km/s) = 5.12935 5.28690 0.90584
#
# Compressibility (1/GPa) = 0.05381013
#
# Stress axis : x y z
#
# Youngs Moduli (GPa) = 106.70041 45.13289 45.20782
#
# Poissons Ratio (x) = 0.15071 0.13986
# Poissons Ratio (y) = 0.35631 -0.29447
# Poissons Ratio (z) = 0.33011 -0.29398
#
# Static dielectric constant tensor:
#      x y z
#    x 1.822130 0.000000 0.000000 
#    y 0.000000 1.748710 0.000000 
#    z 0.000000 0.000000 1.789170 
# 
# From -- ./inp_files/5667.got.cif
#   From: 2010.05.17/outbox.cif.g08.bks.cpg/sg30_3_cif.got.tgz:5667.got - 2010.06.03 17:03:02.
