data_PCOD9342969
_publ_section_title
;
Structure prediction by ZEFSAII (Michael W. Deem and Ramdas Pophale) SiO2 
 PCOD9342969
Probable space group: P M N 21
;
_chemical_formula_sum "Si O2"
_cell_formula_units_Z 32
_cell_length_a 7.760640
_cell_length_b 10.947980
_cell_length_c 14.441750
_cell_angle_alpha 90.000000
_cell_angle_beta 90.000000
_cell_angle_gamma 90.000000
_cell_volume 1227.019193
_symmetry_space_group_name_H-M "P M N 21"
_symmetry_group_IT_number 31
_symmetry_cell_setting 'orthorhombic'
loop_
_space_group_symop_operation_xyz
x,y,z
1/2-x,-y,1/2+z
-x,y,z
1/2+x,-y,1/2+z
loop_
_atom_site_type_symbol
_atom_site_label
_atom_site_fract_x
_atom_site_fract_y
_atom_site_fract_z
Si Si1 0.198878 0.545118 0.110310
Si Si2 0.300214 0.203934 0.061351
Si Si3 0.795766 0.211588 0.712431
Si Si4 0.803203 0.412616 0.281335
Si Si5 0.802512 0.354638 0.891134
Si Si6 0.210294 0.964705 0.945745
Si Si7 0.289344 0.056455 0.230447
Si Si8 0.798225 0.702677 0.958056
O O1 0.204124 0.676506 0.162429
O O2 0.278111 0.449534 0.182733
O O3 0.000000 0.507847 0.098934
O O4 0.278515 0.587295 0.013259
O O5 0.500000 0.232024 0.072375
O O6 0.226007 0.310458 0.995880
O O7 0.281103 0.080007 0.000417
O O8 0.227724 0.164171 0.162041
O O9 0.779460 0.238531 0.822774
O O10 0.000000 0.221375 0.692315
O O11 0.734598 0.075828 0.690556
O O12 0.801496 0.538205 0.341448
O O13 0.714003 0.317092 0.348429
O O14 0.000000 0.375427 0.269216
O O15 0.000000 0.396492 0.883051
O O16 0.260894 0.952198 0.837738
O O17 0.271340 0.834192 0.986115
O O18 0.000000 0.971855 0.948879
O O19 0.500000 0.059524 0.228641
O O20 0.000000 0.702810 0.980213
#
# Coordination Sequence:
#
# PCOD9342969 Si02
#       8
#     4   4   4   4   4   4   4   4
#     4   9  19  35  55  83 112 140 180 236 286 323
#     4  11  21  33  54  84 117 148 185 233 282 331
#     4   9  16  30  54  78 104 142 184 225 265 322
#     4  10  21  38  59  82 113 144 182 238 289 331
#     4  10  19  35  58  79 107 144 187 229 274 333
#     4  10  20  38  59  80 113 154 191 229 277 338
#     4   9  18  33  51  77 114 150 182 222 275 333
#     4  10  21  38  60  83 112 150 191 232 280 339
#
# _framework density 26.079463000000001
#
# number of rings (size 3 to 8) (size 9 to 14) (size 15 to 20)
#    0.000    2.250    1.250    1.875    0.000    2.000 
#    2.250    1.875    0.000    0.000    0.000    0.000 
#    0.000    0.000    0.000    0.000    0.000    0.000 
#
# Total GULP energy -178907.239174 kJ/mol
# GULP energy per Si atom -5590.851224 kJ/mol
# Density = 2.602010 g / cm^3
# Si number density = 26.079463 Si / 1000 Ang^3
#
#
#
# Elastic Constant Matrix: (Units=GPa)
#
#
# Indices 1 2 3 4 5 6 
#
# 1 60.1061 7.5109 8.7673 0.0000 0.0000 0.0000
# 2 7.5109 96.8889 12.2899 0.0000 0.0000 0.0000
# 3 8.7673 12.2899 142.7829 0.0000 0.0000 0.0000
# 4 0.0000 0.0000 0.0000 52.7226 0.0000 0.0000
# 5 0.0000 0.0000 0.0000 0.0000 19.6445 0.0000
# 6 0.0000 0.0000 0.0000 0.0000 0.0000 30.6168
#
#
#
# Elastic Compliance Matrix: (Units=1/GPa)
#
#
# Indices 1 2 3 4 5 6 
#
# 1 0.016923 -0.001193 -0.000936 0.000000 0.000000 0.000000
# 2 -0.001193 0.010519 -0.000832 0.000000 0.000000 0.000000
# 3 -0.000936 -0.000832 0.007133 0.000000 0.000000 0.000000
# 4 0.000000 0.000000 0.000000 0.018967 0.000000 0.000000
# 5 0.000000 0.000000 0.000000 0.000000 0.050905 0.000000
# 6 0.000000 0.000000 0.000000 0.000000 0.000000 0.032662
#
#
# Mechanical properties :
#
#
# Convention : Reuss Voigt Hill
#
# Bulk Modulus (GPa) = 34.90222 39.65711 37.27967
# Shear Modulus (GPa) = 32.76912 38.67743 35.72327
#
# Velocity S-wave (km/s) = 3.54857 3.85523 3.70508
# Velocity P-wave (km/s) = 5.49563 5.92084 5.71219
#
# Compressibility (1/GPa) = 0.02865147
#
# Stress axis : x y z
#
# Youngs Moduli (GPa) = 59.09144 95.06477 140.19804
#
# Poissons Ratio (x) = 0.11342 0.13128
# Poissons Ratio (y) = 0.07050 0.11667
# Poissons Ratio (z) = 0.05533 0.07911
#
# Static dielectric constant tensor:
#      x y z
#    x 1.920220 0.000000 0.000000 
#    y 0.000000 2.075320 0.000000 
#    z 0.000000 0.000000 2.146990 
# 
# From -- ./inp_files/4976.got.cif
#   From: 2010.05.17/outbox.cif.g08.bks.cpg/sg31_3_cif.got.tgz:4976.got - 2010.06.03 17:08:30.
