data_PCOD9342461
_publ_section_title
;
Structure prediction by ZEFSAII (Michael W. Deem and Ramdas Pophale) SiO2 
 PCOD9342461
Probable space group: P N C 2
;
_chemical_formula_sum "Si O2"
_cell_formula_units_Z 32
_cell_length_a 14.276119
_cell_length_b 8.385868
_cell_length_c 11.508402
_cell_angle_alpha 90.000000
_cell_angle_beta 90.000000
_cell_angle_gamma 90.000000
_cell_volume 1377.758837
_symmetry_space_group_name_H-M "P N C 2"
_symmetry_group_IT_number 30
_symmetry_cell_setting 'orthorhombic'
loop_
_space_group_symop_operation_xyz
x,y,z
-x,-y,z
-x,1/2+y,1/2+z
x,1/2-y,1/2+z
loop_
_atom_site_type_symbol
_atom_site_label
_atom_site_fract_x
_atom_site_fract_y
_atom_site_fract_z
Si Si1 0.731909 0.989495 0.696120
Si Si2 0.906833 0.075453 0.085223
Si Si3 0.878777 0.651725 0.363122
Si Si4 0.760036 0.339966 0.770118
Si Si5 0.272699 0.092533 0.437026
Si Si6 0.472408 0.313488 0.971911
Si Si7 0.949250 0.168775 0.416224
Si Si8 0.462877 0.178119 0.725091
O O1 0.715498 0.168362 0.744552
O O2 0.826324 0.928011 0.756269
O O3 0.743400 0.998913 0.557802
O O4 0.649647 0.860319 0.722867
O O5 0.812652 0.088406 0.158413
O O6 0.937640 0.248827 0.041029
O O7 0.000000 0.000000 0.144260
O O8 0.885912 0.968437 0.971825
O O9 0.815617 0.802454 0.401458
O O10 0.982270 0.716795 0.342133
O O11 0.698103 0.471950 0.834353
O O12 0.847972 0.327472 0.858377
O O13 0.360440 0.203508 0.464405
O O14 0.500000 0.500000 0.976899
O O15 0.500854 0.249877 0.845447
O O16 0.495778 0.245522 0.101114
O O17 0.000000 0.000000 0.424414
O O18 0.500000 0.000000 0.721939
#
# Coordination Sequence:
#
# PCOD9342461 Si02
#       8
#     4   4   4   4   4   4   4   4
#     4  11  25  43  66  93 132 171 216 277 327 395
#     4  10  24  41  59  88 126 171 220 276 327 394
#     4  11  23  41  64  90 124 168 223 269 326 387
#     4  12  24  41  62  93 128 166 219 269 330 393
#     4  11  25  42  67  97 128 172 218 274 332 390
#     4  10  23  44  70 100 142 172 223 271 337 403
#     4  11  22  40  59  88 126 167 219 269 333 385
#     4  10  23  45  69 103 137 179 218 275 332 404
#
# _framework density 23.226127000000002
#
# number of rings (size 3 to 8) (size 9 to 14) (size 15 to 20)
#    0.000    1.250    3.750    1.125    3.500    1.500 
#    0.000    0.000    0.000    0.000    0.000    0.000 
#    0.000    0.000    0.000    0.000    0.000    0.000 
#
# Total GULP energy -178718.473020 kJ/mol
# GULP energy per Si atom -5584.952282 kJ/mol
# Density = 2.317326 g / cm^3
# Si number density = 23.226127 Si / 1000 Ang^3
#
#
#
# Elastic Constant Matrix: (Units=GPa)
#
#
# Indices 1 2 3 4 5 6 
#
# 1 40.2808 -17.1799 -1.4228 0.0000 0.0000 0.0000
# 2 -17.1799 73.9417 48.3839 0.0000 0.0000 0.0000
# 3 -1.4228 48.3839 157.7580 0.0000 0.0000 0.0000
# 4 0.0000 0.0000 0.0000 38.2099 0.0000 0.0000
# 5 0.0000 0.0000 0.0000 0.0000 -62.0776 0.0000
# 6 0.0000 0.0000 0.0000 0.0000 0.0000 27.6021
#
#
#
# Elastic Compliance Matrix: (Units=1/GPa)
#
#
# Indices 1 2 3 4 5 6 
#
# 1 0.028150 0.007975 -0.002192 0.000000 0.000000 0.000000
# 2 0.007975 0.019179 -0.005810 0.000000 0.000000 0.000000
# 3 -0.002192 -0.005810 0.008101 0.000000 0.000000 0.000000
# 4 0.000000 0.000000 0.000000 0.026171 0.000000 0.000000
# 5 0.000000 0.000000 0.000000 0.000000 -0.016109 0.000000
# 6 0.000000 0.000000 0.000000 0.000000 0.000000 0.036229
#
#
# Mechanical properties :
#
#
# Convention : Reuss Voigt Hill
#
# Bulk Modulus (GPa) = 18.05883 36.83810 27.44847
# Shear Modulus (GPa) = 41.58551 16.89349 29.23950
#
# Velocity S-wave (km/s) = 4.23598 2.69987 3.55196
# Velocity P-wave (km/s) = 5.63176 5.06104 5.35401
#
# Compressibility (1/GPa) = 0.05537457
#
# Stress axis : x y z
#
# Youngs Moduli (GPa) = 35.52456 52.14050 123.44113
#
# Poissons Ratio (x) = -0.41580 0.27057
# Poissons Ratio (y) = -0.28330 0.71722
# Poissons Ratio (z) = 0.07787 0.30295
#
# Static dielectric constant tensor:
#      x y z
#    x 1.941080 0.000000 0.000000 
#    y 0.000000 1.899170 0.000000 
#    z 0.000000 0.000000 1.918540 
# 
# From -- ./inp_files/4376.got.cif
#   From: 2010.05.17/outbox.cif.g08.bks.cpg/sg30_3_cif.got.tgz:4376.got - 2010.06.03 17:03:02.
