data_PCOD9342044
_publ_section_title
;
Structure prediction by ZEFSAII (Michael W. Deem and Ramdas Pophale) SiO2 
 PCOD9342044
Probable space group: P N C 2
;
_chemical_formula_sum "Si O2"
_cell_formula_units_Z 24
_cell_length_a 15.696402
_cell_length_b 9.228499
_cell_length_c 9.022977
_cell_angle_alpha 90.000000
_cell_angle_beta 90.000000
_cell_angle_gamma 90.000000
_cell_volume 1307.016387
_symmetry_space_group_name_H-M "P N C 2"
_symmetry_group_IT_number 30
_symmetry_cell_setting 'orthorhombic'
loop_
_space_group_symop_operation_xyz
x,y,z
-x,-y,z
-x,1/2+y,1/2+z
x,1/2-y,1/2+z
loop_
_atom_site_type_symbol
_atom_site_label
_atom_site_fract_x
_atom_site_fract_y
_atom_site_fract_z
Si Si1 0.233676 0.109852 0.418310
Si Si2 0.163641 0.676990 0.387750
Si Si3 0.909079 0.425875 0.072995
Si Si4 0.585211 0.410168 0.592395
Si Si5 0.243010 0.421022 0.563879
Si Si6 0.655484 0.347367 0.909656
O O1 0.241619 0.271810 0.475676
O O2 0.228325 0.101354 0.239577
O O3 0.150807 0.043130 0.494274
O O4 0.310920 0.002644 0.467544
O O5 0.131763 0.624765 0.228367
O O6 0.097233 0.786649 0.464636
O O7 0.179526 0.539577 0.494117
O O8 0.254856 0.762402 0.373687
O O9 0.000000 0.500000 0.094463
O O10 0.500000 0.500000 0.563892
O O11 0.664032 0.509943 0.544616
O O12 0.600705 0.378879 0.764808
O O13 0.600089 0.256113 0.513315
#
# Coordination Sequence:
#
# PCOD9342044 Si02
#       6
#     4   4   4   4   4   4
#     4  10  20  37  59  84 112 149 191 230 278 344
#     4  10  20  40  61  80 113 155 190 226 282 346
#     4  11  23  38  59  86 113 147 189 237 285 329
#     4  10  21  36  56  84 112 145 188 235 282 327
#     4  10  21  37  60  84 113 151 191 228 277 345
#     4   9  19  38  59  78 111 153 187 224 278 343
#
# _framework density 18.362431000000001
#
# number of rings (size 3 to 8) (size 9 to 14) (size 15 to 20)
#    0.000    2.000    0.000    6.000    0.000    6.667 
#    0.000    2.500    0.000    0.000    0.000    0.000 
#    0.000    0.000    0.000    0.000    0.000    0.000 
#
# Total GULP energy -133899.349471 kJ/mol
# GULP energy per Si atom -5579.139561 kJ/mol
# Density = 1.832064 g / cm^3
# Si number density = 18.362431 Si / 1000 Ang^3
#
#
#
# Elastic Constant Matrix: (Units=GPa)
#
#
# Indices 1 2 3 4 5 6 
#
# 1 38.4025 4.3253 11.2106 0.0000 0.0000 0.0000
# 2 4.3253 110.0772 25.9114 0.0000 0.0000 0.0000
# 3 11.2106 25.9114 52.2679 0.0000 0.0000 0.0000
# 4 0.0000 0.0000 0.0000 36.9412 0.0000 0.0000
# 5 0.0000 0.0000 0.0000 0.0000 3.2545 0.0000
# 6 0.0000 0.0000 0.0000 0.0000 0.0000 22.4222
#
#
#
# Elastic Compliance Matrix: (Units=1/GPa)
#
#
# Indices 1 2 3 4 5 6 
#
# 1 0.027791 0.000352 -0.006135 0.000000 0.000000 0.000000
# 2 0.000352 0.010289 -0.005176 0.000000 0.000000 0.000000
# 3 -0.006135 -0.005176 0.023014 0.000000 0.000000 0.000000
# 4 0.000000 0.000000 0.000000 0.027070 0.000000 0.000000
# 5 0.000000 0.000000 0.000000 0.000000 0.307264 0.000000
# 6 0.000000 0.000000 0.000000 0.000000 0.000000 0.044599
#
#
# Mechanical properties :
#
#
# Convention : Reuss Voigt Hill
#
# Bulk Modulus (GPa) = 25.52598 31.51580 28.52089
# Shear Modulus (GPa) = 10.52620 23.14359 16.83490
#
# Velocity S-wave (km/s) = 2.39685 3.55403 3.03118
# Velocity P-wave (km/s) = 4.64664 5.83455 5.27415
#
# Compressibility (1/GPa) = 0.03917577
#
# Stress axis : x y z
#
# Youngs Moduli (GPa) = 35.98241 97.18967 43.45136
#
# Poissons Ratio (x) = -0.03423 0.26659
# Poissons Ratio (y) = -0.01267 0.22492
# Poissons Ratio (z) = 0.22077 0.50308
#
# Static dielectric constant tensor:
#      x y z
#    x 1.629200 0.000000 0.000000 
#    y 0.000000 1.645010 0.000000 
#    z 0.000000 0.000000 1.626710 
# 
# From -- ./inp_files/2605.got.cif
#   From: 2010.05.17/outbox.cif.g08.bks.cpg/sg30_2_cif.got.tgz:2605.got - 2010.06.03 17:03:02.
