data_PCOD9342659
_publ_section_title
;
Structure prediction by ZEFSAII (Michael W. Deem and Ramdas Pophale) SiO2 
 PCOD9342659
Probable space group: P N C 2
;
_chemical_formula_sum "Si O2"
_cell_formula_units_Z 12
_cell_length_a 4.613131
_cell_length_b 8.126856
_cell_length_c 12.856594
_cell_angle_alpha 90.000000
_cell_angle_beta 90.000000
_cell_angle_gamma 90.000000
_cell_volume 481.996941
_symmetry_space_group_name_H-M "P N C 2"
_symmetry_group_IT_number 30
_symmetry_cell_setting 'orthorhombic'
loop_
_space_group_symop_operation_xyz
x,y,z
-x,-y,z
-x,1/2+y,1/2+z
x,1/2-y,1/2+z
loop_
_atom_site_type_symbol
_atom_site_label
_atom_site_fract_x
_atom_site_fract_y
_atom_site_fract_z
Si Si1 0.585344 0.311519 0.096840
Si Si2 0.750621 0.114466 0.290837
Si Si3 0.075861 0.308333 0.471553
O O1 0.500000 0.500000 0.105357
O O2 0.574385 0.218676 0.206427
O O3 0.407302 0.220090 0.004810
O O4 0.916624 0.290374 0.063459
O O5 0.941195 0.224647 0.368975
O O6 0.500000 0.000000 0.342543
O O7 0.000000 0.000000 0.239809
O O8 0.000000 0.500000 0.471081
#
# Coordination Sequence:
#
# PCOD9342659 Si02
#       3
#     4   4   4
#     4  12  26  46  71 104 142 185 235 291 351 419
#     4  12  26  46  72 104 142 188 236 290 352 420
#     4  12  26  46  71 104 142 185 235 291 351 419
#
# _framework density 24.896421
#
# number of rings (size 3 to 8) (size 9 to 14) (size 15 to 20)
#    0.000    0.000    0.000   12.000    0.000    8.000 
#    0.000    0.000    0.000    0.000    0.000    0.000 
#    0.000    0.000    0.000    0.000    0.000    0.000 
#
# Total GULP energy -67190.970556 kJ/mol
# GULP energy per Si atom -5599.247546 kJ/mol
# Density = 2.483976 g / cm^3
# Si number density = 24.896421 Si / 1000 Ang^3
#
#
#
# Elastic Constant Matrix: (Units=GPa)
#
#
# Indices 1 2 3 4 5 6 
#
# 1 105.4537 44.8485 12.0726 0.0000 0.0000 0.0000
# 2 44.8485 196.1916 61.2777 0.0000 0.0000 0.0000
# 3 12.0726 61.2777 118.4170 0.0000 0.0000 0.0000
# 4 0.0000 0.0000 0.0000 37.5258 0.0000 0.0000
# 5 0.0000 0.0000 0.0000 0.0000 17.2887 0.0000
# 6 0.0000 0.0000 0.0000 0.0000 0.0000 42.8930
#
#
#
# Elastic Compliance Matrix: (Units=1/GPa)
#
#
# Indices 1 2 3 4 5 6 
#
# 1 0.010508 -0.002466 0.000205 0.000000 0.000000 0.000000
# 2 -0.002466 0.006658 -0.003194 0.000000 0.000000 0.000000
# 3 0.000205 -0.003194 0.010077 0.000000 0.000000 0.000000
# 4 0.000000 0.000000 0.000000 0.026648 0.000000 0.000000
# 5 0.000000 0.000000 0.000000 0.000000 0.057841 0.000000
# 6 0.000000 0.000000 0.000000 0.000000 0.000000 0.023314
#
#
# Mechanical properties :
#
#
# Convention : Reuss Voigt Hill
#
# Bulk Modulus (GPa) = 61.22746 72.93999 67.08373
# Shear Modulus (GPa) = 33.02467 39.66571 36.34519
#
# Velocity S-wave (km/s) = 3.64604 3.99586 3.82495
# Velocity P-wave (km/s) = 6.50931 7.11689 6.81987
#
# Compressibility (1/GPa) = 0.01633254
#
# Stress axis : x y z
#
# Youngs Moduli (GPa) = 95.16379 150.18522 99.23848
#
# Poissons Ratio (x) = 0.37037 -0.02033
# Poissons Ratio (y) = 0.23468 0.31698
# Poissons Ratio (z) = -0.01949 0.47971
#
# Static dielectric constant tensor:
#      x y z
#    x 1.906210 0.000000 0.000000 
#    y 0.000000 1.941290 0.000000 
#    z 0.000000 0.000000 1.969730 
# 
# From -- ./inp_files/2863.got.cif
#   From: 2010.05.17/outbox.cif.g08.bks.cpg/sg30_2_cif.got.tgz:2863.got - 2010.06.03 17:03:02.
