data_PCOD9342503
_publ_section_title
;
Structure prediction by ZEFSAII (Michael W. Deem and Ramdas Pophale) SiO2 
 PCOD9342503
Probable space group: P N C 2
;
_chemical_formula_sum "Si O2"
_cell_formula_units_Z 30
_cell_length_a 8.194807
_cell_length_b 17.486195
_cell_length_c 8.476357
_cell_angle_alpha 90.000000
_cell_angle_beta 90.000000
_cell_angle_gamma 90.000000
_cell_volume 1214.627995
_symmetry_space_group_name_H-M "P N C 2"
_symmetry_group_IT_number 30
_symmetry_cell_setting 'orthorhombic'
loop_
_space_group_symop_operation_xyz
x,y,z
-x,-y,z
-x,1/2+y,1/2+z
x,1/2-y,1/2+z
loop_
_atom_site_type_symbol
_atom_site_label
_atom_site_fract_x
_atom_site_fract_y
_atom_site_fract_z
Si Si1 0.810247 0.382594 0.183380
Si Si2 0.708213 0.110264 0.348028
Si Si3 0.000000 0.000000 0.899084
Si Si4 0.462470 0.412471 0.298875
Si Si5 0.214892 0.298052 0.458947
Si Si6 0.824086 0.969174 0.208629
Si Si7 0.355179 0.365067 0.961829
Si Si8 0.970160 0.226454 0.208302
O O1 0.931659 0.432800 0.288636
O O2 0.640230 0.374356 0.276072
O O3 0.876630 0.299157 0.137187
O O4 0.770151 0.421023 0.016753
O O5 0.530959 0.143883 0.380099
O O6 0.837216 0.170831 0.282513
O O7 0.698075 0.038775 0.232451
O O8 0.861191 0.970557 0.020138
O O9 0.500000 0.500000 0.346057
O O10 0.350740 0.358439 0.407390
O O11 0.378070 0.412525 0.124054
O O12 0.298825 0.219050 0.513489
O O13 0.097969 0.267959 0.321370
O O14 0.760169 0.904367 0.330000
O O15 0.918408 0.821180 0.089117
O O16 0.000000 0.000000 0.270595
#
# Coordination Sequence:
#
# PCOD9342503 Si02
#       8
#     4   4   2   4   4   4   4   4
#     4  11  26  47  76 103 154 202 260 329 397 489
#     4  11  24  45  76 109 149 203 258 319 408 481
#     4  10  28  44  76 112 150 200 264 328 410 472
#     4  11  26  50  78 118 160 216 269 332 420 499
#     4  12  26  47  79 114 158 206 273 333 407 490
#     4  10  24  44  75 112 150 194 259 319 399 475
#     4  11  23  49  78 112 154 212 265 332 404 492
#     4  12  26  45  76 115 152 208 267 334 402 484
#
# _framework density 24.698920000000001
#
# number of rings (size 3 to 8) (size 9 to 14) (size 15 to 20)
#    0.400    0.533    2.667    3.600    4.667    0.000 
#    2.400    0.000    0.000    0.000    0.000    0.000 
#    0.000    0.000    0.000    0.000    0.000    0.000 
#
# Total GULP energy -167821.360701 kJ/mol
# GULP energy per Si atom -5594.045357 kJ/mol
# Density = 2.464270 g / cm^3
# Si number density = 24.698920 Si / 1000 Ang^3
#
#
#
# Elastic Constant Matrix: (Units=GPa)
#
#
# Indices 1 2 3 4 5 6 
#
# 1 119.8602 42.8073 51.2151 0.0000 0.0000 0.0000
# 2 42.8073 123.0915 36.3912 0.0000 0.0000 0.0000
# 3 51.2151 36.3912 99.1370 0.0000 0.0000 0.0000
# 4 0.0000 0.0000 0.0000 33.0226 0.0000 0.0000
# 5 0.0000 0.0000 0.0000 0.0000 40.1282 0.0000
# 6 0.0000 0.0000 0.0000 0.0000 0.0000 51.0837
#
#
#
# Elastic Compliance Matrix: (Units=1/GPa)
#
#
# Indices 1 2 3 4 5 6 
#
# 1 0.011344 -0.002482 -0.004950 0.000000 0.000000 0.000000
# 2 -0.002482 0.009656 -0.002262 0.000000 0.000000 0.000000
# 3 -0.004950 -0.002262 0.013474 0.000000 0.000000 0.000000
# 4 0.000000 0.000000 0.000000 0.030282 0.000000 0.000000
# 5 0.000000 0.000000 0.000000 0.000000 0.024920 0.000000
# 6 0.000000 0.000000 0.000000 0.000000 0.000000 0.019576
#
#
# Mechanical properties :
#
#
# Convention : Reuss Voigt Hill
#
# Bulk Modulus (GPa) = 66.28108 66.99066 66.63587
# Shear Modulus (GPa) = 37.40565 38.95858 38.18212
#
# Velocity S-wave (km/s) = 3.89583 3.97588 3.93606
# Velocity P-wave (km/s) = 6.86517 6.94684 6.90613
#
# Compressibility (1/GPa) = 0.01508726
#
# Stress axis : x y z
#
# Youngs Moduli (GPa) = 88.14970 103.56243 74.21427
#
# Poissons Ratio (x) = 0.25703 0.36733
# Poissons Ratio (y) = 0.21878 0.16790
# Poissons Ratio (z) = 0.43630 0.23429
#
# Static dielectric constant tensor:
#      x y z
#    x 1.960420 0.000000 0.000000 
#    y 0.000000 2.121140 0.000000 
#    z 0.000000 0.000000 2.010250 
# 
# From -- ./inp_files/3762.got.cif
#   From: 2010.05.17/outbox.cif.g08.bks.cpg/sg30_2_cif.got.tgz:3762.got - 2010.06.03 17:03:02.
