data_PCOD9342204
_publ_section_title
;
Structure prediction by ZEFSAII (Michael W. Deem and Ramdas Pophale) SiO2 
 PCOD9342204
Probable space group: P N C 2
;
_chemical_formula_sum "Si O2"
_cell_formula_units_Z 32
_cell_length_a 11.937622
_cell_length_b 10.165770
_cell_length_c 13.120737
_cell_angle_alpha 90.000000
_cell_angle_beta 90.000000
_cell_angle_gamma 90.000000
_cell_volume 1592.268608
_symmetry_space_group_name_H-M "P N C 2"
_symmetry_group_IT_number 30
_symmetry_cell_setting 'orthorhombic'
loop_
_space_group_symop_operation_xyz
x,y,z
-x,-y,z
-x,1/2+y,1/2+z
x,1/2-y,1/2+z
loop_
_atom_site_type_symbol
_atom_site_label
_atom_site_fract_x
_atom_site_fract_y
_atom_site_fract_z
Si Si1 0.367752 0.484310 0.208490
Si Si2 0.616836 0.702719 0.795341
Si Si3 0.995683 0.157901 0.245461
Si Si4 0.835902 0.347737 0.914174
Si Si5 0.742814 0.602886 0.995402
Si Si6 0.645709 0.222040 0.259894
Si Si7 0.798706 0.148767 0.092464
Si Si8 0.211631 0.151336 0.126417
O O1 0.500000 0.500000 0.191714
O O2 0.352151 0.357777 0.281252
O O3 0.315368 0.458694 0.096850
O O4 0.330757 0.621143 0.258850
O O5 0.482335 0.693623 0.788235
O O6 0.676011 0.642265 0.694740
O O7 0.663841 0.637693 0.898577
O O8 0.116489 0.198964 0.206365
O O9 0.949337 0.191479 0.356234
O O10 0.899298 0.198180 0.165967
O O11 0.000000 0.000000 0.244867
O O12 0.733620 0.348459 0.833647
O O13 0.833516 0.494353 0.960591
O O14 0.806467 0.235745 0.993526
O O15 0.784861 0.742209 0.037556
O O16 0.680446 0.175077 0.147503
O O17 0.814241 0.992692 0.082930
#
# Coordination Sequence:
#
# PCOD9342204 Si02
#       8
#     4   4   4   4   4   4   4   4
#     4   9  20  38  57  86 132 162 199 265 306 354
#     4  10  22  37  61  91 122 171 206 248 313 370
#     4   9  20  41  62  84 121 157 202 263 311 360
#     4  11  23  36  68  92 118 161 214 252 311 377
#     4  11  22  37  63  94 120 169 212 252 306 386
#     4  10  21  39  61  90 130 160 208 263 306 359
#     4  10  21  39  63  90 119 164 201 255 313 367
#     4  10  23  42  61  86 133 158 202 264 313 364
#
# _framework density 20.097111999999999
#
# number of rings (size 3 to 8) (size 9 to 14) (size 15 to 20)
#    0.000    2.000    1.250    2.250    3.500    4.500 
#    0.000    0.000    0.000    1.500    0.000    0.000 
#    0.000    0.000    0.000    0.000    0.000    0.000 
#
# Total GULP energy -178501.609943 kJ/mol
# GULP energy per Si atom -5578.175311 kJ/mol
# Density = 2.005137 g / cm^3
# Si number density = 20.097112 Si / 1000 Ang^3
#
#
#
# Elastic Constant Matrix: (Units=GPa)
#
#
# Indices 1 2 3 4 5 6 
#
# 1 56.0015 10.2477 20.1189 0.0000 0.0000 0.0000
# 2 10.2477 66.2735 21.1861 0.0000 0.0000 0.0000
# 3 20.1189 21.1861 80.4299 0.0000 0.0000 0.0000
# 4 0.0000 0.0000 0.0000 23.7043 0.0000 0.0000
# 5 0.0000 0.0000 0.0000 0.0000 20.6988 0.0000
# 6 0.0000 0.0000 0.0000 0.0000 0.0000 4.2434
#
#
#
# Elastic Compliance Matrix: (Units=1/GPa)
#
#
# Indices 1 2 3 4 5 6 
#
# 1 0.019776 -0.001612 -0.004522 0.000000 0.000000 0.000000
# 2 -0.001612 0.016608 -0.003971 0.000000 0.000000 0.000000
# 3 -0.004522 -0.003971 0.014610 0.000000 0.000000 0.000000
# 4 0.000000 0.000000 0.000000 0.042186 0.000000 0.000000
# 5 0.000000 0.000000 0.000000 0.000000 0.048312 0.000000
# 6 0.000000 0.000000 0.000000 0.000000 0.000000 0.235657
#
#
# Mechanical properties :
#
#
# Convention : Reuss Voigt Hill
#
# Bulk Modulus (GPa) = 32.48558 33.97893 33.23225
# Shear Modulus (GPa) = 12.26623 19.80613 16.03618
#
# Velocity S-wave (km/s) = 2.47320 3.14271 2.82784
# Velocity P-wave (km/s) = 4.93508 5.48752 5.21862
#
# Compressibility (1/GPa) = 0.03078289
#
# Stress axis : x y z
#
# Youngs Moduli (GPa) = 50.56549 60.21241 68.44404
#
# Poissons Ratio (x) = 0.09708 0.30952
# Poissons Ratio (y) = 0.08153 0.27182
# Poissons Ratio (z) = 0.22867 0.23913
#
# Static dielectric constant tensor:
#      x y z
#    x 1.735390 0.000000 0.000000 
#    y 0.000000 1.736100 0.000000 
#    z 0.000000 0.000000 1.720360 
# 
# From -- ./inp_files/4152.got.cif
#   From: 2010.05.17/outbox.cif.g08.bks.cpg/sg30_3_cif.got.tgz:4152.got - 2010.06.03 17:03:02.
