data_PCOD9342535
_publ_section_title
;
Structure prediction by ZEFSAII (Michael W. Deem and Ramdas Pophale) SiO2 
 PCOD9342535
Probable space group: P N C 2
;
_chemical_formula_sum "Si O2"
_cell_formula_units_Z 18
_cell_length_a 10.620501
_cell_length_b 13.822917
_cell_length_c 4.851291
_cell_angle_alpha 90.000000
_cell_angle_beta 90.000000
_cell_angle_gamma 90.000000
_cell_volume 712.200100
_symmetry_space_group_name_H-M "P N C 2"
_symmetry_group_IT_number 30
_symmetry_cell_setting 'orthorhombic'
loop_
_space_group_symop_operation_xyz
x,y,z
-x,-y,z
-x,1/2+y,1/2+z
x,1/2-y,1/2+z
loop_
_atom_site_type_symbol
_atom_site_label
_atom_site_fract_x
_atom_site_fract_y
_atom_site_fract_z
Si Si1 0.500000 0.500000 0.834210
Si Si2 0.612480 0.810802 0.592903
Si Si3 0.760746 0.042851 0.044101
Si Si4 0.149975 0.423751 0.048609
Si Si5 0.957888 0.187473 0.912842
O O1 0.377875 0.532173 0.661646
O O2 0.463349 0.405067 0.005811
O O3 0.584694 0.717523 0.404920
O O4 0.758585 0.831796 0.513749
O O5 0.851338 0.987289 0.269375
O O6 0.816977 0.147210 0.961679
O O7 0.768064 0.985838 0.761656
O O8 0.029964 0.393557 0.233811
O O9 0.987197 0.281793 0.725673
#
# Coordination Sequence:
#
# PCOD9342535 Si02
#       5
#     2   4   4   4   4
#     4  10  26  46  70 104 146 188 240 290 346 426
#     4  11  23  41  69 101 136 183 236 292 350 416
#     4  11  25  44  70 100 138 190 233 283 353 424
#     4  11  23  44  69  98 135 182 240 289 348 422
#     4  12  25  42  68 103 141 177 228 297 361 425
#
# _framework density 25.273796999999998
#
# number of rings (size 3 to 8) (size 9 to 14) (size 15 to 20)
#    0.000    0.889    0.000    7.333    0.000   11.556 
#    0.000    0.000    0.000    0.000    0.000    0.000 
#    0.000    0.000    0.000    0.000    0.000    0.000 
#
# Total GULP energy -100597.660930 kJ/mol
# GULP energy per Si atom -5588.758941 kJ/mol
# Density = 2.521627 g / cm^3
# Si number density = 25.273797 Si / 1000 Ang^3
#
#
#
# Elastic Constant Matrix: (Units=GPa)
#
#
# Indices 1 2 3 4 5 6 
#
# 1 85.6497 18.9762 4.2226 0.0000 0.0000 0.0000
# 2 18.9762 63.4805 13.3192 0.0000 0.0000 0.0000
# 3 4.2226 13.3192 138.5964 0.0000 0.0000 0.0000
# 4 0.0000 0.0000 0.0000 43.2501 0.0000 0.0000
# 5 0.0000 0.0000 0.0000 0.0000 3.6962 0.0000
# 6 0.0000 0.0000 0.0000 0.0000 0.0000 21.4193
#
#
#
# Elastic Compliance Matrix: (Units=1/GPa)
#
#
# Indices 1 2 3 4 5 6 
#
# 1 0.012504 -0.003733 -0.000022 0.000000 0.000000 0.000000
# 2 -0.003733 0.017192 -0.001538 0.000000 0.000000 0.000000
# 3 -0.000022 -0.001538 0.007364 0.000000 0.000000 0.000000
# 4 0.000000 0.000000 0.000000 0.023121 0.000000 0.000000
# 5 0.000000 0.000000 0.000000 0.000000 0.270546 0.000000
# 6 0.000000 0.000000 0.000000 0.000000 0.000000 0.046687
#
#
# Mechanical properties :
#
#
# Convention : Reuss Voigt Hill
#
# Bulk Modulus (GPa) = 37.77627 40.08473 38.93050
# Shear Modulus (GPa) = 12.60003 30.42035 21.51019
#
# Velocity S-wave (km/s) = 2.23523 3.47310 2.92050
# Velocity P-wave (km/s) = 4.65198 5.65490 5.17778
#
# Compressibility (1/GPa) = 0.02647165
#
# Stress axis : x y z
#
# Youngs Moduli (GPa) = 79.97671 58.16811 135.80107
#
# Poissons Ratio (x) = 0.21714 0.00301
# Poissons Ratio (y) = 0.29856 0.20891
# Poissons Ratio (z) = 0.00178 0.08948
#
# Static dielectric constant tensor:
#      x y z
#    x 2.123180 0.000000 0.000000 
#    y 0.000000 2.068130 0.000000 
#    z 0.000000 0.000000 1.923290 
# 
# From -- ./inp_files/628.got.cif
#   From: 2010.05.17/outbox.cif.g08.bks.cpg/sg30_1_cif.got.tgz:628.got - 2010.06.03 17:03:02.
