data_PCOD9342175
_publ_section_title
;
Structure prediction by ZEFSAII (Michael W. Deem and Ramdas Pophale) SiO2 
 PCOD9342175
Probable space group: P N C 2
;
_chemical_formula_sum "Si O2"
_cell_formula_units_Z 30
_cell_length_a 21.475057
_cell_length_b 5.577828
_cell_length_c 10.314385
_cell_angle_alpha 90.000000
_cell_angle_beta 90.000000
_cell_angle_gamma 90.000000
_cell_volume 1235.500090
_symmetry_space_group_name_H-M "P N C 2"
_symmetry_group_IT_number 30
_symmetry_cell_setting 'orthorhombic'
loop_
_space_group_symop_operation_xyz
x,y,z
-x,-y,z
-x,1/2+y,1/2+z
x,1/2-y,1/2+z
loop_
_atom_site_type_symbol
_atom_site_label
_atom_site_fract_x
_atom_site_fract_y
_atom_site_fract_z
Si Si1 0.331917 0.526798 0.991730
Si Si2 0.935934 0.062998 0.941811
Si Si3 0.500000 0.000000 0.740907
Si Si4 0.374993 0.234463 0.743561
Si Si5 0.564191 0.116624 0.052524
Si Si6 0.786779 0.527216 0.845414
Si Si7 0.099048 0.065428 0.518899
Si Si8 0.185021 0.966545 0.759863
O O1 0.346138 0.341042 0.874410
O O2 0.340800 0.441497 0.140599
O O3 0.383513 0.736810 0.971478
O O4 0.259138 0.562083 0.960477
O O5 0.929889 0.829175 0.033252
O O6 0.941205 0.323743 0.007378
O O7 0.870607 0.065502 0.865688
O O8 0.000000 0.000000 0.864961
O O9 0.561098 0.875896 0.796524
O O10 0.467732 0.805715 0.648428
O O11 0.396482 0.439589 0.642810
O O12 0.500000 0.000000 0.997506
O O13 0.858029 0.561210 0.890211
O O14 0.783459 0.296889 0.750694
O O15 0.773963 0.798443 0.795136
O O16 0.147843 0.029511 0.632233
#
# Coordination Sequence:
#
# PCOD9342175 Si02
#       8
#     4   4   2   4   4   4   4   4
#     4  11  25  42  68 103 128 180 226 288 350 413
#     4  10  21  37  60  96 130 165 224 276 327 403
#     4   8  18  44  62  88 122 174 206 266 338 416
#     4  10  23  44  65  96 132 166 226 276 348 417
#     4   9  20  43  63  93 130 170 214 278 343 426
#     4  10  24  40  65  96 130 174 225 282 330 404
#     4  10  21  40  63  91 131 181 217 273 338 401
#     4  10  22  42  63  91 130 178 222 268 342 395
#
# _framework density 24.281666000000001
#
# number of rings (size 3 to 8) (size 9 to 14) (size 15 to 20)
#    0.000    2.133    0.000    1.200    3.733    4.267 
#   28.800    0.000    0.000    0.000    0.000    0.000 
#    0.000    0.000    0.000    0.000    0.000    0.000 
#
# Total GULP energy -167034.884482 kJ/mol
# GULP energy per Si atom -5567.829483 kJ/mol
# Density = 2.422640 g / cm^3
# Si number density = 24.281666 Si / 1000 Ang^3
#
#
#
# Elastic Constant Matrix: (Units=GPa)
#
#
# Indices 1 2 3 4 5 6 
#
# 1 68.7391 10.3420 -2.5609 0.0000 0.0000 0.0000
# 2 10.3420 124.5260 7.9557 0.0000 0.0000 0.0000
# 3 -2.5609 7.9557 53.3619 0.0000 0.0000 0.0000
# 4 0.0000 0.0000 0.0000 18.4633 0.0000 0.0000
# 5 0.0000 0.0000 0.0000 0.0000 -7.4290 0.0000
# 6 0.0000 0.0000 0.0000 0.0000 0.0000 43.6850
#
#
#
# Elastic Compliance Matrix: (Units=1/GPa)
#
#
# Indices 1 2 3 4 5 6 
#
# 1 0.014775 -0.001285 0.000901 0.000000 0.000000 0.000000
# 2 -0.001285 0.008219 -0.001287 0.000000 0.000000 0.000000
# 3 0.000901 -0.001287 0.018975 0.000000 0.000000 0.000000
# 4 0.000000 0.000000 0.000000 0.054161 0.000000 0.000000
# 5 0.000000 0.000000 0.000000 0.000000 -0.134607 0.000000
# 6 0.000000 0.000000 0.000000 0.000000 0.000000 0.022891
#
#
# Mechanical properties :
#
#
# Convention : Reuss Voigt Hill
#
# Bulk Modulus (GPa) = 25.88872 30.90007 28.39440
# Shear Modulus (GPa) = 7906.63411 26.33655 3966.48533
#
# Velocity S-wave (km/s) = 57.12517 3.29694 40.46081
# Velocity P-wave (km/s) = 66.04340 5.21981 46.84537
#
# Compressibility (1/GPa) = 0.03862686
#
# Stress axis : x y z
#
# Youngs Moduli (GPa) = 67.68385 121.66395 52.70072
#
# Poissons Ratio (x) = 0.15629 -0.04746
# Poissons Ratio (y) = 0.08694 0.06783
# Poissons Ratio (z) = -0.06095 0.15659
#
# Static dielectric constant tensor:
#      x y z
#    x 2.172490 0.000000 0.000000 
#    y 0.000000 1.925390 0.000000 
#    z 0.000000 0.000000 2.030690 
# 
# From -- ./inp_files/4473.got.cif
#   From: 2010.05.17/outbox.cif.g08.bks.cpg/sg30_3_cif.got.tgz:4473.got - 2010.06.03 17:03:02.
