data_PCOD9342689
_publ_section_title
;
Structure prediction by ZEFSAII (Michael W. Deem and Ramdas Pophale) SiO2 
 PCOD9342689
Probable space group: P M N 21
;
_chemical_formula_sum "Si O2"
_cell_formula_units_Z 32
_cell_length_a 8.028444
_cell_length_b 6.908767
_cell_length_c 22.233685
_cell_angle_alpha 90.000000
_cell_angle_beta 90.000000
_cell_angle_gamma 90.000000
_cell_volume 1233.228001
_symmetry_space_group_name_H-M "P M N 21"
_symmetry_group_IT_number 31
_symmetry_cell_setting 'orthorhombic'
loop_
_space_group_symop_operation_xyz
x,y,z
1/2-x,-y,1/2+z
-x,y,z
1/2+x,-y,1/2+z
loop_
_atom_site_type_symbol
_atom_site_label
_atom_site_fract_x
_atom_site_fract_y
_atom_site_fract_z
Si Si1 0.691067 0.177032 0.308710
Si Si2 0.199035 0.554313 0.526465
Si Si3 0.812177 0.872127 0.937484
Si Si4 0.196431 0.462295 0.652667
Si Si5 0.305571 0.993690 0.061368
Si Si6 0.307653 0.888429 0.683302
Si Si7 0.695416 0.281760 0.909408
Si Si8 0.193635 0.370851 0.778390
O O1 0.500000 0.116141 0.318306
O O2 0.759785 0.057182 0.251911
O O3 0.690055 0.397781 0.288272
O O4 0.775772 0.182960 0.374410
O O5 0.270243 0.447624 0.585518
O O6 0.228863 0.783454 0.541161
O O7 0.244567 0.543294 0.455386
O O8 0.000000 0.521577 0.529101
O O9 0.811002 0.103616 0.926639
O O10 0.000000 0.795920 0.940391
O O11 0.734330 0.859207 0.003818
O O12 0.206192 0.693230 0.666806
O O13 0.268471 0.355328 0.711328
O O14 0.000000 0.410795 0.651357
O O15 0.500000 0.977135 0.072442
O O16 0.221288 0.971287 0.126471
O O17 0.500000 0.833379 0.684594
O O18 0.500000 0.238387 0.922473
O O19 0.714687 0.303264 0.838281
O O20 0.000000 0.306382 0.779246
#
# Coordination Sequence:
#
# PCOD9342689 Si02
#       8
#     4   4   4   4   4   4   4   4
#     4   9  19  34  50  69  96 128 160 199 245 285
#     4   7  12  24  42  62  84 114 149 185 226 270
#     4  10  19  32  51  73  95 123 162 202 240 285
#     4   8  14  27  45  63  87 119 155 196 240 276
#     4   9  16  28  45  66  95 125 154 193 239 281
#     4  10  17  25  43  70  95 120 156 198 236 279
#     4  10  19  30  46  70  99 127 154 191 239 286
#     4   9  17  30  48  69  93 124 158 192 233 282
#
# _framework density 25.948162
#
# number of rings (size 3 to 8) (size 9 to 14) (size 15 to 20)
#    0.000    3.000    0.000    4.500    0.000    3.000 
#    0.000    0.625    0.000    1.500    0.000    5.250 
#    0.000    0.000    0.000    0.000    0.000    0.000 
#
# Total GULP energy -178518.045665 kJ/mol
# GULP energy per Si atom -5578.688927 kJ/mol
# Density = 2.588910 g / cm^3
# Si number density = 25.948162 Si / 1000 Ang^3
#
#
#
# Elastic Constant Matrix: (Units=GPa)
#
#
# Indices 1 2 3 4 5 6 
#
# 1 49.5194 -2.6277 27.7775 0.0000 0.0000 0.0000
# 2 -2.6277 51.6248 42.6756 0.0000 0.0000 0.0000
# 3 27.7775 42.6756 271.2798 0.0000 0.0000 0.0000
# 4 0.0000 0.0000 0.0000 59.4694 0.0000 0.0000
# 5 0.0000 0.0000 0.0000 0.0000 16.1057 0.0000
# 6 0.0000 0.0000 0.0000 0.0000 0.0000 -1.8450
#
#
#
# Elastic Compliance Matrix: (Units=1/GPa)
#
#
# Indices 1 2 3 4 5 6 
#
# 1 0.021937 0.003418 -0.002784 0.000000 0.000000 0.000000
# 2 0.003418 0.022799 -0.003936 0.000000 0.000000 0.000000
# 3 -0.002784 -0.003936 0.004591 0.000000 0.000000 0.000000
# 4 0.000000 0.000000 0.000000 0.016815 0.000000 0.000000
# 5 0.000000 0.000000 0.000000 0.000000 0.062090 0.000000
# 6 0.000000 0.000000 0.000000 0.000000 0.000000 -0.542008
#
#
# Mechanical properties :
#
#
# Convention : Reuss Voigt Hill
#
# Bulk Modulus (GPa) = 23.40755 56.45275 39.93015
# Shear Modulus (GPa) = -12.72487 35.05260 11.16386
#
# Velocity S-wave (km/s) = -2.21689 3.67941 2.07647
# Velocity P-wave (km/s) = 1.57723 6.31299 4.60117
#
# Compressibility (1/GPa) = 0.04272126
#
# Stress axis : x y z
#
# Youngs Moduli (GPa) = 45.58496 43.86242 217.83931
#
# Poissons Ratio (x) = -0.14992 0.60644
# Poissons Ratio (y) = -0.15581 0.85752
# Poissons Ratio (z) = 0.12690 0.17266
#
# Static dielectric constant tensor:
#      x y z
#    x 1.951330 0.000000 0.000000 
#    y 0.000000 2.163470 0.000000 
#    z 0.000000 0.000000 2.174660 
# 
# From -- ./inp_files/6271.got.cif
#   From: 2010.05.17/outbox.cif.g08.bks.cpg/sg31_4_cif.got.tgz:6271.got - 2010.06.03 17:08:30.
