data_PCOD9342338
_publ_section_title
;
Structure prediction by ZEFSAII (Michael W. Deem and Ramdas Pophale) SiO2 
 PCOD9342338
Probable space group: P N C 2
;
_chemical_formula_sum "Si O2"
_cell_formula_units_Z 28
_cell_length_a 17.273782
_cell_length_b 8.692529
_cell_length_c 9.314062
_cell_angle_alpha 90.000000
_cell_angle_beta 90.000000
_cell_angle_gamma 90.000000
_cell_volume 1398.532963
_symmetry_space_group_name_H-M "P N C 2"
_symmetry_group_IT_number 30
_symmetry_cell_setting 'orthorhombic'
loop_
_space_group_symop_operation_xyz
x,y,z
-x,-y,z
-x,1/2+y,1/2+z
x,1/2-y,1/2+z
loop_
_atom_site_type_symbol
_atom_site_label
_atom_site_fract_x
_atom_site_fract_y
_atom_site_fract_z
Si Si1 0.759895 0.068004 0.696060
Si Si2 0.500000 0.500000 0.872711
Si Si3 0.500000 0.500000 0.363216
Si Si4 0.766557 0.389210 0.537167
Si Si5 0.603941 0.892078 0.618094
Si Si6 0.390353 0.038706 0.098115
Si Si7 0.079497 0.419032 0.548483
Si Si8 0.922199 0.594442 0.204895
O O1 0.755742 0.220657 0.601243
O O2 0.687760 0.954887 0.663777
O O3 0.843247 0.993225 0.666300
O O4 0.758220 0.109632 0.864846
O O5 0.566372 0.516905 0.747145
O O6 0.433285 0.503571 0.000198
O O7 0.453707 0.388834 0.256373
O O8 0.564944 0.440576 0.474190
O O9 0.697863 0.491240 0.601612
O O10 0.848251 0.467933 0.575367
O O11 0.604848 0.719141 0.557878
O O12 0.076872 0.388699 0.377460
O O13 0.083141 0.259221 0.631087
O O14 0.000000 0.500000 0.591020
O O15 0.000000 0.500000 0.164056
#
# Coordination Sequence:
#
# PCOD9342338 Si02
#       8
#     4   2   2   4   4   4   4   4
#     4  11  25  42  63  95 131 168 211 264 316 376
#     4  10  26  38  64  96 116 166 212 256 334 374
#     4  10  22  42  60  92 124 158 204 272 314 378
#     4  11  25  42  63  95 131 168 211 264 316 376
#     4  11  23  43  65  90 123 164 211 265 315 384
#     4  11  23  43  65  90 123 164 211 265 315 384
#     4  10  22  42  68  99 134 171 213 260 312 374
#     4  10  22  42  68  99 134 171 213 260 312 374
#
# _framework density 20.020977999999999
#
# number of rings (size 3 to 8) (size 9 to 14) (size 15 to 20)
#    0.000    1.429    1.429    2.571    2.000    8.571 
#    0.000    0.000    0.000    0.000    0.000    0.000 
#    0.000    0.000    0.000    0.000    0.000    0.000 
#
# Total GULP energy -155895.133947 kJ/mol
# GULP energy per Si atom -5567.683355 kJ/mol
# Density = 1.997541 g / cm^3
# Si number density = 20.020978 Si / 1000 Ang^3
#
#
#
# Elastic Constant Matrix: (Units=GPa)
#
#
# Indices 1 2 3 4 5 6 
#
# 1 176.8515 45.5250 54.0988 0.0000 0.0000 0.0000
# 2 45.5250 76.4129 30.9633 0.0000 0.0000 0.0000
# 3 54.0988 30.9633 97.8789 0.0000 0.0000 0.0000
# 4 0.0000 0.0000 0.0000 30.3765 0.0000 0.0000
# 5 0.0000 0.0000 0.0000 0.0000 27.6658 0.0000
# 6 0.0000 0.0000 0.0000 0.0000 0.0000 7.9468
#
#
#
# Elastic Compliance Matrix: (Units=1/GPa)
#
#
# Indices 1 2 3 4 5 6 
#
# 1 0.007417 -0.003163 -0.003099 0.000000 0.000000 0.000000
# 2 -0.003163 0.016360 -0.003427 0.000000 0.000000 0.000000
# 3 -0.003099 -0.003427 0.013013 0.000000 0.000000 0.000000
# 4 0.000000 0.000000 0.000000 0.032920 0.000000 0.000000
# 5 0.000000 0.000000 0.000000 0.000000 0.036146 0.000000
# 6 0.000000 0.000000 0.000000 0.000000 0.000000 0.125837
#
#
# Mechanical properties :
#
#
# Convention : Reuss Voigt Hill
#
# Bulk Modulus (GPa) = 57.43005 68.03528 62.73267
# Shear Modulus (GPa) = 19.46479 27.90158 23.68319
#
# Velocity S-wave (km/s) = 3.12143 3.73717 3.44309
# Velocity P-wave (km/s) = 6.46052 7.25794 6.87081
#
# Compressibility (1/GPa) = 0.01741249
#
# Stress axis : x y z
#
# Youngs Moduli (GPa) = 134.83371 61.12493 76.84336
#
# Poissons Ratio (x) = 0.19334 0.23811
# Poissons Ratio (y) = 0.42648 0.26335
# Poissons Ratio (z) = 0.41780 0.20948
#
# Static dielectric constant tensor:
#      x y z
#    x 1.705280 0.000000 0.000000 
#    y 0.000000 1.705680 0.000000 
#    z 0.000000 0.000000 1.684470 
# 
# From -- ./inp_files/2782.got.cif
#   From: 2010.05.17/outbox.cif.g08.bks.cpg/sg30_2_cif.got.tgz:2782.got - 2010.06.03 17:03:02.
