data_PCOD9342936
_publ_section_title
;
Structure prediction by ZEFSAII (Michael W. Deem and Ramdas Pophale) SiO2 
 PCOD9342936
Probable space group: P M N 21
;
_chemical_formula_sum "Si O2"
_cell_formula_units_Z 32
_cell_length_a 8.069113
_cell_length_b 15.058557
_cell_length_c 12.379111
_cell_angle_alpha 90.000000
_cell_angle_beta 90.000000
_cell_angle_gamma 90.000000
_cell_volume 1504.175850
_symmetry_space_group_name_H-M "P M N 21"
_symmetry_group_IT_number 31
_symmetry_cell_setting 'orthorhombic'
loop_
_space_group_symop_operation_xyz
x,y,z
1/2-x,-y,1/2+z
-x,y,z
1/2+x,-y,1/2+z
loop_
_atom_site_type_symbol
_atom_site_label
_atom_site_fract_x
_atom_site_fract_y
_atom_site_fract_z
Si Si1 0.799163 0.948283 0.576320
Si Si2 0.693953 0.355908 0.782257
Si Si3 0.694556 0.662967 0.045948
Si Si4 0.305242 0.461125 0.349811
Si Si5 0.311678 0.860633 0.027702
Si Si6 0.804414 0.317917 0.188455
Si Si7 0.798876 0.768661 0.467469
Si Si8 0.309856 0.144773 0.300043
O O1 0.741852 0.868964 0.496463
O O2 0.767983 0.913312 0.696225
O O3 0.000000 0.953380 0.561708
O O4 0.731569 0.047651 0.566470
O O5 0.500000 0.343094 0.759352
O O6 0.783276 0.369648 0.668193
O O7 0.717022 0.443938 0.853994
O O8 0.755548 0.272549 0.853548
O O9 0.500000 0.669345 0.018245
O O10 0.765802 0.763768 0.046532
O O11 0.770850 0.599912 0.954581
O O12 0.500000 0.475927 0.341439
O O13 0.242262 0.411104 0.241793
O O14 0.500000 0.856571 0.070926
O O15 0.309697 0.871014 0.898902
O O16 0.757596 0.295762 0.065253
O O17 0.707809 0.245468 0.259842
O O18 0.000000 0.303814 0.201188
O O19 0.000000 0.768921 0.468904
O O20 0.500000 0.127753 0.332351
#
# Coordination Sequence:
#
# PCOD9342936 Si02
#       8
#     4   4   4   4   4   4   4   4
#     4   8  17  35  58  86 119 162 206 250 308 367
#     4  11  25  43  64  91 126 167 210 257 314 377
#     4  11  24  42  63  92 129 166 209 258 313 371
#     4  12  25  42  65  90 121 160 205 258 315 373
#     4  10  20  36  60  87 122 162 204 256 311 364
#     4  11  21  36  61  89 118 152 200 256 310 368
#     4   9  20  40  63  88 124 165 207 254 309 366
#     4  10  19  34  56  83 117 156 205 255 306 364
#
# _framework density 21.274108999999999
#
# number of rings (size 3 to 8) (size 9 to 14) (size 15 to 20)
#    0.000    1.750    1.250    4.125    1.750    2.500 
#    0.000    3.125    0.000    0.000    0.000    0.000 
#    0.000    0.000    0.000    0.000    0.000    0.000 
#
# Total GULP energy -178639.698582 kJ/mol
# GULP energy per Si atom -5582.490581 kJ/mol
# Density = 2.122569 g / cm^3
# Si number density = 21.274109 Si / 1000 Ang^3
#
#
#
# Elastic Constant Matrix: (Units=GPa)
#
#
# Indices 1 2 3 4 5 6 
#
# 1 36.7491 -6.0400 2.0237 0.0000 0.0000 0.0000
# 2 -6.0400 102.6678 21.8235 0.0000 0.0000 0.0000
# 3 2.0237 21.8235 44.7391 0.0000 0.0000 0.0000
# 4 0.0000 0.0000 0.0000 17.7646 0.0000 0.0000
# 5 0.0000 0.0000 0.0000 0.0000 -0.5730 0.0000
# 6 0.0000 0.0000 0.0000 0.0000 0.0000 5.3018
#
#
#
# Elastic Compliance Matrix: (Units=1/GPa)
#
#
# Indices 1 2 3 4 5 6 
#
# 1 0.027685 0.002114 -0.002284 0.000000 0.000000 0.000000
# 2 0.002114 0.011028 -0.005475 0.000000 0.000000 0.000000
# 3 -0.002284 -0.005475 0.025126 0.000000 0.000000 0.000000
# 4 0.000000 0.000000 0.000000 0.056292 0.000000 0.000000
# 5 0.000000 0.000000 0.000000 0.000000 -1.745319 0.000000
# 6 0.000000 0.000000 0.000000 0.000000 0.000000 0.188615
#
#
# Mechanical properties :
#
#
# Convention : Reuss Voigt Hill
#
# Bulk Modulus (GPa) = 19.02960 24.41895 21.72427
# Shear Modulus (GPa) = -3.55172 15.58862 6.01845
#
# Velocity S-wave (km/s) = -1.29350 2.70987 1.68379
# Velocity P-wave (km/s) = 2.59491 4.61458 3.74352
#
# Compressibility (1/GPa) = 0.05254971
#
# Stress axis : x y z
#
# Youngs Moduli (GPa) = 36.12095 90.67530 39.79961
#
# Poissons Ratio (x) = -0.19170 0.09088
# Poissons Ratio (y) = -0.07636 0.21791
# Poissons Ratio (z) = 0.08248 0.49647
#
# Static dielectric constant tensor:
#      x y z
#    x 1.815730 0.000000 0.000000 
#    y 0.000000 1.820380 0.000000 
#    z 0.000000 0.000000 1.748080 
# 
# From -- ./inp_files/3696.got.cif
#   From: 2010.05.17/outbox.cif.g08.bks.cpg/sg31_2_cif.got.tgz:3696.got - 2010.06.03 17:08:30.
