data_PCOD9342297
_publ_section_title
;
Structure prediction by ZEFSAII (Michael W. Deem and Ramdas Pophale) SiO2 
 PCOD9342297
Probable space group: P N C 2
;
_chemical_formula_sum "Si O2"
_cell_formula_units_Z 32
_cell_length_a 7.817492
_cell_length_b 16.130036
_cell_length_c 11.908498
_cell_angle_alpha 90.000000
_cell_angle_beta 90.000000
_cell_angle_gamma 90.000000
_cell_volume 1501.619053
_symmetry_space_group_name_H-M "P N C 2"
_symmetry_group_IT_number 30
_symmetry_cell_setting 'orthorhombic'
loop_
_space_group_symop_operation_xyz
x,y,z
-x,-y,z
-x,1/2+y,1/2+z
x,1/2-y,1/2+z
loop_
_atom_site_type_symbol
_atom_site_label
_atom_site_fract_x
_atom_site_fract_y
_atom_site_fract_z
Si Si1 0.294808 0.885934 0.290470
Si Si2 0.901814 0.649795 0.846447
Si Si3 0.451936 0.729622 0.617429
Si Si4 0.625535 0.097582 0.536710
Si Si5 0.770297 0.932352 0.576335
Si Si6 0.575380 0.591617 0.450994
Si Si7 0.809476 0.534068 0.645531
Si Si8 0.250472 0.188236 0.752551
O O1 0.366790 0.806258 0.228879
O O2 0.394268 0.908835 0.402567
O O3 0.101613 0.869617 0.331010
O O4 0.297464 0.958567 0.198462
O O5 0.812899 0.600934 0.744478
O O6 0.857174 0.745795 0.825084
O O7 0.836306 0.610354 0.962442
O O8 0.345472 0.807309 0.570142
O O9 0.465822 0.657588 0.524174
O O10 0.637951 0.761249 0.659732
O O11 0.436261 0.079485 0.583912
O O12 0.772765 0.032394 0.571820
O O13 0.846967 0.882336 0.681077
O O14 0.500000 0.500000 0.427503
O O15 0.733994 0.571433 0.533046
O O16 0.628822 0.638904 0.338694
O O17 0.000000 0.500000 0.627497
#
# Coordination Sequence:
#
# PCOD9342297 Si02
#       8
#     4   4   4   4   4   4   4   4
#     4  11  22  39  62  93 125 159 213 266 314 374
#     4  11  22  40  65  90 120 165 213 262 313 381
#     4  11  22  40  62  96 127 166 210 265 317 383
#     4  10  22  38  61  93 121 162 209 257 313 376
#     4  10  22  40  66  88 125 162 207 267 315 375
#     4  12  24  40  67  96 131 170 209 271 327 385
#     4  10  22  41  63  89 124 163 212 258 311 382
#     4  11  24  41  63  94 127 166 213 259 327 389
#
# _framework density 21.310331000000001
#
# number of rings (size 3 to 8) (size 9 to 14) (size 15 to 20)
#    0.000    1.250    3.750    3.000    3.500    1.000 
#    2.250    0.000    2.750    0.000    0.000    0.000 
#    0.000    0.000    0.000    0.000    0.000    0.000 
#
# Total GULP energy -178687.803218 kJ/mol
# GULP energy per Si atom -5583.993851 kJ/mol
# Density = 2.126183 g / cm^3
# Si number density = 21.310331 Si / 1000 Ang^3
#
#
#
# Elastic Constant Matrix: (Units=GPa)
#
#
# Indices 1 2 3 4 5 6 
#
# 1 15.4687 23.1897 9.8201 0.0000 0.0000 0.0000
# 2 23.1897 150.7810 35.2863 0.0000 0.0000 0.0000
# 3 9.8201 35.2863 62.9719 0.0000 0.0000 0.0000
# 4 0.0000 0.0000 0.0000 28.4832 0.0000 0.0000
# 5 0.0000 0.0000 0.0000 0.0000 15.9160 0.0000
# 6 0.0000 0.0000 0.0000 0.0000 0.0000 16.8480
#
#
#
# Elastic Compliance Matrix: (Units=1/GPa)
#
#
# Indices 1 2 3 4 5 6 
#
# 1 0.086585 -0.011690 -0.006952 0.000000 0.000000 0.000000
# 2 -0.011690 0.009211 -0.003339 0.000000 0.000000 0.000000
# 3 -0.006952 -0.003339 0.018835 0.000000 0.000000 0.000000
# 4 0.000000 0.000000 0.000000 0.035108 0.000000 0.000000
# 5 0.000000 0.000000 0.000000 0.000000 0.062830 0.000000
# 6 0.000000 0.000000 0.000000 0.000000 0.000000 0.059354
#
#
# Mechanical properties :
#
#
# Convention : Reuss Voigt Hill
#
# Bulk Modulus (GPa) = 14.15020 40.64597 27.39809
# Shear Modulus (GPa) = 14.73011 22.97781 18.85396
#
# Velocity S-wave (km/s) = 2.63196 3.28723 2.97767
# Velocity P-wave (km/s) = 3.98632 5.78987 4.97058
#
# Compressibility (1/GPa) = 0.07067036
#
# Stress axis : x y z
#
# Youngs Moduli (GPa) = 11.54940 108.56269 53.09251
#
# Poissons Ratio (x) = 1.26904 0.36911
# Poissons Ratio (y) = 0.13501 0.17726
# Poissons Ratio (z) = 0.08029 0.36245
#
# Static dielectric constant tensor:
#      x y z
#    x 1.808390 0.000000 0.000000 
#    y 0.000000 1.878410 0.000000 
#    z 0.000000 0.000000 1.745650 
# 
# From -- ./inp_files/3772.got.cif
#   From: 2010.05.17/outbox.cif.g08.bks.cpg/sg30_2_cif.got.tgz:3772.got - 2010.06.03 17:03:02.
