data_PCOD9342287
_publ_section_title
;
Structure prediction by ZEFSAII (Michael W. Deem and Ramdas Pophale) SiO2 
 PCOD9342287
Probable space group: P N C 2
;
_chemical_formula_sum "Si O2"
_cell_formula_units_Z 28
_cell_length_a 5.449768
_cell_length_b 11.291889
_cell_length_c 22.581938
_cell_angle_alpha 90.000000
_cell_angle_beta 90.000000
_cell_angle_gamma 90.000000
_cell_volume 1389.651260
_symmetry_space_group_name_H-M "P N C 2"
_symmetry_group_IT_number 30
_symmetry_cell_setting 'orthorhombic'
loop_
_space_group_symop_operation_xyz
x,y,z
-x,-y,z
-x,1/2+y,1/2+z
x,1/2-y,1/2+z
loop_
_atom_site_type_symbol
_atom_site_label
_atom_site_fract_x
_atom_site_fract_y
_atom_site_fract_z
Si Si1 0.354459 0.097763 0.621710
Si Si2 0.500000 0.000000 0.377487
Si Si3 0.599971 0.158439 0.116969
Si Si4 0.135930 0.819584 0.432736
Si Si5 0.738921 0.069855 0.987289
Si Si6 0.894301 0.805925 0.179440
Si Si7 0.000000 0.500000 0.026670
Si Si8 0.877801 0.869173 0.313540
O O1 0.535893 0.203950 0.602348
O O2 0.148767 0.172179 0.656437
O O3 0.230000 0.023208 0.569586
O O4 0.500000 0.000000 0.659194
O O5 0.320906 0.926868 0.418879
O O6 0.606488 0.900061 0.334615
O O7 0.673066 0.097217 0.055797
O O8 0.341950 0.124813 0.150134
O O9 0.840632 0.151284 0.157734
O O10 0.236688 0.695057 0.454199
O O11 0.995348 0.805178 0.370348
O O12 0.992140 0.881240 0.486620
O O13 0.500000 0.000000 0.963684
O O14 0.000000 0.000000 0.983714
O O15 0.885718 0.811260 0.249962
O O16 0.000000 0.000000 0.309085
#
# Coordination Sequence:
#
# PCOD9342287 Si02
#       8
#     4   2   4   4   4   4   2   4
#     4  10  22  36  67  97 137 175 221 282 358 405
#     4  10  22  42  68 104 124 176 226 304 350 404
#     4  10  24  43  65  98 134 183 224 281 337 415
#     4  11  25  41  71 101 141 177 239 294 357 407
#     4  12  28  45  68  97 145 188 232 278 346 442
#     4  10  23  41  66  96 141 174 223 284 341 428
#     4  12  22  40  70 108 136 178 226 310 354 418
#     4  10  23  42  68 100 131 174 231 290 357 406
#
# _framework density 20.14894
#
# number of rings (size 3 to 8) (size 9 to 14) (size 15 to 20)
#    0.857    0.571    2.143    3.429   11.000    1.714 
#    0.000    0.000    7.857    0.000    0.000    0.000 
#    0.000    0.000    0.000    0.000    0.000    0.000 
#
# Total GULP energy -155992.802009 kJ/mol
# GULP energy per Si atom -5571.171500 kJ/mol
# Density = 2.010308 g / cm^3
# Si number density = 20.148940 Si / 1000 Ang^3
#
#
#
# Elastic Constant Matrix: (Units=GPa)
#
#
# Indices 1 2 3 4 5 6 
#
# 1 116.5992 34.0791 39.9061 0.0000 0.0000 0.0000
# 2 34.0791 92.7242 40.5996 0.0000 0.0000 0.0000
# 3 39.9061 40.5996 120.8722 0.0000 0.0000 0.0000
# 4 0.0000 0.0000 0.0000 -38.6942 0.0000 0.0000
# 5 0.0000 0.0000 0.0000 0.0000 -96.7351 0.0000
# 6 0.0000 0.0000 0.0000 0.0000 0.0000 26.9781
#
#
#
# Elastic Compliance Matrix: (Units=1/GPa)
#
#
# Indices 1 2 3 4 5 6 
#
# 1 0.010202 -0.002667 -0.002472 0.000000 0.000000 0.000000
# 2 -0.002667 0.013341 -0.003601 0.000000 0.000000 0.000000
# 3 -0.002472 -0.003601 0.010299 0.000000 0.000000 0.000000
# 4 0.000000 0.000000 0.000000 -0.025844 0.000000 0.000000
# 5 0.000000 0.000000 0.000000 0.000000 -0.010338 0.000000
# 6 0.000000 0.000000 0.000000 0.000000 0.000000 0.037067
#
#
# Mechanical properties :
#
#
# Convention : Reuss Voigt Hill
#
# Bulk Modulus (GPa) = 61.11670 62.15169 61.63420
# Shear Modulus (GPa) = 86.71101 -7.31620 39.69741
#
# Velocity S-wave (km/s) = 6.56723 -1.90760 4.44351
# Velocity P-wave (km/s) = 9.37566 5.10501 7.54865
#
# Compressibility (1/GPa) = 0.01636214
#
# Stress axis : x y z
#
# Youngs Moduli (GPa) = 98.01928 74.95422 97.09765
#
# Poissons Ratio (x) = 0.19991 0.24006
# Poissons Ratio (y) = 0.26142 0.34962
# Poissons Ratio (z) = 0.24234 0.26989
#
# Static dielectric constant tensor:
#      x y z
#    x 2.184620 0.000000 0.000000 
#    y 0.000000 1.758030 0.000000 
#    z 0.000000 0.000000 1.692920 
# 
# From -- ./inp_files/6833.got.cif
#   From: 2010.05.17/outbox.cif.g08.bks.cpg/sg30_4_cif.got.tgz:6833.got - 2010.06.03 17:03:02.
