data_PCOD9342001
_publ_section_title
;
Structure prediction by ZEFSAII (Michael W. Deem and Ramdas Pophale) SiO2 
 PCOD9342001
Probable space group: P N C 2
;
_chemical_formula_sum "Si O2"
_cell_formula_units_Z 18
_cell_length_a 8.271299
_cell_length_b 7.552347
_cell_length_c 15.304147
_cell_angle_alpha 90.000000
_cell_angle_beta 90.000000
_cell_angle_gamma 90.000000
_cell_volume 956.015173
_symmetry_space_group_name_H-M "P N C 2"
_symmetry_group_IT_number 30
_symmetry_cell_setting 'orthorhombic'
loop_
_space_group_symop_operation_xyz
x,y,z
-x,-y,z
-x,1/2+y,1/2+z
x,1/2-y,1/2+z
loop_
_atom_site_type_symbol
_atom_site_label
_atom_site_fract_x
_atom_site_fract_y
_atom_site_fract_z
Si Si1 0.641750 0.851546 0.520530
Si Si2 0.500000 0.000000 0.953871
Si Si3 0.722494 0.855021 0.713467
Si Si4 0.361216 0.799757 0.791277
Si Si5 0.818020 0.555734 0.839489
O O1 0.578981 0.651216 0.511556
O O2 0.741293 0.852649 0.610000
O O3 0.733791 0.888943 0.430144
O O4 0.500000 0.000000 0.528502
O O5 0.610797 0.113841 0.887053
O O6 0.535170 0.805654 0.741703
O O7 0.820730 0.715680 0.770355
O O8 0.748834 0.056768 0.742957
O O9 0.286021 0.607195 0.800456
O O10 0.000000 0.500000 0.857680
#
# Coordination Sequence:
#
# PCOD9342001 Si02
#       5
#     4   2   4   4   4
#     4  12  21  40  68  95 119 156 221 265 306 354
#     4  10  20  34  66  92 114 154 210 278 296 346
#     4  10  22  40  65  96 113 159 220 268 297 355
#     4  10  19  40  64  86 121 162 212 260 310 341
#     4  12  25  42  59  90 139 173 192 246 320 393
#
# _framework density 18.828154999999999
#
# number of rings (size 3 to 8) (size 9 to 14) (size 15 to 20)
#    0.000    1.333    8.889    0.667    3.111    0.889 
#    4.000    0.000    0.000    0.000    0.000    0.000 
#    0.000    0.000    0.000    0.000    0.000    0.000 
#
# Total GULP energy -100413.469839 kJ/mol
# GULP energy per Si atom -5578.526102 kJ/mol
# Density = 1.878530 g / cm^3
# Si number density = 18.828155 Si / 1000 Ang^3
#
#
#
# Elastic Constant Matrix: (Units=GPa)
#
#
# Indices 1 2 3 4 5 6 
#
# 1 31.3615 15.9992 -3.3392 0.0000 0.0000 0.0000
# 2 15.9992 97.7373 32.0866 0.0000 0.0000 0.0000
# 3 -3.3392 32.0866 113.3288 0.0000 0.0000 0.0000
# 4 0.0000 0.0000 0.0000 5.8413 0.0000 0.0000
# 5 0.0000 0.0000 0.0000 0.0000 -11.7302 0.0000
# 6 0.0000 0.0000 0.0000 0.0000 0.0000 7.9943
#
#
#
# Elastic Compliance Matrix: (Units=1/GPa)
#
#
# Indices 1 2 3 4 5 6 
#
# 1 0.035683 -0.006820 0.002982 0.000000 0.000000 0.000000
# 2 -0.006820 0.012584 -0.003764 0.000000 0.000000 0.000000
# 3 0.002982 -0.003764 0.009977 0.000000 0.000000 0.000000
# 4 0.000000 0.000000 0.000000 0.171195 0.000000 0.000000
# 5 0.000000 0.000000 0.000000 0.000000 -0.085250 0.000000
# 6 0.000000 0.000000 0.000000 0.000000 0.000000 0.125089
#
#
# Mechanical properties :
#
#
# Convention : Reuss Voigt Hill
#
# Bulk Modulus (GPa) = 23.23372 36.88009 30.05691
# Shear Modulus (GPa) = 16.73201 13.59981 15.16591
#
# Velocity S-wave (km/s) = 2.98429 2.69050 2.84120
# Velocity P-wave (km/s) = 4.92355 5.41128 5.17317
#
# Compressibility (1/GPa) = 0.04304089
#
# Stress axis : x y z
#
# Youngs Moduli (GPa) = 28.02443 79.46866 100.22676
#
# Poissons Ratio (x) = 0.54200 -0.29892
# Poissons Ratio (y) = 0.19114 0.37723
# Poissons Ratio (z) = -0.08358 0.29910
#
# Static dielectric constant tensor:
#      x y z
#    x 1.693910 0.000000 0.000000 
#    y 0.000000 1.668920 0.000000 
#    z 0.000000 0.000000 1.658960 
# 
# From -- ./inp_files/4891.got.cif
#   From: 2010.05.17/outbox.cif.g08.bks.cpg/sg30_3_cif.got.tgz:4891.got - 2010.06.03 17:03:02.
