data_PCOD9342043
_publ_section_title
;
Structure prediction by ZEFSAII (Michael W. Deem and Ramdas Pophale) SiO2 
 PCOD9342043
Probable space group: P N C 2
;
_chemical_formula_sum "Si O2"
_cell_formula_units_Z 32
_cell_length_a 8.210718
_cell_length_b 21.507266
_cell_length_c 9.306487
_cell_angle_alpha 90.000000
_cell_angle_beta 90.000000
_cell_angle_gamma 90.000000
_cell_volume 1643.433433
_symmetry_space_group_name_H-M "P N C 2"
_symmetry_group_IT_number 30
_symmetry_cell_setting 'orthorhombic'
loop_
_space_group_symop_operation_xyz
x,y,z
-x,-y,z
-x,1/2+y,1/2+z
x,1/2-y,1/2+z
loop_
_atom_site_type_symbol
_atom_site_label
_atom_site_fract_x
_atom_site_fract_y
_atom_site_fract_z
Si Si1 0.711296 0.058193 0.635630
Si Si2 0.982835 0.780091 0.655769
Si Si3 0.010999 0.104497 0.455574
Si Si4 0.346732 0.423492 0.108073
Si Si5 0.592370 0.218947 0.353089
Si Si6 0.380234 0.210804 0.630670
Si Si7 0.850541 0.148053 0.191867
Si Si8 0.804269 0.342622 0.376971
O O1 0.869989 0.064673 0.534292
O O2 0.535320 0.068414 0.559356
O O3 0.728593 0.110042 0.759819
O O4 0.699992 0.986986 0.689367
O O5 0.797816 0.760810 0.634434
O O6 0.018299 0.826482 0.523635
O O7 0.085535 0.717915 0.662712
O O8 0.029327 0.818922 0.799424
O O9 0.976593 0.109084 0.287005
O O10 0.195844 0.086323 0.497419
O O11 0.353325 0.358530 0.193450
O O12 0.464001 0.202818 0.476490
O O13 0.496730 0.245657 0.218477
O O14 0.697925 0.161020 0.297419
O O15 0.700342 0.279149 0.397891
O O16 0.818167 0.124809 0.031301
#
# Coordination Sequence:
#
# PCOD9342043 Si02
#       8
#     4   4   4   4   4   4   4   4
#     4  10  20  40  65  83 116 153 213 262 289 356
#     4   9  21  34  55  84 122 159 202 240 301 373
#     4  10  21  37  59  85 121 157 204 250 302 363
#     4  10  21  37  63  90 107 156 212 250 293 351
#     4  11  21  35  56  87 126 158 193 240 311 373
#     4  11  22  35  56  90 123 153 196 253 298 363
#     4  11  21  35  56  87 124 162 191 243 313 375
#     4  10  20  37  57  87 119 162 198 246 310 367
#
# _framework density 19.471430999999999
#
# number of rings (size 3 to 8) (size 9 to 14) (size 15 to 20)
#    0.000    1.750    2.500    2.625    7.000    0.000 
#    0.000    0.000    0.000   16.500    0.000    0.000 
#    0.000    0.000    0.000    0.000    0.000    0.000 
#
# Total GULP energy -178231.487950 kJ/mol
# GULP energy per Si atom -5569.733998 kJ/mol
# Density = 1.942711 g / cm^3
# Si number density = 19.471431 Si / 1000 Ang^3
#
#
#
# Elastic Constant Matrix: (Units=GPa)
#
#
# Indices 1 2 3 4 5 6 
#
# 1 124.0369 3.7765 47.1171 0.0000 0.0000 0.0000
# 2 3.7765 71.4222 12.4441 0.0000 0.0000 0.0000
# 3 47.1171 12.4441 99.9382 0.0000 0.0000 0.0000
# 4 0.0000 0.0000 0.0000 7.6592 0.0000 0.0000
# 5 0.0000 0.0000 0.0000 0.0000 21.4828 0.0000
# 6 0.0000 0.0000 0.0000 0.0000 0.0000 21.7818
#
#
#
# Elastic Compliance Matrix: (Units=1/GPa)
#
#
# Indices 1 2 3 4 5 6 
#
# 1 0.009827 0.000294 -0.004670 0.000000 0.000000 0.000000
# 2 0.000294 0.014321 -0.001922 0.000000 0.000000 0.000000
# 3 -0.004670 -0.001922 0.012447 0.000000 0.000000 0.000000
# 4 0.000000 0.000000 0.000000 0.130562 0.000000 0.000000
# 5 0.000000 0.000000 0.000000 0.000000 0.046549 0.000000
# 6 0.000000 0.000000 0.000000 0.000000 0.000000 0.045910
#
#
# Mechanical properties :
#
#
# Convention : Reuss Voigt Hill
#
# Bulk Modulus (GPa) = 41.66720 46.89698 44.28209
# Shear Modulus (GPa) = 17.84374 25.65540 21.74957
#
# Velocity S-wave (km/s) = 3.03050 3.63380 3.34578
# Velocity P-wave (km/s) = 5.80438 6.46091 6.14143
#
# Compressibility (1/GPa) = 0.02399970
#
# Stress axis : x y z
#
# Youngs Moduli (GPa) = 101.76040 69.82983 80.34032
#
# Poissons Ratio (x) = -0.02053 0.37516
# Poissons Ratio (y) = -0.02992 0.15440
# Poissons Ratio (z) = 0.47519 0.13420
#
# Static dielectric constant tensor:
#      x y z
#    x 1.638650 0.000000 0.000000 
#    y 0.000000 1.700260 0.000000 
#    z 0.000000 0.000000 1.686890 
# 
# From -- ./inp_files/2155.got.cif
#   From: 2010.05.17/outbox.cif.g08.bks.cpg/sg30_2_cif.got.tgz:2155.got - 2010.06.03 17:03:02.
