data_PCOD9342787
_publ_section_title
;
Structure prediction by ZEFSAII (Michael W. Deem and Ramdas Pophale) SiO2 
 PCOD9342787
Probable space group: P M N 21
;
_chemical_formula_sum "Si O2"
_cell_formula_units_Z 24
_cell_length_a 14.238928
_cell_length_b 17.549959
_cell_length_c 5.082412
_cell_angle_alpha 90.000000
_cell_angle_beta 90.000000
_cell_angle_gamma 90.000000
_cell_volume 1270.057162
_symmetry_space_group_name_H-M "P M N 21"
_symmetry_group_IT_number 31
_symmetry_cell_setting 'orthorhombic'
loop_
_space_group_symop_operation_xyz
x,y,z
1/2-x,-y,1/2+z
-x,y,z
1/2+x,-y,1/2+z
loop_
_atom_site_type_symbol
_atom_site_label
_atom_site_fract_x
_atom_site_fract_y
_atom_site_fract_z
Si Si1 0.000000 0.135843 0.243460
Si Si2 0.298262 0.702716 0.314662
Si Si3 0.500000 0.972908 0.243750
Si Si4 0.291967 0.535360 0.065276
Si Si5 0.203771 0.959913 0.759618
Si Si6 0.000000 0.341501 0.984085
Si Si7 0.708687 0.795873 0.801757
Si Si8 0.500000 0.563009 0.995139
O O1 0.000000 0.070622 0.465911
O O2 0.902605 0.182563 0.274339
O O3 0.000000 0.093082 0.964432
O O4 0.278039 0.619508 0.192468
O O5 0.408739 0.700424 0.381255
O O6 0.259665 0.730886 0.594269
O O7 0.277225 0.764607 0.093877
O O8 0.406559 0.022957 0.272022
O O9 0.271197 0.479501 0.309140
O O10 0.398547 0.525877 0.958031
O O11 0.232872 0.871991 0.749559
O O12 0.246299 0.002843 0.509840
O O13 0.000000 0.417501 0.805825
O O14 0.000000 0.365121 0.290112
#
# Coordination Sequence:
#
# PCOD9342787 Si02
#       8
#     2   4   2   4   4   2   4   2
#     4  12  22  35  62  90 122 155 196 244 314 379
#     4  11  22  36  57  88 124 158 197 249 311 370
#     4  12  22  41  60  87 120 160 210 254 296 371
#     4  11  22  39  63  89 123 163 206 250 305 371
#     4  12  23  41  61  86 119 163 209 257 300 364
#     4  10  18  35  54  84 124 157 181 238 317 391
#     4  12  22  36  57  89 123 158 199 253 307 365
#     4  10  20  35  60  89 120 154 197 242 309 363
#
# _framework density 18.896787
#
# number of rings (size 3 to 8) (size 9 to 14) (size 15 to 20)
#    0.000    0.667    3.333    8.000    0.000    0.000 
#    0.000    0.000    0.000    6.000    0.000    0.000 
#    0.000    0.000    0.000    0.000    0.000    0.000 
#
# Total GULP energy -133977.695333 kJ/mol
# GULP energy per Si atom -5582.403972 kJ/mol
# Density = 1.885378 g / cm^3
# Si number density = 18.896787 Si / 1000 Ang^3
#
#
#
# Elastic Constant Matrix: (Units=GPa)
#
#
# Indices 1 2 3 4 5 6 
#
# 1 -301.1018 -327.5354 -76.0876 0.0000 0.0000 0.0000
# 2 -327.5354 -265.0436 -76.0684 0.0000 0.0000 0.0000
# 3 -76.0876 -76.0684 77.0812 0.0000 0.0000 0.0000
# 4 0.0000 0.0000 0.0000 45.5636 0.0000 0.0000
# 5 0.0000 0.0000 0.0000 0.0000 23.9296 0.0000
# 6 0.0000 0.0000 0.0000 0.0000 0.0000 23.8427
#
#
#
# Elastic Compliance Matrix: (Units=1/GPa)
#
#
# Indices 1 2 3 4 5 6 
#
# 1 0.009959 -0.011789 -0.001804 0.000000 0.000000 0.000000
# 2 -0.011789 0.011016 -0.000766 0.000000 0.000000 0.000000
# 3 -0.001804 -0.000766 0.010437 0.000000 0.000000 0.000000
# 4 0.000000 0.000000 0.000000 0.021947 0.000000 0.000000
# 5 0.000000 0.000000 0.000000 0.000000 0.041789 0.000000
# 6 0.000000 0.000000 0.000000 0.000000 0.000000 0.041942
#
#
# Mechanical properties :
#
#
# Convention : Reuss Voigt Hill
#
# Bulk Modulus (GPa) = 371.36811 -160.93855 105.21478
# Shear Modulus (GPa) = 29.99310 18.04232 24.01771
#
# Velocity S-wave (km/s) = 3.98830 3.09331 3.56897
# Velocity P-wave (km/s) = 14.77023 8.52021 8.53129
#
# Compressibility (1/GPa) = 0.00269275
#
# Stress axis : x y z
#
# Youngs Moduli (GPa) = 100.41467 90.78021 95.81648
#
# Poissons Ratio (x) = 1.07021 0.17284
# Poissons Ratio (y) = 1.18379 0.07342
# Poissons Ratio (z) = 0.18113 0.06956
#
# Static dielectric constant tensor:
#      x y z
#    x 1.676760 0.000000 0.000000 
#    y 0.000000 1.679310 0.000000 
#    z 0.000000 0.000000 1.660950 
# 
# From -- ./inp_files/640.got.cif
#   From: 2010.05.17/outbox.cif.g08.bks.cpg/sg31_1_cif.got.tgz:640.got - 2010.06.03 17:08:30.
