data_PCOD9342132
_publ_section_title
;
Structure prediction by ZEFSAII (Michael W. Deem and Ramdas Pophale) SiO2 
 PCOD9342132
Probable space group: P N C 2
;
_chemical_formula_sum "Si O2"
_cell_formula_units_Z 30
_cell_length_a 10.550643
_cell_length_b 20.541281
_cell_length_c 5.325658
_cell_angle_alpha 90.000000
_cell_angle_beta 90.000000
_cell_angle_gamma 90.000000
_cell_volume 1154.196427
_symmetry_space_group_name_H-M "P N C 2"
_symmetry_group_IT_number 30
_symmetry_cell_setting 'orthorhombic'
loop_
_space_group_symop_operation_xyz
x,y,z
-x,-y,z
-x,1/2+y,1/2+z
x,1/2-y,1/2+z
loop_
_atom_site_type_symbol
_atom_site_label
_atom_site_fract_x
_atom_site_fract_y
_atom_site_fract_z
Si Si1 0.659869 0.413805 0.359880
Si Si2 0.279435 0.290586 0.928008
Si Si3 0.410970 0.402093 0.658251
Si Si4 0.907575 0.212201 0.324780
Si Si5 0.931770 0.599060 0.903538
Si Si6 0.633906 0.267409 0.275254
Si Si7 0.500000 0.000000 0.490776
Si Si8 0.180210 0.459878 0.407865
O O1 0.557364 0.405278 0.582576
O O2 0.687057 0.340467 0.278579
O O3 0.570130 0.447296 0.155320
O O4 0.772369 0.465252 0.400324
O O5 0.280318 0.235298 0.712120
O O6 0.383658 0.341866 0.834316
O O7 0.155728 0.336035 0.895832
O O8 0.308543 0.414418 0.437036
O O9 0.392856 0.465858 0.826892
O O10 0.953060 0.258047 0.557137
O O11 0.935027 0.136350 0.377224
O O12 0.756316 0.221569 0.300820
O O13 0.896529 0.561324 0.158792
O O14 0.898551 0.557231 0.657979
O O15 0.559591 0.253523 0.529788
#
# Coordination Sequence:
#
# PCOD9342132 Si02
#       8
#     4   4   4   4   4   4   2   4
#     4  12  24  41  70  94 141 189 229 283 332 412
#     4  11  23  36  53  88 131 163 215 269 321 391
#     4  11  24  38  61  91 135 189 224 269 332 405
#     4  10  20  42  71  95 127 173 227 280 353 421
#     4  11  22  37  67  96 132 172 217 285 352 413
#     4  10  26  46  70 100 132 182 235 283 339 414
#     4  12  22  42  66  94 132 194 232 276 340 402
#     4  11  22  39  62 102 133 172 230 274 340 412
#
# _framework density 25.99211
#
# number of rings (size 3 to 8) (size 9 to 14) (size 15 to 20)
#    0.000    1.067    2.667    4.800    3.733    1.067 
#    0.000    0.000    0.000   19.200    0.000    0.000 
#    0.000    0.000    0.000    0.000    0.000    0.000 
#
# Total GULP energy -167918.267512 kJ/mol
# GULP energy per Si atom -5597.275584 kJ/mol
# Density = 2.593295 g / cm^3
# Si number density = 25.992110 Si / 1000 Ang^3
#
#
#
# Elastic Constant Matrix: (Units=GPa)
#
#
# Indices 1 2 3 4 5 6 
#
# 1 60.1798 22.3889 7.3938 0.0000 0.0000 0.0000
# 2 22.3889 121.1729 37.7681 0.0000 0.0000 0.0000
# 3 7.3938 37.7681 172.3393 0.0000 0.0000 0.0000
# 4 0.0000 0.0000 0.0000 114.0493 0.0000 0.0000
# 5 0.0000 0.0000 0.0000 0.0000 23.4122 0.0000
# 6 0.0000 0.0000 0.0000 0.0000 0.0000 53.5420
#
#
#
# Elastic Compliance Matrix: (Units=1/GPa)
#
#
# Indices 1 2 3 4 5 6 
#
# 1 0.017844 -0.003283 -0.000046 0.000000 0.000000 0.000000
# 2 -0.003283 0.009462 -0.001933 0.000000 0.000000 0.000000
# 3 -0.000046 -0.001933 0.006228 0.000000 0.000000 0.000000
# 4 0.000000 0.000000 0.000000 0.008768 0.000000 0.000000
# 5 0.000000 0.000000 0.000000 0.000000 0.042713 0.000000
# 6 0.000000 0.000000 0.000000 0.000000 0.000000 0.018677
#
#
# Mechanical properties :
#
#
# Convention : Reuss Voigt Hill
#
# Bulk Modulus (GPa) = 43.45832 54.31040 48.88436
# Shear Modulus (GPa) = 41.02256 57.27679 49.14968
#
# Velocity S-wave (km/s) = 3.97705 4.69937 4.35322
# Velocity P-wave (km/s) = 6.15186 7.09829 6.64195
#
# Compressibility (1/GPa) = 0.02301055
#
# Stress axis : x y z
#
# Youngs Moduli (GPa) = 56.04199 105.69070 160.56441
#
# Poissons Ratio (x) = 0.34694 0.00741
# Poissons Ratio (y) = 0.18396 0.31032
# Poissons Ratio (z) = 0.00259 0.20426
#
# Static dielectric constant tensor:
#      x y z
#    x 2.103510 0.000000 0.000000 
#    y 0.000000 2.017470 0.000000 
#    z 0.000000 0.000000 2.187980 
# 
# From -- ./inp_files/800.got.cif
#   From: 2010.05.17/outbox.cif.g08.bks.cpg/sg30_1_cif.got.tgz:800.got - 2010.06.03 17:03:02.
