data_PCOD9342423
_publ_section_title
;
Structure prediction by ZEFSAII (Michael W. Deem and Ramdas Pophale) SiO2 
 PCOD9342423
Probable space group: P N C 2
;
_chemical_formula_sum "Si O2"
_cell_formula_units_Z 26
_cell_length_a 11.090738
_cell_length_b 15.832421
_cell_length_c 5.738277
_cell_angle_alpha 90.000000
_cell_angle_beta 90.000000
_cell_angle_gamma 90.000000
_cell_volume 1007.602612
_symmetry_space_group_name_H-M "P N C 2"
_symmetry_group_IT_number 30
_symmetry_cell_setting 'orthorhombic'
loop_
_space_group_symop_operation_xyz
x,y,z
-x,-y,z
-x,1/2+y,1/2+z
x,1/2-y,1/2+z
loop_
_atom_site_type_symbol
_atom_site_label
_atom_site_fract_x
_atom_site_fract_y
_atom_site_fract_z
Si Si1 0.439838 0.408363 0.177800
Si Si2 0.562085 0.596107 0.679361
Si Si3 0.157536 0.423938 0.600413
Si Si4 0.226455 0.969007 0.747267
Si Si5 0.972421 0.710729 0.335614
Si Si6 0.000000 0.500000 0.951847
Si Si7 0.734966 0.287982 0.319913
O O1 0.500000 0.500000 0.177265
O O2 0.463929 0.365015 0.425581
O O3 0.302498 0.446744 0.188178
O O4 0.469398 0.366300 0.931188
O O5 0.500000 0.500000 0.675150
O O6 0.708694 0.599876 0.678918
O O7 0.179568 0.519253 0.510347
O O8 0.093386 0.377804 0.384867
O O9 0.940474 0.573572 0.799573
O O10 0.299808 0.883138 0.745138
O O11 0.111797 0.961329 0.586231
O O12 0.933390 0.744036 0.080876
O O13 0.117693 0.711726 0.331322
O O14 0.699406 0.266286 0.588592
#
# Coordination Sequence:
#
# PCOD9342423 Si02
#       7
#     4   4   4   4   4   2   4
#     4   9  18  34  55  83 110 142 189 242 294 337
#     4   9  18  34  55  83 110 142 189 242 294 337
#     4  11  23  36  57  88 120 154 196 251 293 346
#     4  11  23  36  57  88 120 154 196 251 293 346
#     4  10  23  38  55  79 120 167 199 232 288 360
#     4  12  22  32  54  90 124 144 196 246 302 340
#     4  10  23  38  55  79 120 167 199 232 288 360
#
# _framework density 25.803822
#
# number of rings (size 3 to 8) (size 9 to 14) (size 15 to 20)
#    0.000    1.846    1.538    2.308   10.769    0.000 
#    0.000    0.000    0.000    0.000    0.000   60.308 
#    0.000    0.000    0.000    0.000    0.000    0.000 
#
# Total GULP energy -144932.882982 kJ/mol
# GULP energy per Si atom -5574.341653 kJ/mol
# Density = 2.574509 g / cm^3
# Si number density = 25.803822 Si / 1000 Ang^3
#
#
#
# Elastic Constant Matrix: (Units=GPa)
#
#
# Indices 1 2 3 4 5 6 
#
# 1 123.3100 -8.1491 32.4347 0.0000 0.0000 0.0000
# 2 -8.1491 39.5372 28.2491 0.0000 0.0000 0.0000
# 3 32.4347 28.2491 240.3229 0.0000 0.0000 0.0000
# 4 0.0000 0.0000 0.0000 26.0475 0.0000 0.0000
# 5 0.0000 0.0000 0.0000 0.0000 40.0066 0.0000
# 6 0.0000 0.0000 0.0000 0.0000 0.0000 13.3843
#
#
#
# Elastic Compliance Matrix: (Units=1/GPa)
#
#
# Indices 1 2 3 4 5 6 
#
# 1 0.008697 0.002872 -0.001511 0.000000 0.000000 0.000000
# 2 0.002872 0.028560 -0.003745 0.000000 0.000000 0.000000
# 3 -0.001511 -0.003745 0.004805 0.000000 0.000000 0.000000
# 4 0.000000 0.000000 0.000000 0.038391 0.000000 0.000000
# 5 0.000000 0.000000 0.000000 0.000000 0.024996 0.000000
# 6 0.000000 0.000000 0.000000 0.000000 0.000000 0.074715
#
#
# Mechanical properties :
#
#
# Convention : Reuss Voigt Hill
#
# Bulk Modulus (GPa) = 26.81326 56.47106 41.64216
# Shear Modulus (GPa) = 25.33395 39.26337 32.29866
#
# Velocity S-wave (km/s) = 3.13675 3.90501 3.54178
# Velocity P-wave (km/s) = 4.85105 6.50111 5.73573
#
# Compressibility (1/GPa) = 0.03729499
#
# Stress axis : x y z
#
# Youngs Moduli (GPa) = 114.98181 35.01362 208.10587
#
# Poissons Ratio (x) = -0.10058 0.31454
# Poissons Ratio (y) = -0.33028 0.77932
# Poissons Ratio (z) = 0.17379 0.13112
#
# Static dielectric constant tensor:
#      x y z
#    x 2.076490 0.000000 0.000000 
#    y 0.000000 2.200500 0.000000 
#    z 0.000000 0.000000 2.096830 
# 
# From -- ./inp_files/716.got.cif
#   From: 2010.05.17/outbox.cif.g08.bks.cpg/sg30_1_cif.got.tgz:716.got - 2010.06.03 17:03:02.
