data_PCOD9342764
_publ_section_title
;
Structure prediction by ZEFSAII (Michael W. Deem and Ramdas Pophale) SiO2 
 PCOD9342764
Probable space group: P M N 21
;
_chemical_formula_sum "Si O2"
_cell_formula_units_Z 32
_cell_length_a 7.656659
_cell_length_b 14.804727
_cell_length_c 13.035381
_cell_angle_alpha 90.000000
_cell_angle_beta 90.000000
_cell_angle_gamma 90.000000
_cell_volume 1477.622305
_symmetry_space_group_name_H-M "P M N 21"
_symmetry_group_IT_number 31
_symmetry_cell_setting 'orthorhombic'
loop_
_space_group_symop_operation_xyz
x,y,z
1/2-x,-y,1/2+z
-x,y,z
1/2+x,-y,1/2+z
loop_
_atom_site_type_symbol
_atom_site_label
_atom_site_fract_x
_atom_site_fract_y
_atom_site_fract_z
Si Si1 0.199278 0.628313 0.711130
Si Si2 0.213664 0.058626 0.128150
Si Si3 0.207914 0.731007 0.021858
Si Si4 0.706056 0.349500 0.988361
Si Si5 0.299639 0.843811 0.419731
Si Si6 0.206280 0.863732 0.185872
Si Si7 0.709840 0.813038 0.812901
Si Si8 0.212994 0.547566 0.912473
O O1 0.284858 0.642159 0.602181
O O2 0.201084 0.724877 0.765267
O O3 0.277812 0.563991 0.796573
O O4 0.000000 0.598015 0.692049
O O5 0.262305 0.107045 0.235793
O O6 0.000000 0.060400 0.126234
O O7 0.276163 0.955827 0.135794
O O8 0.273623 0.110605 0.024675
O O9 0.240875 0.805662 0.932406
O O10 0.274576 0.632851 0.982369
O O11 0.000000 0.717901 0.030718
O O12 0.276357 0.774575 0.127575
O O13 0.500000 0.327646 0.993674
O O14 0.788643 0.264292 0.932391
O O15 0.729466 0.448749 0.943905
O O16 0.500000 0.872715 0.414908
O O17 0.223565 0.866670 0.308529
O O18 0.000000 0.863694 0.164441
O O19 0.500000 0.804186 0.806983
O O20 0.000000 0.550592 0.911481
#
# Coordination Sequence:
#
# PCOD9342764 Si02
#       8
#     4   4   4   4   4   4   4   4
#     4   9  19  36  55  79 111 148 193 242 294 347
#     4   9  20  37  58  85 118 153 191 241 295 343
#     4   9  20  38  59  83 117 156 195 242 298 348
#     4  11  22  37  59  86 114 153 198 244 296 355
#     4  11  23  41  61  88 122 156 196 244 299 353
#     4  10  22  41  61  85 122 163 199 243 294 354
#     4  10  18  32  57  84 111 146 191 242 291 343
#     4   9  19  36  56  82 113 151 195 244 299 353
#
# _framework density 21.656414999999999
#
# number of rings (size 3 to 8) (size 9 to 14) (size 15 to 20)
#    0.000    2.250    1.250    1.875    1.750    4.000 
#    0.000    4.375    0.000    0.000    0.000    0.000 
#    0.000    0.000    0.000    0.000    0.000    0.000 
#
# Total GULP energy -178400.026549 kJ/mol
# GULP energy per Si atom -5575.000830 kJ/mol
# Density = 2.160712 g / cm^3
# Si number density = 21.656415 Si / 1000 Ang^3
#
#
#
# Elastic Constant Matrix: (Units=GPa)
#
#
# Indices 1 2 3 4 5 6 
#
# 1 37.0427 -10.4080 -15.1386 0.0000 0.0000 0.0000
# 2 -10.4080 90.2291 44.4302 0.0000 0.0000 0.0000
# 3 -15.1386 44.4302 74.5087 0.0000 0.0000 0.0000
# 4 0.0000 0.0000 0.0000 16.6291 0.0000 0.0000
# 5 0.0000 0.0000 0.0000 0.0000 17.7374 0.0000
# 6 0.0000 0.0000 0.0000 0.0000 0.0000 10.1646
#
#
#
# Elastic Compliance Matrix: (Units=1/GPa)
#
#
# Indices 1 2 3 4 5 6 
#
# 1 0.029466 0.000638 0.005606 0.000000 0.000000 0.000000
# 2 0.000638 0.015704 -0.009235 0.000000 0.000000 0.000000
# 3 0.005606 -0.009235 0.020067 0.000000 0.000000 0.000000
# 4 0.000000 0.000000 0.000000 0.060135 0.000000 0.000000
# 5 0.000000 0.000000 0.000000 0.000000 0.056378 0.000000
# 6 0.000000 0.000000 0.000000 0.000000 0.000000 0.098381
#
#
# Mechanical properties :
#
#
# Convention : Reuss Voigt Hill
#
# Bulk Modulus (GPa) = 16.87555 26.61640 21.74598
# Shear Modulus (GPa) = 16.34714 21.09935 18.72325
#
# Velocity S-wave (km/s) = 2.75042 3.12473 2.94353
# Velocity P-wave (km/s) = 4.23033 5.03344 4.64926
#
# Compressibility (1/GPa) = 0.05925731
#
# Stress axis : x y z
#
# Youngs Moduli (GPa) = 33.93695 63.67889 49.83300
#
# Poissons Ratio (x) = -0.04065 -0.27938
# Poissons Ratio (y) = -0.02166 0.46019
# Poissons Ratio (z) = -0.19026 0.58805
#
# Static dielectric constant tensor:
#      x y z
#    x 1.797010 0.000000 0.000000 
#    y 0.000000 1.788760 0.000000 
#    z 0.000000 0.000000 1.859180 
# 
# From -- ./inp_files/3708.got.cif
#   From: 2010.05.17/outbox.cif.g08.bks.cpg/sg31_2_cif.got.tgz:3708.got - 2010.06.03 17:08:30.
