data_PCOD9342553
_publ_section_title
;
Structure prediction by ZEFSAII (Michael W. Deem and Ramdas Pophale) SiO2 
 PCOD9342553
Probable space group: P N C 2
;
_chemical_formula_sum "Si O2"
_cell_formula_units_Z 30
_cell_length_a 12.345413
_cell_length_b 13.929709
_cell_length_c 8.639602
_cell_angle_alpha 90.000000
_cell_angle_beta 90.000000
_cell_angle_gamma 90.000000
_cell_volume 1485.735168
_symmetry_space_group_name_H-M "P N C 2"
_symmetry_group_IT_number 30
_symmetry_cell_setting 'orthorhombic'
loop_
_space_group_symop_operation_xyz
x,y,z
-x,-y,z
-x,1/2+y,1/2+z
x,1/2-y,1/2+z
loop_
_atom_site_type_symbol
_atom_site_label
_atom_site_fract_x
_atom_site_fract_y
_atom_site_fract_z
Si Si1 0.000000 0.000000 0.880661
Si Si2 0.031678 0.175853 0.684649
Si Si3 0.527617 0.198647 0.699126
Si Si4 0.371584 0.289967 0.955250
Si Si5 0.831685 0.458581 0.624773
Si Si6 0.774269 0.826072 0.179096
Si Si7 0.675415 0.321488 0.470568
Si Si8 0.882272 0.311996 0.891607
O O1 0.059003 0.076936 0.771607
O O2 0.922580 0.058915 0.995080
O O3 0.137491 0.241545 0.667551
O O4 0.949693 0.237705 0.788501
O O5 0.962748 0.158425 0.529573
O O6 0.453454 0.250863 0.826105
O O7 0.442380 0.149453 0.579897
O O8 0.592206 0.272198 0.589437
O O9 0.618278 0.150713 0.808320
O O10 0.277134 0.334836 0.850648
O O11 0.317263 0.204430 0.054919
O O12 0.825945 0.572105 0.642517
O O13 0.723506 0.414202 0.553501
O O14 0.855219 0.402324 0.782555
O O15 0.772736 0.243912 0.443731
#
# Coordination Sequence:
#
# PCOD9342553 Si02
#       8
#     2   4   4   4   4   4   4   4
#     4  12  26  42  60 100 134 182 226 268 320 400
#     4  12  24  41  65  95 136 177 220 270 328 398
#     4   9  19  37  70  90 120 173 212 272 341 374
#     4   9  20  41  65  91 124 170 218 267 332 399
#     4  12  24  40  66  96 136 176 228 269 332 401
#     4  11  23  41  66  91 133 179 216 265 335 402
#     4  11  19  38  67  96 123 167 214 273 335 382
#     4  12  22  40  64  97 132 169 215 276 329 389
#
# _framework density 20.192024
#
# number of rings (size 3 to 8) (size 9 to 14) (size 15 to 20)
#    0.000    1.067    4.000    3.200    0.000    2.667 
#    0.000    6.000    2.933    0.000    0.000    0.000 
#    0.000    0.000    0.000    0.000    0.000    0.000 
#
# Total GULP energy -167337.621865 kJ/mol
# GULP energy per Si atom -5577.920729 kJ/mol
# Density = 2.014607 g / cm^3
# Si number density = 20.192024 Si / 1000 Ang^3
#
#
#
# Elastic Constant Matrix: (Units=GPa)
#
#
# Indices 1 2 3 4 5 6 
#
# 1 94.3313 19.5887 48.2882 0.0000 0.0000 0.0000
# 2 19.5887 54.5343 18.2539 0.0000 0.0000 0.0000
# 3 48.2882 18.2539 135.0510 0.0000 0.0000 0.0000
# 4 0.0000 0.0000 0.0000 19.3694 0.0000 0.0000
# 5 0.0000 0.0000 0.0000 0.0000 15.5721 0.0000
# 6 0.0000 0.0000 0.0000 0.0000 0.0000 -5.4960
#
#
#
# Elastic Compliance Matrix: (Units=1/GPa)
#
#
# Indices 1 2 3 4 5 6 
#
# 1 0.013552 -0.003400 -0.004386 0.000000 0.000000 0.000000
# 2 -0.003400 0.020059 -0.001496 0.000000 0.000000 0.000000
# 3 -0.004386 -0.001496 0.009175 0.000000 0.000000 0.000000
# 4 0.000000 0.000000 0.000000 0.051628 0.000000 0.000000
# 5 0.000000 0.000000 0.000000 0.000000 0.064218 0.000000
# 6 0.000000 0.000000 0.000000 0.000000 0.000000 -0.181951
#
#
# Mechanical properties :
#
#
# Convention : Reuss Voigt Hill
#
# Bulk Modulus (GPa) = 41.28297 50.68645 45.98471
# Shear Modulus (GPa) = 1507.12958 19.07483 763.10220
#
# Velocity S-wave (km/s) = 27.34993 3.07689 19.46132
# Velocity P-wave (km/s) = 31.90373 6.14652 22.97420
#
# Compressibility (1/GPa) = 0.02422307
#
# Stress axis : x y z
#
# Youngs Moduli (GPa) = 73.78885 49.85323 108.99132
#
# Poissons Ratio (x) = 0.16949 0.47805
# Poissons Ratio (y) = 0.25087 0.16301
# Poissons Ratio (z) = 0.32365 0.07456
#
# Static dielectric constant tensor:
#      x y z
#    x 1.794280 0.000000 0.000000 
#    y 0.000000 1.684980 0.000000 
#    z 0.000000 0.000000 1.764880 
# 
# From -- ./inp_files/2453.got.cif
#   From: 2010.05.17/outbox.cif.g08.bks.cpg/sg30_2_cif.got.tgz:2453.got - 2010.06.03 17:03:02.
