data_PCOD9342168
_publ_section_title
;
Structure prediction by ZEFSAII (Michael W. Deem and Ramdas Pophale) SiO2 
 PCOD9342168
Probable space group: P N C 2
;
_chemical_formula_sum "Si O2"
_cell_formula_units_Z 20
_cell_length_a 4.554344
_cell_length_b 30.599430
_cell_length_c 5.705167
_cell_angle_alpha 90.000000
_cell_angle_beta 90.000000
_cell_angle_gamma 90.000000
_cell_volume 795.073958
_symmetry_space_group_name_H-M "P N C 2"
_symmetry_group_IT_number 30
_symmetry_cell_setting 'orthorhombic'
loop_
_space_group_symop_operation_xyz
x,y,z
-x,-y,z
-x,1/2+y,1/2+z
x,1/2-y,1/2+z
loop_
_atom_site_type_symbol
_atom_site_label
_atom_site_fract_x
_atom_site_fract_y
_atom_site_fract_z
Si Si1 0.314245 0.749992 0.037800
Si Si2 0.870298 0.384563 0.287901
Si Si3 0.370431 0.322306 0.287850
Si Si4 0.193825 0.043997 0.538141
Si Si5 0.193827 0.456003 0.537663
O O1 0.152568 0.754651 0.287798
O O2 0.522520 0.707752 0.073720
O O3 0.522581 0.792226 0.001907
O O4 0.039826 0.338212 0.287862
O O5 0.977220 0.414575 0.503213
O O6 0.540707 0.368331 0.287917
O O7 0.977206 0.414577 0.072592
O O8 0.363446 0.042784 0.787901
O O9 0.351496 0.047226 0.287902
O O10 0.000000 0.000000 0.533592
O O11 0.000000 0.500000 0.542210
#
# Coordination Sequence:
#
# PCOD9342168 Si02
#       5
#     4   4   4   4   4
#     4   8  20  42  56  84 112 156 188 246 296 350
#     4  10  21  36  62  90 114 156 198 244 283 356
#     4  10  22  40  61  84 120 152 199 244 298 348
#     4   8  16  34  56  85 121 154 189 237 290 343
#     4   8  16  34  56  85 121 154 189 237 290 343
#
# _framework density 25.154890000000002
#
# number of rings (size 3 to 8) (size 9 to 14) (size 15 to 20)
#    2.400    0.800    0.000    0.000    0.000    4.800 
#    0.000    4.000    0.000    4.800    0.000    0.000 
#    0.000    0.000    0.000    0.000    0.000    0.000 
#
# Total GULP energy -111383.162049 kJ/mol
# GULP energy per Si atom -5569.158102 kJ/mol
# Density = 2.509764 g / cm^3
# Si number density = 25.154890 Si / 1000 Ang^3
#
#
#
# Elastic Constant Matrix: (Units=GPa)
#
#
# Indices 1 2 3 4 5 6 
#
# 1 60.8316 26.6209 14.3325 0.0000 0.0000 0.0000
# 2 26.6209 168.4603 11.9879 0.0000 0.0000 0.0000
# 3 14.3325 11.9879 254.9703 0.0000 0.0000 0.0000
# 4 0.0000 0.0000 0.0000 -19.9100 0.0000 0.0000
# 5 0.0000 0.0000 0.0000 0.0000 -11.8474 0.0000
# 6 0.0000 0.0000 0.0000 0.0000 0.0000 44.8661
#
#
#
# Elastic Compliance Matrix: (Units=1/GPa)
#
#
# Indices 1 2 3 4 5 6 
#
# 1 0.017852 -0.002759 -0.000874 0.000000 0.000000 0.000000
# 2 -0.002759 0.006382 -0.000145 0.000000 0.000000 0.000000
# 3 -0.000874 -0.000145 0.003978 0.000000 0.000000 0.000000
# 4 0.000000 0.000000 0.000000 -0.050226 0.000000 0.000000
# 5 0.000000 0.000000 0.000000 0.000000 -0.084407 0.000000
# 6 0.000000 0.000000 0.000000 0.000000 0.000000 0.022289
#
#
# Mechanical properties :
#
#
# Convention : Reuss Voigt Hill
#
# Bulk Modulus (GPa) = 48.40962 65.57164 56.99063
# Shear Modulus (GPa) = -71.74541 31.37647 -20.18447
#
# Velocity S-wave (km/s) = -5.34634 3.53559 -2.83575
# Velocity P-wave (km/s) = 4.33875 6.54148 3.46166
#
# Compressibility (1/GPa) = 0.02065705
#
# Stress axis : x y z
#
# Youngs Moduli (GPa) = 56.01606 156.68069 251.38504
#
# Poissons Ratio (x) = 0.43226 0.21966
# Poissons Ratio (y) = 0.15454 0.03645
# Poissons Ratio (z) = 0.04895 0.02272
#
# Static dielectric constant tensor:
#      x y z
#    x 1.891460 0.000000 0.000000 
#    y 0.000000 1.935910 0.000000 
#    z 0.000000 0.000000 2.029790 
# 
# From -- ./inp_files/215.got.cif
#   From: 2010.05.17/outbox.cif.g08.bks.cpg/sg30_1_cif.got.tgz:215.got - 2010.06.03 17:03:02.
