data_PCOD9342670
_publ_section_title
;
Structure prediction by ZEFSAII (Michael W. Deem and Ramdas Pophale) SiO2 
 PCOD9342670
Probable space group: P N C 2
;
_chemical_formula_sum "Si O2"
_cell_formula_units_Z 30
_cell_length_a 12.000000
_cell_length_b 15.000000
_cell_length_c 9.000000
_cell_angle_alpha 90.000000
_cell_angle_beta 90.000000
_cell_angle_gamma 90.000000
_cell_volume 1620.000000
_symmetry_space_group_name_H-M "P N C 2"
_symmetry_group_IT_number 30
_symmetry_cell_setting 'orthorhombic'
loop_
_space_group_symop_operation_xyz
x,y,z
-x,-y,z
-x,1/2+y,1/2+z
x,1/2-y,1/2+z
loop_
_atom_site_type_symbol
_atom_site_label
_atom_site_fract_x
_atom_site_fract_y
_atom_site_fract_z
Si Si1 0.730737 0.740632 0.297030
Si Si2 0.843182 0.634065 0.550830
Si Si3 0.075755 0.664136 0.679998
Si Si4 0.169784 0.028153 0.526121
Si Si5 0.375778 0.366105 0.051479
Si Si6 0.039366 0.646791 0.033040
Si Si7 0.258648 0.522396 0.707647
Si Si8 0.500000 0.500000 0.862342
O O1 0.812037 0.676181 0.391766
O O2 0.801525 0.796213 0.177181
O O3 0.632549 0.692561 0.201099
O O4 0.676966 0.806014 0.419401
O O5 0.768248 0.546875 0.577313
O O6 0.973633 0.618098 0.587980
O O7 0.049425 0.662402 0.855865
O O8 0.071661 0.764595 0.619350
O O9 0.195402 0.614398 0.666351
O O10 0.289113 0.054369 0.586971
O O11 0.084894 0.108666 0.556409
O O12 0.118331 0.935538 0.578536
O O13 0.188309 0.014788 0.349456
O O14 0.478504 0.415507 0.971932
O O15 0.387895 0.518534 0.763093
#
# Coordination Sequence:
#
# PCOD9342670 Si02
#       8
#     4   4   4   4   4   4   4   2
#     4  10  20  32  62  89 116 140 204 252 302 359
#     4  11  18  34  57  91 116 149 191 253 302 367
#     4  11  20  33  55  84 119 157 191 240 297 369
#     4   9  17  33  55  76 110 155 193 230 299 365
#     4  10  19  37  58  86 109 155 198 256 295 350
#     4  10  19  32  53  79 116 155 190 233 296 374
#     4  10  20  36  58  83 112 164 206 243 294 362
#     4  10  20  40  62  78 118 166 214 246 310 352
#
# _framework density 18.518519000000001
#
# number of rings (size 3 to 8) (size 9 to 14) (size 15 to 20)
#    0.000    1.867    4.000    2.800    0.000    0.000 
#    2.400    4.667    0.000    0.000    0.000    0.000 
#    0.000    0.000    0.000    0.000    0.000    0.000 
#
# Total GULP energy -167198.628703 kJ/mol
# GULP energy per Si atom -5573.287623 kJ/mol
# Density = 1.847637 g / cm^3
# Si number density = 18.518519 Si / 1000 Ang^3
#
#
#
# Elastic Constant Matrix: (Units=GPa)
#
#
# Indices 1 2 3 4 5 6 
#
# 1 95.3243 49.8106 20.7794 0.0000 0.0000 0.0000
# 2 49.8106 104.2400 30.7564 0.0000 0.0000 0.0000
# 3 20.7794 30.7564 59.5909 0.0000 0.0000 0.0000
# 4 0.0000 0.0000 0.0000 33.0917 0.0000 0.0000
# 5 0.0000 0.0000 0.0000 0.0000 19.5722 0.0000
# 6 0.0000 0.0000 0.0000 0.0000 0.0000 29.0383
#
#
#
# Elastic Compliance Matrix: (Units=1/GPa)
#
#
# Indices 1 2 3 4 5 6 
#
# 1 0.014126 -0.006248 -0.001701 0.000000 0.000000 0.000000
# 2 -0.006248 0.014080 -0.005088 0.000000 0.000000 0.000000
# 3 -0.001701 -0.005088 0.020000 0.000000 0.000000 0.000000
# 4 0.000000 0.000000 0.000000 0.030219 0.000000 0.000000
# 5 0.000000 0.000000 0.000000 0.000000 0.051093 0.000000
# 6 0.000000 0.000000 0.000000 0.000000 0.000000 0.034437
#
#
# Mechanical properties :
#
#
# Convention : Reuss Voigt Hill
#
# Bulk Modulus (GPa) = 45.18399 51.31645 48.25022
# Shear Modulus (GPa) = 25.32814 26.86103 26.09458
#
# Velocity S-wave (km/s) = 3.70228 3.81267 3.75788
# Velocity P-wave (km/s) = 6.53668 6.86680 6.70377
#
# Compressibility (1/GPa) = 0.02213173
#
# Stress axis : x y z
#
# Youngs Moduli (GPa) = 70.79009 71.02100 49.99882
#
# Poissons Ratio (x) = 0.44376 0.08504
# Poissons Ratio (y) = 0.44232 0.25442
# Poissons Ratio (z) = 0.12041 0.36139
#
# Static dielectric constant tensor:
#      x y z
#    x 1.659590 0.000000 0.000000 
#    y 0.000000 1.697720 0.000000 
#    z 0.000000 0.000000 1.645080 
# 
# From -- ./inp_files/2473.got.cif
#   From: 2010.05.17/outbox.ucp.g08.bks.cvg/sg30_2_cif.got.tgz:2473.got - 2010.06.11 10:34:04.
