data_PCOD9342407
_publ_section_title
;
Structure prediction by ZEFSAII (Michael W. Deem and Ramdas Pophale) SiO2 
 PCOD9342407
Probable space group: P N C 2
;
_chemical_formula_sum "Si O2"
_cell_formula_units_Z 18
_cell_length_a 8.027347
_cell_length_b 10.850570
_cell_length_c 8.490964
_cell_angle_alpha 90.000000
_cell_angle_beta 90.000000
_cell_angle_gamma 90.000000
_cell_volume 739.573922
_symmetry_space_group_name_H-M "P N C 2"
_symmetry_group_IT_number 30
_symmetry_cell_setting 'orthorhombic'
loop_
_space_group_symop_operation_xyz
x,y,z
-x,-y,z
-x,1/2+y,1/2+z
x,1/2-y,1/2+z
loop_
_atom_site_type_symbol
_atom_site_label
_atom_site_fract_x
_atom_site_fract_y
_atom_site_fract_z
Si Si1 0.241596 0.869483 0.475080
Si Si2 0.278198 0.386145 0.770264
Si Si3 0.428555 0.793842 0.773089
Si Si4 0.000000 0.000000 0.681930
Si Si5 0.757717 0.867540 0.914386
O O1 0.384940 0.854470 0.607747
O O2 0.265282 0.748793 0.367740
O O3 0.074191 0.892886 0.571972
O O4 0.264471 0.990782 0.369718
O O5 0.465661 0.332616 0.746289
O O6 0.197754 0.273305 0.867933
O O7 0.206738 0.397744 0.594846
O O8 0.560226 0.870694 0.874903
O O9 0.852675 0.952917 0.792364
#
# Coordination Sequence:
#
# PCOD9342407 Si02
#       5
#     4   4   4   2   4
#     4  12  26  47  76 116 155 209 260 335 403 474
#     4  10  22  45  82 105 148 205 272 326 385 473
#     4  10  23  46  77 109 149 199 283 315 378 493
#     4  12  30  44  76 118 172 206 254 344 420 462
#     4  10  23  46  73 113 151 209 259 329 389 487
#
# _framework density 24.338336000000002
#
# number of rings (size 3 to 8) (size 9 to 14) (size 15 to 20)
#    1.333    0.000    2.222    2.000    6.222    6.222 
#    4.000    0.000    0.000    0.000    0.000    0.000 
#    0.000    0.000    0.000    0.000    0.000    0.000 
#
# Total GULP energy -100637.863333 kJ/mol
# GULP energy per Si atom -5590.992407 kJ/mol
# Density = 2.428294 g / cm^3
# Si number density = 24.338336 Si / 1000 Ang^3
#
#
#
# Elastic Constant Matrix: (Units=GPa)
#
#
# Indices 1 2 3 4 5 6 
#
# 1 39.2591 34.2114 48.6915 0.0000 0.0000 0.0000
# 2 34.2114 111.5219 81.5020 0.0000 0.0000 0.0000
# 3 48.6915 81.5020 211.5263 0.0000 0.0000 0.0000
# 4 0.0000 0.0000 0.0000 48.9532 0.0000 0.0000
# 5 0.0000 0.0000 0.0000 0.0000 35.1815 0.0000
# 6 0.0000 0.0000 0.0000 0.0000 0.0000 34.3016
#
#
#
# Elastic Compliance Matrix: (Units=1/GPa)
#
#
# Indices 1 2 3 4 5 6 
#
# 1 0.039886 -0.007692 -0.006218 0.000000 0.000000 0.000000
# 2 -0.007692 0.013965 -0.003610 0.000000 0.000000 0.000000
# 3 -0.006218 -0.003610 0.007550 0.000000 0.000000 0.000000
# 4 0.000000 0.000000 0.000000 0.020428 0.000000 0.000000
# 5 0.000000 0.000000 0.000000 0.000000 0.028424 0.000000
# 6 0.000000 0.000000 0.000000 0.000000 0.000000 0.029153
#
#
# Mechanical properties :
#
#
# Convention : Reuss Voigt Hill
#
# Bulk Modulus (GPa) = 37.93407 76.79077 57.36242
# Shear Modulus (GPa) = 27.28777 36.88078 32.08427
#
# Velocity S-wave (km/s) = 3.35204 3.89696 3.63472
# Velocity P-wave (km/s) = 5.53187 7.20196 6.42144
#
# Compressibility (1/GPa) = 0.02636152
#
# Stress axis : x y z
#
# Youngs Moduli (GPa) = 25.07124 71.60882 132.45369
#
# Poissons Ratio (x) = 0.55080 0.82357
# Poissons Ratio (y) = 0.19284 0.47817
# Poissons Ratio (z) = 0.15589 0.25851
#
# Static dielectric constant tensor:
#      x y z
#    x 1.982490 0.000000 0.000000 
#    y 0.000000 1.931140 0.000000 
#    z 0.000000 0.000000 1.908560 
# 
# From -- ./inp_files/1711.got.cif
#   From: 2010.05.17/outbox.cif.g08.bks.cpg/sg30_1_cif.got.tgz:1711.got - 2010.06.03 17:03:02.
