data_PCOD9342965
_publ_section_title
;
Structure prediction by ZEFSAII (Michael W. Deem and Ramdas Pophale) SiO2 
 PCOD9342965
Probable space group: P M N 21
;
_chemical_formula_sum "Si O2"
_cell_formula_units_Z 24
_cell_length_a 7.502576
_cell_length_b 13.454682
_cell_length_c 10.473297
_cell_angle_alpha 90.000000
_cell_angle_beta 90.000000
_cell_angle_gamma 90.000000
_cell_volume 1057.224601
_symmetry_space_group_name_H-M "P M N 21"
_symmetry_group_IT_number 31
_symmetry_cell_setting 'orthorhombic'
loop_
_space_group_symop_operation_xyz
x,y,z
1/2-x,-y,1/2+z
-x,y,z
1/2+x,-y,1/2+z
loop_
_atom_site_type_symbol
_atom_site_label
_atom_site_fract_x
_atom_site_fract_y
_atom_site_fract_z
Si Si1 0.294128 0.330943 0.918480
Si Si2 0.790500 0.083266 0.571949
Si Si3 0.281819 0.283737 0.199484
Si Si4 0.285284 0.065968 0.287768
Si Si5 0.717215 0.438089 0.415722
Si Si6 0.205866 0.699272 0.142327
O O1 0.500000 0.296500 0.920940
O O2 0.285298 0.450226 0.913801
O O3 0.213248 0.295368 0.784009
O O4 0.217801 0.297089 0.054334
O O5 0.764672 0.038788 0.431604
O O6 0.708517 0.192671 0.578752
O O7 0.000000 0.097103 0.593425
O O8 0.719552 0.011496 0.682296
O O9 0.500000 0.285106 0.198760
O O10 0.224499 0.177790 0.255878
O O11 0.227744 0.373436 0.292677
O O12 0.500000 0.067437 0.280347
O O13 0.500000 0.440847 0.416542
O O14 0.780677 0.380328 0.542727
O O15 0.000000 0.669131 0.160979
#
# Coordination Sequence:
#
# PCOD9342965 Si02
#       6
#     4   4   4   4   4   4
#     4  10  21  34  56  86 112 150 196 236 283 340
#     4  11  24  39  63  93 116 149 196 244 293 344
#     4   9  18  36  58  79 109 152 190 224 280 348
#     4  10  22  42  63  85 118 154 193 239 293 355
#     4  10  19  35  57  79 111 156 194 233 289 340
#     4  10  21  38  59  82 118 159 191 232 294 355
#
# _framework density 22.700946999999999
#
# number of rings (size 3 to 8) (size 9 to 14) (size 15 to 20)
#    0.000    2.000    1.667    1.500    2.333    2.667 
#    0.000    0.833    0.000    0.000    0.000    0.000 
#    0.000    0.000    0.000    0.000    0.000    0.000 
#
# Total GULP energy -134157.018113 kJ/mol
# GULP energy per Si atom -5589.875755 kJ/mol
# Density = 2.264928 g / cm^3
# Si number density = 22.700947 Si / 1000 Ang^3
#
#
#
# Elastic Constant Matrix: (Units=GPa)
#
#
# Indices 1 2 3 4 5 6 
#
# 1 62.8981 -13.1808 -2.1248 0.0000 0.0000 0.0000
# 2 -13.1808 41.8321 12.2245 0.0000 0.0000 0.0000
# 3 -2.1248 12.2245 174.3555 0.0000 0.0000 0.0000
# 4 0.0000 0.0000 0.0000 42.4592 0.0000 0.0000
# 5 0.0000 0.0000 0.0000 0.0000 1.7264 0.0000
# 6 0.0000 0.0000 0.0000 0.0000 0.0000 -54.6141
#
#
#
# Elastic Compliance Matrix: (Units=1/GPa)
#
#
# Indices 1 2 3 4 5 6 
#
# 1 0.017028 0.005416 -0.000172 0.000000 0.000000 0.000000
# 2 0.005416 0.026127 -0.001766 0.000000 0.000000 0.000000
# 3 -0.000172 -0.001766 0.005857 0.000000 0.000000 0.000000
# 4 0.000000 0.000000 0.000000 0.023552 0.000000 0.000000
# 5 0.000000 0.000000 0.000000 0.000000 0.579227 0.000000
# 6 0.000000 0.000000 0.000000 0.000000 0.000000 -0.018310
#
#
# Mechanical properties :
#
#
# Convention : Reuss Voigt Hill
#
# Bulk Modulus (GPa) = 17.86755 30.32485 24.09620
# Shear Modulus (GPa) = 7.74975 16.72543 12.23759
#
# Velocity S-wave (km/s) = 1.84966 2.71730 2.32433
# Velocity P-wave (km/s) = 3.52840 4.82000 4.22386
#
# Compressibility (1/GPa) = 0.05596739
#
# Stress axis : x y z
#
# Youngs Moduli (GPa) = 58.72756 38.27390 170.73244
#
# Poissons Ratio (x) = -0.20727 0.02940
# Poissons Ratio (y) = -0.31804 0.30149
# Poissons Ratio (z) = 0.01011 0.06759
#
# Static dielectric constant tensor:
#      x y z
#    x 1.845630 0.000000 0.000000 
#    y 0.000000 1.769090 0.000000 
#    z 0.000000 0.000000 1.857240 
# 
# From -- ./inp_files/1713.got.cif
#   From: 2010.05.17/outbox.cif.g08.bks.cpg/sg31_1_cif.got.tgz:1713.got - 2010.06.03 17:08:30.
