data_PCOD9342183
_publ_section_title
;
Structure prediction by ZEFSAII (Michael W. Deem and Ramdas Pophale) SiO2 
 PCOD9342183
Probable space group: P N C 2
;
_chemical_formula_sum "Si O2"
_cell_formula_units_Z 30
_cell_length_a 11.950349
_cell_length_b 9.565174
_cell_length_c 13.006261
_cell_angle_alpha 90.000000
_cell_angle_beta 90.000000
_cell_angle_gamma 90.000000
_cell_volume 1486.708855
_symmetry_space_group_name_H-M "P N C 2"
_symmetry_group_IT_number 30
_symmetry_cell_setting 'orthorhombic'
loop_
_space_group_symop_operation_xyz
x,y,z
-x,-y,z
-x,1/2+y,1/2+z
x,1/2-y,1/2+z
loop_
_atom_site_type_symbol
_atom_site_label
_atom_site_fract_x
_atom_site_fract_y
_atom_site_fract_z
Si Si1 0.130315 0.971871 0.673260
Si Si2 0.603358 0.426954 0.957397
Si Si3 0.077773 0.881948 0.875494
Si Si4 0.275835 0.084424 0.146991
Si Si5 0.228223 0.334697 0.005962
Si Si6 0.500000 0.000000 0.259148
Si Si7 0.231545 0.718536 0.553846
Si Si8 0.924338 0.640491 0.812218
O O1 0.151266 0.969232 0.794513
O O2 0.170536 0.825376 0.628778
O O3 0.195388 0.088071 0.610888
O O4 0.000000 0.000000 0.654003
O O5 0.500000 0.500000 0.015446
O O6 0.689039 0.556145 0.950733
O O7 0.657369 0.296416 0.013468
O O8 0.560517 0.396336 0.841803
O O9 0.006900 0.773890 0.804991
O O10 0.151159 0.801279 0.956303
O O11 0.000000 0.000000 0.927167
O O12 0.271474 0.186722 0.047598
O O13 0.176860 0.126610 0.228980
O O14 0.400493 0.074842 0.196514
O O15 0.251093 0.928235 0.107726
O O16 0.126776 0.331511 0.925719
O O17 0.000000 0.500000 0.809247
#
# Coordination Sequence:
#
# PCOD9342183 Si02
#       8
#     4   4   4   4   4   2   4   4
#     4  10  21  38  59  88 128 174 207 246 322 408
#     4   9  21  44  65  82 120 169 221 263 333 389
#     4  11  23  37  58  94 136 167 206 267 330 396
#     4  12  26  41  68 103 132 168 228 281 327 379
#     4  11  22  41  63  91 128 173 214 263 329 395
#     4  10  24  44  70  90 130 176 228 272 330 398
#     4  11  24  39  67  95 128 168 222 278 323 390
#     4  12  23  39  67  95 136 179 212 263 333 402
#
# _framework density 20.178798
#
# number of rings (size 3 to 8) (size 9 to 14) (size 15 to 20)
#    0.400    0.800    1.333    6.000    3.733    2.667 
#    0.000    0.000    0.000    1.600    0.000    0.000 
#    0.000    0.000    0.000    0.000    0.000    0.000 
#
# Total GULP energy -167290.870217 kJ/mol
# GULP energy per Si atom -5576.362341 kJ/mol
# Density = 2.013287 g / cm^3
# Si number density = 20.178798 Si / 1000 Ang^3
#
#
#
# Elastic Constant Matrix: (Units=GPa)
#
#
# Indices 1 2 3 4 5 6 
#
# 1 80.3637 27.5616 30.8930 0.0000 0.0000 0.0000
# 2 27.5616 117.3220 22.9074 0.0000 0.0000 0.0000
# 3 30.8930 22.9074 69.4052 0.0000 0.0000 0.0000
# 4 0.0000 0.0000 0.0000 -5.8382 0.0000 0.0000
# 5 0.0000 0.0000 0.0000 0.0000 -2.2191 0.0000
# 6 0.0000 0.0000 0.0000 0.0000 0.0000 17.6619
#
#
#
# Elastic Compliance Matrix: (Units=1/GPa)
#
#
# Indices 1 2 3 4 5 6 
#
# 1 0.015658 -0.002477 -0.006152 0.000000 0.000000 0.000000
# 2 -0.002477 0.009503 -0.002034 0.000000 0.000000 0.000000
# 3 -0.006152 -0.002034 0.017818 0.000000 0.000000 0.000000
# 4 0.000000 0.000000 0.000000 -0.171286 0.000000 0.000000
# 5 0.000000 0.000000 0.000000 0.000000 -0.450633 0.000000
# 6 0.000000 0.000000 0.000000 0.000000 0.000000 0.056619
#
#
# Mechanical properties :
#
#
# Convention : Reuss Voigt Hill
#
# Bulk Modulus (GPa) = 46.18410 47.75722 46.97066
# Shear Modulus (GPa) = -10.12599 14.30286 2.08844
#
# Velocity S-wave (km/s) = -2.24255 2.66523 1.01844
# Velocity P-wave (km/s) = 4.02887 5.76105 4.97099
#
# Compressibility (1/GPa) = 0.02165248
#
# Stress axis : x y z
#
# Youngs Moduli (GPa) = 63.86553 105.23442 56.12410
#
# Poissons Ratio (x) = 0.26069 0.34527
# Poissons Ratio (y) = 0.15821 0.11414
# Poissons Ratio (z) = 0.39289 0.21402
#
# Static dielectric constant tensor:
#      x y z
#    x 1.880360 0.000000 0.000000 
#    y 0.000000 1.761580 0.000000 
#    z 0.000000 0.000000 1.725990 
# 
# From -- ./inp_files/5491.got.cif
#   From: 2010.05.17/outbox.cif.g08.bks.cpg/sg30_3_cif.got.tgz:5491.got - 2010.06.03 17:03:02.
