data_PCOD9342052
_publ_section_title
;
Structure prediction by ZEFSAII (Michael W. Deem and Ramdas Pophale) SiO2 
 PCOD9342052
Probable space group: P N C 2
;
_chemical_formula_sum "Si O2"
_cell_formula_units_Z 24
_cell_length_a 11.301652
_cell_length_b 7.265762
_cell_length_c 14.929220
_cell_angle_alpha 90.000000
_cell_angle_beta 90.000000
_cell_angle_gamma 90.000000
_cell_volume 1225.914597
_symmetry_space_group_name_H-M "P N C 2"
_symmetry_group_IT_number 30
_symmetry_cell_setting 'orthorhombic'
loop_
_space_group_symop_operation_xyz
x,y,z
-x,-y,z
-x,1/2+y,1/2+z
x,1/2-y,1/2+z
loop_
_atom_site_type_symbol
_atom_site_label
_atom_site_fract_x
_atom_site_fract_y
_atom_site_fract_z
Si Si1 0.522677 0.719379 0.074360
Si Si2 0.737138 0.316543 0.623525
Si Si3 0.870880 0.082130 0.962195
Si Si4 0.135836 0.972040 0.525303
Si Si5 0.626379 0.919174 0.247862
Si Si6 0.289095 0.226115 0.924233
O O1 0.500000 0.500000 0.077743
O O2 0.392531 0.809722 0.077717
O O3 0.595075 0.793215 0.160942
O O4 0.594519 0.773519 0.986009
O O5 0.828352 0.439502 0.566063
O O6 0.790579 0.112697 0.609000
O O7 0.710309 0.412967 0.716586
O O8 0.772231 0.970027 0.909932
O O9 0.864548 0.302175 0.954088
O O10 0.000000 0.000000 0.947115
O O11 0.197185 0.146222 0.480475
O O12 0.000000 0.000000 0.550766
O O13 0.682615 0.811885 0.329060
O O14 0.500000 0.000000 0.277300
#
# Coordination Sequence:
#
# PCOD9342052 Si02
#       6
#     4   4   4   4   4   4
#     4  11  19  38  60  88 122 161 201 259 319 366
#     4   9  20  38  59  89 128 151 202 266 303 366
#     4  10  20  37  65  89 119 165 208 247 307 372
#     4  10  20  37  66  90 117 165 210 249 306 378
#     4  10  23  38  56  93 129 156 207 266 314 376
#     4  12  21  39  67  85 123 174 204 247 326 375
#
# _framework density 19.577218999999999
#
# number of rings (size 3 to 8) (size 9 to 14) (size 15 to 20)
#    1.000    0.667    5.000    0.500    0.000    0.000 
#    9.000    0.833    0.000    2.000    0.000    0.000 
#    0.000    0.000    0.000    0.000    0.000    0.000 
#
# Total GULP energy -133705.033748 kJ/mol
# GULP energy per Si atom -5571.043073 kJ/mol
# Density = 1.953266 g / cm^3
# Si number density = 19.577219 Si / 1000 Ang^3
#
#
#
# Elastic Constant Matrix: (Units=GPa)
#
#
# Indices 1 2 3 4 5 6 
#
# 1 80.1972 13.0364 31.9867 0.0000 0.0000 0.0000
# 2 13.0364 68.4479 3.2130 0.0000 0.0000 0.0000
# 3 31.9867 3.2130 46.1553 0.0000 0.0000 0.0000
# 4 0.0000 0.0000 0.0000 25.3651 0.0000 0.0000
# 5 0.0000 0.0000 0.0000 0.0000 3.1190 0.0000
# 6 0.0000 0.0000 0.0000 0.0000 0.0000 29.4455
#
#
#
# Elastic Compliance Matrix: (Units=1/GPa)
#
#
# Indices 1 2 3 4 5 6 
#
# 1 0.017757 -0.002813 -0.012110 0.000000 0.000000 0.000000
# 2 -0.002813 0.015103 0.000898 0.000000 0.000000 0.000000
# 3 -0.012110 0.000898 0.029996 0.000000 0.000000 0.000000
# 4 0.000000 0.000000 0.000000 0.039424 0.000000 0.000000
# 5 0.000000 0.000000 0.000000 0.000000 0.320618 0.000000
# 6 0.000000 0.000000 0.000000 0.000000 0.000000 0.033961
#
#
# Mechanical properties :
#
#
# Convention : Reuss Voigt Hill
#
# Bulk Modulus (GPa) = 28.73074 32.36362 30.54718
# Shear Modulus (GPa) = 10.07026 21.35686 15.71356
#
# Velocity S-wave (km/s) = 2.27047 3.30647 2.83617
# Velocity P-wave (km/s) = 4.64552 5.58069 5.13444
#
# Compressibility (1/GPa) = 0.03480593
#
# Stress axis : x y z
#
# Youngs Moduli (GPa) = 56.31701 66.21058 33.33794
#
# Poissons Ratio (x) = 0.18628 0.40372
# Poissons Ratio (y) = 0.15844 -0.02995
# Poissons Ratio (z) = 0.68199 -0.05948
#
# Static dielectric constant tensor:
#      x y z
#    x 1.679560 0.000000 0.000000 
#    y 0.000000 1.747960 0.000000 
#    z 0.000000 0.000000 1.648700 
# 
# From -- ./inp_files/4048.got.cif
#   From: 2010.05.17/outbox.cif.g08.bks.cpg/sg30_3_cif.got.tgz:4048.got - 2010.06.03 17:03:02.
