data_PCOD9342403
_publ_section_title
;
Structure prediction by ZEFSAII (Michael W. Deem and Ramdas Pophale) SiO2 
 PCOD9342403
Probable space group: P N C 2
;
_chemical_formula_sum "Si O2"
_cell_formula_units_Z 30
_cell_length_a 8.452501
_cell_length_b 11.961741
_cell_length_c 14.167283
_cell_angle_alpha 90.000000
_cell_angle_beta 90.000000
_cell_angle_gamma 90.000000
_cell_volume 1432.406209
_symmetry_space_group_name_H-M "P N C 2"
_symmetry_group_IT_number 30
_symmetry_cell_setting 'orthorhombic'
loop_
_space_group_symop_operation_xyz
x,y,z
-x,-y,z
-x,1/2+y,1/2+z
x,1/2-y,1/2+z
loop_
_atom_site_type_symbol
_atom_site_label
_atom_site_fract_x
_atom_site_fract_y
_atom_site_fract_z
Si Si1 0.050304 0.125650 0.469780
Si Si2 0.475318 0.872823 0.103050
Si Si3 0.818872 0.485577 0.332357
Si Si4 0.296852 0.314976 0.123646
Si Si5 0.232280 0.731199 0.458094
Si Si6 0.500000 0.500000 0.207386
Si Si7 0.771743 0.772490 0.832809
Si Si8 0.454891 0.628284 0.826127
O O1 0.192939 0.130731 0.543344
O O2 0.104169 0.186554 0.374356
O O3 0.909362 0.202679 0.507423
O O4 0.000000 0.000000 0.453666
O O5 0.638412 0.805257 0.095722
O O6 0.424174 0.870744 0.213423
O O7 0.500000 0.000000 0.074294
O O8 0.353622 0.812201 0.035385
O O9 0.822042 0.377801 0.399339
O O10 0.660788 0.471599 0.266450
O O11 0.783052 0.605921 0.380902
O O12 0.000000 0.500000 0.292287
O O13 0.446838 0.393789 0.146640
O O14 0.206231 0.299889 0.222472
O O15 0.314106 0.820128 0.387227
O O16 0.602346 0.712441 0.842407
O O17 0.500000 0.500000 0.851775
#
# Coordination Sequence:
#
# PCOD9342403 Si02
#       8
#     4   4   4   4   4   2   4   4
#     4  12  27  44  65 102 143 184 229 287 365 431
#     4  10  24  41  68 100 132 178 236 290 347 425
#     4  11  22  42  71 107 137 176 236 296 353 422
#     4  10  24  45  70  98 138 181 239 292 353 426
#     4  12  25  39  69 102 136 182 229 290 361 419
#     4  10  24  44  74 104 134 196 230 294 366 404
#     4  10  22  46  69  95 138 180 231 299 353 410
#     4  10  22  45  70  97 134 185 239 287 351 432
#
# _framework density 20.943778999999999
#
# number of rings (size 3 to 8) (size 9 to 14) (size 15 to 20)
#    0.000    1.333    1.333    4.000    6.533    3.200 
#    1.200    0.000    0.000    0.000    0.000    0.000 
#    0.000    0.000    0.000    0.000    0.000    0.000 
#
# Total GULP energy -167587.244324 kJ/mol
# GULP energy per Si atom -5586.241477 kJ/mol
# Density = 2.089611 g / cm^3
# Si number density = 20.943779 Si / 1000 Ang^3
#
#
#
# Elastic Constant Matrix: (Units=GPa)
#
#
# Indices 1 2 3 4 5 6 
#
# 1 90.0890 44.7054 44.4263 0.0000 0.0000 0.0000
# 2 44.7054 175.6429 49.4295 0.0000 0.0000 0.0000
# 3 44.4263 49.4295 54.1111 0.0000 0.0000 0.0000
# 4 0.0000 0.0000 0.0000 42.8860 0.0000 0.0000
# 5 0.0000 0.0000 0.0000 0.0000 26.7169 0.0000
# 6 0.0000 0.0000 0.0000 0.0000 0.0000 39.7653
#
#
#
# Elastic Compliance Matrix: (Units=1/GPa)
#
#
# Indices 1 2 3 4 5 6 
#
# 1 0.018697 -0.000591 -0.014811 0.000000 0.000000 0.000000
# 2 -0.000591 0.007682 -0.006532 0.000000 0.000000 0.000000
# 3 -0.014811 -0.006532 0.036608 0.000000 0.000000 0.000000
# 4 0.000000 0.000000 0.000000 0.023318 0.000000 0.000000
# 5 0.000000 0.000000 0.000000 0.000000 0.037429 0.000000
# 6 0.000000 0.000000 0.000000 0.000000 0.000000 0.025148
#
#
# Mechanical properties :
#
#
# Convention : Reuss Voigt Hill
#
# Bulk Modulus (GPa) = 52.30497 66.32948 59.31722
# Shear Modulus (GPa) = 25.11006 33.95910 29.53458
#
# Velocity S-wave (km/s) = 3.46631 4.03108 3.75932
# Velocity P-wave (km/s) = 6.40692 7.30788 6.87218
#
# Compressibility (1/GPa) = 0.01911864
#
# Stress axis : x y z
#
# Youngs Moduli (GPa) = 53.48392 130.17291 27.31647
#
# Poissons Ratio (x) = 0.07690 0.40459
# Poissons Ratio (y) = 0.03160 0.17844
# Poissons Ratio (z) = 0.79216 0.85035
#
# Static dielectric constant tensor:
#      x y z
#    x 1.781710 0.000000 0.000000 
#    y 0.000000 1.724640 0.000000 
#    z 0.000000 0.000000 1.767240 
# 
# From -- ./inp_files/5180.got.cif
#   From: 2010.05.17/outbox.cif.g08.bks.cpg/sg30_3_cif.got.tgz:5180.got - 2010.06.03 17:03:02.
