data_PCOD9342377
_publ_section_title
;
Structure prediction by ZEFSAII (Michael W. Deem and Ramdas Pophale) SiO2 
 PCOD9342377
Probable space group: P N C 2
;
_chemical_formula_sum "Si O2"
_cell_formula_units_Z 32
_cell_length_a 15.306307
_cell_length_b 10.507872
_cell_length_c 9.462080
_cell_angle_alpha 90.000000
_cell_angle_beta 90.000000
_cell_angle_gamma 90.000000
_cell_volume 1521.849862
_symmetry_space_group_name_H-M "P N C 2"
_symmetry_group_IT_number 30
_symmetry_cell_setting 'orthorhombic'
loop_
_space_group_symop_operation_xyz
x,y,z
-x,-y,z
-x,1/2+y,1/2+z
x,1/2-y,1/2+z
loop_
_atom_site_type_symbol
_atom_site_label
_atom_site_fract_x
_atom_site_fract_y
_atom_site_fract_z
Si Si1 0.087452 0.848109 0.309390
Si Si2 0.681646 0.281154 0.176349
Si Si3 0.171098 0.640498 0.511980
Si Si4 0.113470 0.136568 0.324407
Si Si5 0.789423 0.736586 0.575065
Si Si6 0.380109 0.389433 0.458971
Si Si7 0.426164 0.817827 0.957381
Si Si8 0.764631 0.970461 0.764019
O O1 0.146193 0.748801 0.396572
O O2 0.101345 0.855626 0.139297
O O3 0.985886 0.815861 0.331028
O O4 0.109198 0.988660 0.366874
O O5 0.742327 0.173024 0.105210
O O6 0.596418 0.280422 0.079886
O O7 0.640111 0.277915 0.332103
O O8 0.741490 0.405155 0.174311
O O9 0.187767 0.519901 0.407783
O O10 0.173637 0.223786 0.423066
O O11 0.153630 0.139316 0.167142
O O12 0.690291 0.684078 0.557746
O O13 0.804860 0.865954 0.663975
O O14 0.470632 0.317932 0.430451
O O15 0.404487 0.535152 0.501664
O O16 0.326586 0.411007 0.315612
#
# Coordination Sequence:
#
# PCOD9342377 Si02
#       8
#     4   4   4   4   4   4   4   4
#     4  11  25  43  68  98 132 170 220 287 329 399
#     4  11  20  39  65  95 127 164 216 271 320 395
#     4  12  21  43  70  96 129 172 224 269 343 388
#     4  11  26  43  66  98 135 169 227 274 337 400
#     4  12  24  45  68  93 135 180 222 267 341 408
#     4  10  22  44  64  91 135 175 215 275 328 399
#     4  10  23  39  67  96 130 170 222 273 335 382
#     4  11  23  40  67  98 126 178 216 268 328 401
#
# _framework density 21.027042000000002
#
# number of rings (size 3 to 8) (size 9 to 14) (size 15 to 20)
#    0.000    1.000    5.000    2.250    1.750    0.000 
#    0.000    0.000    0.000    0.000    0.000    0.000 
#    0.000    0.000    0.000    0.000    0.000    0.000 
#
# Total GULP energy -178295.030577 kJ/mol
# GULP energy per Si atom -5571.719706 kJ/mol
# Density = 2.097918 g / cm^3
# Si number density = 21.027042 Si / 1000 Ang^3
#
#
#
# Elastic Constant Matrix: (Units=GPa)
#
#
# Indices 1 2 3 4 5 6 
#
# 1 101.0934 26.0584 24.4108 0.0000 0.0000 0.0000
# 2 26.0584 49.2680 41.2390 0.0000 0.0000 0.0000
# 3 24.4108 41.2390 101.4041 0.0000 0.0000 0.0000
# 4 0.0000 0.0000 0.0000 38.0072 0.0000 0.0000
# 5 0.0000 0.0000 0.0000 0.0000 24.9100 0.0000
# 6 0.0000 0.0000 0.0000 0.0000 0.0000 22.4099
#
#
#
# Elastic Compliance Matrix: (Units=1/GPa)
#
#
# Indices 1 2 3 4 5 6 
#
# 1 0.011467 -0.005692 -0.000446 0.000000 0.000000 0.000000
# 2 -0.005692 0.033598 -0.012293 0.000000 0.000000 0.000000
# 3 -0.000446 -0.012293 0.014968 0.000000 0.000000 0.000000
# 4 0.000000 0.000000 0.000000 0.026311 0.000000 0.000000
# 5 0.000000 0.000000 0.000000 0.000000 0.040145 0.000000
# 6 0.000000 0.000000 0.000000 0.000000 0.000000 0.044623
#
#
# Mechanical properties :
#
#
# Convention : Reuss Voigt Hill
#
# Bulk Modulus (GPa) = 43.15743 48.35355 45.75549
# Shear Modulus (GPa) = 23.18078 27.73589 25.45833
#
# Velocity S-wave (km/s) = 3.32388 3.63582 3.48335
# Velocity P-wave (km/s) = 5.94140 6.37742 6.16326
#
# Compressibility (1/GPa) = 0.02317098
#
# Stress axis : x y z
#
# Youngs Moduli (GPa) = 87.20974 29.76410 66.80828
#
# Poissons Ratio (x) = 0.16941 0.02977
# Poissons Ratio (y) = 0.49639 0.82129
# Poissons Ratio (z) = 0.03886 0.36590
#
# Static dielectric constant tensor:
#      x y z
#    x 1.796690 0.000000 0.000000 
#    y 0.000000 1.827820 0.000000 
#    z 0.000000 0.000000 1.767490 
# 
# From -- ./inp_files/2698.got.cif
#   From: 2010.05.17/outbox.cif.g08.bks.cpg/sg30_2_cif.got.tgz:2698.got - 2010.06.03 17:03:02.
