data_PCOD9342468
_publ_section_title
;
Structure prediction by ZEFSAII (Michael W. Deem and Ramdas Pophale) SiO2 
 PCOD9342468
Probable space group: P N C 2
;
_chemical_formula_sum "Si O2"
_cell_formula_units_Z 26
_cell_length_a 10.799959
_cell_length_b 5.409235
_cell_length_c 17.689644
_cell_angle_alpha 90.000000
_cell_angle_beta 90.000000
_cell_angle_gamma 90.000000
_cell_volume 1033.420445
_symmetry_space_group_name_H-M "P N C 2"
_symmetry_group_IT_number 30
_symmetry_cell_setting 'orthorhombic'
loop_
_space_group_symop_operation_xyz
x,y,z
-x,-y,z
-x,1/2+y,1/2+z
x,1/2-y,1/2+z
loop_
_atom_site_type_symbol
_atom_site_label
_atom_site_fract_x
_atom_site_fract_y
_atom_site_fract_z
Si Si1 0.835504 0.750942 0.907810
Si Si2 0.247987 0.979423 0.775602
Si Si3 0.428527 0.244407 0.181980
Si Si4 0.670389 0.871254 0.527869
Si Si5 0.127885 0.851817 0.627507
Si Si6 0.368937 0.872635 0.385487
Si Si7 0.000000 0.500000 0.520094
O O1 0.769908 0.500482 0.878124
O O2 0.950958 0.785680 0.963563
O O3 0.850958 0.921837 0.835634
O O4 0.721264 0.819662 0.964926
O O5 0.194214 0.813000 0.708084
O O6 0.350372 0.857695 0.830531
O O7 0.306134 0.213680 0.731366
O O8 0.500000 0.500000 0.195067
O O9 0.408552 0.244634 0.092001
O O10 0.500000 0.000000 0.202424
O O11 0.783781 0.981797 0.575775
O O12 0.621983 0.101990 0.477071
O O13 0.100258 0.611913 0.577312
O O14 0.000000 0.000000 0.640163
O O15 0.500000 0.000000 0.363520
#
# Coordination Sequence:
#
# PCOD9342468 Si02
#       7
#     4   4   4   4   4   4   2
#     4  10  25  43  71 105 141 190 265 313 402 467
#     4  11  27  44  70 110 152 198 257 321 403 490
#     4  11  27  45  75 112 158 211 261 323 401 475
#     4   9  22  46  71 107 141 193 267 324 384 492
#     4  11  23  47  69 101 146 193 255 322 410 475
#     4  10  23  45  73 102 151 200 254 320 398 479
#     4  12  24  46  78 102 144 210 252 352 384 494
#
# _framework density 25.159168000000001
#
# number of rings (size 3 to 8) (size 9 to 14) (size 15 to 20)
#    0.923    0.615    1.538    1.385    5.385    6.154 
#    0.000    0.000    0.000    0.000    0.000    0.000 
#    0.000    0.000    0.000    0.000    0.000    0.000 
#
# Total GULP energy -144839.304969 kJ/mol
# GULP energy per Si atom -5570.742499 kJ/mol
# Density = 2.510190 g / cm^3
# Si number density = 25.159168 Si / 1000 Ang^3
#
#
#
# Elastic Constant Matrix: (Units=GPa)
#
#
# Indices 1 2 3 4 5 6 
#
# 1 53.7412 30.9698 47.2872 0.0000 0.0000 0.0000
# 2 30.9698 75.8238 43.7088 0.0000 0.0000 0.0000
# 3 47.2872 43.7088 222.4907 0.0000 0.0000 0.0000
# 4 0.0000 0.0000 0.0000 20.6630 0.0000 0.0000
# 5 0.0000 0.0000 0.0000 0.0000 40.5625 0.0000
# 6 0.0000 0.0000 0.0000 0.0000 0.0000 32.3770
#
#
#
# Elastic Compliance Matrix: (Units=1/GPa)
#
#
# Indices 1 2 3 4 5 6 
#
# 1 0.027248 -0.008786 -0.004065 0.000000 0.000000 0.000000
# 2 -0.008786 0.017706 -0.001611 0.000000 0.000000 0.000000
# 3 -0.004065 -0.001611 0.005675 0.000000 0.000000 0.000000
# 4 0.000000 0.000000 0.000000 0.048396 0.000000 0.000000
# 5 0.000000 0.000000 0.000000 0.000000 0.024653 0.000000
# 6 0.000000 0.000000 0.000000 0.000000 0.000000 0.030886
#
#
# Mechanical properties :
#
#
# Convention : Reuss Voigt Hill
#
# Bulk Modulus (GPa) = 46.07342 66.22080 56.14711
# Shear Modulus (GPa) = 26.21613 34.05982 30.13798
#
# Velocity S-wave (km/s) = 3.23152 3.68336 3.46481
# Velocity P-wave (km/s) = 5.68121 6.66839 6.19450
#
# Compressibility (1/GPa) = 0.02170449
#
# Stress axis : x y z
#
# Youngs Moduli (GPa) = 36.70039 56.47913 176.21034
#
# Poissons Ratio (x) = 0.49622 0.71631
# Poissons Ratio (y) = 0.32244 0.28388
# Poissons Ratio (z) = 0.14919 0.09099
#
# Static dielectric constant tensor:
#      x y z
#    x 2.052480 0.000000 0.000000 
#    y 0.000000 2.024610 0.000000 
#    z 0.000000 0.000000 1.945180 
# 
# From -- ./inp_files/6505.got.cif
#   From: 2010.05.17/outbox.cif.g08.bks.cpg/sg30_4_cif.got.tgz:6505.got - 2010.06.03 17:03:02.
