data_PCOD9342480
_publ_section_title
;
Structure prediction by ZEFSAII (Michael W. Deem and Ramdas Pophale) SiO2 
 PCOD9342480
Probable space group: P N C 2
;
_chemical_formula_sum "Si O2"
_cell_formula_units_Z 20
_cell_length_a 15.574020
_cell_length_b 5.368712
_cell_length_c 8.483106
_cell_angle_alpha 90.000000
_cell_angle_beta 90.000000
_cell_angle_gamma 90.000000
_cell_volume 709.293090
_symmetry_space_group_name_H-M "P N C 2"
_symmetry_group_IT_number 30
_symmetry_cell_setting 'orthorhombic'
loop_
_space_group_symop_operation_xyz
x,y,z
-x,-y,z
-x,1/2+y,1/2+z
x,1/2-y,1/2+z
loop_
_atom_site_type_symbol
_atom_site_label
_atom_site_fract_x
_atom_site_fract_y
_atom_site_fract_z
Si Si1 0.000000 0.000000 0.503280
Si Si2 0.654195 0.863605 0.486726
Si Si3 0.643958 0.246254 0.260053
Si Si4 0.901674 0.291040 0.735315
Si Si5 0.797324 0.509406 0.453542
Si Si6 0.500000 0.000000 0.935800
O O1 0.982428 0.225903 0.622644
O O2 0.922121 0.021838 0.378978
O O3 0.750582 0.760590 0.505546
O O4 0.576384 0.666860 0.512528
O O5 0.653913 0.956706 0.304082
O O6 0.643327 0.105526 0.596585
O O7 0.719413 0.375320 0.361362
O O8 0.551097 0.307898 0.328808
O O9 0.829521 0.385248 0.615639
O O10 0.873154 0.038983 0.827511
#
# Coordination Sequence:
#
# PCOD9342480 Si02
#       6
#     2   4   4   4   4   2
#     4  10  24  48  80 120 166 214 266 340 418 510
#     4  11  26  52  78 119 160 220 273 343 415 497
#     4  11  25  48  76 117 155 214 276 337 408 491
#     4  10  23  52  78 124 167 210 275 340 425 511
#     4  10  24  49  77 115 166 214 270 343 415 496
#     4  10  26  46  80 108 164 208 270 340 424 480
#
# _framework density 28.197089999999999
#
# number of rings (size 3 to 8) (size 9 to 14) (size 15 to 20)
#    0.000    1.600    0.000    1.800    2.800   12.800 
#   28.800    4.000    0.000    1.200    0.000    0.000 
#    0.000    0.000    0.000    0.000    0.000    0.000 
#
# Total GULP energy -111750.748102 kJ/mol
# GULP energy per Si atom -5587.537405 kJ/mol
# Density = 2.813291 g / cm^3
# Si number density = 28.197090 Si / 1000 Ang^3
#
#
#
# Elastic Constant Matrix: (Units=GPa)
#
#
# Indices 1 2 3 4 5 6 
#
# 1 112.8286 47.5716 79.5307 0.0000 0.0000 0.0000
# 2 47.5716 125.2460 72.3557 0.0000 0.0000 0.0000
# 3 79.5307 72.3557 189.0837 0.0000 0.0000 0.0000
# 4 0.0000 0.0000 0.0000 25.6680 0.0000 0.0000
# 5 0.0000 0.0000 0.0000 0.0000 51.6696 0.0000
# 6 0.0000 0.0000 0.0000 0.0000 0.0000 39.6192
#
#
#
# Elastic Compliance Matrix: (Units=1/GPa)
#
#
# Indices 1 2 3 4 5 6 
#
# 1 0.013095 -0.002300 -0.004628 0.000000 0.000000 0.000000
# 2 -0.002300 0.010654 -0.003110 0.000000 0.000000 0.000000
# 3 -0.004628 -0.003110 0.008425 0.000000 0.000000 0.000000
# 4 0.000000 0.000000 0.000000 0.038959 0.000000 0.000000
# 5 0.000000 0.000000 0.000000 0.000000 0.019354 0.000000
# 6 0.000000 0.000000 0.000000 0.000000 0.000000 0.025240
#
#
# Mechanical properties :
#
#
# Convention : Reuss Voigt Hill
#
# Bulk Modulus (GPa) = 82.64927 91.78602 87.21765
# Shear Modulus (GPa) = 35.75640 38.57138 37.16389
#
# Velocity S-wave (km/s) = 3.56489 3.70255 3.63437
# Velocity P-wave (km/s) = 6.80584 7.13448 6.97210
#
# Compressibility (1/GPa) = 0.01209932
#
# Stress axis : x y z
#
# Youngs Moduli (GPa) = 76.36647 93.85782 118.69493
#
# Poissons Ratio (x) = 0.21591 0.54927
# Poissons Ratio (y) = 0.17567 0.36908
# Poissons Ratio (z) = 0.35339 0.29185
#
# Static dielectric constant tensor:
#      x y z
#    x 2.172500 0.000000 0.000000 
#    y 0.000000 2.266590 0.000000 
#    z 0.000000 0.000000 2.208510 
# 
# From -- ./inp_files/2746.got.cif
#   From: 2010.05.17/outbox.cif.g08.bks.cpg/sg30_2_cif.got.tgz:2746.got - 2010.06.03 17:03:02.
