data_PCOD9342643
_publ_section_title
;
Structure prediction by ZEFSAII (Michael W. Deem and Ramdas Pophale) SiO2 
 PCOD9342643
Probable space group: P N C 2
;
_chemical_formula_sum "Si O2"
_cell_formula_units_Z 18
_cell_length_a 7.926953
_cell_length_b 18.913325
_cell_length_c 5.075570
_cell_angle_alpha 90.000000
_cell_angle_beta 90.000000
_cell_angle_gamma 90.000000
_cell_volume 760.955027
_symmetry_space_group_name_H-M "P N C 2"
_symmetry_group_IT_number 30
_symmetry_cell_setting 'orthorhombic'
loop_
_space_group_symop_operation_xyz
x,y,z
-x,-y,z
-x,1/2+y,1/2+z
x,1/2-y,1/2+z
loop_
_atom_site_type_symbol
_atom_site_label
_atom_site_fract_x
_atom_site_fract_y
_atom_site_fract_z
Si Si1 0.500000 0.000000 0.939190
Si Si2 0.205462 0.973740 0.677751
Si Si3 0.922908 0.392073 0.675969
Si Si4 0.594515 0.203881 0.194568
Si Si5 0.706764 0.596553 0.819570
O O1 0.393432 0.947854 0.755537
O O2 0.753695 0.944541 0.592413
O O3 0.126208 0.941896 0.418426
O O4 0.097586 0.938573 0.911840
O O5 0.360992 0.034779 0.125359
O O6 0.780664 0.331632 0.697511
O O7 0.117599 0.370979 0.714621
O O8 0.577789 0.268589 0.397443
O O9 0.447473 0.150822 0.291588
#
# Coordination Sequence:
#
# PCOD9342643 Si02
#       5
#     2   4   4   4   4
#     4  12  24  44  74 114 154 192 230 312 390 468
#     4  12  25  45  74 116 156 187 235 313 393 464
#     4  12  28  47  75 113 152 196 248 313 385 457
#     4  12  29  52  75 102 151 207 267 317 362 435
#     4  12  28  46  79 113 152 199 250 305 391 459
#
# _framework density 23.654484
#
# number of rings (size 3 to 8) (size 9 to 14) (size 15 to 20)
#    0.000    0.000    4.444    4.000    9.333    1.778 
#    0.000    0.000    0.000    0.000    0.000    0.000 
#    0.000    0.000    0.000    0.000    0.000    0.000 
#
# Total GULP energy -100487.755205 kJ/mol
# GULP energy per Si atom -5582.653067 kJ/mol
# Density = 2.360065 g / cm^3
# Si number density = 23.654484 Si / 1000 Ang^3
#
#
#
# Elastic Constant Matrix: (Units=GPa)
#
#
# Indices 1 2 3 4 5 6 
#
# 1 175.7463 27.1327 19.3380 0.0000 0.0000 0.0000
# 2 27.1327 62.7101 15.0088 0.0000 0.0000 0.0000
# 3 19.3380 15.0088 143.1001 0.0000 0.0000 0.0000
# 4 0.0000 0.0000 0.0000 2.7760 0.0000 0.0000
# 5 0.0000 0.0000 0.0000 0.0000 7.4845 0.0000
# 6 0.0000 0.0000 0.0000 0.0000 0.0000 39.0198
#
#
#
# Elastic Compliance Matrix: (Units=1/GPa)
#
#
# Indices 1 2 3 4 5 6 
#
# 1 0.006142 -0.002522 -0.000565 0.000000 0.000000 0.000000
# 2 -0.002522 0.017393 -0.001483 0.000000 0.000000 0.000000
# 3 -0.000565 -0.001483 0.007220 0.000000 0.000000 0.000000
# 4 0.000000 0.000000 0.000000 0.360229 0.000000 0.000000
# 5 0.000000 0.000000 0.000000 0.000000 0.133610 0.000000
# 6 0.000000 0.000000 0.000000 0.000000 0.000000 0.025628
#
#
# Mechanical properties :
#
#
# Convention : Reuss Voigt Hill
#
# Bulk Modulus (GPa) = 46.26898 56.05727 51.16313
# Shear Modulus (GPa) = 8.82508 31.19453 20.00980
#
# Velocity S-wave (km/s) = 1.93363 3.63541 2.91163
# Velocity P-wave (km/s) = 4.95863 6.43206 5.74280
#
# Compressibility (1/GPa) = 0.02161275
#
# Stress axis : x y z
#
# Youngs Moduli (GPa) = 162.82432 57.49572 138.50206
#
# Poissons Ratio (x) = 0.14500 0.07831
# Poissons Ratio (y) = 0.41063 0.20545
# Poissons Ratio (z) = 0.09207 0.08529
#
# Static dielectric constant tensor:
#      x y z
#    x 2.148680 0.000000 0.000000 
#    y 0.000000 1.965750 0.000000 
#    z 0.000000 0.000000 1.941300 
# 
# From -- ./inp_files/383.got.cif
#   From: 2010.05.17/outbox.cif.g08.bks.cpg/sg30_1_cif.got.tgz:383.got - 2010.06.03 17:03:02.
