data_PCOD9342506
_publ_section_title
;
Structure prediction by ZEFSAII (Michael W. Deem and Ramdas Pophale) SiO2 
 PCOD9342506
Probable space group: P N C 2
;
_chemical_formula_sum "Si O2"
_cell_formula_units_Z 30
_cell_length_a 7.551330
_cell_length_b 28.914026
_cell_length_c 5.278090
_cell_angle_alpha 90.000000
_cell_angle_beta 90.000000
_cell_angle_gamma 90.000000
_cell_volume 1152.414750
_symmetry_space_group_name_H-M "P N C 2"
_symmetry_group_IT_number 30
_symmetry_cell_setting 'orthorhombic'
loop_
_space_group_symop_operation_xyz
x,y,z
-x,-y,z
-x,1/2+y,1/2+z
x,1/2-y,1/2+z
loop_
_atom_site_type_symbol
_atom_site_label
_atom_site_fract_x
_atom_site_fract_y
_atom_site_fract_z
Si Si1 0.217122 0.860599 0.134160
Si Si2 0.252846 0.774065 0.457503
Si Si3 0.819526 0.864012 0.157780
Si Si4 0.487091 0.399588 0.343000
Si Si5 0.000000 0.500000 0.335098
Si Si6 0.177314 0.275916 0.971599
Si Si7 0.747884 0.549860 0.973675
Si Si8 0.300441 0.958101 0.191782
O O1 0.296742 0.821537 0.314277
O O2 0.014719 0.849959 0.064333
O O3 0.230139 0.908746 0.287606
O O4 0.332559 0.871507 0.885003
O O5 0.311165 0.763489 0.743904
O O6 0.037772 0.773980 0.475348
O O7 0.773038 0.827115 0.376607
O O8 0.826030 0.916030 0.264473
O O9 0.668797 0.867389 0.948870
O O10 0.417545 0.422473 0.089820
O O11 0.525021 0.443268 0.534119
O O12 0.903294 0.539517 0.172595
O O13 0.846886 0.476598 0.497785
O O14 0.237540 0.241533 0.745574
O O15 0.691856 0.498835 0.890598
#
# Coordination Sequence:
#
# PCOD9342506 Si02
#       8
#     4   4   4   4   2   4   4   4
#     4   9  21  47  66 102 144 185 240 303 365 443
#     4   9  18  39  69 104 141 184 239 303 368 440
#     4  11  23  44  73 100 149 189 248 311 370 446
#     4  10  26  45  69 103 143 184 245 302 362 446
#     4  12  24  42  72 104 136 194 252 298 366 448
#     4   9  20  39  69 105 142 192 248 303 375 454
#     4  12  25  44  74 103 141 201 244 306 380 441
#     4  10  24  46  65 104 147 181 248 300 358 449
#
# _framework density 26.032294
#
# number of rings (size 3 to 8) (size 9 to 14) (size 15 to 20)
#    0.800    1.067    0.000    3.600    1.867    4.267 
#   14.400    1.333    0.000    0.000    0.000    0.000 
#    0.000    0.000    0.000    0.000    0.000    0.000 
#
# Total GULP energy -167913.331244 kJ/mol
# GULP energy per Si atom -5597.111041 kJ/mol
# Density = 2.597304 g / cm^3
# Si number density = 26.032294 Si / 1000 Ang^3
#
#
#
# Elastic Constant Matrix: (Units=GPa)
#
#
# Indices 1 2 3 4 5 6 
#
# 1 113.6170 3.2137 17.1458 0.0000 0.0000 0.0000
# 2 3.2137 111.0022 0.6937 0.0000 0.0000 0.0000
# 3 17.1458 0.6937 72.2737 0.0000 0.0000 0.0000
# 4 0.0000 0.0000 0.0000 42.3684 0.0000 0.0000
# 5 0.0000 0.0000 0.0000 0.0000 22.7183 0.0000
# 6 0.0000 0.0000 0.0000 0.0000 0.0000 10.2620
#
#
#
# Elastic Compliance Matrix: (Units=1/GPa)
#
#
# Indices 1 2 3 4 5 6 
#
# 1 0.009135 -0.000251 -0.002165 0.000000 0.000000 0.000000
# 2 -0.000251 0.009016 -0.000027 0.000000 0.000000 0.000000
# 3 -0.002165 -0.000027 0.014350 0.000000 0.000000 0.000000
# 4 0.000000 0.000000 0.000000 0.023603 0.000000 0.000000
# 5 0.000000 0.000000 0.000000 0.000000 0.044017 0.000000
# 6 0.000000 0.000000 0.000000 0.000000 0.000000 0.097447
#
#
# Mechanical properties :
#
#
# Convention : Reuss Voigt Hill
#
# Bulk Modulus (GPa) = 36.21069 37.66660 36.93864
# Shear Modulus (GPa) = 23.62292 33.45907 28.54099
#
# Velocity S-wave (km/s) = 3.01565 3.58898 3.31474
# Velocity P-wave (km/s) = 5.10545 5.62806 5.37311
#
# Compressibility (1/GPa) = 0.02761615
#
# Stress axis : x y z
#
# Youngs Moduli (GPa) = 109.46566 110.91069 69.68587
#
# Poissons Ratio (x) = 0.02783 0.15086
# Poissons Ratio (y) = 0.02747 0.00188
# Poissons Ratio (z) = 0.23697 0.00300
#
# Static dielectric constant tensor:
#      x y z
#    x 2.057100 0.000000 0.000000 
#    y 0.000000 2.039690 0.000000 
#    z 0.000000 0.000000 2.056620 
# 
# From -- ./inp_files/571.got.cif
#   From: 2010.05.17/outbox.cif.g08.bks.cpg/sg30_1_cif.got.tgz:571.got - 2010.06.03 17:03:02.
