data_PCOD9342051
_publ_section_title
;
Structure prediction by ZEFSAII (Michael W. Deem and Ramdas Pophale) SiO2 
 PCOD9342051
Probable space group: P N C 2
;
_chemical_formula_sum "Si O2"
_cell_formula_units_Z 26
_cell_length_a 8.737536
_cell_length_b 23.491292
_cell_length_c 5.041642
_cell_angle_alpha 90.000000
_cell_angle_beta 90.000000
_cell_angle_gamma 90.000000
_cell_volume 1034.827318
_symmetry_space_group_name_H-M "P N C 2"
_symmetry_group_IT_number 30
_symmetry_cell_setting 'orthorhombic'
loop_
_space_group_symop_operation_xyz
x,y,z
-x,-y,z
-x,1/2+y,1/2+z
x,1/2-y,1/2+z
loop_
_atom_site_type_symbol
_atom_site_label
_atom_site_fract_x
_atom_site_fract_y
_atom_site_fract_z
Si Si1 0.897761 0.714084 0.836000
Si Si2 0.089587 0.087235 0.425450
Si Si3 0.469638 0.880306 0.224345
Si Si4 0.654993 0.607200 0.277410
Si Si5 0.261659 0.780737 0.439086
Si Si6 0.500000 0.500000 0.286048
Si Si7 0.762461 0.466162 0.871148
O O1 0.842081 0.756940 0.608294
O O2 0.872289 0.647087 0.783014
O O3 0.081009 0.713324 0.883744
O O4 0.167340 0.100008 0.712979
O O5 0.910334 0.072248 0.441873
O O6 0.167180 0.028985 0.317992
O O7 0.578179 0.891666 0.483892
O O8 0.355493 0.832546 0.329677
O O9 0.343680 0.931207 0.167221
O O10 0.570923 0.852804 0.985887
O O11 0.592080 0.550299 0.424530
O O12 0.297669 0.772074 0.746005
O O13 0.637905 0.475712 0.102524
#
# Coordination Sequence:
#
# PCOD9342051 Si02
#       7
#     4   4   4   4   4   2   4
#     4  10  22  41  66  93 134 178 225 286 348 418
#     4  10  20  42  65 107 131 185 228 294 345 431
#     4  11  21  42  61  97 123 182 214 286 340 413
#     4  10  23  37  65  88 139 165 224 269 349 407
#     4  10  20  37  63  91 123 169 229 281 332 413
#     4   8  18  38  58  98 126 182 208 272 340 408
#     4   9  19  38  72  95 142 172 234 284 348 418
#
# _framework density 25.124966000000001
#
# number of rings (size 3 to 8) (size 9 to 14) (size 15 to 20)
#    0.000    2.154    1.538    0.923    0.000    4.923 
#    0.000   10.769    0.000   18.462    0.000    0.000 
#    0.000    0.000    0.000    0.000    0.000    0.000 
#
# Total GULP energy -144809.054544 kJ/mol
# GULP energy per Si atom -5569.579021 kJ/mol
# Density = 2.506778 g / cm^3
# Si number density = 25.124966 Si / 1000 Ang^3
#
#
#
# Elastic Constant Matrix: (Units=GPa)
#
#
# Indices 1 2 3 4 5 6 
#
# 1 127.7576 15.1498 75.8733 0.0000 0.0000 0.0000
# 2 15.1498 87.8326 4.0283 0.0000 0.0000 0.0000
# 3 75.8733 4.0283 76.9695 0.0000 0.0000 0.0000
# 4 0.0000 0.0000 0.0000 -34.6452 0.0000 0.0000
# 5 0.0000 0.0000 0.0000 0.0000 43.6771 0.0000
# 6 0.0000 0.0000 0.0000 0.0000 0.0000 20.1409
#
#
#
# Elastic Compliance Matrix: (Units=1/GPa)
#
#
# Indices 1 2 3 4 5 6 
#
# 1 0.019403 -0.002475 -0.018997 0.000000 0.000000 0.000000
# 2 -0.002475 0.011729 0.001826 0.000000 0.000000 0.000000
# 3 -0.018997 0.001826 0.031623 0.000000 0.000000 0.000000
# 4 0.000000 0.000000 0.000000 -0.028864 0.000000 0.000000
# 5 0.000000 0.000000 0.000000 0.000000 0.022895 0.000000
# 6 0.000000 0.000000 0.000000 0.000000 0.000000 0.049650
#
#
# Mechanical properties :
#
#
# Convention : Reuss Voigt Hill
#
# Bulk Modulus (GPa) = 42.62165 53.62919 48.12542
# Shear Modulus (GPa) = 32.56293 19.00178 25.78236
#
# Velocity S-wave (km/s) = 3.60396 2.75306 3.20686
# Velocity P-wave (km/s) = 5.85822 5.61223 5.73654
#
# Compressibility (1/GPa) = 0.02346226
#
# Stress axis : x y z
#
# Youngs Moduli (GPa) = 51.53866 85.26235 31.62250
#
# Poissons Ratio (x) = 0.21106 0.60073
# Poissons Ratio (y) = 0.12758 -0.05775
# Poissons Ratio (z) = 0.97908 -0.15572
#
# Static dielectric constant tensor:
#      x y z
#    x 1.740720 0.000000 0.000000 
#    y 0.000000 2.446210 0.000000 
#    z 0.000000 0.000000 2.249700 
# 
# From -- ./inp_files/456.got.cif
#   From: 2010.05.17/outbox.cif.g08.bks.cpg/sg30_1_cif.got.tgz:456.got - 2010.06.03 17:03:02.
