data_PCOD9342181
_publ_section_title
;
Structure prediction by ZEFSAII (Michael W. Deem and Ramdas Pophale) SiO2 
 PCOD9342181
Probable space group: P N C 2
;
_chemical_formula_sum "Si O2"
_cell_formula_units_Z 26
_cell_length_a 6.677857
_cell_length_b 14.854200
_cell_length_c 13.619471
_cell_angle_alpha 90.000000
_cell_angle_beta 90.000000
_cell_angle_gamma 90.000000
_cell_volume 1350.972850
_symmetry_space_group_name_H-M "P N C 2"
_symmetry_group_IT_number 30
_symmetry_cell_setting 'orthorhombic'
loop_
_space_group_symop_operation_xyz
x,y,z
-x,-y,z
-x,1/2+y,1/2+z
x,1/2-y,1/2+z
loop_
_atom_site_type_symbol
_atom_site_label
_atom_site_fract_x
_atom_site_fract_y
_atom_site_fract_z
Si Si1 0.027771 0.602404 0.800500
Si Si2 0.338940 0.233511 0.308395
Si Si3 0.524594 0.786985 0.593175
Si Si4 0.500000 0.000000 0.038766
Si Si5 0.798512 0.848690 0.976534
Si Si6 0.196063 0.644446 0.599774
Si Si7 0.596927 0.402919 0.928016
O O1 0.815322 0.650414 0.804738
O O2 0.000000 0.500000 0.766703
O O3 0.129794 0.654945 0.711215
O O4 0.168189 0.596970 0.897248
O O5 0.422689 0.275753 0.207876
O O6 0.215873 0.309217 0.367775
O O7 0.515617 0.184684 0.368712
O O8 0.705803 0.732654 0.541577
O O9 0.323972 0.730558 0.570095
O O10 0.478287 0.880908 0.538945
O O11 0.354272 0.067771 0.981552
O O12 0.648814 0.062025 0.099980
O O13 0.011733 0.871071 0.025410
O O14 0.500000 0.500000 0.899290
#
# Coordination Sequence:
#
# PCOD9342181 Si02
#       7
#     4   4   4   2   4   4   4
#     4  12  22  33  61  94 121 157 206 265 321 370
#     4  11  22  40  61  87 121 161 207 251 315 378
#     4  10  22  39  59  88 121 163 203 252 313 383
#     4  10  22  36  58  88 116 152 206 248 308 364
#     4  10  21  38  59  85 121 156 200 254 307 370
#     4  11  21  36  61  90 123 156 202 262 317 365
#     4  11  23  40  61  90 124 163 208 261 316 380
#
# _framework density 19.24539
#
# number of rings (size 3 to 8) (size 9 to 14) (size 15 to 20)
#    0.000    1.231    4.615    2.308    3.231    0.000 
#    1.385    0.000    0.000    0.000    0.000    0.000 
#    0.000    0.000    0.000    0.000    0.000    0.000 
#
# Total GULP energy -144797.033245 kJ/mol
# GULP energy per Si atom -5569.116663 kJ/mol
# Density = 1.920159 g / cm^3
# Si number density = 19.245390 Si / 1000 Ang^3
#
#
#
# Elastic Constant Matrix: (Units=GPa)
#
#
# Indices 1 2 3 4 5 6 
#
# 1 91.7669 8.5447 23.5819 0.0000 0.0000 0.0000
# 2 8.5447 26.9892 12.2580 0.0000 0.0000 0.0000
# 3 23.5819 12.2580 89.8106 0.0000 0.0000 0.0000
# 4 0.0000 0.0000 0.0000 9.1010 0.0000 0.0000
# 5 0.0000 0.0000 0.0000 0.0000 18.8383 0.0000
# 6 0.0000 0.0000 0.0000 0.0000 0.0000 14.8501
#
#
#
# Elastic Compliance Matrix: (Units=1/GPa)
#
#
# Indices 1 2 3 4 5 6 
#
# 1 0.011841 -0.002491 -0.002769 0.000000 0.000000 0.000000
# 2 -0.002491 0.040025 -0.004809 0.000000 0.000000 0.000000
# 3 -0.002769 -0.004809 0.012518 0.000000 0.000000 0.000000
# 4 0.000000 0.000000 0.000000 0.109878 0.000000 0.000000
# 5 0.000000 0.000000 0.000000 0.000000 0.053083 0.000000
# 6 0.000000 0.000000 0.000000 0.000000 0.000000 0.067339
#
#
# Mechanical properties :
#
#
# Convention : Reuss Voigt Hill
#
# Bulk Modulus (GPa) = 22.60122 33.03734 27.81928
# Shear Modulus (GPa) = 15.17127 19.50336 17.33732
#
# Velocity S-wave (km/s) = 2.81073 3.18685 3.00468
# Velocity P-wave (km/s) = 4.72258 5.54482 5.15014
#
# Compressibility (1/GPa) = 0.04424540
#
# Stress axis : x y z
#
# Youngs Moduli (GPa) = 84.45440 24.98468 79.88523
#
# Poissons Ratio (x) = 0.06224 0.22121
# Poissons Ratio (y) = 0.21038 0.38415
# Poissons Ratio (z) = 0.23386 0.12015
#
# Static dielectric constant tensor:
#      x y z
#    x 1.823430 0.000000 0.000000 
#    y 0.000000 1.696550 0.000000 
#    z 0.000000 0.000000 1.728870 
# 
# From -- ./inp_files/4703.got.cif
#   From: 2010.05.17/outbox.cif.g08.bks.cpg/sg30_3_cif.got.tgz:4703.got - 2010.06.03 17:03:02.
