data_PCOD9342260
_publ_section_title
;
Structure prediction by ZEFSAII (Michael W. Deem and Ramdas Pophale) SiO2 
 PCOD9342260
Probable space group: P N C 2
;
_chemical_formula_sum "Si O2"
_cell_formula_units_Z 20
_cell_length_a 5.272683
_cell_length_b 15.150318
_cell_length_c 11.183459
_cell_angle_alpha 90.000000
_cell_angle_beta 90.000000
_cell_angle_gamma 90.000000
_cell_volume 893.366289
_symmetry_space_group_name_H-M "P N C 2"
_symmetry_group_IT_number 30
_symmetry_cell_setting 'orthorhombic'
loop_
_space_group_symop_operation_xyz
x,y,z
-x,-y,z
-x,1/2+y,1/2+z
x,1/2-y,1/2+z
loop_
_atom_site_type_symbol
_atom_site_label
_atom_site_fract_x
_atom_site_fract_y
_atom_site_fract_z
Si Si1 0.000000 0.000000 0.713670
Si Si2 0.694161 0.574201 0.427678
Si Si3 0.520662 0.730290 0.946778
Si Si4 0.986334 0.351327 0.025810
Si Si5 0.000000 0.500000 0.615573
Si Si6 0.303464 0.066189 0.332715
O O1 0.213030 0.037991 0.801008
O O2 0.921052 0.081402 0.630566
O O3 0.500000 0.500000 0.475340
O O4 0.568669 0.668931 0.416544
O O5 0.935597 0.576630 0.518449
O O6 0.560144 0.662358 0.834778
O O7 0.744628 0.699176 0.038062
O O8 0.245713 0.712372 0.999761
O O9 0.053006 0.409086 0.907894
O O10 0.224035 0.480383 0.710411
O O11 0.500000 0.000000 0.397345
#
# Coordination Sequence:
#
# PCOD9342260 Si02
#       6
#     2   4   4   4   2   4
#     4  11  25  46  74 108 143 201 238 312 374 439
#     4  11  28  46  67  99 156 198 244 293 377 449
#     4  10  25  45  70 111 144 191 243 306 365 439
#     4  10  24  44  76 108 145 180 252 298 370 429
#     4  11  23  44  66 102 133 199 238 298 364 437
#     4  10  21  42  77 107 141 182 250 306 364 429
#
# _framework density 22.387233999999999
#
# number of rings (size 3 to 8) (size 9 to 14) (size 15 to 20)
#    1.200    0.400    0.000    3.600    8.400    1.600 
#    0.000    0.000    0.000    0.000    0.000    0.000 
#    0.000    0.000    0.000    0.000    0.000    0.000 
#
# Total GULP energy -111349.635690 kJ/mol
# GULP energy per Si atom -5567.481785 kJ/mol
# Density = 2.233628 g / cm^3
# Si number density = 22.387234 Si / 1000 Ang^3
#
#
#
# Elastic Constant Matrix: (Units=GPa)
#
#
# Indices 1 2 3 4 5 6 
#
# 1 131.5576 63.6581 41.3488 0.0000 0.0000 0.0000
# 2 63.6581 168.0174 34.6122 0.0000 0.0000 0.0000
# 3 41.3488 34.6122 97.3487 0.0000 0.0000 0.0000
# 4 0.0000 0.0000 0.0000 9.0420 0.0000 0.0000
# 5 0.0000 0.0000 0.0000 0.0000 16.8120 0.0000
# 6 0.0000 0.0000 0.0000 0.0000 0.0000 42.7880
#
#
#
# Elastic Compliance Matrix: (Units=1/GPa)
#
#
# Indices 1 2 3 4 5 6 
#
# 1 0.010142 -0.003189 -0.003174 0.000000 0.000000 0.000000
# 2 -0.003189 0.007425 -0.001285 0.000000 0.000000 0.000000
# 3 -0.003174 -0.001285 0.012078 0.000000 0.000000 0.000000
# 4 0.000000 0.000000 0.000000 0.110595 0.000000 0.000000
# 5 0.000000 0.000000 0.000000 0.000000 0.059481 0.000000
# 6 0.000000 0.000000 0.000000 0.000000 0.000000 0.023371
#
#
# Mechanical properties :
#
#
# Convention : Reuss Voigt Hill
#
# Bulk Modulus (GPa) = 69.69711 75.12911 72.41311
# Shear Modulus (GPa) = 20.56178 30.88206 25.72192
#
# Velocity S-wave (km/s) = 3.03390 3.71812 3.39330
# Velocity P-wave (km/s) = 6.59339 7.21556 6.91148
#
# Compressibility (1/GPa) = 0.01434780
#
# Stress axis : x y z
#
# Youngs Moduli (GPa) = 98.60244 134.68599 82.79833
#
# Poissons Ratio (x) = 0.42946 0.26280
# Poissons Ratio (y) = 0.31441 0.10643
# Poissons Ratio (z) = 0.31296 0.17313
#
# Static dielectric constant tensor:
#      x y z
#    x 1.941790 0.000000 0.000000 
#    y 0.000000 1.814910 0.000000 
#    z 0.000000 0.000000 1.850890 
# 
# From -- ./inp_files/3069.got.cif
#   From: 2010.05.17/outbox.cif.g08.bks.cpg/sg30_2_cif.got.tgz:3069.got - 2010.06.03 17:03:02.
