data_PCOD9342734
_publ_section_title
;
Structure prediction by ZEFSAII (Michael W. Deem and Ramdas Pophale) SiO2 
 PCOD9342734
Probable space group: P M N 21
;
_chemical_formula_sum "Si O2"
_cell_formula_units_Z 24
_cell_length_a 8.002995
_cell_length_b 7.925731
_cell_length_c 14.447765
_cell_angle_alpha 90.000000
_cell_angle_beta 90.000000
_cell_angle_gamma 90.000000
_cell_volume 916.415746
_symmetry_space_group_name_H-M "P M N 21"
_symmetry_group_IT_number 31
_symmetry_cell_setting 'orthorhombic'
loop_
_space_group_symop_operation_xyz
x,y,z
1/2-x,-y,1/2+z
-x,y,z
1/2+x,-y,1/2+z
loop_
_atom_site_type_symbol
_atom_site_label
_atom_site_fract_x
_atom_site_fract_y
_atom_site_fract_z
Si Si1 0.697699 0.302216 0.149600
Si Si2 0.692632 0.374361 0.535022
Si Si3 0.697518 0.895140 0.482081
Si Si4 0.706914 0.204436 0.707837
Si Si5 0.800114 0.123084 0.325179
Si Si6 0.190383 0.575002 0.365700
O O1 0.500000 0.326162 0.139232
O O2 0.791264 0.456007 0.098576
O O3 0.740946 0.273124 0.257447
O O4 0.753884 0.139261 0.088334
O O5 0.500000 0.333824 0.521822
O O6 0.768618 0.236365 0.604226
O O7 0.758521 0.427189 0.435054
O O8 0.500000 0.865114 0.474071
O O9 0.736110 0.067765 0.426782
O O10 0.794777 0.745510 0.428274
O O11 0.500000 0.204528 0.705596
O O12 0.755588 0.038259 0.762877
O O13 0.772489 0.359445 0.771435
O O14 0.000000 0.128785 0.330034
O O15 0.000000 0.541632 0.342483
#
# Coordination Sequence:
#
# PCOD9342734 Si02
#       6
#     4   4   4   4   4   4
#     4  11  21  34  51  76 104 135 171 208 247 298
#     4  10  18  32  52  75  99 130 166 205 249 297
#     4  10  18  31  51  75  99 131 169 207 249 302
#     4   8  17  32  52  73  98 129 164 202 250 301
#     4  10  19  35  55  76 101 133 168 211 256 299
#     4   9  16  30  49  71  97 130 166 203 243 295
#
# _framework density 26.188986
#
# number of rings (size 3 to 8) (size 9 to 14) (size 15 to 20)
#    0.000    2.333    0.000    7.500    0.000    0.000 
#    0.000   11.667    0.000    4.000    0.000    0.000 
#    0.000    0.000    0.000    0.000    0.000    0.000 
#
# Total GULP energy -134184.067014 kJ/mol
# GULP energy per Si atom -5591.002792 kJ/mol
# Density = 2.612938 g / cm^3
# Si number density = 26.188986 Si / 1000 Ang^3
#
#
#
# Elastic Constant Matrix: (Units=GPa)
#
#
# Indices 1 2 3 4 5 6 
#
# 1 70.9612 -13.3801 -9.6912 0.0000 0.0000 0.0000
# 2 -13.3801 91.4574 1.4536 0.0000 0.0000 0.0000
# 3 -9.6912 1.4536 192.0174 0.0000 0.0000 0.0000
# 4 0.0000 0.0000 0.0000 54.8588 0.0000 0.0000
# 5 0.0000 0.0000 0.0000 0.0000 26.7684 0.0000
# 6 0.0000 0.0000 0.0000 0.0000 0.0000 82.6777
#
#
#
# Elastic Compliance Matrix: (Units=1/GPa)
#
#
# Indices 1 2 3 4 5 6 
#
# 1 0.014591 0.002123 0.000720 0.000000 0.000000 0.000000
# 2 0.002123 0.011244 0.000022 0.000000 0.000000 0.000000
# 3 0.000720 0.000022 0.005244 0.000000 0.000000 0.000000
# 4 0.000000 0.000000 0.000000 0.018229 0.000000 0.000000
# 5 0.000000 0.000000 0.000000 0.000000 0.037358 0.000000
# 6 0.000000 0.000000 0.000000 0.000000 0.000000 0.012095
#
#
# Mechanical properties :
#
#
# Convention : Reuss Voigt Hill
#
# Bulk Modulus (GPa) = 27.16621 34.57783 30.87202
# Shear Modulus (GPa) = 47.48355 57.93122 52.70739
#
# Velocity S-wave (km/s) = 4.26268 4.70834 4.49104
# Velocity P-wave (km/s) = 5.88413 6.54139 6.22145
#
# Compressibility (1/GPa) = 0.03681043
#
# Stress axis : x y z
#
# Youngs Moduli (GPa) = 68.53573 88.93374 190.69234
#
# Poissons Ratio (x) = -0.18882 -0.13736
# Poissons Ratio (y) = -0.14551 -0.00420
# Poissons Ratio (z) = -0.04937 -0.00196
#
# Static dielectric constant tensor:
#      x y z
#    x 1.922460 0.000000 0.000000 
#    y 0.000000 2.227090 0.000000 
#    z 0.000000 0.000000 2.098500 
# 
# From -- ./inp_files/3468.got.cif
#   From: 2010.05.17/outbox.cif.g08.bks.cpg/sg31_2_cif.got.tgz:3468.got - 2010.06.03 17:08:30.
