data_PCOD9342586
_publ_section_title
;
Structure prediction by ZEFSAII (Michael W. Deem and Ramdas Pophale) SiO2 
 PCOD9342586
Probable space group: P N C 2
;
_chemical_formula_sum "Si O2"
_cell_formula_units_Z 30
_cell_length_a 13.105145
_cell_length_b 5.056334
_cell_length_c 21.989428
_cell_angle_alpha 90.000000
_cell_angle_beta 90.000000
_cell_angle_gamma 90.000000
_cell_volume 1457.107242
_symmetry_space_group_name_H-M "P N C 2"
_symmetry_group_IT_number 30
_symmetry_cell_setting 'orthorhombic'
loop_
_space_group_symop_operation_xyz
x,y,z
-x,-y,z
-x,1/2+y,1/2+z
x,1/2-y,1/2+z
loop_
_atom_site_type_symbol
_atom_site_label
_atom_site_fract_x
_atom_site_fract_y
_atom_site_fract_z
Si Si1 0.714886 0.639096 0.919210
Si Si2 0.067313 0.240238 0.873389
Si Si3 0.761358 0.401379 0.706945
Si Si4 0.602732 0.618912 0.800272
Si Si5 0.888601 0.899363 0.736515
Si Si6 0.500000 0.500000 0.202884
Si Si7 0.613048 0.384413 0.471969
Si Si8 0.605029 0.160993 0.112323
O O1 0.836084 0.653455 0.911157
O O2 0.666039 0.739442 0.855392
O O3 0.663719 0.353311 0.933055
O O4 0.681978 0.854340 0.968495
O O5 0.107766 0.117310 0.809964
O O6 0.000000 0.500000 0.859520
O O7 0.000000 0.000000 0.901445
O O8 0.680218 0.434365 0.762535
O O9 0.851752 0.611741 0.716092
O O10 0.703650 0.464631 0.643807
O O11 0.807996 0.111916 0.712787
O O12 0.500000 0.500000 0.829099
O O13 0.554536 0.799377 0.748155
O O14 0.000000 0.000000 0.716987
O O15 0.586737 0.405438 0.156859
O O16 0.500000 0.500000 0.455395
O O17 0.610924 0.282614 0.541361
O O18 0.500000 0.000000 0.121191
#
# Coordination Sequence:
#
# PCOD9342586 Si02
#       8
#     4   4   4   4   4   2   4   4
#     4  12  27  43  69  98 138 174 221 279 343 398
#     4  11  23  42  68  97 130 173 221 279 341 413
#     4  12  22  40  65  98 129 176 212 275 328 391
#     4  12  25  36  62 101 140 170 208 265 340 400
#     4  11  24  39  64  97 136 167 216 273 341 404
#     4  12  22  42  60  98 140 178 216 272 308 398
#     4  11  27  46  66  96 134 189 224 272 317 402
#     4  11  25  41  68  93 136 182 236 261 315 394
#
# _framework density 20.588739
#
# number of rings (size 3 to 8) (size 9 to 14) (size 15 to 20)
#    0.000    0.533    4.000    4.800    8.400    0.000 
#    0.000    0.000    0.000    8.000    0.000    0.000 
#    0.000    0.000    0.000    0.000    0.000    0.000 
#
# Total GULP energy -167483.412527 kJ/mol
# GULP energy per Si atom -5582.780418 kJ/mol
# Density = 2.054188 g / cm^3
# Si number density = 20.588739 Si / 1000 Ang^3
#
#
#
# Elastic Constant Matrix: (Units=GPa)
#
#
# Indices 1 2 3 4 5 6 
#
# 1 123.3430 27.6018 31.6751 0.0000 0.0000 0.0000
# 2 27.6018 83.5913 12.9707 0.0000 0.0000 0.0000
# 3 31.6751 12.9707 54.0337 0.0000 0.0000 0.0000
# 4 0.0000 0.0000 0.0000 2.5480 0.0000 0.0000
# 5 0.0000 0.0000 0.0000 0.0000 18.0003 0.0000
# 6 0.0000 0.0000 0.0000 0.0000 0.0000 42.9335
#
#
#
# Elastic Compliance Matrix: (Units=1/GPa)
#
#
# Indices 1 2 3 4 5 6 
#
# 1 0.010020 -0.002490 -0.005276 0.000000 0.000000 0.000000
# 2 -0.002490 0.013044 -0.001672 0.000000 0.000000 0.000000
# 3 -0.005276 -0.001672 0.022001 0.000000 0.000000 0.000000
# 4 0.000000 0.000000 0.000000 0.392468 0.000000 0.000000
# 5 0.000000 0.000000 0.000000 0.000000 0.055555 0.000000
# 6 0.000000 0.000000 0.000000 0.000000 0.000000 0.023292
#
#
# Mechanical properties :
#
#
# Convention : Reuss Voigt Hill
#
# Bulk Modulus (GPa) = 38.18224 45.05147 41.61685
# Shear Modulus (GPa) = 9.19145 25.27772 17.23458
#
# Velocity S-wave (km/s) = 2.11518 3.50772 2.89639
# Velocity P-wave (km/s) = 4.95488 6.19149 5.60738
#
# Compressibility (1/GPa) = 0.02619019
#
# Stress axis : x y z
#
# Youngs Moduli (GPa) = 99.80529 76.66069 45.45245
#
# Poissons Ratio (x) = 0.19087 0.23980
# Poissons Ratio (y) = 0.24849 0.07599
# Poissons Ratio (z) = 0.52656 0.12816
#
# Static dielectric constant tensor:
#      x y z
#    x 1.882890 0.000000 0.000000 
#    y 0.000000 1.853580 0.000000 
#    z 0.000000 0.000000 1.714910 
# 
# From -- ./inp_files/7080.got.cif
#   From: 2010.05.17/outbox.cif.g08.bks.cpg/sg30_4_cif.got.tgz:7080.got - 2010.06.03 17:03:02.
