data_PCOD9342577
_publ_section_title
;
Structure prediction by ZEFSAII (Michael W. Deem and Ramdas Pophale) SiO2 
 PCOD9342577
Probable space group: P N C 2
;
_chemical_formula_sum "Si O2"
_cell_formula_units_Z 24
_cell_length_a 13.384994
_cell_length_b 9.276145
_cell_length_c 9.124312
_cell_angle_alpha 90.000000
_cell_angle_beta 90.000000
_cell_angle_gamma 90.000000
_cell_volume 1132.885027
_symmetry_space_group_name_H-M "P N C 2"
_symmetry_group_IT_number 30
_symmetry_cell_setting 'orthorhombic'
loop_
_space_group_symop_operation_xyz
x,y,z
-x,-y,z
-x,1/2+y,1/2+z
x,1/2-y,1/2+z
loop_
_atom_site_type_symbol
_atom_site_label
_atom_site_fract_x
_atom_site_fract_y
_atom_site_fract_z
Si Si1 0.994411 0.346611 0.326920
Si Si2 0.306551 0.175362 0.676450
Si Si3 0.604338 0.583441 0.868152
Si Si4 0.886544 0.630245 0.628956
Si Si5 0.763941 0.107895 0.837249
Si Si6 0.742464 0.388060 0.666461
O O1 0.060121 0.366092 0.472590
O O2 0.041756 0.213940 0.240596
O O3 0.000000 0.500000 0.240177
O O4 0.877834 0.338545 0.364107
O O5 0.382925 0.266417 0.777996
O O6 0.360408 0.113445 0.533325
O O7 0.216944 0.280173 0.623999
O O8 0.253189 0.048510 0.767960
O O9 0.500000 0.500000 0.866061
O O10 0.678786 0.479060 0.780932
O O11 0.850704 0.469155 0.670151
O O12 0.730894 0.225340 0.719429
O O13 0.712122 0.106342 0.995868
#
# Coordination Sequence:
#
# PCOD9342577 Si02
#       6
#     4   4   4   4   4   4
#     4  12  23  39  63  97 134 179 242 261 321 393
#     4  11  23  46  73  96 139 176 220 279 345 397
#     4  11  26  47  73 103 126 175 221 274 348 413
#     4  11  22  43  63  94 136 185 222 282 323 388
#     4  12  24  42  65 102 138 184 224 279 327 396
#     4  11  24  43  66  96 140 173 228 280 344 394
#
# _framework density 21.184850000000001
#
# number of rings (size 3 to 8) (size 9 to 14) (size 15 to 20)
#    0.000    0.667    3.333    6.000    0.000    2.667 
#    3.000    1.667    0.000    0.000    0.000    0.000 
#    0.000    0.000    0.000    0.000    0.000    0.000 
#
# Total GULP energy -134038.292033 kJ/mol
# GULP energy per Si atom -5584.928835 kJ/mol
# Density = 2.113663 g / cm^3
# Si number density = 21.184850 Si / 1000 Ang^3
#
#
#
# Elastic Constant Matrix: (Units=GPa)
#
#
# Indices 1 2 3 4 5 6 
#
# 1 98.5846 29.9244 54.0851 0.0000 0.0000 0.0000
# 2 29.9244 105.1953 42.6993 0.0000 0.0000 0.0000
# 3 54.0851 42.6993 130.6069 0.0000 0.0000 0.0000
# 4 0.0000 0.0000 0.0000 40.0173 0.0000 0.0000
# 5 0.0000 0.0000 0.0000 0.0000 14.4243 0.0000
# 6 0.0000 0.0000 0.0000 0.0000 0.0000 27.4214
#
#
#
# Elastic Compliance Matrix: (Units=1/GPa)
#
#
# Indices 1 2 3 4 5 6 
#
# 1 0.013415 -0.001800 -0.004967 0.000000 0.000000 0.000000
# 2 -0.001800 0.011202 -0.002917 0.000000 0.000000 0.000000
# 3 -0.004967 -0.002917 0.010667 0.000000 0.000000 0.000000
# 4 0.000000 0.000000 0.000000 0.024989 0.000000 0.000000
# 5 0.000000 0.000000 0.000000 0.000000 0.069327 0.000000
# 6 0.000000 0.000000 0.000000 0.000000 0.000000 0.036468
#
#
# Mechanical properties :
#
#
# Convention : Reuss Voigt Hill
#
# Bulk Modulus (GPa) = 62.82740 65.31159 64.06949
# Shear Modulus (GPa) = 26.21359 30.21781 28.21570
#
# Velocity S-wave (km/s) = 3.52145 3.78085 3.65345
# Velocity P-wave (km/s) = 6.80112 7.06796 6.93583
#
# Compressibility (1/GPa) = 0.01591662
#
# Stress axis : x y z
#
# Youngs Moduli (GPa) = 74.54488 89.26842 93.74799
#
# Poissons Ratio (x) = 0.16069 0.46561
# Poissons Ratio (y) = 0.13418 0.27345
# Poissons Ratio (z) = 0.37024 0.26039
#
# Static dielectric constant tensor:
#      x y z
#    x 1.798750 0.000000 0.000000 
#    y 0.000000 1.813500 0.000000 
#    z 0.000000 0.000000 1.732100 
# 
# From -- ./inp_files/2630.got.cif
#   From: 2010.05.17/outbox.cif.g08.bks.cpg/sg30_2_cif.got.tgz:2630.got - 2010.06.03 17:03:02.
