data_PCOD9342650
_publ_section_title
;
Structure prediction by ZEFSAII (Michael W. Deem and Ramdas Pophale) SiO2 
 PCOD9342650
Probable space group: P N C 2
;
_chemical_formula_sum "Si O2"
_cell_formula_units_Z 24
_cell_length_a 13.013484
_cell_length_b 8.369719
_cell_length_c 9.376669
_cell_angle_alpha 90.000000
_cell_angle_beta 90.000000
_cell_angle_gamma 90.000000
_cell_volume 1021.299326
_symmetry_space_group_name_H-M "P N C 2"
_symmetry_group_IT_number 30
_symmetry_cell_setting 'orthorhombic'
loop_
_space_group_symop_operation_xyz
x,y,z
-x,-y,z
-x,1/2+y,1/2+z
x,1/2-y,1/2+z
loop_
_atom_site_type_symbol
_atom_site_label
_atom_site_fract_x
_atom_site_fract_y
_atom_site_fract_z
Si Si1 0.169218 0.282676 0.547300
Si Si2 0.045799 0.333496 0.272789
Si Si3 0.280583 0.824146 0.471808
Si Si4 0.149757 0.617844 0.698735
Si Si5 0.613851 0.862904 0.581530
Si Si6 0.484390 0.673432 0.370514
O O1 0.132796 0.284372 0.385391
O O2 0.104800 0.143828 0.624399
O O3 0.135785 0.447177 0.623586
O O4 0.288473 0.254802 0.576052
O O5 0.000000 0.500000 0.324430
O O6 0.953551 0.210151 0.245584
O O7 0.211379 0.723258 0.581442
O O8 0.214264 0.899646 0.344248
O O9 0.365069 0.715635 0.389404
O O10 0.338885 0.961943 0.560004
O O11 0.544325 0.813446 0.449506
O O12 0.542293 0.842205 0.719419
O O13 0.500000 0.500000 0.442642
#
# Coordination Sequence:
#
# PCOD9342650 Si02
#       6
#     4   4   4   4   4   4
#     4  12  26  45  68 100 137 180 229 285 347 415
#     4  12  25  44  68  98 136 179 228 284 345 413
#     4  12  25  45  72 104 141 185 236 293 354 422
#     4  12  25  45  72 104 141 185 236 293 354 422
#     4  12  26  45  68 100 137 180 229 285 347 415
#     4  12  25  44  68  98 136 179 228 284 345 413
#
# _framework density 23.499478
#
# number of rings (size 3 to 8) (size 9 to 14) (size 15 to 20)
#    0.000    0.000    0.000   12.000    0.000    2.667 
#    0.000    0.000    0.000    0.000    0.000    0.000 
#    0.000    0.000    0.000    0.000    0.000    0.000 
#
# Total GULP energy -134410.691507 kJ/mol
# GULP energy per Si atom -5600.445479 kJ/mol
# Density = 2.344599 g / cm^3
# Si number density = 23.499478 Si / 1000 Ang^3
#
#
#
# Elastic Constant Matrix: (Units=GPa)
#
#
# Indices 1 2 3 4 5 6 
#
# 1 100.4348 46.5307 17.8309 0.0000 0.0000 0.0000
# 2 46.5307 96.7931 30.2360 0.0000 0.0000 0.0000
# 3 17.8309 30.2360 74.6783 0.0000 0.0000 0.0000
# 4 0.0000 0.0000 0.0000 -94.1534 0.0000 0.0000
# 5 0.0000 0.0000 0.0000 0.0000 6.3245 0.0000
# 6 0.0000 0.0000 0.0000 0.0000 0.0000 52.5230
#
#
#
# Elastic Compliance Matrix: (Units=1/GPa)
#
#
# Indices 1 2 3 4 5 6 
#
# 1 0.012837 -0.005968 -0.000649 0.000000 0.000000 0.000000
# 2 -0.005968 0.014602 -0.004487 0.000000 0.000000 0.000000
# 3 -0.000649 -0.004487 0.015362 0.000000 0.000000 0.000000
# 4 0.000000 0.000000 0.000000 -0.010621 0.000000 0.000000
# 5 0.000000 0.000000 0.000000 0.000000 0.158115 0.000000
# 6 0.000000 0.000000 0.000000 0.000000 0.000000 0.019039
#
#
# Mechanical properties :
#
#
# Convention : Reuss Voigt Hill
#
# Bulk Modulus (GPa) = 48.55939 51.23347 49.89643
# Shear Modulus (GPa) = 20.97248 4.75940 12.86594
#
# Velocity S-wave (km/s) = 2.99066 1.42468 2.34241
# Velocity P-wave (km/s) = 5.71264 4.95536 5.34742
#
# Compressibility (1/GPa) = 0.02059334
#
# Stress axis : x y z
#
# Youngs Moduli (GPa) = 77.89988 68.48306 65.09414
#
# Poissons Ratio (x) = 0.40874 0.04222
# Poissons Ratio (y) = 0.46494 0.29208
# Poissons Ratio (z) = 0.05052 0.30729
#
# Static dielectric constant tensor:
#      x y z
#    x 1.951820 0.000000 0.000000 
#    y 0.000000 2.031630 0.000000 
#    z 0.000000 0.000000 1.865840 
# 
# From -- ./inp_files/2621.got.cif
#   From: 2010.05.17/outbox.cif.g08.bks.cpg/sg30_2_cif.got.tgz:2621.got - 2010.06.03 17:03:02.
