data_PCOD9342995
_publ_section_title
;
Structure prediction by ZEFSAII (Michael W. Deem and Ramdas Pophale) SiO2 
 PCOD9342995
Probable space group: P M N 21
;
_chemical_formula_sum "Si O2"
_cell_formula_units_Z 32
_cell_length_a 28.873550
_cell_length_b 6.202335
_cell_length_c 7.855146
_cell_angle_alpha 90.000000
_cell_angle_beta 90.000000
_cell_angle_gamma 90.000000
_cell_volume 1406.726487
_symmetry_space_group_name_H-M "P M N 21"
_symmetry_group_IT_number 31
_symmetry_cell_setting 'orthorhombic'
loop_
_space_group_symop_operation_xyz
x,y,z
1/2-x,-y,1/2+z
-x,y,z
1/2+x,-y,1/2+z
loop_
_atom_site_type_symbol
_atom_site_label
_atom_site_fract_x
_atom_site_fract_y
_atom_site_fract_z
Si Si1 0.221126 0.709748 0.023330
Si Si2 0.052460 0.608418 0.782409
Si Si3 0.548907 0.636007 0.643769
Si Si4 0.863872 0.316976 0.733419
Si Si5 0.136347 0.620495 0.214429
Si Si6 0.713536 0.991147 0.208354
Si Si7 0.699161 0.400773 0.029762
Si Si8 0.593988 0.009199 0.485000
O O1 0.178630 0.565006 0.086600
O O2 0.263901 0.568932 0.956651
O O3 0.244075 0.827180 0.187878
O O4 0.207681 0.894904 0.890109
O O5 0.088037 0.442415 0.690131
O O6 0.000000 0.627602 0.712349
O O7 0.047838 0.503549 0.970208
O O8 0.075929 0.839397 0.829242
O O9 0.500000 0.601972 0.735641
O O10 0.595102 0.550308 0.731965
O O11 0.553892 0.882292 0.584456
O O12 0.825977 0.504137 0.700206
O O13 0.834134 0.123883 0.645372
O O14 0.876316 0.188562 0.906535
O O15 0.159040 0.646452 0.396815
O O16 0.117926 0.837180 0.123230
O O17 0.724334 0.186316 0.083739
#
# Coordination Sequence:
#
# PCOD9342995 Si02
#       8
#     4   4   4   4   4   4   4   4
#     4  11  24  41  64  95 124 176 215 270 322 392
#     4   9  18  35  60  94 124 159 212 267 320 385
#     4   9  20  37  63  93 126 163 212 271 327 391
#     4  10  21  38  61  88 123 168 202 263 316 380
#     4  11  23  41  63  98 125 171 217 272 328 395
#     4  11  23  42  63  91 130 165 220 260 325 384
#     4  11  25  41  62  91 135 171 216 268 325 387
#     4  10  19  35  65  92 124 161 218 263 328 388
#
# _framework density 22.747848000000001
#
# number of rings (size 3 to 8) (size 9 to 14) (size 15 to 20)
#    0.000    1.750    1.250    2.625    3.500    6.000 
#    2.250    0.625    0.000    2.250    0.000    0.000 
#    0.000    0.000    0.000    0.000    0.000    0.000 
#
# Total GULP energy -178183.611413 kJ/mol
# GULP energy per Si atom -5568.237857 kJ/mol
# Density = 2.269607 g / cm^3
# Si number density = 22.747848 Si / 1000 Ang^3
#
#
#
# Elastic Constant Matrix: (Units=GPa)
#
#
# Indices 1 2 3 4 5 6 
#
# 1 145.1665 60.4345 23.3964 0.0000 0.0000 0.0000
# 2 60.4345 102.4324 21.3896 0.0000 0.0000 0.0000
# 3 23.3964 21.3896 51.0031 0.0000 0.0000 0.0000
# 4 0.0000 0.0000 0.0000 14.9163 0.0000 0.0000
# 5 0.0000 0.0000 0.0000 0.0000 18.7486 0.0000
# 6 0.0000 0.0000 0.0000 0.0000 0.0000 14.3010
#
#
#
# Elastic Compliance Matrix: (Units=1/GPa)
#
#
# Indices 1 2 3 4 5 6 
#
# 1 0.009344 -0.005061 -0.002164 0.000000 0.000000 0.000000
# 2 -0.005061 0.013441 -0.003315 0.000000 0.000000 0.000000
# 3 -0.002164 -0.003315 0.021990 0.000000 0.000000 0.000000
# 4 0.000000 0.000000 0.000000 0.067041 0.000000 0.000000
# 5 0.000000 0.000000 0.000000 0.000000 0.053337 0.000000
# 6 0.000000 0.000000 0.000000 0.000000 0.000000 0.069925
#
#
# Mechanical properties :
#
#
# Convention : Reuss Voigt Hill
#
# Bulk Modulus (GPa) = 42.20423 56.56033 49.38228
# Shear Modulus (GPa) = 18.93530 22.48528 20.71029
#
# Velocity S-wave (km/s) = 2.88826 3.14739 3.02060
# Velocity P-wave (km/s) = 5.45125 6.17463 5.82418
#
# Compressibility (1/GPa) = 0.02369431
#
# Stress axis : x y z
#
# Youngs Moduli (GPa) = 107.01492 74.39960 45.47608
#
# Poissons Ratio (x) = 0.37656 0.09841
# Poissons Ratio (y) = 0.54164 0.15076
# Poissons Ratio (z) = 0.23157 0.24664
#
# Static dielectric constant tensor:
#      x y z
#    x 1.912130 0.000000 0.000000 
#    y 0.000000 1.847970 0.000000 
#    z 0.000000 0.000000 1.872130 
# 
# From -- ./inp_files/3208.got.cif
#   From: 2010.05.17/outbox.cif.g08.bks.cpg/sg31_2_cif.got.tgz:3208.got - 2010.06.03 17:08:30.
