data_PCOD9342826
_publ_section_title
;
Structure prediction by ZEFSAII (Michael W. Deem and Ramdas Pophale) SiO2 
 PCOD9342826
Probable space group: P M N 21
;
_chemical_formula_sum "Si O2"
_cell_formula_units_Z 32
_cell_length_a 12.227004
_cell_length_b 26.301657
_cell_length_c 5.415821
_cell_angle_alpha 90.000000
_cell_angle_beta 90.000000
_cell_angle_gamma 90.000000
_cell_volume 1741.676396
_symmetry_space_group_name_H-M "P M N 21"
_symmetry_group_IT_number 31
_symmetry_cell_setting 'orthorhombic'
loop_
_space_group_symop_operation_xyz
x,y,z
1/2-x,-y,1/2+z
-x,y,z
1/2+x,-y,1/2+z
loop_
_atom_site_type_symbol
_atom_site_label
_atom_site_fract_x
_atom_site_fract_y
_atom_site_fract_z
Si Si1 0.629127 0.463918 0.513610
Si Si2 0.820774 0.030525 0.013615
Si Si3 0.337839 0.940686 0.013615
Si Si4 0.127881 0.325370 0.013613
Si Si5 0.872261 0.883318 0.513615
Si Si6 0.721236 0.161186 0.513615
Si Si7 0.629436 0.739695 0.013613
Si Si8 0.746678 0.431150 0.013610
O O1 0.500000 0.459264 0.513611
O O2 0.677991 0.439439 0.762899
O O3 0.664820 0.523152 0.513611
O O4 0.677990 0.439439 0.264320
O O5 0.885598 0.041859 0.258599
O O6 0.715473 0.069699 0.013615
O O7 0.776481 0.973244 0.013615
O O8 0.885598 0.041859 0.768632
O O9 0.316061 0.881574 0.013615
O O10 0.146344 0.292885 0.763865
O O11 0.199099 0.376084 0.013612
O O12 0.000000 0.339951 0.013614
O O13 0.146344 0.292886 0.263363
O O14 0.846116 0.850994 0.264514
O O15 0.000000 0.898964 0.513614
O O16 0.846117 0.850994 0.762717
O O17 0.783612 0.214539 0.513613
O O18 0.500000 0.755917 0.013612
#
# Coordination Sequence:
#
# PCOD9342826 Si02
#       8
#     4   4   4   4   4   4   4   4
#     4  10  20  34  54  83 117 147 179 216 253 304
#     4   8  14  25  41  64  90 118 155 192 234 292
#     4   8  14  25  43  64  89 121 151 190 245 295
#     4  10  20  36  58  81 105 132 171 220 261 307
#     4  10  19  31  50  73  98 132 169 203 246 303
#     4  10  19  33  52  72 100 131 163 212 260 303
#     4  10  21  36  56  79 100 129 171 220 270 309
#     4  10  20  34  56  82 110 148 182 213 259 305
#
# _framework density 18.373104000000001
#
# number of rings (size 3 to 8) (size 9 to 14) (size 15 to 20)
#    0.000    2.500    0.000    2.625    0.000    0.000 
#    0.000    4.375    0.000   15.000    0.000   14.000 
#    0.000    0.000    0.000    0.000    0.000    0.000 
#
# Total GULP energy -178308.256165 kJ/mol
# GULP energy per Si atom -5572.133005 kJ/mol
# Density = 1.833129 g / cm^3
# Si number density = 18.373104 Si / 1000 Ang^3
#
#
#
# Elastic Constant Matrix: (Units=GPa)
#
#
# Indices 1 2 3 4 5 6 
#
# 1 103.8448 64.0045 46.2828 0.0000 0.0000 0.0000
# 2 64.0045 104.0226 51.2864 0.0000 0.0000 0.0000
# 3 46.2828 51.2864 194.4936 0.0000 0.0000 0.0000
# 4 0.0000 0.0000 0.0000 18.4574 0.0000 0.0000
# 5 0.0000 0.0000 0.0000 0.0000 3.4252 0.0000
# 6 0.0000 0.0000 0.0000 0.0000 0.0000 38.3661
#
#
#
# Elastic Compliance Matrix: (Units=1/GPa)
#
#
# Indices 1 2 3 4 5 6 
#
# 1 0.015827 -0.009059 -0.001377 0.000000 0.000000 0.000000
# 2 -0.009059 0.016235 -0.002125 0.000000 0.000000 0.000000
# 3 -0.001377 -0.002125 0.006030 0.000000 0.000000 0.000000
# 4 0.000000 0.000000 0.000000 0.054179 0.000000 0.000000
# 5 0.000000 0.000000 0.000000 0.000000 0.291951 0.000000
# 6 0.000000 0.000000 0.000000 0.000000 0.000000 0.026065
#
#
# Mechanical properties :
#
#
# Convention : Reuss Voigt Hill
#
# Bulk Modulus (GPa) = 77.11187 80.61203 78.86195
# Shear Modulus (GPa) = 11.37052 28.10223 19.73637
#
# Velocity S-wave (km/s) = 2.49040 3.91516 3.28105
# Velocity P-wave (km/s) = 7.09440 8.02548 7.57426
#
# Compressibility (1/GPa) = 0.01296817
#
# Stress axis : x y z
#
# Youngs Moduli (GPa) = 63.18146 61.59408 165.84346
#
# Poissons Ratio (x) = 0.55800 0.22845
# Poissons Ratio (y) = 0.57238 0.35247
# Poissons Ratio (z) = 0.08703 0.13091
#
# Static dielectric constant tensor:
#      x y z
#    x 1.598050 0.000000 0.000000 
#    y 0.000000 1.594270 0.000000 
#    z 0.000000 0.000000 1.698710 
# 
# From -- ./inp_files/469.got.cif
#   From: 2010.05.17/outbox.cif.g08.bks.cpg/sg31_1_cif.got.tgz:469.got - 2010.06.03 17:08:30.
