data_PCOD9342440
_publ_section_title
;
Structure prediction by ZEFSAII (Michael W. Deem and Ramdas Pophale) SiO2 
 PCOD9342440
Probable space group: P N C 2
;
_chemical_formula_sum "Si O2"
_cell_formula_units_Z 14
_cell_length_a 5.131232
_cell_length_b 7.476427
_cell_length_c 17.233525
_cell_angle_alpha 90.000000
_cell_angle_beta 90.000000
_cell_angle_gamma 90.000000
_cell_volume 661.134570
_symmetry_space_group_name_H-M "P N C 2"
_symmetry_group_IT_number 30
_symmetry_cell_setting 'orthorhombic'
loop_
_space_group_symop_operation_xyz
x,y,z
-x,-y,z
-x,1/2+y,1/2+z
x,1/2-y,1/2+z
loop_
_atom_site_type_symbol
_atom_site_label
_atom_site_fract_x
_atom_site_fract_y
_atom_site_fract_z
Si Si1 0.000000 0.500000 0.762230
Si Si2 0.241907 0.614242 0.612488
Si Si3 0.895832 0.806664 0.873938
Si Si4 0.592459 0.199900 0.466841
O O1 0.164347 0.625744 0.702736
O O2 0.843203 0.647273 0.811933
O O3 0.500000 0.500000 0.611001
O O4 0.682419 0.226323 0.556006
O O5 0.000000 0.500000 0.577922
O O6 0.147700 0.735889 0.919202
O O7 0.646972 0.817510 0.931731
O O8 0.000000 0.000000 0.843666
O O9 0.500000 0.000000 0.456752
#
# Coordination Sequence:
#
# PCOD9342440 Si02
#       4
#     2   4   4   4
#     4  10  26  46  68 100 148 178 232 292 358 394
#     4  10  23  42  67  93 144 176 224 286 353 404
#     4  12  25  44  73  99 137 185 235 285 346 416
#     4  12  23  44  70 104 136 182 236 287 344 413
#
# _framework density 21.175718
#
# number of rings (size 3 to 8) (size 9 to 14) (size 15 to 20)
#    0.857    0.000    2.857    5.143    4.000    0.000 
#    5.143    0.000    0.000    0.000    0.000    0.000 
#    0.000    0.000    0.000    0.000    0.000    0.000 
#
# Total GULP energy -77952.580702 kJ/mol
# GULP energy per Si atom -5568.041479 kJ/mol
# Density = 2.112752 g / cm^3
# Si number density = 21.175718 Si / 1000 Ang^3
#
#
#
# Elastic Constant Matrix: (Units=GPa)
#
#
# Indices 1 2 3 4 5 6 
#
# 1 141.3892 10.6790 31.5618 0.0000 0.0000 0.0000
# 2 10.6790 87.5457 45.6286 0.0000 0.0000 0.0000
# 3 31.5618 45.6286 106.2143 0.0000 0.0000 0.0000
# 4 0.0000 0.0000 0.0000 19.5801 0.0000 0.0000
# 5 0.0000 0.0000 0.0000 0.0000 52.0499 0.0000
# 6 0.0000 0.0000 0.0000 0.0000 0.0000 26.3912
#
#
#
# Elastic Compliance Matrix: (Units=1/GPa)
#
#
# Indices 1 2 3 4 5 6 
#
# 1 0.007582 0.000321 -0.002391 0.000000 0.000000 0.000000
# 2 0.000321 0.014732 -0.006424 0.000000 0.000000 0.000000
# 3 -0.002391 -0.006424 0.012885 0.000000 0.000000 0.000000
# 4 0.000000 0.000000 0.000000 0.051072 0.000000 0.000000
# 5 0.000000 0.000000 0.000000 0.000000 0.019212 0.000000
# 6 0.000000 0.000000 0.000000 0.000000 0.000000 0.037891
#
#
# Mechanical properties :
#
#
# Convention : Reuss Voigt Hill
#
# Bulk Modulus (GPa) = 54.91086 56.76532 55.83809
# Shear Modulus (GPa) = 30.04212 36.08955 33.06583
#
# Velocity S-wave (km/s) = 3.77066 4.13278 3.95587
# Velocity P-wave (km/s) = 6.70406 7.04544 6.87687
#
# Compressibility (1/GPa) = 0.01821133
#
# Stress axis : x y z
#
# Youngs Moduli (GPa) = 131.88856 67.88132 77.60876
#
# Poissons Ratio (x) = -0.02181 0.18557
# Poissons Ratio (y) = -0.04238 0.49856
# Poissons Ratio (z) = 0.31536 0.43607
#
# Static dielectric constant tensor:
#      x y z
#    x 1.741530 0.000000 0.000000 
#    y 0.000000 1.764770 0.000000 
#    z 0.000000 0.000000 1.900310 
# 
# From -- ./inp_files/4537.got.cif
#   From: 2010.05.17/outbox.cif.g08.bks.cpg/sg30_3_cif.got.tgz:4537.got - 2010.06.03 17:03:02.
