data_PCOD9342798
_publ_section_title
;
Structure prediction by ZEFSAII (Michael W. Deem and Ramdas Pophale) SiO2 
 PCOD9342798
Probable space group: P M N 21
;
_chemical_formula_sum "Si O2"
_cell_formula_units_Z 32
_cell_length_a 10.930012
_cell_length_b 15.909108
_cell_length_c 8.597101
_cell_angle_alpha 90.000000
_cell_angle_beta 90.000000
_cell_angle_gamma 90.000000
_cell_volume 1494.921878
_symmetry_space_group_name_H-M "P M N 21"
_symmetry_group_IT_number 31
_symmetry_cell_setting 'orthorhombic'
loop_
_space_group_symop_operation_xyz
x,y,z
1/2-x,-y,1/2+z
-x,y,z
1/2+x,-y,1/2+z
loop_
_atom_site_type_symbol
_atom_site_label
_atom_site_fract_x
_atom_site_fract_y
_atom_site_fract_z
Si Si1 0.633337 0.251911 0.657480
Si Si2 0.360928 0.828164 0.761144
Si Si3 0.634847 0.671923 0.991138
Si Si4 0.639102 0.587621 0.445399
Si Si5 0.371399 0.941372 0.277575
Si Si6 0.703448 0.078058 0.506713
Si Si7 0.639413 0.505561 0.788126
Si Si8 0.718795 0.778265 0.441078
O O1 0.500000 0.290232 0.630868
O O2 0.749049 0.304903 0.596049
O O3 0.638728 0.163359 0.564443
O O4 0.659002 0.235328 0.839742
O O5 0.500000 0.847959 0.711289
O O6 0.274137 0.817996 0.612044
O O7 0.363688 0.739299 0.851198
O O8 0.308622 0.891687 0.887893
O O9 0.500000 0.680213 0.068364
O O10 0.644422 0.581371 0.912890
O O11 0.500000 0.567998 0.392332
O O12 0.653828 0.545125 0.615921
O O13 0.747528 0.553635 0.335100
O O14 0.654268 0.688197 0.458788
O O15 0.500000 0.947117 0.192236
O O16 0.263451 0.960128 0.159769
O O17 0.354127 0.846847 0.339487
O O18 0.369118 0.006995 0.417229
O O19 0.500000 0.469919 0.797890
#
# Coordination Sequence:
#
# PCOD9342798 Si02
#       8
#     4   4   4   4   4   4   4   4
#     4  10  23  41  61  92 134 173 209 257 316 374
#     4  10  18  36  64  91 120 159 210 266 315 367
#     4   9  19  38  65  92 120 160 210 258 309 373
#     4  11  24  43  66  94 127 166 212 264 321 384
#     4  11  22  39  62  91 126 166 212 265 315 372
#     4  10  22  39  62  94 126 165 213 260 317 380
#     4  10  23  43  65  93 128 162 206 264 320 381
#     4  11  23  39  63  91 124 165 215 262 314 377
#
# _framework density 21.405801
#
# number of rings (size 3 to 8) (size 9 to 14) (size 15 to 20)
#    0.000    1.750    1.250    2.625    1.750    5.500 
#    0.000   11.250    0.000    0.000    0.000    0.000 
#    0.000    0.000    0.000    0.000    0.000    0.000 
#
# Total GULP energy -178714.914471 kJ/mol
# GULP energy per Si atom -5584.841077 kJ/mol
# Density = 2.135708 g / cm^3
# Si number density = 21.405801 Si / 1000 Ang^3
#
#
#
# Elastic Constant Matrix: (Units=GPa)
#
#
# Indices 1 2 3 4 5 6 
#
# 1 147.3012 43.3017 53.2130 0.0000 0.0000 0.0000
# 2 43.3017 93.6262 22.2604 0.0000 0.0000 0.0000
# 3 53.2130 22.2604 106.3667 0.0000 0.0000 0.0000
# 4 0.0000 0.0000 0.0000 42.3080 0.0000 0.0000
# 5 0.0000 0.0000 0.0000 0.0000 46.9551 0.0000
# 6 0.0000 0.0000 0.0000 0.0000 0.0000 -4.0053
#
#
#
# Elastic Compliance Matrix: (Units=1/GPa)
#
#
# Indices 1 2 3 4 5 6 
#
# 1 0.009170 -0.003315 -0.003894 0.000000 0.000000 0.000000
# 2 -0.003315 0.012439 -0.000945 0.000000 0.000000 0.000000
# 3 -0.003894 -0.000945 0.011547 0.000000 0.000000 0.000000
# 4 0.000000 0.000000 0.000000 0.023636 0.000000 0.000000
# 5 0.000000 0.000000 0.000000 0.000000 0.021297 0.000000
# 6 0.000000 0.000000 0.000000 0.000000 0.000000 -0.249670
#
#
# Mechanical properties :
#
#
# Convention : Reuss Voigt Hill
#
# Bulk Modulus (GPa) = 59.35246 64.98268 62.16757
# Shear Modulus (GPa) = -33.40970 32.28616 -0.56177
#
# Velocity S-wave (km/s) = -3.95495 3.88788 -0.51284
# Velocity P-wave (km/s) = 2.63286 7.11179 5.36235
#
# Compressibility (1/GPa) = 0.01684850
#
# Stress axis : x y z
#
# Youngs Moduli (GPa) = 109.05085 80.39439 86.60204
#
# Poissons Ratio (x) = 0.26653 0.33721
# Poissons Ratio (y) = 0.36154 0.08180
# Poissons Ratio (z) = 0.42462 0.07594
#
# Static dielectric constant tensor:
#      x y z
#    x 1.761620 0.000000 0.000000 
#    y 0.000000 1.766550 0.000000 
#    z 0.000000 0.000000 1.763910 
# 
# From -- ./inp_files/2257.got.cif
#   From: 2010.05.17/outbox.cif.g08.bks.cpg/sg31_2_cif.got.tgz:2257.got - 2010.06.03 17:08:30.
