data_PCOD9342395
_publ_section_title
;
Structure prediction by ZEFSAII (Michael W. Deem and Ramdas Pophale) SiO2 
 PCOD9342395
Probable space group: P N C 2
;
_chemical_formula_sum "Si O2"
_cell_formula_units_Z 30
_cell_length_a 13.987778
_cell_length_b 9.537093
_cell_length_c 11.073635
_cell_angle_alpha 90.000000
_cell_angle_beta 90.000000
_cell_angle_gamma 90.000000
_cell_volume 1477.253247
_symmetry_space_group_name_H-M "P N C 2"
_symmetry_group_IT_number 30
_symmetry_cell_setting 'orthorhombic'
loop_
_space_group_symop_operation_xyz
x,y,z
-x,-y,z
-x,1/2+y,1/2+z
x,1/2-y,1/2+z
loop_
_atom_site_type_symbol
_atom_site_label
_atom_site_fract_x
_atom_site_fract_y
_atom_site_fract_z
Si Si1 0.000000 0.500000 0.387830
Si Si2 0.140190 0.834211 0.724093
Si Si3 0.211183 0.537364 0.730214
Si Si4 0.405602 0.564470 0.123740
Si Si5 0.685268 0.471736 0.367430
Si Si6 0.589441 0.394126 0.616705
Si Si7 0.795977 0.513194 0.008475
Si Si8 0.172621 0.342061 0.516217
O O1 0.052920 0.614774 0.304608
O O2 0.077049 0.412859 0.464238
O O3 0.152101 0.673397 0.687202
O O4 0.234279 0.872420 0.805433
O O5 0.142077 0.925151 0.602903
O O6 0.323101 0.562150 0.703235
O O7 0.185378 0.404520 0.649633
O O8 0.189430 0.523214 0.869969
O O9 0.500000 0.500000 0.067419
O O10 0.383748 0.496293 0.255305
O O11 0.425500 0.729574 0.140229
O O12 0.312319 0.529100 0.045357
O O13 0.628882 0.404590 0.479014
O O14 0.743023 0.599990 0.427956
O O15 0.500000 0.500000 0.629782
O O16 0.819592 0.676253 0.022681
#
# Coordination Sequence:
#
# PCOD9342395 Si02
#       8
#     2   4   4   4   4   4   4   4
#     4  10  24  46  74 100 140 166 238 284 340 414
#     4  10  22  44  72  95 131 184 219 282 344 412
#     4  11  24  44  69  94 137 179 222 271 352 406
#     4  11  24  38  62  95 132 173 230 280 328 400
#     4   9  20  42  64  83 133 180 218 269 348 394
#     4  11  23  39  63  96 129 173 230 278 332 400
#     4  11  25  44  68  98 137 180 228 272 351 412
#     4  10  25  43  70  98 134 181 222 285 344 410
#
# _framework density 20.307959
#
# number of rings (size 3 to 8) (size 9 to 14) (size 15 to 20)
#    0.000    1.600    2.667    1.200   13.067    1.600 
#    0.000    0.000    0.000    0.000    0.000    0.000 
#    0.000    0.000    0.000    0.000    0.000    0.000 
#
# Total GULP energy -167568.930107 kJ/mol
# GULP energy per Si atom -5585.631004 kJ/mol
# Density = 2.026174 g / cm^3
# Si number density = 20.307959 Si / 1000 Ang^3
#
#
#
# Elastic Constant Matrix: (Units=GPa)
#
#
# Indices 1 2 3 4 5 6 
#
# 1 71.3053 25.7337 16.2830 0.0000 0.0000 0.0000
# 2 25.7337 128.9355 51.1767 0.0000 0.0000 0.0000
# 3 16.2830 51.1767 107.5488 0.0000 0.0000 0.0000
# 4 0.0000 0.0000 0.0000 24.1533 0.0000 0.0000
# 5 0.0000 0.0000 0.0000 0.0000 -2.3004 0.0000
# 6 0.0000 0.0000 0.0000 0.0000 0.0000 12.4589
#
#
#
# Elastic Compliance Matrix: (Units=1/GPa)
#
#
# Indices 1 2 3 4 5 6 
#
# 1 0.015210 -0.002616 -0.001058 0.000000 0.000000 0.000000
# 2 -0.002616 0.010012 -0.004368 0.000000 0.000000 0.000000
# 3 -0.001058 -0.004368 0.011537 0.000000 0.000000 0.000000
# 4 0.000000 0.000000 0.000000 0.041402 0.000000 0.000000
# 5 0.000000 0.000000 0.000000 0.000000 -0.434707 0.000000
# 6 0.000000 0.000000 0.000000 0.000000 0.000000 0.080264
#
#
# Mechanical properties :
#
#
# Convention : Reuss Voigt Hill
#
# Bulk Modulus (GPa) = 48.36837 54.90849 51.63843
# Shear Modulus (GPa) = -19.73887 21.16876 0.71495
#
# Velocity S-wave (km/s) = -3.12104 3.23211 0.59398
# Velocity P-wave (km/s) = 3.29869 6.40510 5.09444
#
# Compressibility (1/GPa) = 0.02067467
#
# Stress axis : x y z
#
# Youngs Moduli (GPa) = 65.74701 99.88434 86.67930
#
# Poissons Ratio (x) = 0.26126 0.09172
# Poissons Ratio (y) = 0.17197 0.37861
# Poissons Ratio (z) = 0.06957 0.43629
#
# Static dielectric constant tensor:
#      x y z
#    x 1.749610 0.000000 0.000000 
#    y 0.000000 1.699170 0.000000 
#    z 0.000000 0.000000 1.704200 
# 
# From -- ./inp_files/4365.got.cif
#   From: 2010.05.17/outbox.cif.g08.bks.cpg/sg30_3_cif.got.tgz:4365.got - 2010.06.03 17:03:02.
