data_PCOD9342895
_publ_section_title
;
Structure prediction by ZEFSAII (Michael W. Deem and Ramdas Pophale) SiO2 
 PCOD9342895
Probable space group: P M N 21
;
_chemical_formula_sum "Si O2"
_cell_formula_units_Z 32
_cell_length_a 7.458917
_cell_length_b 10.245369
_cell_length_c 17.937499
_cell_angle_alpha 90.000000
_cell_angle_beta 90.000000
_cell_angle_gamma 90.000000
_cell_volume 1370.772140
_symmetry_space_group_name_H-M "P M N 21"
_symmetry_group_IT_number 31
_symmetry_cell_setting 'orthorhombic'
loop_
_space_group_symop_operation_xyz
x,y,z
1/2-x,-y,1/2+z
-x,y,z
1/2+x,-y,1/2+z
loop_
_atom_site_type_symbol
_atom_site_label
_atom_site_fract_x
_atom_site_fract_y
_atom_site_fract_z
Si Si1 0.291929 0.948724 0.080000
Si Si2 0.780278 0.759663 0.800274
Si Si3 0.217030 0.240397 0.032674
Si Si4 0.705637 0.269672 0.468311
Si Si5 0.780787 0.039446 0.744321
Si Si6 0.787089 0.481079 0.752059
Si Si7 0.218925 0.257971 0.860928
Si Si8 0.784529 0.521077 0.085722
O O1 0.500000 0.911703 0.078062
O O2 0.205177 0.864546 0.014639
O O3 0.219587 0.918080 0.162337
O O4 0.277692 0.103651 0.067039
O O5 0.718986 0.628391 0.759638
O O6 0.000000 0.764198 0.799217
O O7 0.721536 0.892799 0.761832
O O8 0.718844 0.751304 0.886139
O O9 0.278824 0.372410 0.073594
O O10 0.000000 0.238771 0.034228
O O11 0.275463 0.248998 0.946339
O O12 0.500000 0.310523 0.454848
O O13 0.784503 0.381592 0.521693
O O14 0.726510 0.135209 0.810608
O O15 0.000000 0.040667 0.742209
O O16 0.718567 0.386154 0.816638
O O17 0.757805 0.430789 0.668645
O O18 0.000000 0.487364 0.763316
O O19 0.000000 0.259725 0.862067
O O20 0.000000 0.519070 0.079927
#
# Coordination Sequence:
#
# PCOD9342895 Si02
#       8
#     4   4   4   4   4   4   4   4
#     4  11  22  35  53  81 112 139 174 222 274 323
#     4   9  17  31  53  77  98 129 177 222 256 299
#     4  10  20  36  57  79 106 142 182 222 263 313
#     4  10  20  36  57  79 106 142 182 222 263 313
#     4   9  17  29  47  73 102 129 164 214 262 303
#     4  10  19  33  55  79 103 136 178 222 264 308
#     4   9  17  31  53  77  98 129 177 222 256 299
#     4  10  21  35  53  81 113 142 174 216 270 326
#
# _framework density 23.344507
#
# number of rings (size 3 to 8) (size 9 to 14) (size 15 to 20)
#    0.000    2.250    0.000    3.375    0.000    8.000 
#    0.000    1.250    0.000   10.500    0.000    0.000 
#    0.000    0.000    0.000    0.000    0.000    0.000 
#
# Total GULP energy -178941.679444 kJ/mol
# GULP energy per Si atom -5591.927483 kJ/mol
# Density = 2.329137 g / cm^3
# Si number density = 23.344507 Si / 1000 Ang^3
#
#
#
# Elastic Constant Matrix: (Units=GPa)
#
#
# Indices 1 2 3 4 5 6 
#
# 1 68.9643 -6.1915 -6.6178 0.0000 0.0000 0.0000
# 2 -6.1915 79.1661 -4.9142 0.0000 0.0000 0.0000
# 3 -6.6178 -4.9142 106.9611 0.0000 0.0000 0.0000
# 4 0.0000 0.0000 0.0000 44.9311 0.0000 0.0000
# 5 0.0000 0.0000 0.0000 0.0000 20.9774 0.0000
# 6 0.0000 0.0000 0.0000 0.0000 0.0000 -26.7925
#
#
#
# Elastic Compliance Matrix: (Units=1/GPa)
#
#
# Indices 1 2 3 4 5 6 
#
# 1 0.014701 0.001210 0.000965 0.000000 0.000000 0.000000
# 2 0.001210 0.012767 0.000661 0.000000 0.000000 0.000000
# 3 0.000965 0.000661 0.009439 0.000000 0.000000 0.000000
# 4 0.000000 0.000000 0.000000 0.022256 0.000000 0.000000
# 5 0.000000 0.000000 0.000000 0.000000 0.047670 0.000000
# 6 0.000000 0.000000 0.000000 0.000000 0.000000 -0.037324
#
#
# Mechanical properties :
#
#
# Convention : Reuss Voigt Hill
#
# Bulk Modulus (GPa) = 23.48479 24.40492 23.94486
# Shear Modulus (GPa) = 64.07629 26.01085 45.04357
#
# Velocity S-wave (km/s) = 5.24478 3.34161 4.39739
# Velocity P-wave (km/s) = 6.83805 5.03641 6.00518
#
# Compressibility (1/GPa) = 0.04258075
#
# Stress axis : x y z
#
# Youngs Moduli (GPa) = 68.02038 78.32487 105.94002
#
# Poissons Ratio (x) = -0.09475 -0.10225
# Poissons Ratio (y) = -0.08228 -0.07007
# Poissons Ratio (z) = -0.06565 -0.05181
#
# Static dielectric constant tensor:
#      x y z
#    x 1.907610 0.000000 0.000000 
#    y 0.000000 1.835010 0.000000 
#    z 0.000000 0.000000 1.821140 
# 
# From -- ./inp_files/6054.got.cif
#   From: 2010.05.17/outbox.cif.g08.bks.cpg/sg31_4_cif.got.tgz:6054.got - 2010.06.03 17:08:30.
