data_PCOD9342270
_publ_section_title
;
Structure prediction by ZEFSAII (Michael W. Deem and Ramdas Pophale) SiO2 
 PCOD9342270
Probable space group: P N C 2
;
_chemical_formula_sum "Si O2"
_cell_formula_units_Z 24
_cell_length_a 9.004294
_cell_length_b 8.103940
_cell_length_c 14.720252
_cell_angle_alpha 90.000000
_cell_angle_beta 90.000000
_cell_angle_gamma 90.000000
_cell_volume 1074.140591
_symmetry_space_group_name_H-M "P N C 2"
_symmetry_group_IT_number 30
_symmetry_cell_setting 'orthorhombic'
loop_
_space_group_symop_operation_xyz
x,y,z
-x,-y,z
-x,1/2+y,1/2+z
x,1/2-y,1/2+z
loop_
_atom_site_type_symbol
_atom_site_label
_atom_site_fract_x
_atom_site_fract_y
_atom_site_fract_z
Si Si1 0.783525 0.719580 0.752350
Si Si2 0.534686 0.329020 0.310343
Si Si3 0.824033 0.514465 0.591187
Si Si4 0.273082 0.818084 0.642416
Si Si5 0.000000 0.000000 0.718743
Si Si6 0.000000 0.000000 0.368501
Si Si7 0.228842 0.757621 0.451611
O O1 0.618117 0.737369 0.789905
O O2 0.780950 0.683832 0.642647
O O3 0.874286 0.579187 0.804791
O O4 0.883567 0.882883 0.770013
O O5 0.500000 0.500000 0.361121
O O6 0.613581 0.379245 0.216096
O O7 0.660017 0.239397 0.368158
O O8 0.735147 0.379542 0.650611
O O9 0.796898 0.429968 0.491422
O O10 0.000000 0.500000 0.603001
O O11 0.303806 0.849915 0.537321
O O12 0.108077 0.883221 0.661620
O O13 0.921791 0.145730 0.426438
#
# Coordination Sequence:
#
# PCOD9342270 Si02
#       7
#     4   4   4   4   2   2   4
#     4  12  24  42  81 106 149 201 246 304 375 440
#     4  12  26  46  68 110 153 199 235 299 380 445
#     4  10  21  43  73 106 137 191 247 305 362 427
#     4  10  23  45  69 101 148 183 246 300 362 437
#     4  12  19  42  76 109 142 192 249 304 356 439
#     4  12  25  50  74 115 140 196 251 314 360 443
#     4  10  26  45  72 106 153 182 255 304 365 443
#
# _framework density 22.343444000000002
#
# number of rings (size 3 to 8) (size 9 to 14) (size 15 to 20)
#    1.000    0.000    4.167    2.500    0.000    5.333 
#    4.500    0.000    0.000    0.000    0.000    0.000 
#    0.000    0.000    0.000    0.000    0.000    0.000 
#
# Total GULP energy -133689.134006 kJ/mol
# GULP energy per Si atom -5570.380584 kJ/mol
# Density = 2.229259 g / cm^3
# Si number density = 22.343444 Si / 1000 Ang^3
#
#
#
# Elastic Constant Matrix: (Units=GPa)
#
#
# Indices 1 2 3 4 5 6 
#
# 1 135.4296 32.0150 59.7947 0.0000 0.0000 0.0000
# 2 32.0150 45.8027 18.3435 0.0000 0.0000 0.0000
# 3 59.7947 18.3435 112.8079 0.0000 0.0000 0.0000
# 4 0.0000 0.0000 0.0000 10.0900 0.0000 0.0000
# 5 0.0000 0.0000 0.0000 0.0000 13.1148 0.0000
# 6 0.0000 0.0000 0.0000 0.0000 0.0000 46.2301
#
#
#
# Elastic Compliance Matrix: (Units=1/GPa)
#
#
# Indices 1 2 3 4 5 6 
#
# 1 0.010854 -0.005651 -0.004835 0.000000 0.000000 0.000000
# 2 -0.005651 0.026295 -0.001281 0.000000 0.000000 0.000000
# 3 -0.004835 -0.001281 0.011635 0.000000 0.000000 0.000000
# 4 0.000000 0.000000 0.000000 0.099108 0.000000 0.000000
# 5 0.000000 0.000000 0.000000 0.000000 0.076250 0.000000
# 6 0.000000 0.000000 0.000000 0.000000 0.000000 0.021631
#
#
# Mechanical properties :
#
#
# Convention : Reuss Voigt Hill
#
# Bulk Modulus (GPa) = 39.59874 57.14961 48.37418
# Shear Modulus (GPa) = 18.00354 26.14612 22.07483
#
# Velocity S-wave (km/s) = 2.84168 3.42452 3.14662
# Velocity P-wave (km/s) = 5.34117 6.42415 5.90753
#
# Compressibility (1/GPa) = 0.02525333
#
# Stress axis : x y z
#
# Youngs Moduli (GPa) = 92.12991 38.02952 85.94430
#
# Poissons Ratio (x) = 0.21489 0.41550
# Poissons Ratio (y) = 0.52060 0.11006
# Poissons Ratio (z) = 0.44540 0.04870
#
# Static dielectric constant tensor:
#      x y z
#    x 1.781340 0.000000 0.000000 
#    y 0.000000 2.007400 0.000000 
#    z 0.000000 0.000000 1.849080 
# 
# From -- ./inp_files/5051.got.cif
#   From: 2010.05.17/outbox.cif.g08.bks.cpg/sg30_3_cif.got.tgz:5051.got - 2010.06.03 17:03:02.
