data_PCOD9342549
_publ_section_title
;
Structure prediction by ZEFSAII (Michael W. Deem and Ramdas Pophale) SiO2 
 PCOD9342549
Probable space group: P N C 2
;
_chemical_formula_sum "Si O2"
_cell_formula_units_Z 20
_cell_length_a 9.623717
_cell_length_b 5.345697
_cell_length_c 16.917683
_cell_angle_alpha 90.000000
_cell_angle_beta 90.000000
_cell_angle_gamma 90.000000
_cell_volume 870.338239
_symmetry_space_group_name_H-M "P N C 2"
_symmetry_group_IT_number 30
_symmetry_cell_setting 'orthorhombic'
loop_
_space_group_symop_operation_xyz
x,y,z
-x,-y,z
-x,1/2+y,1/2+z
x,1/2-y,1/2+z
loop_
_atom_site_type_symbol
_atom_site_label
_atom_site_fract_x
_atom_site_fract_y
_atom_site_fract_z
Si Si1 0.080117 0.762285 0.550870
Si Si2 0.500000 0.000000 0.361373
Si Si3 0.000000 0.000000 0.706934
Si Si4 0.674738 0.397831 0.454582
Si Si5 0.500000 0.000000 0.690736
Si Si6 0.500000 0.500000 0.590386
Si Si7 0.260732 0.323378 0.299797
O O1 0.219511 0.775057 0.501238
O O2 0.000000 0.500000 0.540164
O O3 0.000000 0.000000 0.518190
O O4 0.084638 0.821775 0.645219
O O5 0.446685 0.767211 0.413936
O O6 0.639104 0.919513 0.313258
O O7 0.110364 0.161114 0.758168
O O8 0.623686 0.557502 0.529381
O O9 0.748257 0.552594 0.386001
O O10 0.483700 0.748562 0.640559
O O11 0.635483 0.982583 0.745168
#
# Coordination Sequence:
#
# PCOD9342549 Si02
#       7
#     4   2   2   4   2   2   4
#     4  10  27  50  76 109 156 205 264 323 400 488
#     4  12  24  48  78 114 170 196 282 328 418 476
#     4  10  28  48  76 114 160 212 270 332 426 480
#     4  12  26  45  77 112 151 207 266 324 398 485
#     4  12  26  46  75 109 156 200 260 328 402 474
#     4  12  26  42  77 109 146 200 254 330 384 474
#     4  12  26  49  74 117 156 216 262 342 403 499
#
# _framework density 22.979572000000001
#
# number of rings (size 3 to 8) (size 9 to 14) (size 15 to 20)
#    0.600    0.000    4.000    2.400    7.000    1.600 
#    0.000    0.000    0.000    0.000    0.000    0.000 
#    0.000    0.000    0.000    0.000    0.000    0.000 
#
# Total GULP energy -111548.936005 kJ/mol
# GULP energy per Si atom -5577.446800 kJ/mol
# Density = 2.292727 g / cm^3
# Si number density = 22.979572 Si / 1000 Ang^3
#
#
#
# Elastic Constant Matrix: (Units=GPa)
#
#
# Indices 1 2 3 4 5 6 
#
# 1 87.5894 3.0756 40.5579 0.0000 0.0000 0.0000
# 2 3.0756 109.8987 42.5778 0.0000 0.0000 0.0000
# 3 40.5579 42.5778 135.7669 0.0000 0.0000 0.0000
# 4 0.0000 0.0000 0.0000 299.7587 0.0000 0.0000
# 5 0.0000 0.0000 0.0000 0.0000 -319.2976 0.0000
# 6 0.0000 0.0000 0.0000 0.0000 0.0000 36.2346
#
#
#
# Elastic Compliance Matrix: (Units=1/GPa)
#
#
# Indices 1 2 3 4 5 6 
#
# 1 0.013421 0.001341 -0.004430 0.000000 0.000000 0.000000
# 2 0.001341 0.010492 -0.003691 0.000000 0.000000 0.000000
# 3 -0.004430 -0.003691 0.009846 0.000000 0.000000 0.000000
# 4 0.000000 0.000000 0.000000 0.003336 0.000000 0.000000
# 5 0.000000 0.000000 0.000000 0.000000 -0.003132 0.000000
# 6 0.000000 0.000000 0.000000 0.000000 0.000000 0.027598
#
#
# Mechanical properties :
#
#
# Convention : Reuss Voigt Hill
#
# Bulk Modulus (GPa) = 49.50682 56.18639 52.84661
# Shear Modulus (GPa) = 61.08445 19.80872 40.44659
#
# Velocity S-wave (km/s) = 5.16137 2.93919 4.19992
# Velocity P-wave (km/s) = 7.55714 6.00184 6.82394
#
# Compressibility (1/GPa) = 0.02019924
#
# Stress axis : x y z
#
# Youngs Moduli (GPa) = 74.51015 95.31365 101.56080
#
# Poissons Ratio (x) = -0.12778 0.44988
# Poissons Ratio (y) = -0.09989 0.37484
# Poissons Ratio (z) = 0.33006 0.35178
#
# Static dielectric constant tensor:
#      x y z
#    x 2.163050 0.000000 0.000000 
#    y 0.000000 1.676920 0.000000 
#    z 0.000000 0.000000 1.854100 
# 
# From -- ./inp_files/6232.got.cif
#   From: 2010.05.17/outbox.cif.g08.bks.cpg/sg30_4_cif.got.tgz:6232.got - 2010.06.03 17:03:02.
