data_PCOD9342555
_publ_section_title
;
Structure prediction by ZEFSAII (Michael W. Deem and Ramdas Pophale) SiO2 
 PCOD9342555
Probable space group: P N C 2
;
_chemical_formula_sum "Si O2"
_cell_formula_units_Z 32
_cell_length_a 6.480782
_cell_length_b 28.716789
_cell_length_c 8.527286
_cell_angle_alpha 90.000000
_cell_angle_beta 90.000000
_cell_angle_gamma 90.000000
_cell_volume 1586.989741
_symmetry_space_group_name_H-M "P N C 2"
_symmetry_group_IT_number 30
_symmetry_cell_setting 'orthorhombic'
loop_
_space_group_symop_operation_xyz
x,y,z
-x,-y,z
-x,1/2+y,1/2+z
x,1/2-y,1/2+z
loop_
_atom_site_type_symbol
_atom_site_label
_atom_site_fract_x
_atom_site_fract_y
_atom_site_fract_z
Si Si1 0.417562 0.952848 0.854850
Si Si2 0.442482 0.189340 0.141493
Si Si3 0.836914 0.127337 0.713898
Si Si4 0.114287 0.548046 0.638614
Si Si5 0.776791 0.214926 0.916195
Si Si6 0.971913 0.709888 0.723295
Si Si7 0.221039 0.631837 0.846514
Si Si8 0.201517 0.112234 0.936747
O O1 0.258169 0.922524 0.755863
O O2 0.615145 0.921376 0.885993
O O3 0.500000 0.000000 0.779764
O O4 0.297813 0.963700 0.017003
O O5 0.270491 0.219405 0.231900
O O6 0.594691 0.159630 0.255592
O O7 0.576562 0.221360 0.024610
O O8 0.314122 0.152434 0.036737
O O9 0.736280 0.168564 0.816470
O O10 0.784396 0.135236 0.533160
O O11 0.070914 0.128048 0.782803
O O12 0.203548 0.579662 0.779251
O O13 0.000000 0.500000 0.682730
O O14 0.957778 0.582410 0.543996
O O15 0.872538 0.254443 0.807287
O O16 0.954820 0.207245 0.044461
O O17 0.016229 0.659907 0.797233
#
# Coordination Sequence:
#
# PCOD9342555 Si02
#       8
#     4   4   4   4   4   4   4   4
#     4  11  21  39  66  93 123 175 233 269 327 409
#     4  11  21  43  71  91 128 179 218 272 337 401
#     4  11  24  41  63  96 140 170 213 292 335 391
#     4  11  21  37  65  93 126 171 225 281 327 399
#     4  11  23  42  65  98 132 167 228 275 330 406
#     4  11  23  42  67  94 131 173 221 276 332 408
#     4  11  24  42  61  97 139 172 219 278 341 399
#     4  11  19  41  67  90 122 174 223 265 334 394
#
# _framework density 20.163961
#
# number of rings (size 3 to 8) (size 9 to 14) (size 15 to 20)
#    0.000    1.000    6.250    2.250    0.000    3.000 
#    2.250    0.625    0.000    0.000    0.000    0.000 
#    0.000    0.000    0.000    0.000    0.000    0.000 
#
# Total GULP energy -178501.292292 kJ/mol
# GULP energy per Si atom -5578.165384 kJ/mol
# Density = 2.011807 g / cm^3
# Si number density = 20.163961 Si / 1000 Ang^3
#
#
#
# Elastic Constant Matrix: (Units=GPa)
#
#
# Indices 1 2 3 4 5 6 
#
# 1 119.6695 21.3645 38.4424 0.0000 0.0000 0.0000
# 2 21.3645 73.2613 34.6812 0.0000 0.0000 0.0000
# 3 38.4424 34.6812 125.9484 0.0000 0.0000 0.0000
# 4 0.0000 0.0000 0.0000 20.4721 0.0000 0.0000
# 5 0.0000 0.0000 0.0000 0.0000 14.2467 0.0000
# 6 0.0000 0.0000 0.0000 0.0000 0.0000 28.2561
#
#
#
# Elastic Compliance Matrix: (Units=1/GPa)
#
#
# Indices 1 2 3 4 5 6 
#
# 1 0.009424 -0.001594 -0.002437 0.000000 0.000000 0.000000
# 2 -0.001594 0.015966 -0.003910 0.000000 0.000000 0.000000
# 3 -0.002437 -0.003910 0.009760 0.000000 0.000000 0.000000
# 4 0.000000 0.000000 0.000000 0.048847 0.000000 0.000000
# 5 0.000000 0.000000 0.000000 0.000000 0.070192 0.000000
# 6 0.000000 0.000000 0.000000 0.000000 0.000000 0.035391
#
#
# Mechanical properties :
#
#
# Convention : Reuss Voigt Hill
#
# Bulk Modulus (GPa) = 51.90236 56.42839 54.16538
# Shear Modulus (GPa) = 23.59779 27.55438 25.57608
#
# Velocity S-wave (km/s) = 3.42467 3.70065 3.56533
# Velocity P-wave (km/s) = 6.43691 6.80480 6.62341
#
# Compressibility (1/GPa) = 0.01926694
#
# Stress axis : x y z
#
# Youngs Moduli (GPa) = 106.11239 62.63499 102.45630
#
# Poissons Ratio (x) = 0.09986 0.24972
# Poissons Ratio (y) = 0.16918 0.40057
# Poissons Ratio (z) = 0.25864 0.24488
#
# Static dielectric constant tensor:
#      x y z
#    x 1.754980 0.000000 0.000000 
#    y 0.000000 1.760790 0.000000 
#    z 0.000000 0.000000 1.734810 
# 
# From -- ./inp_files/1485.got.cif
#   From: 2010.05.17/outbox.cif.g08.bks.cpg/sg30_1_cif.got.tgz:1485.got - 2010.06.03 17:03:02.
