data_PCOD9342477
_publ_section_title
;
Structure prediction by ZEFSAII (Michael W. Deem and Ramdas Pophale) SiO2 
 PCOD9342477
Probable space group: P N C 2
;
_chemical_formula_sum "Si O2"
_cell_formula_units_Z 16
_cell_length_a 5.227657
_cell_length_b 5.368127
_cell_length_c 23.122572
_cell_angle_alpha 90.000000
_cell_angle_beta 90.000000
_cell_angle_gamma 90.000000
_cell_volume 648.882418
_symmetry_space_group_name_H-M "P N C 2"
_symmetry_group_IT_number 30
_symmetry_cell_setting 'orthorhombic'
loop_
_space_group_symop_operation_xyz
x,y,z
-x,-y,z
-x,1/2+y,1/2+z
x,1/2-y,1/2+z
loop_
_atom_site_type_symbol
_atom_site_label
_atom_site_fract_x
_atom_site_fract_y
_atom_site_fract_z
Si Si1 0.500000 0.500000 0.656971
Si Si2 0.748159 0.829436 0.437995
Si Si3 0.248814 0.173763 0.568194
Si Si4 0.000000 0.000000 0.847095
Si Si5 0.853184 0.259733 0.234441
O O1 0.284137 0.391095 0.614657
O O2 0.404720 0.715325 0.699863
O O3 0.743584 0.719184 0.502852
O O4 0.795443 0.631366 0.388096
O O5 0.500000 0.000000 0.429939
O O6 0.000000 0.000000 0.436052
O O7 0.500000 0.000000 0.573847
O O8 0.000000 0.000000 0.574322
O O9 0.149898 0.817748 0.802837
O O10 0.000000 0.500000 0.210153
O O11 0.000000 0.000000 0.227929
#
# Coordination Sequence:
#
# PCOD9342477 Si02
#       5
#     2   4   4   2   4
#     4  12  28  48  82 112 168 216 270 332 410 490
#     4  10  23  49  76 116 160 207 271 342 411 484
#     4  10  26  46  79 117 159 212 270 339 412 486
#     4  10  24  52  80 112 162 216 268 340 404 486
#     4  10  27  52  77 119 159 218 274 332 403 491
#
# _framework density 24.657782999999998
#
# number of rings (size 3 to 8) (size 9 to 14) (size 15 to 20)
#    0.750    1.000    0.000    0.750    7.000    7.000 
#   13.500    2.500    0.000    0.000    0.000    0.000 
#    0.000    0.000    0.000    0.000    0.000    0.000 
#
# Total GULP energy -89619.930073 kJ/mol
# GULP energy per Si atom -5601.245630 kJ/mol
# Density = 2.460166 g / cm^3
# Si number density = 24.657783 Si / 1000 Ang^3
#
#
#
# Elastic Constant Matrix: (Units=GPa)
#
#
# Indices 1 2 3 4 5 6 
#
# 1 162.6619 55.6227 68.1803 0.0000 0.0000 0.0000
# 2 55.6227 122.7325 78.7891 0.0000 0.0000 0.0000
# 3 68.1803 78.7891 228.4360 0.0000 0.0000 0.0000
# 4 0.0000 0.0000 0.0000 -229.2185 0.0000 0.0000
# 5 0.0000 0.0000 0.0000 0.0000 -14.3985 0.0000
# 6 0.0000 0.0000 0.0000 0.0000 0.0000 46.1847
#
#
#
# Elastic Compliance Matrix: (Units=1/GPa)
#
#
# Indices 1 2 3 4 5 6 
#
# 1 0.007603 -0.002555 -0.001388 0.000000 0.000000 0.000000
# 2 -0.002555 0.011323 -0.003143 0.000000 0.000000 0.000000
# 3 -0.001388 -0.003143 0.005876 0.000000 0.000000 0.000000
# 4 0.000000 0.000000 0.000000 -0.004363 0.000000 0.000000
# 5 0.000000 0.000000 0.000000 0.000000 -0.069452 0.000000
# 6 0.000000 0.000000 0.000000 0.000000 0.000000 0.021652
#
#
# Mechanical properties :
#
#
# Convention : Reuss Voigt Hill
#
# Bulk Modulus (GPa) = 94.06662 102.11273 98.08968
# Shear Modulus (GPa) = -518.41143 -18.73722 -268.57433
#
# Velocity S-wave (km/s) = -14.51547 -2.75960 -10.44783
# Velocity P-wave (km/s) = 15.57884 5.59893 10.27989
#
# Compressibility (1/GPa) = 0.01063076
#
# Stress axis : x y z
#
# Youngs Moduli (GPa) = 131.52472 88.31403 170.18506
#
# Poissons Ratio (x) = 0.22561 0.23625
# Poissons Ratio (y) = 0.33599 0.53489
# Poissons Ratio (z) = 0.18258 0.27757
#
# Static dielectric constant tensor:
#      x y z
#    x 2.053060 0.000000 0.000000 
#    y 0.000000 1.939060 0.000000 
#    z 0.000000 0.000000 1.941390 
# 
# From -- ./inp_files/7140.got.cif
#   From: 2010.05.17/outbox.cif.g08.bks.cpg/sg30_4_cif.got.tgz:7140.got - 2010.06.03 17:03:02.
