data_PCOD9342517
_publ_section_title
;
Structure prediction by ZEFSAII (Michael W. Deem and Ramdas Pophale) SiO2 
 PCOD9342517
Probable space group: P N C 2
;
_chemical_formula_sum "Si O2"
_cell_formula_units_Z 24
_cell_length_a 7.659561
_cell_length_b 25.664357
_cell_length_c 5.175063
_cell_angle_alpha 90.000000
_cell_angle_beta 90.000000
_cell_angle_gamma 90.000000
_cell_volume 1017.302023
_symmetry_space_group_name_H-M "P N C 2"
_symmetry_group_IT_number 30
_symmetry_cell_setting 'orthorhombic'
loop_
_space_group_symop_operation_xyz
x,y,z
-x,-y,z
-x,1/2+y,1/2+z
x,1/2-y,1/2+z
loop_
_atom_site_type_symbol
_atom_site_label
_atom_site_fract_x
_atom_site_fract_y
_atom_site_fract_z
Si Si1 0.436171 0.894062 0.685240
Si Si2 0.459947 0.277550 0.070285
Si Si3 0.750000 0.040557 0.041256
Si Si4 0.936175 0.394063 0.897271
Si Si5 0.040054 0.277550 0.012218
Si Si6 0.250002 0.467192 0.041256
O O1 0.495167 0.834631 0.672933
O O2 0.249997 0.896295 0.541258
O O3 0.581602 0.930577 0.558849
O O4 0.405852 0.919858 0.966623
O O5 0.525654 0.236441 0.284301
O O6 0.250000 0.274254 0.041253
O O7 0.905854 0.080140 0.115890
O O8 0.735105 0.003199 0.288123
O O9 0.764892 0.003199 0.794389
O O10 0.995170 0.334631 0.909571
O O11 0.081608 0.430576 0.023663
O O12 0.974346 0.263559 0.298202
#
# Coordination Sequence:
#
# PCOD9342517 Si02
#       6
#     4   4   4   4   4   4
#     4  12  29  49  78 115 147 204 252 316 374 461
#     4  10  24  48  76 107 147 195 246 310 386 451
#     4  12  30  48  76 114 152 204 260 306 384 450
#     4  12  29  49  78 115 147 204 252 316 374 461
#     4  10  24  48  76 107 147 195 246 310 386 451
#     4  12  30  52  74 106 164 202 248 320 374 458
#
# _framework density 23.591816000000001
#
# number of rings (size 3 to 8) (size 9 to 14) (size 15 to 20)
#    0.000    0.667    3.333    1.000   14.000    1.333 
#    0.000    0.000    0.000    0.000    0.000    0.000 
#    0.000    0.000    0.000    0.000    0.000    0.000 
#
# Total GULP energy -134349.207839 kJ/mol
# GULP energy per Si atom -5597.883660 kJ/mol
# Density = 2.353812 g / cm^3
# Si number density = 23.591816 Si / 1000 Ang^3
#
#
#
# Elastic Constant Matrix: (Units=GPa)
#
#
# Indices 1 2 3 4 5 6 
#
# 1 74.2050 16.7001 42.6467 0.0000 0.0000 0.0000
# 2 16.7001 168.1392 78.6113 0.0000 0.0000 0.0000
# 3 42.6467 78.6113 166.4460 0.0000 0.0000 0.0000
# 4 0.0000 0.0000 0.0000 18.5352 0.0000 0.0000
# 5 0.0000 0.0000 0.0000 0.0000 18.8789 0.0000
# 6 0.0000 0.0000 0.0000 0.0000 0.0000 25.0369
#
#
#
# Elastic Compliance Matrix: (Units=1/GPa)
#
#
# Indices 1 2 3 4 5 6 
#
# 1 0.015826 0.000416 -0.004251 0.000000 0.000000 0.000000
# 2 0.000416 0.007644 -0.003717 0.000000 0.000000 0.000000
# 3 -0.004251 -0.003717 0.008853 0.000000 0.000000 0.000000
# 4 0.000000 0.000000 0.000000 0.053951 0.000000 0.000000
# 5 0.000000 0.000000 0.000000 0.000000 0.052969 0.000000
# 6 0.000000 0.000000 0.000000 0.000000 0.000000 0.039941
#
#
# Mechanical properties :
#
#
# Convention : Reuss Voigt Hill
#
# Bulk Modulus (GPa) = 58.07895 76.07851 67.07873
# Shear Modulus (GPa) = 24.99657 30.54568 27.77112
#
# Velocity S-wave (km/s) = 3.25860 3.60218 3.43469
# Velocity P-wave (km/s) = 6.23134 7.04406 6.65013
#
# Compressibility (1/GPa) = 0.01721794
#
# Stress axis : x y z
#
# Youngs Moduli (GPa) = 63.18769 130.82443 112.96176
#
# Poissons Ratio (x) = -0.05439 0.48023
# Poissons Ratio (y) = -0.02627 0.41984
# Poissons Ratio (z) = 0.26863 0.48623
#
# Static dielectric constant tensor:
#      x y z
#    x 1.927010 0.000000 0.000000 
#    y 0.000000 1.845290 0.000000 
#    z 0.000000 0.000000 1.935100 
# 
# From -- ./inp_files/737.got.cif
#   From: 2010.05.17/outbox.cif.g08.bks.cpg/sg30_1_cif.got.tgz:737.got - 2010.06.03 17:03:02.
