data_PCOD9342211
_publ_section_title
;
Structure prediction by ZEFSAII (Michael W. Deem and Ramdas Pophale) SiO2 
 PCOD9342211
Probable space group: P N C 2
;
_chemical_formula_sum "Si O2"
_cell_formula_units_Z 24
_cell_length_a 8.961760
_cell_length_b 13.559379
_cell_length_c 9.250336
_cell_angle_alpha 90.000000
_cell_angle_beta 90.000000
_cell_angle_gamma 90.000000
_cell_volume 1124.062908
_symmetry_space_group_name_H-M "P N C 2"
_symmetry_group_IT_number 30
_symmetry_cell_setting 'orthorhombic'
loop_
_space_group_symop_operation_xyz
x,y,z
-x,-y,z
-x,1/2+y,1/2+z
x,1/2-y,1/2+z
loop_
_atom_site_type_symbol
_atom_site_label
_atom_site_fract_x
_atom_site_fract_y
_atom_site_fract_z
Si Si1 0.026568 0.176748 0.000000
Si Si2 0.506443 0.291388 0.180316
Si Si3 0.855109 0.334219 0.200626
Si Si4 0.000000 0.000000 0.213059
Si Si5 0.500000 0.500000 0.105256
Si Si6 0.209035 0.510256 0.969941
Si Si7 0.314365 0.210513 0.416187
O O1 0.921014 0.156360 0.861483
O O2 0.183732 0.211421 0.936145
O O3 0.950885 0.260100 0.101162
O O4 0.052043 0.085953 0.107778
O O5 0.683733 0.293258 0.207995
O O6 0.455101 0.406640 0.201847
O O7 0.395127 0.218936 0.264056
O O8 0.455990 0.270064 0.018126
O O9 0.860350 0.437833 0.111606
O O10 0.876017 0.040896 0.325456
O O11 0.377782 0.543019 0.996044
O O12 0.232598 0.392601 0.955720
#
# Coordination Sequence:
#
# PCOD9342211 Si02
#       7
#     4   4   4   2   2   4   4
#     4  12  26  41  63  94 129 170 219 271 329 394
#     4  10  21  39  64  92 123 164 213 264 325 393
#     4  11  23  43  67  94 128 170 217 272 331 397
#     4  12  26  40  58  92 128 170 220 268 326 394
#     4   8  20  38  64  90 118 166 216 262 326 384
#     4  10  21  41  65  90 125 168 214 267 332 393
#     4  11  22  40  64  92 126 165 211 268 329 389
#
# _framework density 21.351119000000001
#
# number of rings (size 3 to 8) (size 9 to 14) (size 15 to 20)
#    0.000    1.333    0.000    6.000    0.000   10.000 
#    0.000    1.667    0.000    1.000    0.000    0.000 
#    0.000    0.000    0.000    0.000    0.000    0.000 
#
# Total GULP energy -133703.659598 kJ/mol
# GULP energy per Si atom -5570.985817 kJ/mol
# Density = 2.130252 g / cm^3
# Si number density = 21.351119 Si / 1000 Ang^3
#
#
#
# Elastic Constant Matrix: (Units=GPa)
#
#
# Indices 1 2 3 4 5 6 
#
# 1 93.0791 15.1605 9.5000 0.0000 0.0000 0.0000
# 2 15.1605 47.1795 15.8242 0.0000 0.0000 0.0000
# 3 9.5000 15.8242 93.3610 0.0000 0.0000 0.0000
# 4 0.0000 0.0000 0.0000 32.7429 0.0000 0.0000
# 5 0.0000 0.0000 0.0000 0.0000 32.6442 0.0000
# 6 0.0000 0.0000 0.0000 0.0000 0.0000 28.2341
#
#
#
# Elastic Compliance Matrix: (Units=1/GPa)
#
#
# Indices 1 2 3 4 5 6 
#
# 1 0.011365 -0.003461 -0.000570 0.000000 0.000000 0.000000
# 2 -0.003461 0.023527 -0.003636 0.000000 0.000000 0.000000
# 3 -0.000570 -0.003636 0.011385 0.000000 0.000000 0.000000
# 4 0.000000 0.000000 0.000000 0.030541 0.000000 0.000000
# 5 0.000000 0.000000 0.000000 0.000000 0.030633 0.000000
# 6 0.000000 0.000000 0.000000 0.000000 0.000000 0.035418
#
#
# Mechanical properties :
#
#
# Convention : Reuss Voigt Hill
#
# Bulk Modulus (GPa) = 32.31531 34.95432 33.63481
# Shear Modulus (GPa) = 29.67039 31.59991 30.63515
#
# Velocity S-wave (km/s) = 3.73183 3.85127 3.79202
# Velocity P-wave (km/s) = 5.80834 6.01524 5.91269
#
# Compressibility (1/GPa) = 0.03094509
#
# Stress axis : x y z
#
# Youngs Moduli (GPa) = 87.98606 42.50404 87.83256
#
# Poissons Ratio (x) = 0.14711 0.05005
# Poissons Ratio (y) = 0.30452 0.31932
# Poissons Ratio (z) = 0.05014 0.15453
#
# Static dielectric constant tensor:
#      x y z
#    x 1.826620 0.000000 0.000000 
#    y 0.000000 1.902800 0.000000 
#    z 0.000000 0.000000 1.756150 
# 
# From -- ./inp_files/1854.got.cif
#   From: 2010.05.17/outbox.cif.g08.bks.cpg/sg30_1_cif.got.tgz:1854.got - 2010.06.03 17:03:02.
