data_PCOD9342702
_publ_section_title
;
Structure prediction by ZEFSAII (Michael W. Deem and Ramdas Pophale) SiO2 
 PCOD9342702
Probable space group: P M N 21
;
_chemical_formula_sum "Si O2"
_cell_formula_units_Z 32
_cell_length_a 7.548176
_cell_length_b 11.902745
_cell_length_c 16.765974
_cell_angle_alpha 90.000000
_cell_angle_beta 90.000000
_cell_angle_gamma 90.000000
_cell_volume 1506.322405
_symmetry_space_group_name_H-M "P M N 21"
_symmetry_group_IT_number 31
_symmetry_cell_setting 'orthorhombic'
loop_
_space_group_symop_operation_xyz
x,y,z
1/2-x,-y,1/2+z
-x,y,z
1/2+x,-y,1/2+z
loop_
_atom_site_type_symbol
_atom_site_label
_atom_site_fract_x
_atom_site_fract_y
_atom_site_fract_z
Si Si1 0.286915 0.310366 0.567290
Si Si2 0.288064 0.428372 0.086834
Si Si3 0.205471 0.096607 0.104767
Si Si4 0.784108 0.876695 0.179778
Si Si5 0.214647 0.726227 0.732214
Si Si6 0.197001 0.748909 0.467637
Si Si7 0.711792 0.197945 0.402986
Si Si8 0.285415 0.058752 0.855166
O O1 0.500000 0.299566 0.565916
O O2 0.245991 0.440983 0.576461
O O3 0.224407 0.241649 0.645087
O O4 0.220380 0.252133 0.485467
O O5 0.500000 0.410586 0.085539
O O6 0.226148 0.372556 0.170818
O O7 0.216589 0.359010 0.009998
O O8 0.223024 0.159945 0.188878
O O9 0.000000 0.099019 0.080134
O O10 0.264615 0.969957 0.114638
O O11 0.314998 0.167538 0.042858
O O12 0.722369 0.920365 0.265100
O O13 0.000000 0.877196 0.184328
O O14 0.276462 0.735556 0.823648
O O15 0.000000 0.724398 0.733507
O O16 0.281465 0.831680 0.403257
O O17 0.000000 0.716820 0.438327
O O18 0.500000 0.211821 0.404597
O O19 0.741081 0.064005 0.390362
O O20 0.500000 0.063687 0.857209
#
# Coordination Sequence:
#
# PCOD9342702 Si02
#       8
#     4   4   4   4   4   4   4   4
#     4  10  21  37  54  76 107 144 179 219 270 314
#     4   9  19  37  54  72 101 138 183 223 257 309
#     4  10  17  29  53  80 105 131 167 215 261 311
#     4   9  18  32  50  75 109 138 166 212 266 313
#     4   9  18  34  55  77 105 141 175 213 265 319
#     4   9  19  34  53  75 103 140 173 211 265 316
#     4  10  20  35  56  81 111 141 173 219 273 324
#     4  10  19  34  55  80 109 139 174 214 261 324
#
# _framework density 21.243791000000002
#
# number of rings (size 3 to 8) (size 9 to 14) (size 15 to 20)
#    0.000    2.500    1.250    1.875    0.000    4.000 
#    2.250    1.875    0.000    0.000    0.000    0.000 
#    0.000    0.000    0.000    0.000    0.000    0.000 
#
# Total GULP energy -178364.388243 kJ/mol
# GULP energy per Si atom -5573.887133 kJ/mol
# Density = 2.119544 g / cm^3
# Si number density = 21.243791 Si / 1000 Ang^3
#
#
#
# Elastic Constant Matrix: (Units=GPa)
#
#
# Indices 1 2 3 4 5 6 
#
# 1 54.0453 -4.2364 0.7294 0.0000 0.0000 0.0000
# 2 -4.2364 170.6604 60.3138 0.0000 0.0000 0.0000
# 3 0.7294 60.3138 78.3784 0.0000 0.0000 0.0000
# 4 0.0000 0.0000 0.0000 30.3515 0.0000 0.0000
# 5 0.0000 0.0000 0.0000 0.0000 4.3272 0.0000
# 6 0.0000 0.0000 0.0000 0.0000 0.0000 27.4029
#
#
#
# Elastic Compliance Matrix: (Units=1/GPa)
#
#
# Indices 1 2 3 4 5 6 
#
# 1 0.018569 0.000717 -0.000725 0.000000 0.000000 0.000000
# 2 0.000717 0.008076 -0.006221 0.000000 0.000000 0.000000
# 3 -0.000725 -0.006221 0.017553 0.000000 0.000000 0.000000
# 4 0.000000 0.000000 0.000000 0.032947 0.000000 0.000000
# 5 0.000000 0.000000 0.000000 0.000000 0.231096 0.000000
# 6 0.000000 0.000000 0.000000 0.000000 0.000000 0.036492
#
#
# Mechanical properties :
#
#
# Convention : Reuss Voigt Hill
#
# Bulk Modulus (GPa) = 31.50595 46.29976 38.90286
# Shear Modulus (GPa) = 13.59538 28.83480 21.21509
#
# Velocity S-wave (km/s) = 2.53251 3.68819 3.16357
# Velocity P-wave (km/s) = 4.83883 6.32288 5.62997
#
# Compressibility (1/GPa) = 0.03174003
#
# Stress axis : x y z
#
# Youngs Moduli (GPa) = 53.85327 123.82160 56.97065
#
# Poissons Ratio (x) = -0.08878 0.04128
# Poissons Ratio (y) = -0.03861 0.35444
# Poissons Ratio (z) = 0.03902 0.77035
#
# Static dielectric constant tensor:
#      x y z
#    x 1.812070 0.000000 0.000000 
#    y 0.000000 1.746360 0.000000 
#    z 0.000000 0.000000 1.840730 
# 
# From -- ./inp_files/5101.got.cif
#   From: 2010.05.17/outbox.cif.g08.bks.cpg/sg31_3_cif.got.tgz:5101.got - 2010.06.03 17:08:30.
