data_PCOD9342097
_publ_section_title
;
Structure prediction by ZEFSAII (Michael W. Deem and Ramdas Pophale) SiO2 
 PCOD9342097
Probable space group: P N C 2
;
_chemical_formula_sum "Si O2"
_cell_formula_units_Z 28
_cell_length_a 11.187459
_cell_length_b 5.933277
_cell_length_c 19.611040
_cell_angle_alpha 90.000000
_cell_angle_beta 90.000000
_cell_angle_gamma 90.000000
_cell_volume 1301.747363
_symmetry_space_group_name_H-M "P N C 2"
_symmetry_group_IT_number 30
_symmetry_cell_setting 'orthorhombic'
loop_
_space_group_symop_operation_xyz
x,y,z
-x,-y,z
-x,1/2+y,1/2+z
x,1/2-y,1/2+z
loop_
_atom_site_type_symbol
_atom_site_label
_atom_site_fract_x
_atom_site_fract_y
_atom_site_fract_z
Si Si1 0.000000 0.500000 0.626601
Si Si2 0.877140 0.874002 0.699374
Si Si3 0.358370 0.822103 0.894112
Si Si4 0.500000 0.500000 0.793110
Si Si5 0.140747 0.964595 0.412921
Si Si6 0.557182 0.255009 0.546137
Si Si7 0.703305 0.727459 0.311777
Si Si8 0.176250 0.640813 0.066199
O O1 0.907758 0.619178 0.678358
O O2 0.929672 0.320990 0.579704
O O3 0.787441 0.905111 0.760649
O O4 0.830391 0.975329 0.629404
O O5 0.000000 0.000000 0.716292
O O6 0.416546 0.657041 0.839491
O O7 0.215730 0.768133 0.902268
O O8 0.366112 0.070915 0.864852
O O9 0.425139 0.773594 0.964458
O O10 0.396349 0.345043 0.762827
O O11 0.160464 0.991356 0.494654
O O12 0.211362 0.124709 0.360540
O O13 0.000000 0.000000 0.400079
O O14 0.500000 0.500000 0.567544
O O15 0.694150 0.252849 0.570512
O O16 0.500000 0.000000 0.560409
#
# Coordination Sequence:
#
# PCOD9342097 Si02
#       8
#     2   4   4   2   4   4   4   4
#     4  10  22  44  72  88 132 188 224 286 358 444
#     4  10  24  43  69  94 135 181 230 276 361 435
#     4  10  22  38  63  92 133 183 219 286 356 418
#     4  10  20  40  58  94 126 170 228 276 336 420
#     4  10  23  37  62 103 135 163 224 294 341 416
#     4  11  24  41  72 103 143 186 241 302 364 431
#     4  11  24  39  68  95 135 178 227 285 354 419
#     4  10  24  44  68  99 136 181 234 286 362 422
#
# _framework density 21.509550999999998
#
# number of rings (size 3 to 8) (size 9 to 14) (size 15 to 20)
#    0.000    1.714    0.714    2.571    9.000    6.857 
#    0.000    2.857    1.571    0.000    0.000    0.000 
#    0.000    0.000    0.000    0.000    0.000    0.000 
#
# Total GULP energy -155918.991960 kJ/mol
# GULP energy per Si atom -5568.535427 kJ/mol
# Density = 2.146059 g / cm^3
# Si number density = 21.509551 Si / 1000 Ang^3
#
#
#
# Elastic Constant Matrix: (Units=GPa)
#
#
# Indices 1 2 3 4 5 6 
#
# 1 113.9981 20.1309 14.7436 0.0000 0.0000 0.0000
# 2 20.1309 56.7314 8.0972 0.0000 0.0000 0.0000
# 3 14.7436 8.0972 45.5723 0.0000 0.0000 0.0000
# 4 0.0000 0.0000 0.0000 1.2577 0.0000 0.0000
# 5 0.0000 0.0000 0.0000 0.0000 -271.3218 0.0000
# 6 0.0000 0.0000 0.0000 0.0000 0.0000 17.6016
#
#
#
# Elastic Compliance Matrix: (Units=1/GPa)
#
#
# Indices 1 2 3 4 5 6 
#
# 1 0.009645 -0.003055 -0.002578 0.000000 0.000000 0.000000
# 2 -0.003055 0.019053 -0.002397 0.000000 0.000000 0.000000
# 3 -0.002578 -0.002397 0.023203 0.000000 0.000000 0.000000
# 4 0.000000 0.000000 0.000000 0.795101 0.000000 0.000000
# 5 0.000000 0.000000 0.000000 0.000000 -0.003686 0.000000
# 6 0.000000 0.000000 0.000000 0.000000 0.000000 0.056813
#
#
# Mechanical properties :
#
#
# Convention : Reuss Voigt Hill
#
# Bulk Modulus (GPa) = 27.89996 33.58280 30.74138
# Shear Modulus (GPa) = 5.38715 -38.93717 -16.77501
#
# Velocity S-wave (km/s) = 1.58429 -4.25929 -2.79567
# Velocity P-wave (km/s) = 4.04299 2.92265 1.97533
#
# Compressibility (1/GPa) = 0.03584234
#
# Stress axis : x y z
#
# Youngs Moduli (GPa) = 103.68242 52.48528 43.09788
#
# Poissons Ratio (x) = 0.16032 0.11109
# Poissons Ratio (y) = 0.31670 0.10331
# Poissons Ratio (z) = 0.26725 0.12581
#
# Static dielectric constant tensor:
#      x y z
#    x 1.834100 0.000000 0.000000 
#    y 0.000000 1.891140 0.000000 
#    z 0.000000 0.000000 1.733950 
# 
# From -- ./inp_files/7045.got.cif
#   From: 2010.05.17/outbox.cif.g08.bks.cpg/sg30_4_cif.got.tgz:7045.got - 2010.06.03 17:03:02.
