data_PCOD9342243
_publ_section_title
;
Structure prediction by ZEFSAII (Michael W. Deem and Ramdas Pophale) SiO2 
 PCOD9342243
Probable space group: P N C 2
;
_chemical_formula_sum "Si O2"
_cell_formula_units_Z 28
_cell_length_a 8.830249
_cell_length_b 16.556366
_cell_length_c 8.687256
_cell_angle_alpha 90.000000
_cell_angle_beta 90.000000
_cell_angle_gamma 90.000000
_cell_volume 1270.049326
_symmetry_space_group_name_H-M "P N C 2"
_symmetry_group_IT_number 30
_symmetry_cell_setting 'orthorhombic'
loop_
_space_group_symop_operation_xyz
x,y,z
-x,-y,z
-x,1/2+y,1/2+z
x,1/2-y,1/2+z
loop_
_atom_site_type_symbol
_atom_site_label
_atom_site_fract_x
_atom_site_fract_y
_atom_site_fract_z
Si Si1 0.763444 0.962096 0.034490
Si Si2 0.295928 0.887816 0.488051
Si Si3 0.448030 0.326038 0.187932
Si Si4 0.217936 0.458130 0.175991
Si Si5 0.033242 0.145634 0.460624
Si Si6 0.000000 0.500000 0.740683
Si Si7 0.263627 0.210829 0.982484
Si Si8 0.500000 0.500000 0.760372
O O1 0.867095 0.024529 0.126102
O O2 0.614688 0.958182 0.139712
O O3 0.765297 0.982635 0.854017
O O4 0.822990 0.869928 0.030727
O O5 0.388647 0.835204 0.612709
O O6 0.145883 0.838196 0.438585
O O7 0.217729 0.963077 0.573948
O O8 0.407618 0.932317 0.362790
O O9 0.369145 0.409149 0.134808
O O10 0.395414 0.317930 0.363844
O O11 0.358239 0.252044 0.115770
O O12 0.087146 0.394331 0.125433
O O13 0.142539 0.221633 0.429450
O O14 0.062669 0.072108 0.343368
#
# Coordination Sequence:
#
# PCOD9342243 Si02
#       8
#     4   4   4   4   4   2   4   2
#     4  11  26  41  68 105 141 180 231 319 352 420
#     4  12  22  40  69 104 133 182 234 299 349 441
#     4  10  22  39  67  92 132 183 227 282 355 437
#     4  10  21  41  67  98 134 179 233 284 358 421
#     4  11  22  43  72  99 134 196 241 286 354 458
#     4  12  22  40  70 108 134 186 250 292 352 418
#     4  10  24  45  65  93 141 193 234 282 377 439
#     4  12  24  42  70 110 142 172 240 308 368 436
#
# _framework density 22.046388
#
# number of rings (size 3 to 8) (size 9 to 14) (size 15 to 20)
#    0.000    1.143    4.286    0.857   10.000    0.000 
#    0.000    7.143    0.000    0.000    0.000    0.000 
#    0.000    0.000    0.000    0.000    0.000    0.000 
#
# Total GULP energy -155881.988320 kJ/mol
# GULP energy per Si atom -5567.213869 kJ/mol
# Density = 2.199621 g / cm^3
# Si number density = 22.046388 Si / 1000 Ang^3
#
#
#
# Elastic Constant Matrix: (Units=GPa)
#
#
# Indices 1 2 3 4 5 6 
#
# 1 91.4216 -4.3920 50.9375 0.0000 0.0000 0.0000
# 2 -4.3920 48.2502 23.6129 0.0000 0.0000 0.0000
# 3 50.9375 23.6129 89.9317 0.0000 0.0000 0.0000
# 4 0.0000 0.0000 0.0000 1.4626 0.0000 0.0000
# 5 0.0000 0.0000 0.0000 0.0000 27.8499 0.0000
# 6 0.0000 0.0000 0.0000 0.0000 0.0000 21.8768
#
#
#
# Elastic Compliance Matrix: (Units=1/GPa)
#
#
# Indices 1 2 3 4 5 6 
#
# 1 0.018161 0.007673 -0.012301 0.000000 0.000000 0.000000
# 2 0.007673 0.027023 -0.011441 0.000000 0.000000 0.000000
# 3 -0.012301 -0.011441 0.021091 0.000000 0.000000 0.000000
# 4 0.000000 0.000000 0.000000 0.683701 0.000000 0.000000
# 5 0.000000 0.000000 0.000000 0.000000 0.035907 0.000000
# 6 0.000000 0.000000 0.000000 0.000000 0.000000 0.045710
#
#
# Mechanical properties :
#
#
# Convention : Reuss Voigt Hill
#
# Bulk Modulus (GPa) = 29.29454 41.10226 35.19840
# Shear Modulus (GPa) = 5.71357 20.86753 13.29055
#
# Velocity S-wave (km/s) = 1.61160 3.07991 2.45795
# Velocity P-wave (km/s) = 4.09628 5.59748 4.90466
#
# Compressibility (1/GPa) = 0.03413605
#
# Stress axis : x y z
#
# Youngs Moduli (GPa) = 55.06416 37.00566 47.41392
#
# Poissons Ratio (x) = -0.28394 0.58323
# Poissons Ratio (y) = -0.42250 0.54247
# Poissons Ratio (z) = 0.67734 0.42339
#
# Static dielectric constant tensor:
#      x y z
#    x 1.902350 0.000000 0.000000 
#    y 0.000000 1.816760 0.000000 
#    z 0.000000 0.000000 1.860220 
# 
# From -- ./inp_files/2010.got.cif
#   From: 2010.05.17/outbox.cif.g08.bks.cpg/sg30_2_cif.got.tgz:2010.got - 2010.06.03 17:03:02.
