data_PCOD9342585
_publ_section_title
;
Structure prediction by ZEFSAII (Michael W. Deem and Ramdas Pophale) SiO2 
 PCOD9342585
Probable space group: P N C 2
;
_chemical_formula_sum "Si O2"
_cell_formula_units_Z 30
_cell_length_a 7.810680
_cell_length_b 12.383966
_cell_length_c 13.214215
_cell_angle_alpha 90.000000
_cell_angle_beta 90.000000
_cell_angle_gamma 90.000000
_cell_volume 1278.173958
_symmetry_space_group_name_H-M "P N C 2"
_symmetry_group_IT_number 30
_symmetry_cell_setting 'orthorhombic'
loop_
_space_group_symop_operation_xyz
x,y,z
-x,-y,z
-x,1/2+y,1/2+z
x,1/2-y,1/2+z
loop_
_atom_site_type_symbol
_atom_site_label
_atom_site_fract_x
_atom_site_fract_y
_atom_site_fract_z
Si Si1 0.134036 0.417629 0.757820
Si Si2 0.000000 0.500000 0.289759
Si Si3 0.365835 0.916137 0.169184
Si Si4 0.150396 0.305017 0.155653
Si Si5 0.967158 0.881045 0.448527
Si Si6 0.352902 0.914138 0.821862
Si Si7 0.554999 0.179045 0.613596
Si Si8 0.648899 0.326026 0.891173
O O1 0.209048 0.502664 0.679238
O O2 0.093807 0.308179 0.703095
O O3 0.194048 0.377426 0.869139
O O4 0.000000 0.500000 0.807145
O O5 0.923992 0.597860 0.222522
O O6 0.835972 0.455038 0.350175
O O7 0.363394 0.799981 0.118218
O O8 0.405294 0.889049 0.288625
O O9 0.500000 0.000000 0.123504
O O10 0.357269 0.310538 0.148189
O O11 0.079858 0.309114 0.043327
O O12 0.144357 0.836138 0.400849
O O13 0.000000 0.000000 0.494812
O O14 0.353757 0.892532 0.699630
O O15 0.393665 0.798849 0.870963
O O16 0.500000 0.000000 0.844654
O O17 0.576219 0.137198 0.499521
#
# Coordination Sequence:
#
# PCOD9342585 Si02
#       8
#     4   2   4   4   4   4   4   4
#     4  11  24  45  70  96 135 182 231 289 344 410
#     4  12  24  44  72 100 142 186 230 294 352 420
#     4  11  23  44  68  95 131 179 231 281 346 407
#     4  12  25  43  70 105 139 183 236 289 353 420
#     4  11  23  42  67 104 133 179 238 282 344 419
#     4  11  25  48  71 100 142 187 234 289 357 422
#     4  11  26  43  68 100 139 182 232 292 351 414
#     4  11  25  44  68 101 140 181 230 295 348 415
#
# _framework density 23.470984000000001
#
# number of rings (size 3 to 8) (size 9 to 14) (size 15 to 20)
#    0.000    0.800    6.000    1.600    5.600    1.067 
#    2.400    0.000    1.467    0.000    0.000    0.000 
#    0.000    0.000    0.000    0.000    0.000    0.000 
#
# Total GULP energy -167352.409512 kJ/mol
# GULP energy per Si atom -5578.413650 kJ/mol
# Density = 2.341756 g / cm^3
# Si number density = 23.470984 Si / 1000 Ang^3
#
#
#
# Elastic Constant Matrix: (Units=GPa)
#
#
# Indices 1 2 3 4 5 6 
#
# 1 54.1744 26.6102 -5.8757 0.0000 0.0000 0.0000
# 2 26.6102 146.2940 6.7860 0.0000 0.0000 0.0000
# 3 -5.8757 6.7860 68.7722 0.0000 0.0000 0.0000
# 4 0.0000 0.0000 0.0000 15.1980 0.0000 0.0000
# 5 0.0000 0.0000 0.0000 0.0000 7.6057 0.0000
# 6 0.0000 0.0000 0.0000 0.0000 0.0000 37.9391
#
#
#
# Elastic Compliance Matrix: (Units=1/GPa)
#
#
# Indices 1 2 3 4 5 6 
#
# 1 0.020578 -0.003842 0.002137 0.000000 0.000000 0.000000
# 2 -0.003842 0.007584 -0.001077 0.000000 0.000000 0.000000
# 3 0.002137 -0.001077 0.014830 0.000000 0.000000 0.000000
# 4 0.000000 0.000000 0.000000 0.065798 0.000000 0.000000
# 5 0.000000 0.000000 0.000000 0.000000 0.131480 0.000000
# 6 0.000000 0.000000 0.000000 0.000000 0.000000 0.026358
#
#
# Mechanical properties :
#
#
# Convention : Reuss Voigt Hill
#
# Bulk Modulus (GPa) = 26.71742 36.03130 31.37436
# Shear Modulus (GPa) = 17.56437 28.26323 22.91380
#
# Velocity S-wave (km/s) = 2.73856 3.47389 3.12791
# Velocity P-wave (km/s) = 4.62682 5.61029 5.14212
#
# Compressibility (1/GPa) = 0.03742877
#
# Stress axis : x y z
#
# Youngs Moduli (GPa) = 48.59568 131.85017 67.43268
#
# Poissons Ratio (x) = 0.50659 -0.14412
# Poissons Ratio (y) = 0.18671 0.07260
# Poissons Ratio (z) = -0.10386 0.14196
#
# Static dielectric constant tensor:
#      x y z
#    x 2.141090 0.000000 0.000000 
#    y 0.000000 1.858670 0.000000 
#    z 0.000000 0.000000 1.892220 
# 
# From -- ./inp_files/5195.got.cif
#   From: 2010.05.17/outbox.cif.g08.bks.cpg/sg30_3_cif.got.tgz:5195.got - 2010.06.03 17:03:02.
