data_PCOD9342512
_publ_section_title
;
Structure prediction by ZEFSAII (Michael W. Deem and Ramdas Pophale) SiO2 
 PCOD9342512
Probable space group: P N C 2
;
_chemical_formula_sum "Si O2"
_cell_formula_units_Z 18
_cell_length_a 5.200684
_cell_length_b 27.100623
_cell_length_c 4.689724
_cell_angle_alpha 90.000000
_cell_angle_beta 90.000000
_cell_angle_gamma 90.000000
_cell_volume 660.978032
_symmetry_space_group_name_H-M "P N C 2"
_symmetry_group_IT_number 30
_symmetry_cell_setting 'orthorhombic'
loop_
_space_group_symop_operation_xyz
x,y,z
-x,-y,z
-x,1/2+y,1/2+z
x,1/2-y,1/2+z
loop_
_atom_site_type_symbol
_atom_site_label
_atom_site_fract_x
_atom_site_fract_y
_atom_site_fract_z
Si Si1 0.711532 0.284560 0.616970
Si Si2 0.066400 0.356371 0.422708
Si Si3 0.000000 0.500000 0.337682
Si Si4 0.561934 0.131424 0.532977
Si Si5 0.230054 0.445955 0.811899
O O1 0.659405 0.263292 0.306884
O O2 0.004038 0.305287 0.587617
O O3 0.578783 0.330706 0.770392
O O4 0.220628 0.489685 0.577802
O O5 0.314913 0.355781 0.225180
O O6 0.814356 0.364812 0.226443
O O7 0.919291 0.540591 0.101516
O O8 0.501529 0.076729 0.411595
O O9 0.093790 0.099383 0.147616
#
# Coordination Sequence:
#
# PCOD9342512 Si02
#       5
#     4   4   2   4   4
#     4  12  28  50  78 121 158 209 274 324 386 474
#     4  12  27  53  85 114 162 214 260 328 405 469
#     4  10  24  46  86 120 158 204 270 334 378 502
#     4  12  27  53  85 114 162 214 260 328 405 469
#     4  11  24  50  82 119 162 207 266 322 414 457
#
# _framework density 27.232375999999999
#
# number of rings (size 3 to 8) (size 9 to 14) (size 15 to 20)
#    0.000    0.444    4.444    2.667    0.000    1.778 
#    0.000    1.111    9.778    0.000    0.000    0.000 
#    0.000    0.000    0.000    0.000    0.000    0.000 
#
# Total GULP energy -100637.664252 kJ/mol
# GULP energy per Si atom -5590.981347 kJ/mol
# Density = 2.717039 g / cm^3
# Si number density = 27.232376 Si / 1000 Ang^3
#
#
#
# Elastic Constant Matrix: (Units=GPa)
#
#
# Indices 1 2 3 4 5 6 
#
# 1 160.2613 33.9415 70.2027 0.0000 0.0000 0.0000
# 2 33.9415 70.6598 39.6410 0.0000 0.0000 0.0000
# 3 70.2027 39.6410 206.8028 0.0000 0.0000 0.0000
# 4 0.0000 0.0000 0.0000 71.2381 0.0000 0.0000
# 5 0.0000 0.0000 0.0000 0.0000 50.4453 0.0000
# 6 0.0000 0.0000 0.0000 0.0000 0.0000 38.1041
#
#
#
# Elastic Compliance Matrix: (Units=1/GPa)
#
#
# Indices 1 2 3 4 5 6 
#
# 1 0.007706 -0.002503 -0.002136 0.000000 0.000000 0.000000
# 2 -0.002503 0.016671 -0.002346 0.000000 0.000000 0.000000
# 3 -0.002136 -0.002346 0.006010 0.000000 0.000000 0.000000
# 4 0.000000 0.000000 0.000000 0.014037 0.000000 0.000000
# 5 0.000000 0.000000 0.000000 0.000000 0.019823 0.000000
# 6 0.000000 0.000000 0.000000 0.000000 0.000000 0.026244
#
#
# Mechanical properties :
#
#
# Convention : Reuss Voigt Hill
#
# Bulk Modulus (GPa) = 60.91315 80.58826 70.75071
# Shear Modulus (GPa) = 45.48209 51.55344 48.51776
#
# Velocity S-wave (km/s) = 4.09118 4.35569 4.22550
# Velocity P-wave (km/s) = 6.68831 7.41304 7.05998
#
# Compressibility (1/GPa) = 0.01641682
#
# Stress axis : x y z
#
# Youngs Moduli (GPa) = 129.77564 59.98552 166.38168
#
# Poissons Ratio (x) = 0.15015 0.35539
# Poissons Ratio (y) = 0.32484 0.39030
# Poissons Ratio (z) = 0.27720 0.14071
#
# Static dielectric constant tensor:
#      x y z
#    x 2.156900 0.000000 0.000000 
#    y 0.000000 2.249590 0.000000 
#    z 0.000000 0.000000 2.076000 
# 
# From -- ./inp_files/173.got.cif
#   From: 2010.05.17/outbox.cif.g08.bks.cpg/sg30_1_cif.got.tgz:173.got - 2010.06.03 17:03:02.
