data_PCOD9342992
_publ_section_title
;
Structure prediction by ZEFSAII (Michael W. Deem and Ramdas Pophale) SiO2 
 PCOD9342992
Probable space group: P M N 21
;
_chemical_formula_sum "Si O2"
_cell_formula_units_Z 32
_cell_length_a 8.924590
_cell_length_b 11.614473
_cell_length_c 16.447954
_cell_angle_alpha 90.000000
_cell_angle_beta 90.000000
_cell_angle_gamma 90.000000
_cell_volume 1704.902961
_symmetry_space_group_name_H-M "P M N 21"
_symmetry_group_IT_number 31
_symmetry_cell_setting 'orthorhombic'
loop_
_space_group_symop_operation_xyz
x,y,z
1/2-x,-y,1/2+z
-x,y,z
1/2+x,-y,1/2+z
loop_
_atom_site_type_symbol
_atom_site_label
_atom_site_fract_x
_atom_site_fract_y
_atom_site_fract_z
Si Si1 0.334321 0.094758 0.779580
Si Si2 0.321949 0.066061 0.523204
Si Si3 0.679938 0.806903 0.575347
Si Si4 0.319514 0.572303 0.268206
Si Si5 0.326731 0.775418 0.150445
Si Si6 0.321121 0.308240 0.235467
Si Si7 0.826083 0.713455 0.413524
Si Si8 0.328811 0.854940 0.858016
O O1 0.500000 0.124668 0.744045
O O2 0.199698 0.134410 0.723445
O O3 0.322822 0.166589 0.862845
O O4 0.331864 0.960396 0.794726
O O5 0.500000 0.062607 0.512570
O O6 0.273229 0.172153 0.579839
O O7 0.242432 0.091294 0.438293
O O8 0.276645 0.941771 0.561189
O O9 0.500000 0.802411 0.579169
O O10 0.747100 0.752341 0.657216
O O11 0.738599 0.735523 0.497027
O O12 0.500000 0.580514 0.278433
O O13 0.279427 0.656121 0.192761
O O14 0.279613 0.442336 0.245487
O O15 0.243724 0.621351 0.350293
O O16 0.500000 0.768993 0.125930
O O17 0.500000 0.300328 0.227492
O O18 0.266508 0.244572 0.316821
O O19 0.000000 0.685623 0.430057
O O20 0.500000 0.818286 0.873194
#
# Coordination Sequence:
#
# PCOD9342992 Si02
#       8
#     4   4   4   4   4   4   4   4
#     4   9  18  33  55  84 117 148 184 233 291 351
#     4  11  23  38  58  88 123 156 194 242 299 359
#     4  11  23  39  61  90 124 158 199 249 301 358
#     4   9  21  42  62  84 117 156 201 248 294 351
#     4  10  20  35  59  86 113 150 193 240 292 346
#     4  11  24  42  62  86 120 161 206 250 298 357
#     4  10  19  35  62  91 117 153 197 244 295 351
#     4  11  22  38  59  85 121 156 192 242 298 357
#
# _framework density 18.769397000000001
#
# number of rings (size 3 to 8) (size 9 to 14) (size 15 to 20)
#    0.000    1.750    1.250    3.000    0.000    7.500 
#    2.250    0.000    0.000    0.000    0.000    0.000 
#    0.000    0.000    0.000    0.000    0.000    0.000 
#
# Total GULP energy -178589.992603 kJ/mol
# GULP energy per Si atom -5580.937269 kJ/mol
# Density = 1.872668 g / cm^3
# Si number density = 18.769397 Si / 1000 Ang^3
#
#
#
# Elastic Constant Matrix: (Units=GPa)
#
#
# Indices 1 2 3 4 5 6 
#
# 1 64.2264 47.2768 34.5362 0.0000 0.0000 0.0000
# 2 47.2768 124.6535 54.6731 0.0000 0.0000 0.0000
# 3 34.5362 54.6731 66.3296 0.0000 0.0000 0.0000
# 4 0.0000 0.0000 0.0000 22.9072 0.0000 0.0000
# 5 0.0000 0.0000 0.0000 0.0000 35.8187 0.0000
# 6 0.0000 0.0000 0.0000 0.0000 0.0000 2.7707
#
#
#
# Elastic Compliance Matrix: (Units=1/GPa)
#
#
# Indices 1 2 3 4 5 6 
#
# 1 0.023924 -0.005654 -0.007796 0.000000 0.000000 0.000000
# 2 -0.005654 0.013901 -0.008514 0.000000 0.000000 0.000000
# 3 -0.007796 -0.008514 0.026153 0.000000 0.000000 0.000000
# 4 0.000000 0.000000 0.000000 0.043654 0.000000 0.000000
# 5 0.000000 0.000000 0.000000 0.000000 0.027918 0.000000
# 6 0.000000 0.000000 0.000000 0.000000 0.000000 0.360926
#
#
# Mechanical properties :
#
#
# Convention : Reuss Voigt Hill
#
# Bulk Modulus (GPa) = 49.87633 58.68688 54.28160
# Shear Modulus (GPa) = 9.13928 20.21419 14.67673
#
# Velocity S-wave (km/s) = 2.20903 3.28529 2.79937
# Velocity P-wave (km/s) = 5.75650 6.76210 6.27947
#
# Compressibility (1/GPa) = 0.02004959
#
# Stress axis : x y z
#
# Youngs Moduli (GPa) = 41.79871 71.93749 38.23602
#
# Poissons Ratio (x) = 0.40675 0.29809
# Poissons Ratio (y) = 0.23634 0.32554
# Poissons Ratio (z) = 0.32587 0.61248
#
# Static dielectric constant tensor:
#      x y z
#    x 1.643860 0.000000 0.000000 
#    y 0.000000 1.641740 0.000000 
#    z 0.000000 0.000000 1.674190 
# 
# From -- ./inp_files/5055.got.cif
#   From: 2010.05.17/outbox.cif.g08.bks.cpg/sg31_3_cif.got.tgz:5055.got - 2010.06.03 17:08:30.
