data_PCOD9342325
_publ_section_title
;
Structure prediction by ZEFSAII (Michael W. Deem and Ramdas Pophale) SiO2 
 PCOD9342325
Probable space group: P N C 2
;
_chemical_formula_sum "Si O2"
_cell_formula_units_Z 20
_cell_length_a 11.366839
_cell_length_b 8.368202
_cell_length_c 8.968871
_cell_angle_alpha 90.000000
_cell_angle_beta 90.000000
_cell_angle_gamma 90.000000
_cell_volume 853.119053
_symmetry_space_group_name_H-M "P N C 2"
_symmetry_group_IT_number 30
_symmetry_cell_setting 'orthorhombic'
loop_
_space_group_symop_operation_xyz
x,y,z
-x,-y,z
-x,1/2+y,1/2+z
x,1/2-y,1/2+z
loop_
_atom_site_type_symbol
_atom_site_label
_atom_site_fract_x
_atom_site_fract_y
_atom_site_fract_z
Si Si1 0.386238 0.118655 0.658980
Si Si2 0.140385 0.827738 0.303121
Si Si3 0.838704 0.553742 0.315108
Si Si4 0.634370 0.946471 0.320658
Si Si5 0.976588 0.760438 0.555770
O O1 0.299383 0.061784 0.788424
O O2 0.337981 0.104962 0.490829
O O3 0.382267 0.306547 0.699294
O O4 0.500000 0.000000 0.667180
O O5 0.144028 0.635184 0.317660
O O6 0.065452 0.862321 0.451314
O O7 0.263252 0.922820 0.287487
O O8 0.061931 0.848624 0.157010
O O9 0.891933 0.653815 0.451610
O O10 0.900252 0.637123 0.172243
O O11 0.500000 0.000000 0.332864
#
# Coordination Sequence:
#
# PCOD9342325 Si02
#       5
#     4   4   4   4   4
#     4  11  25  46  72 105 145 191 248 307 368 446
#     4  11  24  44  70 104 144 190 245 306 370 442
#     4  11  23  43  69 104 148 192 246 304 370 444
#     4  11  26  47  74 105 143 194 249 307 372 442
#     4  10  22  40  71 110 148 193 240 300 373 448
#
# _framework density 23.443387000000001
#
# number of rings (size 3 to 8) (size 9 to 14) (size 15 to 20)
#    0.000    1.200    0.000    6.000    0.000    8.800 
#    0.000   10.000    0.000    2.400    0.000    0.000 
#    0.000    0.000    0.000    0.000    0.000    0.000 
#
# Total GULP energy -111607.344773 kJ/mol
# GULP energy per Si atom -5580.367239 kJ/mol
# Density = 2.339003 g / cm^3
# Si number density = 23.443387 Si / 1000 Ang^3
#
#
#
# Elastic Constant Matrix: (Units=GPa)
#
#
# Indices 1 2 3 4 5 6 
#
# 1 156.8695 80.1747 62.8649 0.0000 0.0000 0.0000
# 2 80.1747 160.7616 67.2439 0.0000 0.0000 0.0000
# 3 62.8649 67.2439 142.6329 0.0000 0.0000 0.0000
# 4 0.0000 0.0000 0.0000 30.6910 0.0000 0.0000
# 5 0.0000 0.0000 0.0000 0.0000 22.3333 0.0000
# 6 0.0000 0.0000 0.0000 0.0000 0.0000 53.8083
#
#
#
# Elastic Compliance Matrix: (Units=1/GPa)
#
#
# Indices 1 2 3 4 5 6 
#
# 1 0.009143 -0.003580 -0.002342 0.000000 0.000000 0.000000
# 2 -0.003580 0.009150 -0.002736 0.000000 0.000000 0.000000
# 3 -0.002342 -0.002736 0.009333 0.000000 0.000000 0.000000
# 4 0.000000 0.000000 0.000000 0.032583 0.000000 0.000000
# 5 0.000000 0.000000 0.000000 0.000000 0.044776 0.000000
# 6 0.000000 0.000000 0.000000 0.000000 0.000000 0.018584
#
#
# Mechanical properties :
#
#
# Convention : Reuss Voigt Hill
#
# Bulk Modulus (GPa) = 96.99012 97.87013 97.43012
# Shear Modulus (GPa) = 34.64455 38.03187 36.33821
#
# Velocity S-wave (km/s) = 3.84838 4.03213 3.94133
# Velocity P-wave (km/s) = 7.82359 7.96966 7.89696
#
# Compressibility (1/GPa) = 0.01031033
#
# Stress axis : x y z
#
# Youngs Moduli (GPa) = 109.37259 109.28587 107.14651
#
# Poissons Ratio (x) = 0.39127 0.25092
# Poissons Ratio (y) = 0.39158 0.29314
# Poissons Ratio (z) = 0.25614 0.29900
#
# Static dielectric constant tensor:
#      x y z
#    x 2.034790 0.000000 0.000000 
#    y 0.000000 2.259680 0.000000 
#    z 0.000000 0.000000 1.910170 
# 
# From -- ./inp_files/2283.got.cif
#   From: 2010.05.17/outbox.cif.g08.bks.cpg/sg30_2_cif.got.tgz:2283.got - 2010.06.03 17:03:02.
