data_PCOD9342277
_publ_section_title
;
Structure prediction by ZEFSAII (Michael W. Deem and Ramdas Pophale) SiO2 
 PCOD9342277
Probable space group: P N C 2
;
_chemical_formula_sum "Si O2"
_cell_formula_units_Z 24
_cell_length_a 13.036922
_cell_length_b 5.388784
_cell_length_c 13.680567
_cell_angle_alpha 90.000000
_cell_angle_beta 90.000000
_cell_angle_gamma 90.000000
_cell_volume 961.103017
_symmetry_space_group_name_H-M "P N C 2"
_symmetry_group_IT_number 30
_symmetry_cell_setting 'orthorhombic'
loop_
_space_group_symop_operation_xyz
x,y,z
-x,-y,z
-x,1/2+y,1/2+z
x,1/2-y,1/2+z
loop_
_atom_site_type_symbol
_atom_site_label
_atom_site_fract_x
_atom_site_fract_y
_atom_site_fract_z
Si Si1 0.794265 0.722564 0.659770
Si Si2 0.639285 0.758351 0.831889
Si Si3 0.296583 0.756482 0.365192
Si Si4 0.500000 0.000000 0.673276
Si Si5 0.942501 0.246717 0.916900
Si Si6 0.700831 0.224073 0.629228
Si Si7 0.000000 0.500000 0.609101
O O1 0.744411 0.745420 0.767100
O O2 0.739051 0.496401 0.601564
O O3 0.910568 0.634201 0.667110
O O4 0.772812 0.986167 0.608463
O O5 0.641666 0.504426 0.890600
O O6 0.554381 0.803449 0.747701
O O7 0.646796 0.005035 0.895820
O O8 0.177587 0.757090 0.393231
O O9 0.300642 0.745523 0.247452
O O10 0.414713 0.861192 0.610036
O O11 0.000000 0.500000 0.890257
O O12 0.000000 0.000000 0.874311
O O13 0.954743 0.200440 0.033132
#
# Coordination Sequence:
#
# PCOD9342277 Si02
#       7
#     4   4   4   2   4   4   2
#     4   9  19  33  48  75 107 134 175 208 261 303
#     4   9  18  31  54  80 108 131 159 219 265 333
#     4   9  17  34  46  75 106 125 176 207 267 297
#     4   8  16  32  54  82 112 130 164 194 290 334
#     4  10  22  35  52  70  97 144 193 215 247 308
#     4   9  19  32  53  80 105 131 161 217 264 329
#     4  10  24  36  52  70 106 152 188 214 258 294
#
# _framework density 24.971309000000002
#
# number of rings (size 3 to 8) (size 9 to 14) (size 15 to 20)
#    0.500    2.667    0.000    1.000    2.333   10.667 
#   18.000    0.000    0.000    0.000    0.000   23.333 
#    0.000    0.000    0.000    0.000    0.000    0.000 
#
# Total GULP energy -133965.917197 kJ/mol
# GULP energy per Si atom -5581.913217 kJ/mol
# Density = 2.491447 g / cm^3
# Si number density = 24.971309 Si / 1000 Ang^3
#
#
#
# Elastic Constant Matrix: (Units=GPa)
#
#
# Indices 1 2 3 4 5 6 
#
# 1 81.3970 16.4519 5.8368 0.0000 0.0000 0.0000
# 2 16.4519 223.0705 -9.1668 0.0000 0.0000 0.0000
# 3 5.8368 -9.1668 68.5415 0.0000 0.0000 0.0000
# 4 0.0000 0.0000 0.0000 0.4571 0.0000 0.0000
# 5 0.0000 0.0000 0.0000 0.0000 11.4671 0.0000
# 6 0.0000 0.0000 0.0000 0.0000 0.0000 40.1755
#
#
#
# Elastic Compliance Matrix: (Units=1/GPa)
#
#
# Indices 1 2 3 4 5 6 
#
# 1 0.012569 -0.000976 -0.001201 0.000000 0.000000 0.000000
# 2 -0.000976 0.004584 0.000696 0.000000 0.000000 0.000000
# 3 -0.001201 0.000696 0.014785 0.000000 0.000000 0.000000
# 4 0.000000 0.000000 0.000000 2.187725 0.000000 0.000000
# 5 0.000000 0.000000 0.000000 0.000000 0.087206 0.000000
# 6 0.000000 0.000000 0.000000 0.000000 0.000000 0.024891
#
#
# Mechanical properties :
#
#
# Convention : Reuss Voigt Hill
#
# Bulk Modulus (GPa) = 34.51215 44.36142 39.43679
# Shear Modulus (GPa) = 2.13276 34.41241 18.27258
#
# Velocity S-wave (km/s) = 0.92517 3.71627 2.70801
# Velocity P-wave (km/s) = 3.87195 6.01812 5.06013
#
# Compressibility (1/GPa) = 0.02897530
#
# Stress axis : x y z
#
# Youngs Moduli (GPa) = 79.56133 218.17385 67.63580
#
# Poissons Ratio (x) = 0.21301 0.08122
# Poissons Ratio (y) = 0.07768 -0.04708
# Poissons Ratio (z) = 0.09555 -0.15188
#
# Static dielectric constant tensor:
#      x y z
#    x 1.979890 0.000000 0.000000 
#    y 0.000000 2.155990 0.000000 
#    z 0.000000 0.000000 1.995680 
# 
# From -- ./inp_files/7021.got.cif
#   From: 2010.05.17/outbox.cif.g08.bks.cpg/sg30_4_cif.got.tgz:7021.got - 2010.06.03 17:03:02.
