data_PCOD9342444
_publ_section_title
;
Structure prediction by ZEFSAII (Michael W. Deem and Ramdas Pophale) SiO2 
 PCOD9342444
Probable space group: P N C 2
;
_chemical_formula_sum "Si O2"
_cell_formula_units_Z 16
_cell_length_a 4.866418
_cell_length_b 24.438807
_cell_length_c 5.719957
_cell_angle_alpha 90.000000
_cell_angle_beta 90.000000
_cell_angle_gamma 90.000000
_cell_volume 680.271342
_symmetry_space_group_name_H-M "P N C 2"
_symmetry_group_IT_number 30
_symmetry_cell_setting 'orthorhombic'
loop_
_space_group_symop_operation_xyz
x,y,z
-x,-y,z
-x,1/2+y,1/2+z
x,1/2-y,1/2+z
loop_
_atom_site_type_symbol
_atom_site_label
_atom_site_fract_x
_atom_site_fract_y
_atom_site_fract_z
Si Si1 0.500000 0.500000 0.248830
Si Si2 0.230707 0.660927 0.579392
Si Si3 0.000000 0.500000 0.947903
Si Si4 0.282128 0.087317 0.112340
Si Si5 0.503616 0.760596 0.771770
O O1 0.631961 0.547734 0.402476
O O2 0.248321 0.523315 0.100776
O O3 0.438941 0.616807 0.688473
O O4 0.261930 0.715512 0.734165
O O5 0.366830 0.681469 0.335256
O O6 0.936219 0.634367 0.551076
O O7 0.139649 0.452629 0.796737
O O8 0.647786 0.757159 0.517616
#
# Coordination Sequence:
#
# PCOD9342444 Si02
#       5
#     2   4   2   4   4
#     4  12  26  46  72 108 148 192 250 312 372 458
#     4  10  23  42  72 102 146 194 243 300 380 436
#     4  12  26  46  72 108 148 192 250 312 372 458
#     4  12  25  46  72 106 144 192 243 306 370 452
#     4   8  20  44  64 104 144 186 242 298 354 444
#
# _framework density 23.520028
#
# number of rings (size 3 to 8) (size 9 to 14) (size 15 to 20)
#    1.500    0.000    0.000    6.000    0.000    8.000 
#    0.000    0.000    0.000    0.000    0.000    0.000 
#    0.000    0.000    0.000    0.000    0.000    0.000 
#
# Total GULP energy -89302.032187 kJ/mol
# GULP energy per Si atom -5581.377012 kJ/mol
# Density = 2.346650 g / cm^3
# Si number density = 23.520028 Si / 1000 Ang^3
#
#
#
# Elastic Constant Matrix: (Units=GPa)
#
#
# Indices 1 2 3 4 5 6 
#
# 1 139.7660 38.0606 45.6501 0.0000 0.0000 0.0000
# 2 38.0606 95.6965 20.9317 0.0000 0.0000 0.0000
# 3 45.6501 20.9317 117.6162 0.0000 0.0000 0.0000
# 4 0.0000 0.0000 0.0000 36.3920 0.0000 0.0000
# 5 0.0000 0.0000 0.0000 0.0000 28.4476 0.0000
# 6 0.0000 0.0000 0.0000 0.0000 0.0000 16.7265
#
#
#
# Elastic Compliance Matrix: (Units=1/GPa)
#
#
# Indices 1 2 3 4 5 6 
#
# 1 0.008904 -0.002898 -0.002940 0.000000 0.000000 0.000000
# 2 -0.002898 0.011816 -0.000978 0.000000 0.000000 0.000000
# 3 -0.002940 -0.000978 0.009817 0.000000 0.000000 0.000000
# 4 0.000000 0.000000 0.000000 0.027479 0.000000 0.000000
# 5 0.000000 0.000000 0.000000 0.000000 0.035152 0.000000
# 6 0.000000 0.000000 0.000000 0.000000 0.000000 0.059785
#
#
# Mechanical properties :
#
#
# Convention : Reuss Voigt Hill
#
# Bulk Modulus (GPa) = 59.15381 62.48484 60.81932
# Shear Modulus (GPa) = 29.03218 32.87564 30.95391
#
# Velocity S-wave (km/s) = 3.51716 3.74273 3.63170
# Velocity P-wave (km/s) = 6.45747 6.73066 6.59548
#
# Compressibility (1/GPa) = 0.01690508
#
# Stress axis : x y z
#
# Youngs Moduli (GPa) = 112.30361 84.62836 101.85924
#
# Poissons Ratio (x) = 0.24528 0.29949
# Poissons Ratio (y) = 0.32550 0.09962
# Poissons Ratio (z) = 0.33020 0.08276
#
# Static dielectric constant tensor:
#      x y z
#    x 1.833900 0.000000 0.000000 
#    y 0.000000 1.881750 0.000000 
#    z 0.000000 0.000000 1.958610 
# 
# From -- ./inp_files/175.got.cif
#   From: 2010.05.17/outbox.cif.g08.bks.cpg/sg30_1_cif.got.tgz:175.got - 2010.06.03 17:03:02.
