data_PCOD9342891
_publ_section_title
;
Structure prediction by ZEFSAII (Michael W. Deem and Ramdas Pophale) SiO2 
 PCOD9342891
Probable space group: P M N 21
;
_chemical_formula_sum "Si O2"
_cell_formula_units_Z 32
_cell_length_a 7.798786
_cell_length_b 15.261755
_cell_length_c 12.668900
_cell_angle_alpha 90.000000
_cell_angle_beta 90.000000
_cell_angle_gamma 90.000000
_cell_volume 1507.892527
_symmetry_space_group_name_H-M "P M N 21"
_symmetry_group_IT_number 31
_symmetry_cell_setting 'orthorhombic'
loop_
_space_group_symop_operation_xyz
x,y,z
1/2-x,-y,1/2+z
-x,y,z
1/2+x,-y,1/2+z
loop_
_atom_site_type_symbol
_atom_site_label
_atom_site_fract_x
_atom_site_fract_y
_atom_site_fract_z
Si Si1 0.210574 0.635737 0.236710
Si Si2 0.707273 0.844427 0.728756
Si Si3 0.294950 0.326309 0.502307
Si Si4 0.199882 0.868863 0.961994
Si Si5 0.699243 0.333921 0.124454
Si Si6 0.794259 0.057140 0.017271
Si Si7 0.705829 0.236778 0.914779
Si Si8 0.697995 0.548041 0.809402
O O1 0.261486 0.721010 0.304424
O O2 0.273047 0.549221 0.298146
O O3 0.000000 0.632997 0.235730
O O4 0.267530 0.637420 0.115069
O O5 0.500000 0.837784 0.736432
O O6 0.785465 0.876735 0.836597
O O7 0.782863 0.750063 0.700417
O O8 0.753016 0.906428 0.631716
O O9 0.500000 0.318971 0.510123
O O10 0.225567 0.227068 0.488077
O O11 0.265383 0.388195 0.401102
O O12 0.000000 0.866610 0.995083
O O13 0.277673 0.959686 0.003262
O O14 0.500000 0.357523 0.110313
O O15 0.786142 0.409759 0.192471
O O16 0.770071 0.297662 0.012805
O O17 0.000000 0.050954 0.012260
O O18 0.747732 0.135322 0.936474
O O19 0.500000 0.242750 0.919683
O O20 0.500000 0.537867 0.836052
#
# Coordination Sequence:
#
# PCOD9342891 Si02
#       8
#     4   4   4   4   4   4   4   4
#     4   9  21  39  58  83 116 152 190 235 288 341
#     4  10  19  33  54  80 110 143 187 237 283 332
#     4  10  21  39  60  82 112 152 194 230 282 351
#     4  10  20  35  56  80 112 149 188 234 284 341
#     4  10  19  33  56  81 108 144 187 233 283 338
#     4   9  20  36  54  82 115 149 189 236 288 337
#     4   9  19  37  59  82 111 150 193 234 279 339
#     4  11  22  36  57  84 114 145 186 241 287 333
#
# _framework density 21.221672000000002
#
# number of rings (size 3 to 8) (size 9 to 14) (size 15 to 20)
#    0.000    2.250    1.250    1.125    1.750    2.500 
#    0.000    5.000    0.000    0.000    0.000    0.000 
#    0.000    0.000    0.000    0.000    0.000    0.000 
#
# Total GULP energy -178462.101277 kJ/mol
# GULP energy per Si atom -5576.940665 kJ/mol
# Density = 2.117337 g / cm^3
# Si number density = 21.221672 Si / 1000 Ang^3
#
#
#
# Elastic Constant Matrix: (Units=GPa)
#
#
# Indices 1 2 3 4 5 6 
#
# 1 24.9670 6.4060 3.4832 0.0000 0.0000 0.0000
# 2 6.4060 145.1040 57.3170 0.0000 0.0000 0.0000
# 3 3.4832 57.3170 72.8774 0.0000 0.0000 0.0000
# 4 0.0000 0.0000 0.0000 16.1306 0.0000 0.0000
# 5 0.0000 0.0000 0.0000 0.0000 22.7696 0.0000
# 6 0.0000 0.0000 0.0000 0.0000 0.0000 17.1723
#
#
#
# Elastic Compliance Matrix: (Units=1/GPa)
#
#
# Indices 1 2 3 4 5 6 
#
# 1 0.040541 -0.001486 -0.000769 0.000000 0.000000 0.000000
# 2 -0.001486 0.010052 -0.007835 0.000000 0.000000 0.000000
# 3 -0.000769 -0.007835 0.019920 0.000000 0.000000 0.000000
# 4 0.000000 0.000000 0.000000 0.061994 0.000000 0.000000
# 5 0.000000 0.000000 0.000000 0.000000 0.043918 0.000000
# 6 0.000000 0.000000 0.000000 0.000000 0.000000 0.058233
#
#
# Mechanical properties :
#
#
# Convention : Reuss Voigt Hill
#
# Bulk Modulus (GPa) = 19.86718 41.92897 30.89807
# Shear Modulus (GPa) = 18.40831 22.93066 20.66948
#
# Velocity S-wave (km/s) = 2.94841 3.29071 3.12425
# Velocity P-wave (km/s) = 4.57962 5.85140 5.25413
#
# Compressibility (1/GPa) = 0.05033427
#
# Stress axis : x y z
#
# Youngs Moduli (GPa) = 24.66614 99.48303 50.20004
#
# Poissons Ratio (x) = 0.14784 0.03860
# Poissons Ratio (y) = 0.03666 0.39330
# Poissons Ratio (z) = 0.01897 0.77942
#
# Static dielectric constant tensor:
#      x y z
#    x 1.783340 0.000000 0.000000 
#    y 0.000000 1.804720 0.000000 
#    z 0.000000 0.000000 1.764760 
# 
# From -- ./inp_files/3663.got.cif
#   From: 2010.05.17/outbox.cif.g08.bks.cpg/sg31_2_cif.got.tgz:3663.got - 2010.06.03 17:08:30.
