data_PCOD9342874
_publ_section_title
;
Structure prediction by ZEFSAII (Michael W. Deem and Ramdas Pophale) SiO2 
 PCOD9342874
Probable space group: P M N 21
;
_chemical_formula_sum "Si O2"
_cell_formula_units_Z 32
_cell_length_a 8.792300
_cell_length_b 11.770605
_cell_length_c 16.628054
_cell_angle_alpha 90.000000
_cell_angle_beta 90.000000
_cell_angle_gamma 90.000000
_cell_volume 1720.848787
_symmetry_space_group_name_H-M "P M N 21"
_symmetry_group_IT_number 31
_symmetry_cell_setting 'orthorhombic'
loop_
_space_group_symop_operation_xyz
x,y,z
1/2-x,-y,1/2+z
-x,y,z
1/2+x,-y,1/2+z
loop_
_atom_site_type_symbol
_atom_site_label
_atom_site_fract_x
_atom_site_fract_y
_atom_site_fract_z
Si Si1 0.184411 0.198731 0.018370
Si Si2 0.827783 0.232236 0.440992
Si Si3 0.817159 0.728795 0.681144
Si Si4 0.320640 0.868478 0.231421
Si Si5 0.685405 0.682673 0.351287
Si Si6 0.327017 0.925528 0.785174
Si Si7 0.818789 0.941246 0.062540
Si Si8 0.683350 0.422775 0.333733
O O1 0.250077 0.274299 0.091619
O O2 0.000000 0.200837 0.022176
O O3 0.233792 0.066803 0.032239
O O4 0.232194 0.252074 0.932786
O O5 0.833516 0.146416 0.365861
O O6 0.739213 0.162223 0.507948
O O7 0.749614 0.343512 0.404043
O O8 0.000000 0.257224 0.467627
O O9 0.746786 0.843107 0.719216
O O10 0.775495 0.630655 0.746113
O O11 0.000000 0.735963 0.678183
O O12 0.500000 0.862930 0.216976
O O13 0.267009 0.752107 0.271965
O O14 0.239949 0.911358 0.151258
O O15 0.279590 0.966177 0.295440
O O16 0.500000 0.683745 0.351574
O O17 0.734254 0.552163 0.345600
O O18 0.500000 0.957028 0.762688
O O19 0.000000 0.944195 0.061364
O O20 0.500000 0.418588 0.338116
#
# Coordination Sequence:
#
# PCOD9342874 Si02
#       8
#     4   4   4   4   4   4   4   4
#     4  10  20  36  59  84 114 148 187 236 287 344
#     4  10  21  36  57  84 112 145 187 237 285 332
#     4  10  19  32  56  85 111 145 186 235 284 333
#     4  11  21  35  57  83 115 151 188 233 286 342
#     4   9  20  39  60  82 112 155 195 233 283 339
#     4  10  19  33  54  81 113 146 182 228 283 340
#     4  11  22  36  56  85 119 150 186 232 288 350
#     4   9  19  39  61  80 110 150 195 234 278 342
#
# _framework density 18.595475
#
# number of rings (size 3 to 8) (size 9 to 14) (size 15 to 20)
#    0.000    2.000    1.250    2.625    0.000    3.500 
#    2.250    3.125    0.000    0.000    0.000    0.000 
#    0.000    0.000    0.000    0.000    0.000    0.000 
#
# Total GULP energy -178477.911393 kJ/mol
# GULP energy per Si atom -5577.434731 kJ/mol
# Density = 1.855315 g / cm^3
# Si number density = 18.595475 Si / 1000 Ang^3
#
#
#
# Elastic Constant Matrix: (Units=GPa)
#
#
# Indices 1 2 3 4 5 6 
#
# 1 38.2789 26.0076 26.7573 0.0000 0.0000 0.0000
# 2 26.0076 143.3421 66.6002 0.0000 0.0000 0.0000
# 3 26.7573 66.6002 87.4760 0.0000 0.0000 0.0000
# 4 0.0000 0.0000 0.0000 24.3175 0.0000 0.0000
# 5 0.0000 0.0000 0.0000 0.0000 29.2717 0.0000
# 6 0.0000 0.0000 0.0000 0.0000 0.0000 17.1066
#
#
#
# Elastic Compliance Matrix: (Units=1/GPa)
#
#
# Indices 1 2 3 4 5 6 
#
# 1 0.033612 -0.002045 -0.008724 0.000000 0.000000 0.000000
# 2 -0.002045 0.010919 -0.007688 0.000000 0.000000 0.000000
# 3 -0.008724 -0.007688 0.019954 0.000000 0.000000 0.000000
# 4 0.000000 0.000000 0.000000 0.041123 0.000000 0.000000
# 5 0.000000 0.000000 0.000000 0.000000 0.034163 0.000000
# 6 0.000000 0.000000 0.000000 0.000000 0.000000 0.058457
#
#
# Mechanical properties :
#
#
# Convention : Reuss Voigt Hill
#
# Bulk Modulus (GPa) = 36.27089 56.42524 46.34807
# Shear Modulus (GPa) = 20.46399 24.12130 22.29265
#
# Velocity S-wave (km/s) = 3.32095 3.60552 3.46616
# Velocity P-wave (km/s) = 5.85257 6.90959 6.40293
#
# Compressibility (1/GPa) = 0.02757032
#
# Stress axis : x y z
#
# Youngs Moduli (GPa) = 29.75142 91.58044 50.11626
#
# Poissons Ratio (x) = 0.18727 0.43723
# Poissons Ratio (y) = 0.06084 0.38529
# Poissons Ratio (z) = 0.25956 0.70407
#
# Static dielectric constant tensor:
#      x y z
#    x 1.648250 0.000000 0.000000 
#    y 0.000000 1.651130 0.000000 
#    z 0.000000 0.000000 1.679760 
# 
# From -- ./inp_files/5006.got.cif
#   From: 2010.05.17/outbox.cif.g08.bks.cpg/sg31_3_cif.got.tgz:5006.got - 2010.06.03 17:08:30.
