data_PCOD9342977
_publ_section_title
;
Structure prediction by ZEFSAII (Michael W. Deem and Ramdas Pophale) SiO2 
 PCOD9342977
Probable space group: P M N 21
;
_chemical_formula_sum "Si O2"
_cell_formula_units_Z 32
_cell_length_a 8.640898
_cell_length_b 15.025866
_cell_length_c 12.704559
_cell_angle_alpha 90.000000
_cell_angle_beta 90.000000
_cell_angle_gamma 90.000000
_cell_volume 1649.521515
_symmetry_space_group_name_H-M "P M N 21"
_symmetry_group_IT_number 31
_symmetry_cell_setting 'orthorhombic'
loop_
_space_group_symop_operation_xyz
x,y,z
1/2-x,-y,1/2+z
-x,y,z
1/2+x,-y,1/2+z
loop_
_atom_site_type_symbol
_atom_site_label
_atom_site_fract_x
_atom_site_fract_y
_atom_site_fract_z
Si Si1 0.184828 0.263035 0.719530
Si Si2 0.176685 0.833350 0.020172
Si Si3 0.823946 0.642986 0.906080
Si Si4 0.689436 0.831426 0.632347
Si Si5 0.686639 0.867943 0.396048
Si Si6 0.818317 0.364668 0.186131
Si Si7 0.186673 0.557717 0.124222
Si Si8 0.684906 0.947092 0.834727
O O1 0.243572 0.195175 0.628921
O O2 0.230272 0.220998 0.831733
O O3 0.249462 0.361016 0.694049
O O4 0.000000 0.267448 0.714028
O O5 0.000000 0.862212 0.040436
O O6 0.173812 0.741875 0.953593
O O7 0.259671 0.902873 0.944099
O O8 0.707252 0.638122 0.810729
O O9 0.000000 0.621789 0.871244
O O10 0.779762 0.580551 0.003057
O O11 0.500000 0.830772 0.634840
O O12 0.737145 0.866960 0.517913
O O13 0.744267 0.729169 0.643641
O O14 0.739675 0.889992 0.733023
O O15 0.500000 0.873358 0.395372
O O16 0.752398 0.953080 0.335726
O O17 0.753037 0.459396 0.149420
O O18 0.000000 0.365676 0.159361
O O19 0.000000 0.559647 0.136019
O O20 0.500000 0.947285 0.832207
#
# Coordination Sequence:
#
# PCOD9342977 Si02
#       8
#     4   4   4   4   4   4   4   4
#     4  10  21  37  59  86 117 152 199 247 286 344
#     4  10  20  36  59  82 112 150 189 241 298 347
#     4   9  18  33  52  79 110 143 186 236 288 338
#     4   9  20  39  60  84 116 153 193 237 292 351
#     4  10  23  41  59  84 119 159 195 237 295 351
#     4  10  19  35  59  83 111 150 194 237 283 346
#     4   9  20  36  56  83 116 155 194 236 295 354
#     4  11  22  37  60  89 115 148 196 243 289 349
#
# _framework density 19.399564999999999
#
# number of rings (size 3 to 8) (size 9 to 14) (size 15 to 20)
#    0.000    2.250    1.250    1.875    1.750    4.500 
#    0.000    3.750    0.000    0.000    0.000    0.000 
#    0.000    0.000    0.000    0.000    0.000    0.000 
#
# Total GULP energy -178494.111468 kJ/mol
# GULP energy per Si atom -5577.940983 kJ/mol
# Density = 1.935541 g / cm^3
# Si number density = 19.399565 Si / 1000 Ang^3
#
#
#
# Elastic Constant Matrix: (Units=GPa)
#
#
# Indices 1 2 3 4 5 6 
#
# 1 13.4055 19.8754 13.9361 0.0000 0.0000 0.0000
# 2 19.8754 112.6042 51.0457 0.0000 0.0000 0.0000
# 3 13.9361 51.0457 65.9584 0.0000 0.0000 0.0000
# 4 0.0000 0.0000 0.0000 14.0290 0.0000 0.0000
# 5 0.0000 0.0000 0.0000 0.0000 16.5010 0.0000
# 6 0.0000 0.0000 0.0000 0.0000 0.0000 24.8196
#
#
#
# Elastic Compliance Matrix: (Units=1/GPa)
#
#
# Indices 1 2 3 4 5 6 
#
# 1 0.107174 -0.013327 -0.012330 0.000000 0.000000 0.000000
# 2 -0.013327 0.015337 -0.009054 0.000000 0.000000 0.000000
# 3 -0.012330 -0.009054 0.024773 0.000000 0.000000 0.000000
# 4 0.000000 0.000000 0.000000 0.071281 0.000000 0.000000
# 5 0.000000 0.000000 0.000000 0.000000 0.060602 0.000000
# 6 0.000000 0.000000 0.000000 0.000000 0.000000 0.040291
#
#
# Mechanical properties :
#
#
# Convention : Reuss Voigt Hill
#
# Bulk Modulus (GPa) = 12.84330 40.18695 26.51512
# Shear Modulus (GPa) = 12.05297 18.21065 15.13181
#
# Velocity S-wave (km/s) = 2.49530 3.06717 2.79589
# Velocity P-wave (km/s) = 3.86481 5.77094 4.91124
#
# Compressibility (1/GPa) = 0.07786163
#
# Stress axis : x y z
#
# Youngs Moduli (GPa) = 9.33061 65.20064 40.36653
#
# Poissons Ratio (x) = 0.86896 0.49773
# Poissons Ratio (y) = 0.12435 0.36547
# Poissons Ratio (z) = 0.11505 0.59031
#
# Static dielectric constant tensor:
#      x y z
#    x 1.675980 0.000000 0.000000 
#    y 0.000000 1.692230 0.000000 
#    z 0.000000 0.000000 1.671430 
# 
# From -- ./inp_files/3652.got.cif
#   From: 2010.05.17/outbox.cif.g08.bks.cpg/sg31_2_cif.got.tgz:3652.got - 2010.06.03 17:08:30.
