data_PCOD9342039
_publ_section_title
;
Structure prediction by ZEFSAII (Michael W. Deem and Ramdas Pophale) SiO2 
 PCOD9342039
Probable space group: P N C 2
;
_chemical_formula_sum "Si O2"
_cell_formula_units_Z 30
_cell_length_a 8.382726
_cell_length_b 10.733116
_cell_length_c 14.601865
_cell_angle_alpha 90.000000
_cell_angle_beta 90.000000
_cell_angle_gamma 90.000000
_cell_volume 1313.770249
_symmetry_space_group_name_H-M "P N C 2"
_symmetry_group_IT_number 30
_symmetry_cell_setting 'orthorhombic'
loop_
_space_group_symop_operation_xyz
x,y,z
-x,-y,z
-x,1/2+y,1/2+z
x,1/2-y,1/2+z
loop_
_atom_site_type_symbol
_atom_site_label
_atom_site_fract_x
_atom_site_fract_y
_atom_site_fract_z
Si Si1 0.244616 0.299370 0.192960
Si Si2 0.964913 0.767329 0.524672
Si Si3 0.283311 0.307272 0.388792
Si Si4 0.368859 0.780048 0.324740
Si Si5 0.301444 0.654370 0.009229
Si Si6 0.540324 0.357280 0.624425
Si Si7 0.854566 0.068725 0.900359
Si Si8 0.500000 0.000000 0.653183
O O1 0.094149 0.289033 0.127186
O O2 0.190333 0.274002 0.295479
O O3 0.370148 0.205580 0.145839
O O4 0.361802 0.421157 0.203105
O O5 0.802599 0.775747 0.465746
O O6 0.112830 0.859293 0.514017
O O7 0.050016 0.639836 0.483860
O O8 0.461537 0.275563 0.357561
O O9 0.262359 0.451610 0.419154
O O10 0.342675 0.879683 0.405354
O O11 0.369564 0.830742 0.221636
O O12 0.236809 0.673706 0.342798
O O13 0.364582 0.793696 0.040096
O O14 0.394794 0.581868 0.085838
O O15 0.500000 0.500000 0.608736
O O16 0.000000 0.000000 0.848133
#
# Coordination Sequence:
#
# PCOD9342039 Si02
#       8
#     4   4   4   4   4   4   4   2
#     4  10  23  40  67  93 135 168 225 280 331 399
#     4  10  22  41  56  97 134 169 207 271 344 399
#     4  10  20  36  64  94 128 172 221 274 324 395
#     4  10  21  38  63  93 129 170 224 271 327 395
#     4  10  23  39  66  91 131 169 219 275 330 400
#     4  10  23  41  65  94 125 175 226 269 328 398
#     4   9  20  35  60  92 128 166 212 270 328 387
#     4  10  22  42  64 100 122 174 226 276 332 396
#
# _framework density 22.835045000000001
#
# number of rings (size 3 to 8) (size 9 to 14) (size 15 to 20)
#    0.000    2.133    0.000    2.000    6.533   11.200 
#    2.400    0.000    0.000    0.000    0.000    0.000 
#    0.000    0.000    0.000    0.000    0.000    0.000 
#
# Total GULP energy -167042.603361 kJ/mol
# GULP energy per Si atom -5568.086779 kJ/mol
# Density = 2.278307 g / cm^3
# Si number density = 22.835045 Si / 1000 Ang^3
#
#
#
# Elastic Constant Matrix: (Units=GPa)
#
#
# Indices 1 2 3 4 5 6 
#
# 1 49.2918 14.7102 10.9140 0.0000 0.0000 0.0000
# 2 14.7102 34.6255 -8.4715 0.0000 0.0000 0.0000
# 3 10.9140 -8.4715 134.4349 0.0000 0.0000 0.0000
# 4 0.0000 0.0000 0.0000 19.7186 0.0000 0.0000
# 5 0.0000 0.0000 0.0000 0.0000 31.8174 0.0000
# 6 0.0000 0.0000 0.0000 0.0000 0.0000 21.3872
#
#
#
# Elastic Compliance Matrix: (Units=1/GPa)
#
#
# Indices 1 2 3 4 5 6 
#
# 1 0.024125 -0.010896 -0.002645 0.000000 0.000000 0.000000
# 2 -0.010896 0.034254 0.003043 0.000000 0.000000 0.000000
# 3 -0.002645 0.003043 0.007845 0.000000 0.000000 0.000000
# 4 0.000000 0.000000 0.000000 0.050714 0.000000 0.000000
# 5 0.000000 0.000000 0.000000 0.000000 0.031429 0.000000
# 6 0.000000 0.000000 0.000000 0.000000 0.000000 0.046757
#
#
# Mechanical properties :
#
#
# Convention : Reuss Voigt Hill
#
# Bulk Modulus (GPa) = 22.11052 28.07306 25.09179
# Shear Modulus (GPa) = 21.62667 27.99795 24.81231
#
# Velocity S-wave (km/s) = 3.08081 3.50536 3.29992
# Velocity P-wave (km/s) = 4.72852 5.35761 5.05286
#
# Compressibility (1/GPa) = 0.04522734
#
# Stress axis : x y z
#
# Youngs Moduli (GPa) = 41.45107 29.19362 127.46884
#
# Poissons Ratio (x) = 0.31810 0.33718
# Poissons Ratio (y) = 0.45166 -0.38791
# Poissons Ratio (z) = 0.10965 -0.08884
#
# Static dielectric constant tensor:
#      x y z
#    x 1.875880 0.000000 0.000000 
#    y 0.000000 1.953970 0.000000 
#    z 0.000000 0.000000 1.852890 
# 
# From -- ./inp_files/5185.got.cif
#   From: 2010.05.17/outbox.cif.g08.bks.cpg/sg30_3_cif.got.tgz:5185.got - 2010.06.03 17:03:02.
