data_PCOD9342020
_publ_section_title
;
Structure prediction by ZEFSAII (Michael W. Deem and Ramdas Pophale) SiO2 
 PCOD9342020
Probable space group: P N C 2
;
_chemical_formula_sum "Si O2"
_cell_formula_units_Z 28
_cell_length_a 13.171162
_cell_length_b 18.047389
_cell_length_c 5.293875
_cell_angle_alpha 90.000000
_cell_angle_beta 90.000000
_cell_angle_gamma 90.000000
_cell_volume 1258.381003
_symmetry_space_group_name_H-M "P N C 2"
_symmetry_group_IT_number 30
_symmetry_cell_setting 'orthorhombic'
loop_
_space_group_symop_operation_xyz
x,y,z
-x,-y,z
-x,1/2+y,1/2+z
x,1/2-y,1/2+z
loop_
_atom_site_type_symbol
_atom_site_label
_atom_site_fract_x
_atom_site_fract_y
_atom_site_fract_z
Si Si1 0.840476 0.541707 0.366670
Si Si2 0.442709 0.199569 0.339914
Si Si3 0.054553 0.298704 0.875113
Si Si4 0.952279 0.111654 0.741959
Si Si5 0.751053 0.899231 0.368380
Si Si6 0.242745 0.668313 0.445069
Si Si7 0.673044 0.163991 0.442451
O O1 0.891716 0.464198 0.291367
O O2 0.786377 0.549439 0.635419
O O3 0.936769 0.598691 0.362671
O O4 0.765853 0.563206 0.139668
O O5 0.430896 0.251312 0.587519
O O6 0.359349 0.135419 0.336155
O O7 0.556610 0.167647 0.361742
O O8 0.041658 0.253317 0.620576
O O9 0.167500 0.332002 0.869673
O O10 0.977688 0.365684 0.952296
O O11 0.873592 0.169704 0.861431
O O12 0.286614 0.751295 0.476890
O O13 0.262224 0.630816 0.713835
O O14 0.305314 0.630760 0.216902
#
# Coordination Sequence:
#
# PCOD9342020 Si02
#       7
#     4   4   4   4   4   4   4
#     4  10  24  44  59  92 118 174 227 245 289 385
#     4  12  20  37  65  92 120 162 192 260 324 380
#     4  11  23  37  56  96 129 153 197 257 320 390
#     4  10  24  40  67  84 130 173 207 257 310 360
#     4  11  23  40  63  86 128 162 212 260 305 369
#     4  10  20  35  57  87 120 155 192 251 299 375
#     4  10  20  36  55  93 121 147 199 243 316 391
#
# _framework density 22.250813000000001
#
# number of rings (size 3 to 8) (size 9 to 14) (size 15 to 20)
#    0.000    1.429    2.857    3.429    4.000    9.143 
#    0.000    0.000    0.000    5.143    0.000    0.000 
#    0.000    0.000    0.000    0.000    0.000    0.000 
#
# Total GULP energy -156466.757606 kJ/mol
# GULP energy per Si atom -5588.098486 kJ/mol
# Density = 2.220017 g / cm^3
# Si number density = 22.250813 Si / 1000 Ang^3
#
#
#
# Elastic Constant Matrix: (Units=GPa)
#
#
# Indices 1 2 3 4 5 6 
#
# 1 95.4131 27.3501 -0.7601 0.0000 0.0000 0.0000
# 2 27.3501 48.9296 14.5269 0.0000 0.0000 0.0000
# 3 -0.7601 14.5269 137.0391 0.0000 0.0000 0.0000
# 4 0.0000 0.0000 0.0000 17.3646 0.0000 0.0000
# 5 0.0000 0.0000 0.0000 0.0000 24.4842 0.0000
# 6 0.0000 0.0000 0.0000 0.0000 0.0000 22.9000
#
#
#
# Elastic Compliance Matrix: (Units=1/GPa)
#
#
# Indices 1 2 3 4 5 6 
#
# 1 0.012574 -0.007278 0.000841 0.000000 0.000000 0.000000
# 2 -0.007278 0.025314 -0.002724 0.000000 0.000000 0.000000
# 3 0.000841 -0.002724 0.007591 0.000000 0.000000 0.000000
# 4 0.000000 0.000000 0.000000 0.057589 0.000000 0.000000
# 5 0.000000 0.000000 0.000000 0.000000 0.040843 0.000000
# 6 0.000000 0.000000 0.000000 0.000000 0.000000 0.043668
#
#
# Mechanical properties :
#
#
# Convention : Reuss Voigt Hill
#
# Bulk Modulus (GPa) = 36.82234 40.40173 38.61204
# Shear Modulus (GPa) = 23.26102 28.96741 26.11421
#
# Velocity S-wave (km/s) = 3.23677 3.61204 3.42954
# Velocity P-wave (km/s) = 5.52753 5.96596 5.75092
#
# Compressibility (1/GPa) = 0.02715743
#
# Stress axis : x y z
#
# Youngs Moduli (GPa) = 79.53110 39.50319 131.74204
#
# Poissons Ratio (x) = 0.28751 -0.11083
# Poissons Ratio (y) = 0.57883 0.35884
# Poissons Ratio (z) = -0.06691 0.10760
#
# Static dielectric constant tensor:
#      x y z
#    x 1.784220 0.000000 0.000000 
#    y 0.000000 2.024950 0.000000 
#    z 0.000000 0.000000 1.897010 
# 
# From -- ./inp_files/765.got.cif
#   From: 2010.05.17/outbox.cif.g08.bks.cpg/sg30_1_cif.got.tgz:765.got - 2010.06.03 17:03:02.
