data_PCOD9342984
_publ_section_title
;
Structure prediction by ZEFSAII (Michael W. Deem and Ramdas Pophale) SiO2 
 PCOD9342984
Probable space group: P M N 21
;
_chemical_formula_sum "Si O2"
_cell_formula_units_Z 32
_cell_length_a 7.868393
_cell_length_b 16.248902
_cell_length_c 11.462982
_cell_angle_alpha 90.000000
_cell_angle_beta 90.000000
_cell_angle_gamma 90.000000
_cell_volume 1465.573735
_symmetry_space_group_name_H-M "P M N 21"
_symmetry_group_IT_number 31
_symmetry_cell_setting 'orthorhombic'
loop_
_space_group_symop_operation_xyz
x,y,z
1/2-x,-y,1/2+z
-x,y,z
1/2+x,-y,1/2+z
loop_
_atom_site_type_symbol
_atom_site_label
_atom_site_fract_x
_atom_site_fract_y
_atom_site_fract_z
Si Si1 0.207407 0.210136 0.030470
Si Si2 0.697005 0.641474 0.364111
Si Si3 0.701384 0.666089 0.713373
Si Si4 0.705242 0.971730 0.465196
Si Si5 0.795032 0.938552 0.205275
Si Si6 0.800107 0.754371 0.172921
Si Si7 0.695176 0.478307 0.041397
Si Si8 0.707156 0.653211 0.973409
O O1 0.266571 0.251068 0.150922
O O2 0.000000 0.206846 0.030612
O O3 0.257686 0.278907 0.936841
O O4 0.267593 0.120421 0.996654
O O5 0.500000 0.625903 0.390578
O O6 0.714482 0.676317 0.235531
O O7 0.794503 0.562884 0.412405
O O8 0.500000 0.677498 0.725029
O O9 0.725926 0.588018 0.628842
O O10 0.770363 0.651981 0.841108
O O11 0.500000 0.973748 0.467542
O O12 0.751907 0.984668 0.327825
O O13 0.761977 0.025302 0.578712
O O14 0.732633 0.843524 0.211522
O O15 0.000000 0.936640 0.200215
O O16 0.000000 0.751557 0.197884
O O17 0.767735 0.735091 0.038039
O O18 0.500000 0.485664 0.077060
O O19 0.770938 0.568868 0.033063
O O20 0.500000 0.650910 0.974850
#
# Coordination Sequence:
#
# PCOD9342984 Si02
#       8
#     4   4   4   4   4   4   4   4
#     4   8  15  31  58  83 102 139 190 234 279 339
#     4  10  19  35  60  85 109 146 194 234 282 349
#     4   9  19  37  56  79 112 149 194 245 290 349
#     4  10  20  38  62  88 121 160 204 253 306 371
#     4  10  23  40  60  92 128 159 205 258 308 368
#     4  11  23  38  57  84 120 157 195 245 302 350
#     4  10  21  36  55  85 116 148 190 241 296 348
#     4  10  23  39  56  82 116 154 200 242 291 360
#
# _framework density 21.834451999999999
#
# number of rings (size 3 to 8) (size 9 to 14) (size 15 to 20)
#    0.000    2.250    1.250    1.875    1.750    3.500 
#    0.000    1.250    0.000    0.000    0.000    0.000 
#    0.000    0.000    0.000    0.000    0.000    0.000 
#
# Total GULP energy -178399.973366 kJ/mol
# GULP energy per Si atom -5574.999168 kJ/mol
# Density = 2.178476 g / cm^3
# Si number density = 21.834452 Si / 1000 Ang^3
#
#
#
# Elastic Constant Matrix: (Units=GPa)
#
#
# Indices 1 2 3 4 5 6 
#
# 1 25.6749 -2.4824 -3.4086 0.0000 0.0000 0.0000
# 2 -2.4824 64.0605 40.3810 0.0000 0.0000 0.0000
# 3 -3.4086 40.3810 132.9021 0.0000 0.0000 0.0000
# 4 0.0000 0.0000 0.0000 25.9067 0.0000 0.0000
# 5 0.0000 0.0000 0.0000 0.0000 22.9938 0.0000
# 6 0.0000 0.0000 0.0000 0.0000 0.0000 10.8134
#
#
#
# Elastic Compliance Matrix: (Units=1/GPa)
#
#
# Indices 1 2 3 4 5 6 
#
# 1 0.039143 0.001093 0.000672 0.000000 0.000000 0.000000
# 2 0.001093 0.019339 -0.005848 0.000000 0.000000 0.000000
# 3 0.000672 -0.005848 0.009318 0.000000 0.000000 0.000000
# 4 0.000000 0.000000 0.000000 0.038600 0.000000 0.000000
# 5 0.000000 0.000000 0.000000 0.000000 0.043490 0.000000
# 6 0.000000 0.000000 0.000000 0.000000 0.000000 0.092478
#
#
# Mechanical properties :
#
#
# Convention : Reuss Voigt Hill
#
# Bulk Modulus (GPa) = 16.76860 32.40194 24.58527
# Shear Modulus (GPa) = 18.49027 24.48595 21.48811
#
# Velocity S-wave (km/s) = 2.91321 3.35242 3.14050
# Velocity P-wave (km/s) = 4.36030 5.46415 4.94314
#
# Compressibility (1/GPa) = 0.05963526
#
# Stress axis : x y z
#
# Youngs Moduli (GPa) = 25.54705 51.70937 107.31476
#
# Poissons Ratio (x) = -0.05654 -0.07208
# Poissons Ratio (y) = -0.02793 0.62756
# Poissons Ratio (z) = -0.01716 0.30239
#
# Static dielectric constant tensor:
#      x y z
#    x 1.804370 0.000000 0.000000 
#    y 0.000000 1.780970 0.000000 
#    z 0.000000 0.000000 1.882600 
# 
# From -- ./inp_files/3731.got.cif
#   From: 2010.05.17/outbox.cif.g08.bks.cpg/sg31_2_cif.got.tgz:3731.got - 2010.06.03 17:08:30.
