data_PCOD9342154
_publ_section_title
;
Structure prediction by ZEFSAII (Michael W. Deem and Ramdas Pophale) SiO2 
 PCOD9342154
Probable space group: P N C 2
;
_chemical_formula_sum "Si O2"
_cell_formula_units_Z 24
_cell_length_a 10.000568
_cell_length_b 17.505585
_cell_length_c 5.492867
_cell_angle_alpha 90.000000
_cell_angle_beta 90.000000
_cell_angle_gamma 90.000000
_cell_volume 961.613118
_symmetry_space_group_name_H-M "P N C 2"
_symmetry_group_IT_number 30
_symmetry_cell_setting 'orthorhombic'
loop_
_space_group_symop_operation_xyz
x,y,z
-x,-y,z
-x,1/2+y,1/2+z
x,1/2-y,1/2+z
loop_
_atom_site_type_symbol
_atom_site_label
_atom_site_fract_x
_atom_site_fract_y
_atom_site_fract_z
Si Si1 0.003908 0.406575 0.303320
Si Si2 0.512340 0.773587 0.607414
Si Si3 0.819723 0.779929 0.000391
Si Si4 0.098381 0.575585 0.794949
Si Si5 0.652914 0.522761 0.851544
Si Si6 0.399945 0.071634 0.845164
O O1 0.916811 0.383756 0.537603
O O2 0.000000 0.500000 0.298420
O O3 0.137523 0.359718 0.374446
O O4 0.943088 0.383949 0.044274
O O5 0.451949 0.775384 0.333413
O O6 0.663986 0.744642 0.542071
O O7 0.521992 0.856214 0.735048
O O8 0.870254 0.774847 0.278891
O O9 0.248666 0.545717 0.799340
O O10 0.000000 0.500000 0.785948
O O11 0.500000 0.500000 0.880063
O O12 0.656060 0.579159 0.620157
O O13 0.695514 0.551527 0.117302
O O14 0.500000 0.000000 0.875545
#
# Coordination Sequence:
#
# PCOD9342154 Si02
#       6
#     4   4   4   4   4   4
#     4  10  21  36  55  86 129 168 204 255 328 402
#     4  10  21  34  55  89 130 171 211 273 350 406
#     4  10  21  36  55  85 128 170 208 263 335 402
#     4  10  21  34  55  88 124 163 209 267 326 378
#     4  10  21  38  61  92 129 167 215 273 327 389
#     4  10  21  38  61  92 131 173 222 281 338 399
#
# _framework density 24.958061000000001
#
# number of rings (size 3 to 8) (size 9 to 14) (size 15 to 20)
#    0.000    2.000    0.000    3.000    0.000   16.000 
#    0.000    0.000    0.000    0.000    0.000   93.333 
#    0.000    0.000    0.000    0.000    0.000    0.000 
#
# Total GULP energy -133658.125741 kJ/mol
# GULP energy per Si atom -5569.088573 kJ/mol
# Density = 2.490126 g / cm^3
# Si number density = 24.958061 Si / 1000 Ang^3
#
#
#
# Elastic Constant Matrix: (Units=GPa)
#
#
# Indices 1 2 3 4 5 6 
#
# 1 73.9929 21.2343 17.0793 0.0000 0.0000 0.0000
# 2 21.2343 84.7102 21.8662 0.0000 0.0000 0.0000
# 3 17.0793 21.8662 266.3514 0.0000 0.0000 0.0000
# 4 0.0000 0.0000 0.0000 45.6769 0.0000 0.0000
# 5 0.0000 0.0000 0.0000 0.0000 28.5569 0.0000
# 6 0.0000 0.0000 0.0000 0.0000 0.0000 43.9186
#
#
#
# Elastic Compliance Matrix: (Units=1/GPa)
#
#
# Indices 1 2 3 4 5 6 
#
# 1 0.014673 -0.003509 -0.000653 0.000000 0.000000 0.000000
# 2 -0.003509 0.012900 -0.000834 0.000000 0.000000 0.000000
# 3 -0.000653 -0.000834 0.003865 0.000000 0.000000 0.000000
# 4 0.000000 0.000000 0.000000 0.021893 0.000000 0.000000
# 5 0.000000 0.000000 0.000000 0.000000 0.035018 0.000000
# 6 0.000000 0.000000 0.000000 0.000000 0.000000 0.022769
#
#
# Mechanical properties :
#
#
# Convention : Reuss Voigt Hill
#
# Bulk Modulus (GPa) = 46.63114 60.60156 53.61635
# Shear Modulus (GPa) = 38.98387 47.95547 43.46967
#
# Velocity S-wave (km/s) = 3.95647 4.38818 4.17791
# Velocity P-wave (km/s) = 6.29253 7.07170 6.69346
#
# Compressibility (1/GPa) = 0.02144490
#
# Stress axis : x y z
#
# Youngs Moduli (GPa) = 68.15412 77.51968 258.74820
#
# Poissons Ratio (x) = 0.27205 0.16890
# Poissons Ratio (y) = 0.23919 0.21579
# Poissons Ratio (z) = 0.04449 0.06465
#
# Static dielectric constant tensor:
#      x y z
#    x 2.008280 0.000000 0.000000 
#    y 0.000000 2.162170 0.000000 
#    z 0.000000 0.000000 2.140260 
# 
# From -- ./inp_files/700.got.cif
#   From: 2010.05.17/outbox.cif.g08.bks.cpg/sg30_1_cif.got.tgz:700.got - 2010.06.03 17:03:02.
