data_PCOD9342829
_publ_section_title
;
Structure prediction by ZEFSAII (Michael W. Deem and Ramdas Pophale) SiO2 
 PCOD9342829
Probable space group: P M N 21
;
_chemical_formula_sum "Si O2"
_cell_formula_units_Z 32
_cell_length_a 7.728175
_cell_length_b 10.451999
_cell_length_c 20.063015
_cell_angle_alpha 90.000000
_cell_angle_beta 90.000000
_cell_angle_gamma 90.000000
_cell_volume 1620.587576
_symmetry_space_group_name_H-M "P M N 21"
_symmetry_group_IT_number 31
_symmetry_cell_setting 'orthorhombic'
loop_
_space_group_symop_operation_xyz
x,y,z
1/2-x,-y,1/2+z
-x,y,z
1/2+x,-y,1/2+z
loop_
_atom_site_type_symbol
_atom_site_label
_atom_site_fract_x
_atom_site_fract_y
_atom_site_fract_z
Si Si1 0.298713 0.797081 0.798640
Si Si2 0.711863 0.782014 0.944557
Si Si3 0.295395 0.497995 0.293598
Si Si4 0.708884 0.850974 0.654829
Si Si5 0.299241 0.646898 0.166895
Si Si6 0.208123 0.114790 0.584506
Si Si7 0.792861 0.514972 0.441224
Si Si8 0.296587 0.593562 0.582939
O O1 0.500000 0.834813 0.800794
O O2 0.224879 0.827169 0.871811
O O3 0.289137 0.642611 0.791454
O O4 0.223171 0.854602 0.730823
O O5 0.500000 0.783591 0.942580
O O6 0.762789 0.633044 0.952072
O O7 0.770250 0.859743 0.009131
O O8 0.500000 0.477906 0.282254
O O9 0.224934 0.588956 0.235247
O O10 0.269054 0.552440 0.367661
O O11 0.500000 0.841928 0.658136
O O12 0.770073 0.721410 0.618691
O O13 0.752719 0.976407 0.613423
O O14 0.500000 0.676135 0.181568
O O15 0.222740 0.773582 0.133334
O O16 0.291327 0.532372 0.113235
O O17 0.000000 0.129836 0.581872
O O18 0.728527 0.595910 0.503677
O O19 0.000000 0.517413 0.441254
O O20 0.500000 0.580998 0.597542
#
# Coordination Sequence:
#
# PCOD9342829 Si02
#       8
#     4   4   4   4   4   4   4   4
#     4   9  17  33  54  76 106 142 179 221 275 328
#     4   8  15  30  54  77 100 134 175 222 265 318
#     4  10  19  31  52  83 114 140 178 227 276 326
#     4  10  22  37  52  78 113 146 181 228 278 324
#     4  10  20  35  55  81 112 143 179 225 275 326
#     4  10  20  36  55  78 107 144 186 222 270 329
#     4  10  19  34  55  79 111 144 181 226 279 328
#     4  11  21  34  55  82 111 141 181 227 276 325
#
# _framework density 19.745926000000001
#
# number of rings (size 3 to 8) (size 9 to 14) (size 15 to 20)
#    0.000    2.250    2.500    1.875    0.000    2.500 
#    0.000    1.875    0.000    3.000    0.000    0.000 
#    0.000    0.000    0.000    0.000    0.000    0.000 
#
# Total GULP energy -178529.843879 kJ/mol
# GULP energy per Si atom -5579.057621 kJ/mol
# Density = 1.970098 g / cm^3
# Si number density = 19.745926 Si / 1000 Ang^3
#
#
#
# Elastic Constant Matrix: (Units=GPa)
#
#
# Indices 1 2 3 4 5 6 
#
# 1 32.0272 -10.0143 -7.5589 0.0000 0.0000 0.0000
# 2 -10.0143 57.7373 32.0129 0.0000 0.0000 0.0000
# 3 -7.5589 32.0129 159.3360 0.0000 0.0000 0.0000
# 4 0.0000 0.0000 0.0000 30.6125 0.0000 0.0000
# 5 0.0000 0.0000 0.0000 0.0000 17.7209 0.0000
# 6 0.0000 0.0000 0.0000 0.0000 0.0000 19.8052
#
#
#
# Elastic Compliance Matrix: (Units=1/GPa)
#
#
# Indices 1 2 3 4 5 6 
#
# 1 0.033045 0.005472 0.000468 0.000000 0.000000 0.000000
# 2 0.005472 0.020397 -0.003838 0.000000 0.000000 0.000000
# 3 0.000468 -0.003838 0.007069 0.000000 0.000000 0.000000
# 4 0.000000 0.000000 0.000000 0.032666 0.000000 0.000000
# 5 0.000000 0.000000 0.000000 0.000000 0.056431 0.000000
# 6 0.000000 0.000000 0.000000 0.000000 0.000000 0.050492
#
#
# Mechanical properties :
#
#
# Convention : Reuss Voigt Hill
#
# Bulk Modulus (GPa) = 15.45242 30.88666 23.16954
# Shear Modulus (GPa) = 22.99182 29.27177 26.13179
#
# Velocity S-wave (km/s) = 3.41601 3.85440 3.64181
# Velocity P-wave (km/s) = 4.83750 5.95689 5.42614
#
# Compressibility (1/GPa) = 0.06471477
#
# Stress axis : x y z
#
# Youngs Moduli (GPa) = 30.26188 49.02643 141.45337
#
# Poissons Ratio (x) = -0.26826 -0.06624
# Poissons Ratio (y) = -0.16559 0.54297
# Poissons Ratio (z) = -0.01417 0.18819
#
# Static dielectric constant tensor:
#      x y z
#    x 1.733690 0.000000 0.000000 
#    y 0.000000 1.649190 0.000000 
#    z 0.000000 0.000000 1.732480 
# 
# From -- ./inp_files/5839.got.cif
#   From: 2010.05.17/outbox.cif.g08.bks.cpg/sg31_3_cif.got.tgz:5839.got - 2010.06.03 17:08:30.
