data_PCOD9342793
_publ_section_title
;
Structure prediction by ZEFSAII (Michael W. Deem and Ramdas Pophale) SiO2 
 PCOD9342793
Probable space group: P M N 21
;
_chemical_formula_sum "Si O2"
_cell_formula_units_Z 32
_cell_length_a 14.520344
_cell_length_b 12.140577
_cell_length_c 8.897268
_cell_angle_alpha 90.000000
_cell_angle_beta 90.000000
_cell_angle_gamma 90.000000
_cell_volume 1568.458043
_symmetry_space_group_name_H-M "P M N 21"
_symmetry_group_IT_number 31
_symmetry_cell_setting 'orthorhombic'
loop_
_space_group_symop_operation_xyz
x,y,z
1/2-x,-y,1/2+z
-x,y,z
1/2+x,-y,1/2+z
loop_
_atom_site_type_symbol
_atom_site_label
_atom_site_fract_x
_atom_site_fract_y
_atom_site_fract_z
Si Si1 0.106536 0.335482 0.042460
Si Si2 0.898110 0.814464 0.862719
Si Si3 0.363868 0.421661 0.478598
Si Si4 0.660596 0.628287 0.877020
Si Si5 0.607252 0.070173 0.039176
Si Si6 0.244365 0.776381 0.370380
Si Si7 0.706555 0.838243 0.036413
Si Si8 0.597658 0.397969 0.834615
O O1 0.161489 0.354402 0.197673
O O2 0.000000 0.310645 0.076082
O O3 0.108271 0.451667 0.951378
O O4 0.160085 0.239660 0.956648
O O5 0.899704 0.681199 0.880321
O O6 0.889013 0.859403 0.693656
O O7 0.000000 0.852514 0.919151
O O8 0.804876 0.851887 0.949253
O O9 0.255806 0.411630 0.449567
O O10 0.391337 0.400830 0.652825
O O11 0.596751 0.522351 0.894056
O O12 0.645294 0.746997 0.950011
O O13 0.500000 0.065858 0.992119
O O14 0.649159 0.948802 0.059943
O O15 0.677142 0.127549 0.923947
O O16 0.266149 0.789676 0.196767
O O17 0.184119 0.666907 0.397120
O O18 0.500000 0.343002 0.870794
#
# Coordination Sequence:
#
# PCOD9342793 Si02
#       8
#     4   4   4   4   4   4   4   4
#     4  11  24  40  63  97 137 176 216 268 335 411
#     4  10  20  39  65  94 127 171 222 270 330 400
#     4  10  18  35  64  94 129 165 208 262 326 394
#     4  10  20  39  65  93 132 175 211 264 336 402
#     4  11  26  45  65  94 132 175 229 286 333 397
#     4  12  23  41  68  94 135 169 221 278 345 393
#     4  11  24  43  68  94 128 178 224 278 337 397
#     4  11  21  36  62  98 132 167 213 270 334 406
#
# _framework density 20.402201999999999
#
# number of rings (size 3 to 8) (size 9 to 14) (size 15 to 20)
#    0.000    1.250    3.750    4.875    0.000    2.000 
#    2.250    0.625    0.000    0.000    0.000    0.000 
#    0.000    0.000    0.000    0.000    0.000    0.000 
#
# Total GULP energy -178441.595322 kJ/mol
# GULP energy per Si atom -5576.299854 kJ/mol
# Density = 2.035577 g / cm^3
# Si number density = 20.402202 Si / 1000 Ang^3
#
#
#
# Elastic Constant Matrix: (Units=GPa)
#
#
# Indices 1 2 3 4 5 6 
#
# 1 87.6320 33.3699 19.1699 0.0000 0.0000 0.0000
# 2 33.3699 101.6087 30.2745 0.0000 0.0000 0.0000
# 3 19.1699 30.2745 51.5633 0.0000 0.0000 0.0000
# 4 0.0000 0.0000 0.0000 20.4867 0.0000 0.0000
# 5 0.0000 0.0000 0.0000 0.0000 -32.9422 0.0000
# 6 0.0000 0.0000 0.0000 0.0000 0.0000 21.1422
#
#
#
# Elastic Compliance Matrix: (Units=1/GPa)
#
#
# Indices 1 2 3 4 5 6 
#
# 1 0.013392 -0.003533 -0.002905 0.000000 0.000000 0.000000
# 2 -0.003533 0.012860 -0.006237 0.000000 0.000000 0.000000
# 3 -0.002905 -0.006237 0.024136 0.000000 0.000000 0.000000
# 4 0.000000 0.000000 0.000000 0.048812 0.000000 0.000000
# 5 0.000000 0.000000 0.000000 0.000000 -0.030356 0.000000
# 6 0.000000 0.000000 0.000000 0.000000 0.000000 0.047299
#
#
# Mechanical properties :
#
#
# Convention : Reuss Voigt Hill
#
# Bulk Modulus (GPa) = 39.93836 45.15919 42.54877
# Shear Modulus (GPa) = 33.36933 12.26999 22.81966
#
# Velocity S-wave (km/s) = 4.04861 2.45502 3.34801
# Velocity P-wave (km/s) = 6.43995 5.49715 5.98714
#
# Compressibility (1/GPa) = 0.02503859
#
# Stress axis : x y z
#
# Youngs Moduli (GPa) = 74.67143 77.75862 41.43252
#
# Poissons Ratio (x) = 0.27470 0.12035
# Poissons Ratio (y) = 0.26379 0.25843
# Poissons Ratio (z) = 0.21689 0.48501
#
# Static dielectric constant tensor:
#      x y z
#    x 1.777360 0.000000 0.000000 
#    y 0.000000 1.759220 0.000000 
#    z 0.000000 0.000000 1.696150 
# 
# From -- ./inp_files/2583.got.cif
#   From: 2010.05.17/outbox.cif.g08.bks.cpg/sg31_2_cif.got.tgz:2583.got - 2010.06.03 17:08:30.
