data_PCOD9342790
_publ_section_title
;
Structure prediction by ZEFSAII (Michael W. Deem and Ramdas Pophale) SiO2 
 PCOD9342790
Probable space group: P M N 21
;
_chemical_formula_sum "Si O2"
_cell_formula_units_Z 32
_cell_length_a 14.289684
_cell_length_b 9.175989
_cell_length_c 11.785153
_cell_angle_alpha 90.000000
_cell_angle_beta 90.000000
_cell_angle_gamma 90.000000
_cell_volume 1545.292634
_symmetry_space_group_name_H-M "P M N 21"
_symmetry_group_IT_number 31
_symmetry_cell_setting 'orthorhombic'
loop_
_space_group_symop_operation_xyz
x,y,z
1/2-x,-y,1/2+z
-x,y,z
1/2+x,-y,1/2+z
loop_
_atom_site_type_symbol
_atom_site_label
_atom_site_fract_x
_atom_site_fract_y
_atom_site_fract_z
Si Si1 0.901160 0.283514 0.083580
Si Si2 0.812229 0.592445 0.581850
Si Si3 0.738465 0.712492 0.990282
Si Si4 0.609676 0.429771 0.329887
Si Si5 0.354586 0.776931 0.349078
Si Si6 0.306821 0.955959 0.152967
Si Si7 0.147301 0.101788 0.294461
Si Si8 0.148034 0.844580 0.438167
O O1 0.799224 0.362477 0.082352
O O2 0.903467 0.188047 0.196035
O O3 0.000000 0.370955 0.078500
O O4 0.899733 0.185112 0.969990
O O5 0.812827 0.424772 0.546261
O O6 0.852153 0.615856 0.706809
O O7 0.872626 0.686975 0.491798
O O8 0.829348 0.651137 0.925602
O O9 0.673481 0.790656 0.896975
O O10 0.753997 0.832287 0.088088
O O11 0.500000 0.399968 0.340591
O O12 0.625934 0.605069 0.335731
O O13 0.377027 0.869441 0.236899
O O14 0.245761 0.807486 0.374925
O O15 0.243690 0.054924 0.233311
O O16 0.344212 0.057514 0.052275
O O17 0.102865 0.955316 0.348007
#
# Coordination Sequence:
#
# PCOD9342790 Si02
#       8
#     4   4   4   4   4   4   4   4
#     4  11  21  37  62  91 127 168 215 263 316 378
#     4  11  21  40  61  95 123 170 210 264 327 379
#     4  11  21  36  66  89 121 161 213 255 318 382
#     4  12  23  38  61  96 134 164 210 269 319 377
#     4  10  19  33  57  91 121 157 206 255 310 373
#     4  10  18  35  60  87 118 162 205 251 314 379
#     4  10  20  37  60  91 119 165 213 259 314 382
#     4   9  18  34  63  86 116 161 211 252 318 376
#
# _framework density 20.708051999999999
#
# number of rings (size 3 to 8) (size 9 to 14) (size 15 to 20)
#    0.000    1.500    7.500    0.375    0.000    0.000 
#    0.000    1.875    0.000    0.750    0.000    0.000 
#    0.000    0.000    0.000    0.000    0.000    0.000 
#
# Total GULP energy -178141.694201 kJ/mol
# GULP energy per Si atom -5566.927944 kJ/mol
# Density = 2.066092 g / cm^3
# Si number density = 20.708052 Si / 1000 Ang^3
#
#
#
# Elastic Constant Matrix: (Units=GPa)
#
#
# Indices 1 2 3 4 5 6 
#
# 1 63.5478 6.4885 -2.4412 0.0000 0.0000 0.0000
# 2 6.4885 74.0599 2.9508 0.0000 0.0000 0.0000
# 3 -2.4412 2.9508 66.8739 0.0000 0.0000 0.0000
# 4 0.0000 0.0000 0.0000 36.7910 0.0000 0.0000
# 5 0.0000 0.0000 0.0000 0.0000 14.0866 0.0000
# 6 0.0000 0.0000 0.0000 0.0000 0.0000 3.5212
#
#
#
# Elastic Compliance Matrix: (Units=1/GPa)
#
#
# Indices 1 2 3 4 5 6 
#
# 1 0.015906 -0.001419 0.000643 0.000000 0.000000 0.000000
# 2 -0.001419 0.013653 -0.000654 0.000000 0.000000 0.000000
# 3 0.000643 -0.000654 0.015006 0.000000 0.000000 0.000000
# 4 0.000000 0.000000 0.000000 0.027181 0.000000 0.000000
# 5 0.000000 0.000000 0.000000 0.000000 0.070989 0.000000
# 6 0.000000 0.000000 0.000000 0.000000 0.000000 0.283997
#
#
# Mechanical properties :
#
#
# Convention : Reuss Voigt Hill
#
# Bulk Modulus (GPa) = 23.97833 24.27533 24.12683
# Shear Modulus (GPa) = 11.27413 24.04532 17.65973
#
# Velocity S-wave (km/s) = 2.33584 3.41127 2.92343
# Velocity P-wave (km/s) = 4.34502 5.22148 4.80328
#
# Compressibility (1/GPa) = 0.04170432
#
# Stress axis : x y z
#
# Youngs Moduli (GPa) = 62.87021 73.24408 66.64065
#
# Poissons Ratio (x) = 0.10394 -0.04287
# Poissons Ratio (y) = 0.08922 0.04360
# Poissons Ratio (z) = -0.04044 0.04792
#
# Static dielectric constant tensor:
#      x y z
#    x 1.767270 0.000000 0.000000 
#    y 0.000000 1.767490 0.000000 
#    z 0.000000 0.000000 1.776120 
# 
# From -- ./inp_files/4426.got.cif
#   From: 2010.05.17/outbox.cif.g08.bks.cpg/sg31_3_cif.got.tgz:4426.got - 2010.06.03 17:08:30.
