data_PCOD9342539
_publ_section_title
;
Structure prediction by ZEFSAII (Michael W. Deem and Ramdas Pophale) SiO2 
 PCOD9342539
Probable space group: P N C 2
;
_chemical_formula_sum "Si O2"
_cell_formula_units_Z 20
_cell_length_a 11.062576
_cell_length_b 14.044284
_cell_length_c 5.403273
_cell_angle_alpha 90.000000
_cell_angle_beta 90.000000
_cell_angle_gamma 90.000000
_cell_volume 839.484692
_symmetry_space_group_name_H-M "P N C 2"
_symmetry_group_IT_number 30
_symmetry_cell_setting 'orthorhombic'
loop_
_space_group_symop_operation_xyz
x,y,z
-x,-y,z
-x,1/2+y,1/2+z
x,1/2-y,1/2+z
loop_
_atom_site_type_symbol
_atom_site_label
_atom_site_fract_x
_atom_site_fract_y
_atom_site_fract_z
Si Si1 0.747250 0.172856 0.180590
Si Si2 0.756973 0.051405 0.688888
Si Si3 0.986360 0.706469 0.725570
Si Si4 0.494939 0.283302 0.042092
Si Si5 0.500000 0.500000 0.082936
Si Si6 0.000000 0.000000 0.458399
O O1 0.741967 0.110338 0.429998
O O2 0.870593 0.232647 0.205238
O O3 0.625431 0.233019 0.117787
O O4 0.766927 0.106602 0.944847
O O5 0.628203 0.000096 0.720646
O O6 0.881834 0.999245 0.631910
O O7 0.933943 0.736769 0.461041
O O8 0.988073 0.594946 0.792607
O O9 0.436989 0.273999 0.315179
O O10 0.496852 0.394382 0.961781
#
# Coordination Sequence:
#
# PCOD9342539 Si02
#       6
#     4   4   4   4   2   2
#     4  11  21  42  69 104 136 187 243 308 328 434
#     4  11  25  43  72 101 148 185 244 288 377 420
#     4  11  23  39  72 103 136 187 242 290 358 426
#     4  12  23  41  67 102 143 181 243 303 346 430
#     4  12  26  44  72 112 140 202 238 310 374 432
#     4  10  26  48  68 112 150 186 238 322 354 452
#
# _framework density 23.824137
#
# number of rings (size 3 to 8) (size 9 to 14) (size 15 to 20)
#    0.000    0.800    4.000    3.600    2.800   10.400 
#    0.000    2.000    0.000    0.000    0.000    0.000 
#    0.000    0.000    0.000    0.000    0.000    0.000 
#
# Total GULP energy -111423.657983 kJ/mol
# GULP energy per Si atom -5571.182899 kJ/mol
# Density = 2.376991 g / cm^3
# Si number density = 23.824137 Si / 1000 Ang^3
#
#
#
# Elastic Constant Matrix: (Units=GPa)
#
#
# Indices 1 2 3 4 5 6 
#
# 1 86.1370 11.5233 18.3469 0.0000 0.0000 0.0000
# 2 11.5233 128.9623 50.5703 0.0000 0.0000 0.0000
# 3 18.3469 50.5703 196.5519 0.0000 0.0000 0.0000
# 4 0.0000 0.0000 0.0000 46.1314 0.0000 0.0000
# 5 0.0000 0.0000 0.0000 0.0000 10.6181 0.0000
# 6 0.0000 0.0000 0.0000 0.0000 0.0000 40.9741
#
#
#
# Elastic Compliance Matrix: (Units=1/GPa)
#
#
# Indices 1 2 3 4 5 6 
#
# 1 0.011901 -0.000698 -0.000931 0.000000 0.000000 0.000000
# 2 -0.000698 0.008665 -0.002164 0.000000 0.000000 0.000000
# 3 -0.000931 -0.002164 0.005731 0.000000 0.000000 0.000000
# 4 0.000000 0.000000 0.000000 0.021677 0.000000 0.000000
# 5 0.000000 0.000000 0.000000 0.000000 0.094179 0.000000
# 6 0.000000 0.000000 0.000000 0.000000 0.000000 0.024406
#
#
# Mechanical properties :
#
#
# Convention : Reuss Voigt Hill
#
# Bulk Modulus (GPa) = 53.44627 63.61469 58.53048
# Shear Modulus (GPa) = 27.71865 41.62542 34.67203
#
# Velocity S-wave (km/s) = 3.41467 4.18448 3.81902
# Velocity P-wave (km/s) = 6.16676 7.07858 6.63834
#
# Compressibility (1/GPa) = 0.01871038
#
# Stress axis : x y z
#
# Youngs Moduli (GPa) = 84.02528 115.40297 174.47482
#
# Poissons Ratio (x) = 0.08058 0.16248
# Poissons Ratio (y) = 0.05867 0.37761
# Poissons Ratio (z) = 0.07825 0.24977
#
# Static dielectric constant tensor:
#      x y z
#    x 2.011140 0.000000 0.000000 
#    y 0.000000 1.955880 0.000000 
#    z 0.000000 0.000000 1.986050 
# 
# From -- ./inp_files/650.got.cif
#   From: 2010.05.17/outbox.cif.g08.bks.cpg/sg30_1_cif.got.tgz:650.got - 2010.06.03 17:03:02.
