data_PCOD9342375
_publ_section_title
;
Structure prediction by ZEFSAII (Michael W. Deem and Ramdas Pophale) SiO2 
 PCOD9342375
Probable space group: P N C 2
;
_chemical_formula_sum "Si O2"
_cell_formula_units_Z 22
_cell_length_a 13.959192
_cell_length_b 7.123476
_cell_length_c 9.349000
_cell_angle_alpha 90.000000
_cell_angle_beta 90.000000
_cell_angle_gamma 90.000000
_cell_volume 929.645574
_symmetry_space_group_name_H-M "P N C 2"
_symmetry_group_IT_number 30
_symmetry_cell_setting 'orthorhombic'
loop_
_space_group_symop_operation_xyz
x,y,z
-x,-y,z
-x,1/2+y,1/2+z
x,1/2-y,1/2+z
loop_
_atom_site_type_symbol
_atom_site_label
_atom_site_fract_x
_atom_site_fract_y
_atom_site_fract_z
Si Si1 0.399704 0.927054 0.260370
Si Si2 0.266321 0.210497 0.119077
Si Si3 0.000000 0.000000 0.777784
Si Si4 0.320870 0.630254 0.478410
Si Si5 0.823459 0.075810 0.568159
Si Si6 0.084999 0.376511 0.795774
O O1 0.351184 0.758921 0.347446
O O2 0.405532 0.856128 0.096039
O O3 0.500000 0.000000 0.318276
O O4 0.332343 0.108507 0.236736
O O5 0.264409 0.433466 0.105553
O O6 0.159280 0.171691 0.172635
O O7 0.293772 0.090627 0.976837
O O8 0.089959 0.928636 0.681178
O O9 0.040927 0.182252 0.856309
O O10 0.225392 0.724676 0.544817
O O11 0.866005 0.993674 0.421585
O O12 0.000000 0.500000 0.735109
#
# Coordination Sequence:
#
# PCOD9342375 Si02
#       6
#     4   4   2   4   4   4
#     4  10  23  46  67  99 131 167 222 276 338 403
#     4   9  23  40  63  96 127 168 223 274 325 400
#     4  10  24  36  58  96 130 174 222 262 332 376
#     4  10  22  43  70  92 133 171 217 279 336 388
#     4  11  20  40  65  93 130 177 219 271 330 393
#     4  11  21  39  60  91 134 169 221 270 319 393
#
# _framework density 23.664932
#
# number of rings (size 3 to 8) (size 9 to 14) (size 15 to 20)
#    1.091    0.727    2.727    1.091    0.000    5.818 
#    6.545    0.909    0.000    0.000    0.000    0.000 
#    0.000    0.000    0.000    0.000    0.000    0.000 
#
# Total GULP energy -122774.836002 kJ/mol
# GULP energy per Si atom -5580.674364 kJ/mol
# Density = 2.361107 g / cm^3
# Si number density = 23.664932 Si / 1000 Ang^3
#
#
#
# Elastic Constant Matrix: (Units=GPa)
#
#
# Indices 1 2 3 4 5 6 
#
# 1 76.4660 23.2871 0.1666 0.0000 0.0000 0.0000
# 2 23.2871 99.7297 11.1094 0.0000 0.0000 0.0000
# 3 0.1666 11.1094 45.3926 0.0000 0.0000 0.0000
# 4 0.0000 0.0000 0.0000 20.9557 0.0000 0.0000
# 5 0.0000 0.0000 0.0000 0.0000 15.2504 0.0000
# 6 0.0000 0.0000 0.0000 0.0000 0.0000 29.2046
#
#
#
# Elastic Compliance Matrix: (Units=1/GPa)
#
#
# Indices 1 2 3 4 5 6 
#
# 1 0.014105 -0.003380 0.000775 0.000000 0.000000 0.000000
# 2 -0.003380 0.011118 -0.002709 0.000000 0.000000 0.000000
# 3 0.000775 -0.002709 0.022690 0.000000 0.000000 0.000000
# 4 0.000000 0.000000 0.000000 0.047720 0.000000 0.000000
# 5 0.000000 0.000000 0.000000 0.000000 0.065572 0.000000
# 6 0.000000 0.000000 0.000000 0.000000 0.000000 0.034241
#
#
# Mechanical properties :
#
#
# Convention : Reuss Voigt Hill
#
# Bulk Modulus (GPa) = 26.81892 32.30163 29.56028
# Shear Modulus (GPa) = 22.88308 25.55047 24.21678
#
# Velocity S-wave (km/s) = 3.11297 3.28941 3.20241
# Velocity P-wave (km/s) = 4.92729 5.30152 5.11783
#
# Compressibility (1/GPa) = 0.03728711
#
# Stress axis : x y z
#
# Youngs Moduli (GPa) = 70.89491 89.94365 44.07212
#
# Poissons Ratio (x) = 0.30401 -0.03418
# Poissons Ratio (y) = 0.23963 0.11938
# Poissons Ratio (z) = -0.05498 0.24362
#
# Static dielectric constant tensor:
#      x y z
#    x 1.877250 0.000000 0.000000 
#    y 0.000000 1.925140 0.000000 
#    z 0.000000 0.000000 1.957970 
# 
# From -- ./inp_files/2622.got.cif
#   From: 2010.05.17/outbox.cif.g08.bks.cpg/sg30_2_cif.got.tgz:2622.got - 2010.06.03 17:03:02.
