data_PCOD9342914
_publ_section_title
;
Structure prediction by ZEFSAII (Michael W. Deem and Ramdas Pophale) SiO2 
 PCOD9342914
Probable space group: P M N 21
;
_chemical_formula_sum "Si O2"
_cell_formula_units_Z 32
_cell_length_a 9.143391
_cell_length_b 12.278912
_cell_length_c 14.188776
_cell_angle_alpha 90.000000
_cell_angle_beta 90.000000
_cell_angle_gamma 90.000000
_cell_volume 1592.986559
_symmetry_space_group_name_H-M "P M N 21"
_symmetry_group_IT_number 31
_symmetry_cell_setting 'orthorhombic'
loop_
_space_group_symop_operation_xyz
x,y,z
1/2-x,-y,1/2+z
-x,y,z
1/2+x,-y,1/2+z
loop_
_atom_site_type_symbol
_atom_site_label
_atom_site_fract_x
_atom_site_fract_y
_atom_site_fract_z
Si Si1 0.831227 0.775427 0.939440
Si Si2 0.168798 0.661472 0.551933
Si Si3 0.825159 0.070253 0.585585
Si Si4 0.826860 0.126156 0.988979
Si Si5 0.830289 0.586907 0.268681
Si Si6 0.662390 0.454254 0.544735
Si Si7 0.175920 0.181499 0.783938
Si Si8 0.827480 0.636438 0.775869
O O1 0.781489 0.743056 0.834607
O O2 0.000000 0.816202 0.938551
O O3 0.731500 0.852762 0.001343
O O4 0.829614 0.657669 0.989242
O O5 0.274262 0.752522 0.511681
O O6 0.217153 0.542395 0.517922
O O7 0.187531 0.657194 0.665011
O O8 0.000000 0.684916 0.529938
O O9 0.779685 0.122041 0.686471
O O10 0.000000 0.062875 0.586011
O O11 0.755812 0.954554 0.559442
O O12 0.791080 0.111125 0.877671
O O13 0.000000 0.113810 0.000496
O O14 0.823481 0.575991 0.154782
O O15 0.750385 0.699856 0.292714
O O16 0.755038 0.474906 0.302271
O O17 0.000000 0.591433 0.297042
O O18 0.500000 0.502738 0.530944
O O19 0.000000 0.197176 0.780864
O O20 0.000000 0.620317 0.795683
#
# Coordination Sequence:
#
# PCOD9342914 Si02
#       8
#     4   4   4   4   4   4   4   4
#     4  10  20  37  60  87 121 163 203 238 291 361
#     4  10  21  38  58  86 123 158 200 251 299 345
#     4  11  24  43  65  90 120 153 199 256 303 350
#     4  11  25  44  65  87 116 160 205 244 299 367
#     4  10  19  33  57  89 122 155 199 252 296 342
#     4   9  18  33  55  85 121 159 196 239 294 354
#     4  10  23  42  63  86 116 156 197 241 298 365
#     4   9  20  36  57  86 125 170 203 237 294 364
#
# _framework density 20.088052999999999
#
# number of rings (size 3 to 8) (size 9 to 14) (size 15 to 20)
#    0.000    2.000    1.250    1.500    1.750    4.500 
#    0.000    5.000    0.000    0.000    0.000    0.000 
#    0.000    0.000    0.000    0.000    0.000    0.000 
#
# Total GULP energy -178705.190100 kJ/mol
# GULP energy per Si atom -5584.537191 kJ/mol
# Density = 2.004233 g / cm^3
# Si number density = 20.088053 Si / 1000 Ang^3
#
#
#
# Elastic Constant Matrix: (Units=GPa)
#
#
# Indices 1 2 3 4 5 6 
#
# 1 48.8534 19.0726 20.9931 0.0000 0.0000 0.0000
# 2 19.0726 53.1504 10.5868 0.0000 0.0000 0.0000
# 3 20.9931 10.5868 62.2883 0.0000 0.0000 0.0000
# 4 0.0000 0.0000 0.0000 18.3188 0.0000 0.0000
# 5 0.0000 0.0000 0.0000 0.0000 -0.3040 0.0000
# 6 0.0000 0.0000 0.0000 0.0000 0.0000 40.5547
#
#
#
# Elastic Compliance Matrix: (Units=1/GPa)
#
#
# Indices 1 2 3 4 5 6 
#
# 1 0.026957 -0.008139 -0.007702 0.000000 0.000000 0.000000
# 2 -0.008139 0.021931 -0.000984 0.000000 0.000000 0.000000
# 3 -0.007702 -0.000984 0.018817 0.000000 0.000000 0.000000
# 4 0.000000 0.000000 0.000000 0.054589 0.000000 0.000000
# 5 0.000000 0.000000 0.000000 0.000000 -3.289705 0.000000
# 6 0.000000 0.000000 0.000000 0.000000 0.000000 0.024658
#
#
# Mechanical properties :
#
#
# Convention : Reuss Voigt Hill
#
# Bulk Modulus (GPa) = 29.36461 29.51081 29.43771
# Shear Modulus (GPa) = -1.61407 19.28988 8.83790
#
# Velocity S-wave (km/s) = -0.89735 3.10218 2.09979
# Velocity P-wave (km/s) = 3.68457 5.24919 4.53486
#
# Compressibility (1/GPa) = 0.03405460
#
# Stress axis : x y z
#
# Youngs Moduli (GPa) = 37.09673 45.59706 53.14215
#
# Poissons Ratio (x) = 0.37112 0.40929
# Poissons Ratio (y) = 0.30193 0.05231
# Poissons Ratio (z) = 0.28571 0.04489
#
# Static dielectric constant tensor:
#      x y z
#    x 1.680630 0.000000 0.000000 
#    y 0.000000 1.679490 0.000000 
#    z 0.000000 0.000000 1.772120 
# 
# From -- ./inp_files/5082.got.cif
#   From: 2010.05.17/outbox.cif.g08.bks.cpg/sg31_3_cif.got.tgz:5082.got - 2010.06.03 17:08:30.
