data_PCOD9342354
_publ_section_title
;
Structure prediction by ZEFSAII (Michael W. Deem and Ramdas Pophale) SiO2 
 PCOD9342354
Probable space group: P N C 2
;
_chemical_formula_sum "Si O2"
_cell_formula_units_Z 24
_cell_length_a 17.994339
_cell_length_b 5.271020
_cell_length_c 11.120943
_cell_angle_alpha 90.000000
_cell_angle_beta 90.000000
_cell_angle_gamma 90.000000
_cell_volume 1054.804993
_symmetry_space_group_name_H-M "P N C 2"
_symmetry_group_IT_number 30
_symmetry_cell_setting 'orthorhombic'
loop_
_space_group_symop_operation_xyz
x,y,z
-x,-y,z
-x,1/2+y,1/2+z
x,1/2-y,1/2+z
loop_
_atom_site_type_symbol
_atom_site_label
_atom_site_fract_x
_atom_site_fract_y
_atom_site_fract_z
Si Si1 0.697067 0.700320 0.288560
Si Si2 0.836286 0.526132 0.404112
Si Si3 0.586122 0.063684 0.369027
Si Si4 0.912429 0.459978 0.824118
Si Si5 0.794901 0.430385 0.646894
Si Si6 0.354937 0.674005 0.120394
O O1 0.756530 0.495552 0.336754
O O2 0.637061 0.811123 0.378998
O O3 0.751331 0.925843 0.251479
O O4 0.652181 0.610709 0.171558
O O5 0.882530 0.755671 0.347882
O O6 0.814550 0.613105 0.537461
O O7 0.881824 0.262157 0.412434
O O8 0.500000 0.000000 0.362171
O O9 0.610714 0.190605 0.240873
O O10 0.602655 0.208104 0.494834
O O11 0.873213 0.351089 0.703020
O O12 0.000000 0.500000 0.819501
O O13 0.731561 0.244892 0.598068
#
# Coordination Sequence:
#
# PCOD9342354 Si02
#       6
#     4   4   4   4   4   4
#     4  10  22  42  69 102 130 184 239 303 357 455
#     4  11  23  42  69  98 135 185 237 297 359 440
#     4  11  27  43  68 105 145 190 241 314 390 445
#     4  11  25  42  63 100 142 180 235 299 370 438
#     4  10  23  40  69  96 130 180 237 290 355 436
#     4  11  23  46  71 100 139 184 246 300 368 452
#
# _framework density 22.753022999999999
#
# number of rings (size 3 to 8) (size 9 to 14) (size 15 to 20)
#    0.000    1.333    1.667    2.500    9.333    2.667 
#    0.000    0.000    0.000    0.000    0.000    0.000 
#    0.000    0.000    0.000    0.000    0.000    0.000 
#
# Total GULP energy -133648.245870 kJ/mol
# GULP energy per Si atom -5568.676911 kJ/mol
# Density = 2.270124 g / cm^3
# Si number density = 22.753023 Si / 1000 Ang^3
#
#
#
# Elastic Constant Matrix: (Units=GPa)
#
#
# Indices 1 2 3 4 5 6 
#
# 1 170.6455 32.4710 65.5813 0.0000 0.0000 0.0000
# 2 32.4710 71.5518 17.1087 0.0000 0.0000 0.0000
# 3 65.5813 17.1087 115.2616 0.0000 0.0000 0.0000
# 4 0.0000 0.0000 0.0000 23.0190 0.0000 0.0000
# 5 0.0000 0.0000 0.0000 0.0000 9.1733 0.0000
# 6 0.0000 0.0000 0.0000 0.0000 0.0000 29.0981
#
#
#
# Elastic Compliance Matrix: (Units=1/GPa)
#
#
# Indices 1 2 3 4 5 6 
#
# 1 0.007947 -0.002618 -0.004133 0.000000 0.000000 0.000000
# 2 -0.002618 0.015353 -0.000789 0.000000 0.000000 0.000000
# 3 -0.004133 -0.000789 0.011145 0.000000 0.000000 0.000000
# 4 0.000000 0.000000 0.000000 0.043442 0.000000 0.000000
# 5 0.000000 0.000000 0.000000 0.000000 0.109012 0.000000
# 6 0.000000 0.000000 0.000000 0.000000 0.000000 0.034366
#
#
# Mechanical properties :
#
#
# Convention : Reuss Voigt Hill
#
# Bulk Modulus (GPa) = 51.64329 65.30898 58.47613
# Shear Modulus (GPa) = 20.59310 28.41126 24.50218
#
# Velocity S-wave (km/s) = 3.01170 3.53750 3.28514
# Velocity P-wave (km/s) = 5.90258 6.74173 6.33606
#
# Compressibility (1/GPa) = 0.01936360
#
# Stress axis : x y z
#
# Youngs Moduli (GPa) = 125.84054 65.13508 89.73003
#
# Poissons Ratio (x) = 0.17053 0.37084
# Poissons Ratio (y) = 0.32946 0.07082
# Poissons Ratio (z) = 0.52007 0.05141
#
# Static dielectric constant tensor:
#      x y z
#    x 1.851860 0.000000 0.000000 
#    y 0.000000 1.985570 0.000000 
#    z 0.000000 0.000000 1.945440 
# 
# From -- ./inp_files/4402.got.cif
#   From: 2010.05.17/outbox.cif.g08.bks.cpg/sg30_3_cif.got.tgz:4402.got - 2010.06.03 17:03:02.
