data_PCOD9342923
_publ_section_title
;
Structure prediction by ZEFSAII (Michael W. Deem and Ramdas Pophale) SiO2 
 PCOD9342923
Probable space group: P M N 21
;
_chemical_formula_sum "Si O2"
_cell_formula_units_Z 20
_cell_length_a 14.815198
_cell_length_b 7.146553
_cell_length_c 8.882528
_cell_angle_alpha 90.000000
_cell_angle_beta 90.000000
_cell_angle_gamma 90.000000
_cell_volume 940.460726
_symmetry_space_group_name_H-M "P M N 21"
_symmetry_group_IT_number 31
_symmetry_cell_setting 'orthorhombic'
loop_
_space_group_symop_operation_xyz
x,y,z
1/2-x,-y,1/2+z
-x,y,z
1/2+x,-y,1/2+z
loop_
_atom_site_type_symbol
_atom_site_label
_atom_site_fract_x
_atom_site_fract_y
_atom_site_fract_z
Si Si1 0.223837 0.161462 0.801430
Si Si2 0.403352 0.480001 0.947237
Si Si3 0.716984 0.407331 0.376294
Si Si4 0.815650 0.857344 0.605915
Si Si5 0.899183 0.731705 0.143180
O O1 0.201097 0.379437 0.822996
O O2 0.319548 0.143991 0.713497
O O3 0.156389 0.037985 0.702450
O O4 0.247823 0.093578 0.969627
O O5 0.500000 0.561889 0.990378
O O6 0.310873 0.591736 0.969627
O O7 0.403679 0.433649 0.768542
O O8 0.389592 0.279060 0.029519
O O9 0.727934 0.275374 0.233004
O O10 0.636728 0.341700 0.484075
O O11 0.000000 0.812618 0.133364
#
# Coordination Sequence:
#
# PCOD9342923 Si02
#       5
#     4   4   4   4   4
#     4  10  19  34  55  79 107 144 185 225 275 326
#     4   9  18  34  55  80 111 147 184 225 275 328
#     4  10  19  35  57  81 109 146 185 229 275 324
#     4  10  20  33  55  80 107 144 183 227 275 326
#     4   9  18  34  56  80 110 147 185 226 274 328
#
# _framework density 21.266173999999999
#
# number of rings (size 3 to 8) (size 9 to 14) (size 15 to 20)
#    0.000    2.800    0.000    6.000    0.000    0.800 
#    0.000    2.000    0.000   26.400    0.000    0.000 
#    0.000    0.000    0.000    0.000    0.000    0.000 
#
# Total GULP energy -111373.028494 kJ/mol
# GULP energy per Si atom -5568.651425 kJ/mol
# Density = 2.121777 g / cm^3
# Si number density = 21.266174 Si / 1000 Ang^3
#
#
#
# Elastic Constant Matrix: (Units=GPa)
#
#
# Indices 1 2 3 4 5 6 
#
# 1 65.0577 0.7248 19.0753 0.0000 0.0000 0.0000
# 2 0.7248 65.3044 44.4219 0.0000 0.0000 0.0000
# 3 19.0753 44.4219 137.8826 0.0000 0.0000 0.0000
# 4 0.0000 0.0000 0.0000 44.7764 0.0000 0.0000
# 5 0.0000 0.0000 0.0000 0.0000 17.2692 0.0000
# 6 0.0000 0.0000 0.0000 0.0000 0.0000 11.0069
#
#
#
# Elastic Compliance Matrix: (Units=1/GPa)
#
#
# Indices 1 2 3 4 5 6 
#
# 1 0.016170 0.001719 -0.002791 0.000000 0.000000 0.000000
# 2 0.001719 0.019793 -0.006615 0.000000 0.000000 0.000000
# 3 -0.002791 -0.006615 0.009770 0.000000 0.000000 0.000000
# 4 0.000000 0.000000 0.000000 0.022333 0.000000 0.000000
# 5 0.000000 0.000000 0.000000 0.000000 0.057907 0.000000
# 6 0.000000 0.000000 0.000000 0.000000 0.000000 0.090852
#
#
# Mechanical properties :
#
#
# Convention : Reuss Voigt Hill
#
# Bulk Modulus (GPa) = 32.93805 44.07653 38.50729
# Shear Modulus (GPa) = 20.63403 28.21201 24.42302
#
# Velocity S-wave (km/s) = 3.11830 3.64622 3.39255
# Velocity P-wave (km/s) = 5.33734 6.20465 5.78727
#
# Compressibility (1/GPa) = 0.03036002
#
# Stress axis : x y z
#
# Youngs Moduli (GPa) = 61.84246 50.52212 102.35719
#
# Poissons Ratio (x) = -0.08685 0.28566
# Poissons Ratio (y) = -0.10630 0.67706
# Poissons Ratio (z) = 0.17259 0.33419
#
# Static dielectric constant tensor:
#      x y z
#    x 1.789400 0.000000 0.000000 
#    y 0.000000 1.823700 0.000000 
#    z 0.000000 0.000000 1.803420 
# 
# From -- ./inp_files/2388.got.cif
#   From: 2010.05.17/outbox.cif.g08.bks.cpg/sg31_2_cif.got.tgz:2388.got - 2010.06.03 17:08:30.
