data_PCOD9342771
_publ_section_title
;
Structure prediction by ZEFSAII (Michael W. Deem and Ramdas Pophale) SiO2 
 PCOD9342771
Probable space group: P M N 21
;
_chemical_formula_sum "Si O2"
_cell_formula_units_Z 32
_cell_length_a 13.794699
_cell_length_b 11.322854
_cell_length_c 10.557443
_cell_angle_alpha 90.000000
_cell_angle_beta 90.000000
_cell_angle_gamma 90.000000
_cell_volume 1649.023639
_symmetry_space_group_name_H-M "P M N 21"
_symmetry_group_IT_number 31
_symmetry_cell_setting 'orthorhombic'
loop_
_space_group_symop_operation_xyz
x,y,z
1/2-x,-y,1/2+z
-x,y,z
1/2+x,-y,1/2+z
loop_
_atom_site_type_symbol
_atom_site_label
_atom_site_fract_x
_atom_site_fract_y
_atom_site_fract_z
Si Si1 0.706280 0.181308 0.113050
Si Si2 0.823598 0.408041 0.178040
Si Si3 0.104824 0.008742 0.119158
Si Si4 0.303365 0.636737 0.216422
Si Si5 0.895176 0.508742 0.929019
Si Si6 0.696635 0.136737 0.831755
Si Si7 0.793720 0.318692 0.435127
Si Si8 0.323598 0.091959 0.370137
O O1 0.741568 0.315235 0.132187
O O2 0.805261 0.100992 0.118992
O O3 0.643060 0.142999 0.234574
O O4 0.661973 0.163043 0.974513
O O5 0.776552 0.534243 0.205623
O O6 0.856940 0.357001 0.313603
O O7 0.890492 0.432592 0.058132
O O8 0.000000 0.068580 0.128466
O O9 0.119872 0.918114 0.234898
O O10 0.109508 0.932592 0.990045
O O11 0.380128 0.581886 0.313279
O O12 0.250000 0.750000 0.274089
O O13 0.338027 0.663043 0.073665
O O14 0.805261 0.600992 0.929186
O O15 0.000000 0.568580 0.919711
O O16 0.776552 0.034243 0.842554
O O17 0.758432 0.184765 0.415990
#
# Coordination Sequence:
#
# PCOD9342771 Si02
#       8
#     4   4   4   4   4   4   4   4
#     4   9  18  34  55  76 104 144 186 215 259 330
#     4   9  18  33  53  78 102 142 180 217 261 324
#     4  10  20  33  53  82 110 136 177 234 277 308
#     4  10  18  33  54  80 107 142 182 217 262 330
#     4  10  20  33  53  82 110 136 177 234 277 308
#     4  10  18  33  54  80 107 142 182 217 262 330
#     4   9  18  34  55  76 104 144 186 215 259 330
#     4   9  18  33  53  78 102 142 180 217 261 324
#
# _framework density 19.405422999999999
#
# number of rings (size 3 to 8) (size 9 to 14) (size 15 to 20)
#    0.000    2.500    2.500    0.000    0.000    1.000 
#    0.000    1.250    0.000    6.000    0.000    0.000 
#    0.000    0.000    0.000    0.000    0.000    0.000 
#
# Total GULP energy -178167.937839 kJ/mol
# GULP energy per Si atom -5567.748057 kJ/mol
# Density = 1.936126 g / cm^3
# Si number density = 19.405423 Si / 1000 Ang^3
#
#
#
# Elastic Constant Matrix: (Units=GPa)
#
#
# Indices 1 2 3 4 5 6 
#
# 1 37.7896 0.6625 24.8727 0.0000 0.0000 0.0000
# 2 0.6625 104.2233 25.7898 0.0000 0.0000 0.0000
# 3 24.8727 25.7898 160.2296 0.0000 0.0000 0.0000
# 4 0.0000 0.0000 0.0000 31.1820 0.0000 0.0000
# 5 0.0000 0.0000 0.0000 0.0000 1.5315 0.0000
# 6 0.0000 0.0000 0.0000 0.0000 0.0000 10.3301
#
#
#
# Elastic Compliance Matrix: (Units=1/GPa)
#
#
# Indices 1 2 3 4 5 6 
#
# 1 0.029571 0.000987 -0.004749 0.000000 0.000000 0.000000
# 2 0.000987 0.010026 -0.001767 0.000000 0.000000 0.000000
# 3 -0.004749 -0.001767 0.007263 0.000000 0.000000 0.000000
# 4 0.000000 0.000000 0.000000 0.032070 0.000000 0.000000
# 5 0.000000 0.000000 0.000000 0.000000 0.652964 0.000000
# 6 0.000000 0.000000 0.000000 0.000000 0.000000 0.096804
#
#
# Mechanical properties :
#
#
# Convention : Reuss Voigt Hill
#
# Bulk Modulus (GPa) = 27.93190 44.98806 36.45998
# Shear Modulus (GPa) = 5.87069 25.33654 15.60361
#
# Velocity S-wave (km/s) = 1.74122 3.61729 2.83872
# Velocity P-wave (km/s) = 4.29739 6.37808 5.43818
#
# Compressibility (1/GPa) = 0.03580136
#
# Stress axis : x y z
#
# Youngs Moduli (GPa) = 33.81706 99.74332 137.69032
#
# Poissons Ratio (x) = -0.09847 0.65392
# Poissons Ratio (y) = -0.03338 0.24329
# Poissons Ratio (z) = 0.16061 0.17624
#
# Static dielectric constant tensor:
#      x y z
#    x 1.691130 0.000000 0.000000 
#    y 0.000000 1.664780 0.000000 
#    z 0.000000 0.000000 1.751690 
# 
# From -- ./inp_files/2570.got.cif
#   From: 2010.05.17/outbox.cif.g08.bks.cpg/sg31_2_cif.got.tgz:2570.got - 2010.06.03 17:08:30.
