data_PCOD9342473
_publ_section_title
;
Structure prediction by ZEFSAII (Michael W. Deem and Ramdas Pophale) SiO2 
 PCOD9342473
Probable space group: P N C 2
;
_chemical_formula_sum "Si O2"
_cell_formula_units_Z 20
_cell_length_a 7.198485
_cell_length_b 8.242197
_cell_length_c 14.678378
_cell_angle_alpha 90.000000
_cell_angle_beta 90.000000
_cell_angle_gamma 90.000000
_cell_volume 870.887711
_symmetry_space_group_name_H-M "P N C 2"
_symmetry_group_IT_number 30
_symmetry_cell_setting 'orthorhombic'
loop_
_space_group_symop_operation_xyz
x,y,z
-x,-y,z
-x,1/2+y,1/2+z
x,1/2-y,1/2+z
loop_
_atom_site_type_symbol
_atom_site_label
_atom_site_fract_x
_atom_site_fract_y
_atom_site_fract_z
Si Si1 0.768090 0.667929 0.898460
Si Si2 0.908299 0.323351 0.305646
Si Si3 0.290064 0.967936 0.959198
Si Si4 0.735151 0.277816 0.629284
Si Si5 0.500000 0.500000 0.038381
Si Si6 0.500000 0.500000 0.759423
O O1 0.620482 0.625387 0.819416
O O2 0.970909 0.678454 0.850138
O O3 0.768793 0.849562 0.938620
O O4 0.679617 0.555707 0.978007
O O5 0.726935 0.353975 0.369326
O O6 0.880622 0.300693 0.198445
O O7 0.000000 0.500000 0.315638
O O8 0.500000 0.000000 0.988865
O O9 0.191248 0.869850 0.039977
O O10 0.640659 0.406357 0.695540
O O11 0.581143 0.147957 0.596956
#
# Coordination Sequence:
#
# PCOD9342473 Si02
#       6
#     4   4   4   4   2   2
#     4  10  23  47  68  99 146 190 235 303 371 430
#     4  10  26  44  70 106 146 190 233 312 370 428
#     4  11  21  47  70  96 143 191 242 290 370 440
#     4  12  25  43  72 106 136 190 249 300 352 450
#     4  11  24  42  77 102 142 202 247 296 365 454
#     4  11  24  44  73 104 136 198 245 286 363 446
#
# _framework density 22.965070999999998
#
# number of rings (size 3 to 8) (size 9 to 14) (size 15 to 20)
#    0.000    1.200    3.000    1.200    9.800    2.400 
#   10.800    0.000    0.000    0.000    0.000    0.000 
#    0.000    0.000    0.000    0.000    0.000    0.000 
#
# Total GULP energy -111491.654864 kJ/mol
# GULP energy per Si atom -5574.582743 kJ/mol
# Density = 2.291280 g / cm^3
# Si number density = 22.965071 Si / 1000 Ang^3
#
#
#
# Elastic Constant Matrix: (Units=GPa)
#
#
# Indices 1 2 3 4 5 6 
#
# 1 44.7456 25.4816 13.2667 0.0000 0.0000 0.0000
# 2 25.4816 116.6231 46.7983 0.0000 0.0000 0.0000
# 3 13.2667 46.7983 121.0786 0.0000 0.0000 0.0000
# 4 0.0000 0.0000 0.0000 28.6563 0.0000 0.0000
# 5 0.0000 0.0000 0.0000 0.0000 35.7913 0.0000
# 6 0.0000 0.0000 0.0000 0.0000 0.0000 17.6658
#
#
#
# Elastic Compliance Matrix: (Units=1/GPa)
#
#
# Indices 1 2 3 4 5 6 
#
# 1 0.025584 -0.005285 -0.000761 0.000000 0.000000 0.000000
# 2 -0.005285 0.011240 -0.003765 0.000000 0.000000 0.000000
# 3 -0.000761 -0.003765 0.009798 0.000000 0.000000 0.000000
# 4 0.000000 0.000000 0.000000 0.034896 0.000000 0.000000
# 5 0.000000 0.000000 0.000000 0.000000 0.027940 0.000000
# 6 0.000000 0.000000 0.000000 0.000000 0.000000 0.056607
#
#
# Mechanical properties :
#
#
# Convention : Reuss Voigt Hill
#
# Bulk Modulus (GPa) = 37.03677 50.39339 43.71508
# Shear Modulus (GPa) = 25.68239 29.54939 27.61589
#
# Velocity S-wave (km/s) = 3.34776 3.59097 3.47149
# Velocity P-wave (km/s) = 5.57726 6.25975 5.92834
#
# Compressibility (1/GPa) = 0.02700019
#
# Stress axis : x y z
#
# Youngs Moduli (GPa) = 39.08758 88.96559 102.06338
#
# Poissons Ratio (x) = 0.47015 0.07763
# Poissons Ratio (y) = 0.20656 0.38432
# Poissons Ratio (z) = 0.02973 0.33500
#
# Static dielectric constant tensor:
#      x y z
#    x 1.912250 0.000000 0.000000 
#    y 0.000000 3.681940 0.000000 
#    z 0.000000 0.000000 1.870070 
# 
# From -- ./inp_files/4958.got.cif
#   From: 2010.05.17/outbox.cif.g08.bks.cpg/sg30_3_cif.got.tgz:4958.got - 2010.06.03 17:03:02.
