data_PCOD9342369
_publ_section_title
;
Structure prediction by ZEFSAII (Michael W. Deem and Ramdas Pophale) SiO2 
 PCOD9342369
Probable space group: P N C 2
;
_chemical_formula_sum "Si O2"
_cell_formula_units_Z 30
_cell_length_a 8.180101
_cell_length_b 12.961585
_cell_length_c 13.948989
_cell_angle_alpha 90.000000
_cell_angle_beta 90.000000
_cell_angle_gamma 90.000000
_cell_volume 1478.970495
_symmetry_space_group_name_H-M "P N C 2"
_symmetry_group_IT_number 30
_symmetry_cell_setting 'orthorhombic'
loop_
_space_group_symop_operation_xyz
x,y,z
-x,-y,z
-x,1/2+y,1/2+z
x,1/2-y,1/2+z
loop_
_atom_site_type_symbol
_atom_site_label
_atom_site_fract_x
_atom_site_fract_y
_atom_site_fract_z
Si Si1 0.340960 0.595402 0.407980
Si Si2 0.500000 0.000000 0.072856
Si Si3 0.138004 0.726462 0.855426
Si Si4 0.677242 0.643235 0.360691
Si Si5 0.688022 0.022367 0.369922
Si Si6 0.166589 0.047120 0.176752
Si Si7 0.089492 0.282741 0.191540
Si Si8 0.171961 0.165553 0.476037
O O1 0.445523 0.594529 0.505320
O O2 0.187342 0.668246 0.407516
O O3 0.482174 0.638584 0.336496
O O4 0.292160 0.476054 0.392466
O O5 0.336096 0.020072 0.128395
O O6 0.282628 0.644861 0.874729
O O7 0.083037 0.761549 0.747936
O O8 0.984154 0.674378 0.906518
O O9 0.791689 0.663122 0.268701
O O10 0.723158 0.734187 0.437418
O O11 0.500000 0.000000 0.345585
O O12 0.809785 0.993072 0.283962
O O13 0.735977 0.942484 0.454438
O O14 0.153875 0.168234 0.176526
O O15 0.000000 0.000000 0.134496
O O16 0.106625 0.330922 0.085555
#
# Coordination Sequence:
#
# PCOD9342369 Si02
#       8
#     4   2   4   4   4   4   4   4
#     4  10  22  43  62  95 130 170 223 271 335 399
#     4  10  24  40  68 100 128 174 226 288 332 402
#     4  11  24  41  66  95 134 176 216 277 335 406
#     4   9  20  43  65  86 132 170 211 276 327 399
#     4  12  23  44  68  93 137 181 220 284 346 400
#     4  12  22  40  68 100 137 167 230 280 339 401
#     4  11  23  40  65  97 130 179 218 274 341 400
#     4  11  23  43  64  98 131 171 225 279 336 405
#
# _framework density 20.284382000000001
#
# number of rings (size 3 to 8) (size 9 to 14) (size 15 to 20)
#    0.000    1.333    4.667    2.800    1.867    2.133 
#    7.200    1.333    0.000    0.000    0.000    0.000 
#    0.000    0.000    0.000    0.000    0.000    0.000 
#
# Total GULP energy -167011.770444 kJ/mol
# GULP energy per Si atom -5567.059015 kJ/mol
# Density = 2.023821 g / cm^3
# Si number density = 20.284382 Si / 1000 Ang^3
#
#
#
# Elastic Constant Matrix: (Units=GPa)
#
#
# Indices 1 2 3 4 5 6 
#
# 1 100.5898 37.4019 17.5523 0.0000 0.0000 0.0000
# 2 37.4019 103.3339 27.3606 0.0000 0.0000 0.0000
# 3 17.5523 27.3606 88.7576 0.0000 0.0000 0.0000
# 4 0.0000 0.0000 0.0000 -5.6699 0.0000 0.0000
# 5 0.0000 0.0000 0.0000 0.0000 -2.0981 0.0000
# 6 0.0000 0.0000 0.0000 0.0000 0.0000 38.8129
#
#
#
# Elastic Compliance Matrix: (Units=1/GPa)
#
#
# Indices 1 2 3 4 5 6 
#
# 1 0.011583 -0.003905 -0.001087 0.000000 0.000000 0.000000
# 2 -0.003905 0.011854 -0.002882 0.000000 0.000000 0.000000
# 3 -0.001087 -0.002882 0.012370 0.000000 0.000000 0.000000
# 4 0.000000 0.000000 0.000000 -0.176371 0.000000 0.000000
# 5 0.000000 0.000000 0.000000 0.000000 -0.476633 0.000000
# 6 0.000000 0.000000 0.000000 0.000000 0.000000 0.025765
#
#
# Mechanical properties :
#
#
# Convention : Reuss Voigt Hill
#
# Bulk Modulus (GPa) = 49.85132 50.81231 50.33182
# Shear Modulus (GPa) = -8.78736 20.23342 5.72303
#
# Velocity S-wave (km/s) = -2.08362 3.16173 1.68152
# Velocity P-wave (km/s) = 4.34061 6.19944 5.35135
#
# Compressibility (1/GPa) = 0.02005965
#
# Stress axis : x y z
#
# Youngs Moduli (GPa) = 86.33434 84.36164 80.84097
#
# Poissons Ratio (x) = 0.32940 0.08787
# Poissons Ratio (y) = 0.33711 0.23297
# Poissons Ratio (z) = 0.09384 0.24312
#
# Static dielectric constant tensor:
#      x y z
#    x 1.906540 0.000000 0.000000 
#    y 0.000000 2.586390 0.000000 
#    z 0.000000 0.000000 1.835770 
# 
# From -- ./inp_files/5197.got.cif
#   From: 2010.05.17/outbox.cif.g08.bks.cpg/sg30_3_cif.got.tgz:5197.got - 2010.06.03 17:03:02.
