data_PCOD9342290
_publ_section_title
;
Structure prediction by ZEFSAII (Michael W. Deem and Ramdas Pophale) SiO2 
 PCOD9342290
Probable space group: P N C 2
;
_chemical_formula_sum "Si O2"
_cell_formula_units_Z 30
_cell_length_a 6.024772
_cell_length_b 17.638661
_cell_length_c 14.384701
_cell_angle_alpha 90.000000
_cell_angle_beta 90.000000
_cell_angle_gamma 90.000000
_cell_volume 1528.646509
_symmetry_space_group_name_H-M "P N C 2"
_symmetry_group_IT_number 30
_symmetry_cell_setting 'orthorhombic'
loop_
_space_group_symop_operation_xyz
x,y,z
-x,-y,z
-x,1/2+y,1/2+z
x,1/2-y,1/2+z
loop_
_atom_site_type_symbol
_atom_site_label
_atom_site_fract_x
_atom_site_fract_y
_atom_site_fract_z
Si Si1 0.652721 0.884805 0.987880
Si Si2 0.911069 0.238440 0.285500
Si Si3 0.651842 0.204133 0.116422
Si Si4 0.295120 0.600060 0.331767
Si Si5 0.963031 0.737795 0.983908
Si Si6 0.266205 0.319023 0.157811
Si Si7 0.000000 0.500000 0.462823
Si Si8 0.257526 0.008953 0.653990
O O1 0.518035 0.903766 0.893749
O O2 0.795331 0.808451 0.971036
O O3 0.808657 0.954744 0.015085
O O4 0.489487 0.862696 0.071477
O O5 0.780507 0.187369 0.211630
O O6 0.765805 0.313135 0.310440
O O7 0.978103 0.204311 0.384112
O O8 0.123646 0.269529 0.229454
O O9 0.495314 0.275963 0.139721
O O10 0.822745 0.229462 0.036722
O O11 0.109972 0.563500 0.398064
O O12 0.280409 0.550957 0.238107
O O13 0.854907 0.681237 0.057781
O O14 0.269290 0.404880 0.190668
O O15 0.500000 0.000000 0.600962
O O16 0.000000 0.000000 0.616699
#
# Coordination Sequence:
#
# PCOD9342290 Si02
#       8
#     4   4   4   4   4   4   2   4
#     4  11  22  36  52  83 124 164 207 259 329 397
#     4  11  20  36  60  86 123 165 214 262 316 394
#     4  10  22  37  56  81 124 163 212 267 313 392
#     4  12  22  34  58  88 130 164 202 254 329 405
#     4  10  22  39  57  83 129 164 217 260 314 387
#     4  10  23  38  57  87 134 167 209 263 324 392
#     4  12  20  32  52  80 124 158 204 252 318 410
#     4  12  24  37  57  93 135 170 204 255 333 403
#
# _framework density 19.625207
#
# number of rings (size 3 to 8) (size 9 to 14) (size 15 to 20)
#    0.000    1.067    4.667    2.000    5.600    0.000 
#    0.000    0.000    0.000    0.000    0.000    0.000 
#   82.000    0.000    0.000    0.000    0.000    0.000 
#
# Total GULP energy -167443.063516 kJ/mol
# GULP energy per Si atom -5581.435451 kJ/mol
# Density = 1.958054 g / cm^3
# Si number density = 19.625207 Si / 1000 Ang^3
#
#
#
# Elastic Constant Matrix: (Units=GPa)
#
#
# Indices 1 2 3 4 5 6 
#
# 1 117.4885 12.7381 38.5697 0.0000 0.0000 0.0000
# 2 12.7381 33.1585 2.2803 0.0000 0.0000 0.0000
# 3 38.5697 2.2803 108.3646 0.0000 0.0000 0.0000
# 4 0.0000 0.0000 0.0000 12.2497 0.0000 0.0000
# 5 0.0000 0.0000 0.0000 0.0000 20.4365 0.0000
# 6 0.0000 0.0000 0.0000 0.0000 0.0000 34.7505
#
#
#
# Elastic Compliance Matrix: (Units=1/GPa)
#
#
# Indices 1 2 3 4 5 6 
#
# 1 0.010054 -0.003621 -0.003502 0.000000 0.000000 0.000000
# 2 -0.003621 0.031506 0.000626 0.000000 0.000000 0.000000
# 3 -0.003502 0.000626 0.010461 0.000000 0.000000 0.000000
# 4 0.000000 0.000000 0.000000 0.081634 0.000000 0.000000
# 5 0.000000 0.000000 0.000000 0.000000 0.048932 0.000000
# 6 0.000000 0.000000 0.000000 0.000000 0.000000 0.028777
#
#
# Mechanical properties :
#
#
# Convention : Reuss Voigt Hill
#
# Bulk Modulus (GPa) = 25.62372 40.68752 33.15562
# Shear Modulus (GPa) = 21.06427 27.18224 24.12326
#
# Velocity S-wave (km/s) = 3.27972 3.72569 3.50980
# Velocity P-wave (km/s) = 5.23708 6.26777 5.77546
#
# Compressibility (1/GPa) = 0.03902634
#
# Stress axis : x y z
#
# Youngs Moduli (GPa) = 99.46465 31.73967 95.58896
#
# Poissons Ratio (x) = 0.11494 0.33477
# Poissons Ratio (y) = 0.36020 -0.05984
# Poissons Ratio (z) = 0.34835 -0.01987
#
# Static dielectric constant tensor:
#      x y z
#    x 1.818060 0.000000 0.000000 
#    y 0.000000 1.666980 0.000000 
#    z 0.000000 0.000000 1.677330 
# 
# From -- ./inp_files/4761.got.cif
#   From: 2010.05.17/outbox.cif.g08.bks.cpg/sg30_3_cif.got.tgz:4761.got - 2010.06.03 17:03:02.
