data_PCOD9342205
_publ_section_title
;
Structure prediction by ZEFSAII (Michael W. Deem and Ramdas Pophale) SiO2 
 PCOD9342205
Probable space group: P N C 2
;
_chemical_formula_sum "Si O2"
_cell_formula_units_Z 24
_cell_length_a 7.751272
_cell_length_b 24.314711
_cell_length_c 5.664110
_cell_angle_alpha 90.000000
_cell_angle_beta 90.000000
_cell_angle_gamma 90.000000
_cell_volume 1067.514464
_symmetry_space_group_name_H-M "P N C 2"
_symmetry_group_IT_number 30
_symmetry_cell_setting 'orthorhombic'
loop_
_space_group_symop_operation_xyz
x,y,z
-x,-y,z
-x,1/2+y,1/2+z
x,1/2-y,1/2+z
loop_
_atom_site_type_symbol
_atom_site_label
_atom_site_fract_x
_atom_site_fract_y
_atom_site_fract_z
Si Si1 0.762421 0.271226 0.484070
Si Si2 0.450036 0.445074 0.036853
Si Si3 0.164930 0.229267 0.025816
Si Si4 0.723234 0.610192 0.656029
Si Si5 0.814231 0.504730 0.408852
Si Si6 0.653775 0.106149 0.914675
O O1 0.687398 0.255945 0.743315
O O2 0.747200 0.336371 0.443801
O O3 0.963662 0.254133 0.503082
O O4 0.500000 0.500000 0.884333
O O5 0.335609 0.474951 0.235379
O O6 0.610698 0.412018 0.145514
O O7 0.327334 0.399105 0.925869
O O8 0.239793 0.257665 0.264507
O O9 0.180835 0.164792 0.081506
O O10 0.824211 0.554852 0.590486
O O11 0.533769 0.610890 0.534806
O O12 0.758455 0.445998 0.511674
O O13 0.000000 0.500000 0.288539
#
# Coordination Sequence:
#
# PCOD9342205 Si02
#       6
#     4   4   4   4   4   4
#     4  10  23  44  64  92 127 170 215 263 314 374
#     4   9  20  38  57  89 124 162 203 263 319 385
#     4  10  24  43  65  92 128 169 216 264 314 375
#     4  11  22  38  64  88 126 162 211 259 323 380
#     4  10  21  39  61  91 124 160 210 260 323 380
#     4  10  22  38  61  90 125 163 207 266 313 383
#
# _framework density 22.482130999999999
#
# number of rings (size 3 to 8) (size 9 to 14) (size 15 to 20)
#    0.000    2.000    0.000    3.500    7.000    2.000 
#    3.000    0.000    0.000    0.000    0.000    0.000 
#    0.000    0.000    0.000    0.000    0.000    0.000 
#
# Total GULP energy -133716.964398 kJ/mol
# GULP energy per Si atom -5571.540183 kJ/mol
# Density = 2.243096 g / cm^3
# Si number density = 22.482131 Si / 1000 Ang^3
#
#
#
# Elastic Constant Matrix: (Units=GPa)
#
#
# Indices 1 2 3 4 5 6 
#
# 1 45.7465 -17.6260 4.6152 0.0000 0.0000 0.0000
# 2 -17.6260 132.7475 59.2099 0.0000 0.0000 0.0000
# 3 4.6152 59.2099 112.6829 0.0000 0.0000 0.0000
# 4 0.0000 0.0000 0.0000 25.7428 0.0000 0.0000
# 5 0.0000 0.0000 0.0000 0.0000 1.7608 0.0000
# 6 0.0000 0.0000 0.0000 0.0000 0.0000 39.2276
#
#
#
# Elastic Compliance Matrix: (Units=1/GPa)
#
#
# Indices 1 2 3 4 5 6 
#
# 1 0.024037 0.004742 -0.003476 0.000000 0.000000 0.000000
# 2 0.004742 0.010775 -0.005856 0.000000 0.000000 0.000000
# 3 -0.003476 -0.005856 0.012094 0.000000 0.000000 0.000000
# 4 0.000000 0.000000 0.000000 0.038846 0.000000 0.000000
# 5 0.000000 0.000000 0.000000 0.000000 0.567926 0.000000
# 6 0.000000 0.000000 0.000000 0.000000 0.000000 0.025492
#
#
# Mechanical properties :
#
#
# Convention : Reuss Voigt Hill
#
# Bulk Modulus (GPa) = 26.50688 42.61947 34.56317
# Shear Modulus (GPa) = 7.13343 29.67810 18.40576
#
# Velocity S-wave (km/s) = 1.78320 3.63723 2.86437
# Velocity P-wave (km/s) = 4.00694 6.05288 5.13288
#
# Compressibility (1/GPa) = 0.03772605
#
# Stress axis : x y z
#
# Youngs Moduli (GPa) = 41.60168 92.81036 82.68685
#
# Poissons Ratio (x) = -0.44013 0.28745
# Poissons Ratio (y) = -0.19728 0.48420
# Poissons Ratio (z) = 0.14462 0.54348
#
# Static dielectric constant tensor:
#      x y z
#    x 1.831600 0.000000 0.000000 
#    y 0.000000 1.841390 0.000000 
#    z 0.000000 0.000000 1.981860 
# 
# From -- ./inp_files/415.got.cif
#   From: 2010.05.17/outbox.cif.g08.bks.cpg/sg30_1_cif.got.tgz:415.got - 2010.06.03 17:03:02.
