data_PCOD9342658
_publ_section_title
;
Structure prediction by ZEFSAII (Michael W. Deem and Ramdas Pophale) SiO2 
 PCOD9342658
Probable space group: P N C 2
;
_chemical_formula_sum "Si O2"
_cell_formula_units_Z 16
_cell_length_a 7.186784
_cell_length_b 12.145382
_cell_length_c 6.648502
_cell_angle_alpha 90.000000
_cell_angle_beta 90.000000
_cell_angle_gamma 90.000000
_cell_volume 580.322721
_symmetry_space_group_name_H-M "P N C 2"
_symmetry_group_IT_number 30
_symmetry_cell_setting 'orthorhombic'
loop_
_space_group_symop_operation_xyz
x,y,z
-x,-y,z
-x,1/2+y,1/2+z
x,1/2-y,1/2+z
loop_
_atom_site_type_symbol
_atom_site_label
_atom_site_fract_x
_atom_site_fract_y
_atom_site_fract_z
Si Si1 0.250001 0.880985 0.168080
Si Si2 0.601938 0.761209 0.782809
Si Si3 0.898064 0.761210 0.553351
Si Si4 0.000000 0.000000 0.480114
Si Si5 0.500000 0.500000 0.356046
O O1 0.164392 0.959871 0.335769
O O2 0.410127 0.809228 0.277157
O O3 0.335608 0.959871 0.000391
O O4 0.910123 0.190774 0.059002
O O5 0.656367 0.730939 0.536063
O O6 0.843636 0.730938 0.800096
O O7 0.557330 0.890705 0.741601
O O8 0.942670 0.890705 0.594560
#
# Coordination Sequence:
#
# PCOD9342658 Si02
#       5
#     4   4   4   2   2
#     4  12  26  52  70 110 154 188 246 318 370 442
#     4  12  27  48  73 110 146 193 252 304 370 452
#     4  12  27  48  73 110 146 193 252 304 370 452
#     4  12  26  44  80 100 148 200 234 306 380 434
#     4  12  26  44  80 100 148 200 234 306 380 434
#
# _framework density 27.570865000000001
#
# number of rings (size 3 to 8) (size 9 to 14) (size 15 to 20)
#    0.000    0.000    5.000    4.500    3.500    0.000 
#    0.000    0.000    0.000    0.000    0.000    0.000 
#    0.000    0.000    0.000    0.000    0.000    0.000 
#
# Total GULP energy -89549.547376 kJ/mol
# GULP energy per Si atom -5596.846711 kJ/mol
# Density = 2.750811 g / cm^3
# Si number density = 27.570865 Si / 1000 Ang^3
#
#
#
# Elastic Constant Matrix: (Units=GPa)
#
#
# Indices 1 2 3 4 5 6 
#
# 1 173.0977 60.4552 72.2013 0.0000 0.0000 0.0000
# 2 60.4552 195.0419 13.5915 0.0000 0.0000 0.0000
# 3 72.2013 13.5915 154.8568 0.0000 0.0000 0.0000
# 4 0.0000 0.0000 0.0000 174.4935 0.0000 0.0000
# 5 0.0000 0.0000 0.0000 0.0000 87.8388 0.0000
# 6 0.0000 0.0000 0.0000 0.0000 0.0000 63.1475
#
#
#
# Elastic Compliance Matrix: (Units=1/GPa)
#
#
# Indices 1 2 3 4 5 6 
#
# 1 0.008043 -0.002246 -0.003553 0.000000 0.000000 0.000000
# 2 -0.002246 0.005786 0.000539 0.000000 0.000000 0.000000
# 3 -0.003553 0.000539 0.008067 0.000000 0.000000 0.000000
# 4 0.000000 0.000000 0.000000 0.005731 0.000000 0.000000
# 5 0.000000 0.000000 0.000000 0.000000 0.011384 0.000000
# 6 0.000000 0.000000 0.000000 0.000000 0.000000 0.015836
#
#
# Mechanical properties :
#
#
# Convention : Reuss Voigt Hill
#
# Bulk Modulus (GPa) = 87.89737 90.61027 89.25382
# Shear Modulus (GPa) = 72.29784 90.21252 81.25518
#
# Velocity S-wave (km/s) = 5.12635 5.72637 5.43465
# Velocity P-wave (km/s) = 8.18468 8.75543 8.47486
#
# Compressibility (1/GPa) = 0.01137691
#
# Stress axis : x y z
#
# Youngs Moduli (GPa) = 124.32554 172.84415 123.96371
#
# Poissons Ratio (x) = 0.38813 0.44046
# Poissons Ratio (y) = 0.27918 -0.06684
# Poissons Ratio (z) = 0.44174 -0.09319
#
# Static dielectric constant tensor:
#      x y z
#    x 2.285270 0.000000 0.000000 
#    y 0.000000 1.949760 0.000000 
#    z 0.000000 0.000000 2.232930 
# 
# From -- ./inp_files/2231.got.cif
#   From: 2010.05.17/outbox.cif.g08.bks.cpg/sg30_2_cif.got.tgz:2231.got - 2010.06.03 17:03:02.
