data_PCOD9342927
_publ_section_title
;
Structure prediction by ZEFSAII (Michael W. Deem and Ramdas Pophale) SiO2 
 PCOD9342927
Probable space group: P M N 21
;
_chemical_formula_sum "Si O2"
_cell_formula_units_Z 28
_cell_length_a 22.140517
_cell_length_b 7.665705
_cell_length_c 8.693903
_cell_angle_alpha 90.000000
_cell_angle_beta 90.000000
_cell_angle_gamma 90.000000
_cell_volume 1475.552446
_symmetry_space_group_name_H-M "P M N 21"
_symmetry_group_IT_number 31
_symmetry_cell_setting 'orthorhombic'
loop_
_space_group_symop_operation_xyz
x,y,z
1/2-x,-y,1/2+z
-x,y,z
1/2+x,-y,1/2+z
loop_
_atom_site_type_symbol
_atom_site_label
_atom_site_fract_x
_atom_site_fract_y
_atom_site_fract_z
Si Si1 0.567300 0.448790 0.264120
Si Si2 0.312778 0.343335 0.367714
Si Si3 0.571139 0.126404 0.034115
Si Si4 0.701272 0.959778 0.493369
Si Si5 0.758203 0.411060 0.644924
Si Si6 0.371220 0.808756 0.225602
Si Si7 0.182475 0.860853 0.316061
O O1 0.500000 0.436150 0.324363
O O2 0.617767 0.391191 0.384820
O O3 0.573494 0.310850 0.124572
O O4 0.583241 0.646203 0.219041
O O5 0.303737 0.144135 0.404567
O O6 0.270968 0.449193 0.483239
O O7 0.290040 0.416545 0.206657
O O8 0.500000 0.090914 0.001297
O O9 0.599061 0.976641 0.146125
O O10 0.615963 0.134919 0.888280
O O11 0.689675 0.001582 0.672911
O O12 0.652216 0.843999 0.400284
O O13 0.768389 0.897471 0.449698
O O14 0.810249 0.261817 0.641721
O O15 0.704093 0.322885 0.742570
#
# Coordination Sequence:
#
# PCOD9342927 Si02
#       7
#     4   4   4   4   4   4   4
#     4  10  22  37  59  85 113 153 200 236 279 352
#     4  10  19  34  55  87 116 147 195 231 296 347
#     4  11  22  39  62  82 115 163 198 239 289 350
#     4  10  20  36  61  88 118 155 189 252 300 356
#     4   9  21  32  57  89 117 151 184 248 299 346
#     4  10  20  39  60  88 115 150 198 244 297 346
#     4  10  21  37  56  89 121 149 200 240 304 355
#
# _framework density 18.975942
#
# number of rings (size 3 to 8) (size 9 to 14) (size 15 to 20)
#    0.000    2.000    1.429    3.000    4.000    2.286 
#    0.000    4.286    0.000    0.000    0.000    0.000 
#    0.000    0.000    0.000    0.000    0.000    0.000 
#
# Total GULP energy -156091.062617 kJ/mol
# GULP energy per Si atom -5574.680808 kJ/mol
# Density = 1.893275 g / cm^3
# Si number density = 18.975942 Si / 1000 Ang^3
#
#
#
# Elastic Constant Matrix: (Units=GPa)
#
#
# Indices 1 2 3 4 5 6 
#
# 1 130.2836 27.8310 40.2303 0.0000 0.0000 0.0000
# 2 27.8310 72.8902 28.6267 0.0000 0.0000 0.0000
# 3 40.2303 28.6267 38.5958 0.0000 0.0000 0.0000
# 4 0.0000 0.0000 0.0000 22.3715 0.0000 0.0000
# 5 0.0000 0.0000 0.0000 0.0000 24.4917 0.0000
# 6 0.0000 0.0000 0.0000 0.0000 0.0000 22.4121
#
#
#
# Elastic Compliance Matrix: (Units=1/GPa)
#
#
# Indices 1 2 3 4 5 6 
#
# 1 0.011329 0.000440 -0.012135 0.000000 0.000000 0.000000
# 2 0.000440 0.019375 -0.014830 0.000000 0.000000 0.000000
# 3 -0.012135 -0.014830 0.049558 0.000000 0.000000 0.000000
# 4 0.000000 0.000000 0.000000 0.044700 0.000000 0.000000
# 5 0.000000 0.000000 0.000000 0.000000 0.040830 0.000000
# 6 0.000000 0.000000 0.000000 0.000000 0.000000 0.044619
#
#
# Mechanical properties :
#
#
# Convention : Reuss Voigt Hill
#
# Bulk Modulus (GPa) = 36.74729 48.34954 42.54842
# Shear Modulus (GPa) = 18.34654 23.52714 20.93684
#
# Velocity S-wave (km/s) = 3.11276 3.52496 3.32525
# Velocity P-wave (km/s) = 5.68562 6.48859 6.10033
#
# Compressibility (1/GPa) = 0.02721289
#
# Stress axis : x y z
#
# Youngs Moduli (GPa) = 88.27149 51.61196 20.17838
#
# Poissons Ratio (x) = -0.02273 0.24487
# Poissons Ratio (y) = -0.03887 0.29924
# Poissons Ratio (z) = 1.07118 0.76540
#
# Static dielectric constant tensor:
#      x y z
#    x 1.659270 0.000000 0.000000 
#    y 0.000000 1.702300 0.000000 
#    z 0.000000 0.000000 1.695140 
# 
# From -- ./inp_files/2940.got.cif
#   From: 2010.05.17/outbox.cif.g08.bks.cpg/sg31_2_cif.got.tgz:2940.got - 2010.06.03 17:08:30.
