data_PCOD9342944
_publ_section_title
;
Structure prediction by ZEFSAII (Michael W. Deem and Ramdas Pophale) SiO2 
 PCOD9342944
Probable space group: P M N 21
;
_chemical_formula_sum "Si O2"
_cell_formula_units_Z 32
_cell_length_a 7.986497
_cell_length_b 10.927028
_cell_length_c 14.447330
_cell_angle_alpha 90.000000
_cell_angle_beta 90.000000
_cell_angle_gamma 90.000000
_cell_volume 1260.799366
_symmetry_space_group_name_H-M "P M N 21"
_symmetry_group_IT_number 31
_symmetry_cell_setting 'orthorhombic'
loop_
_space_group_symop_operation_xyz
x,y,z
1/2-x,-y,1/2+z
-x,y,z
1/2+x,-y,1/2+z
loop_
_atom_site_type_symbol
_atom_site_label
_atom_site_fract_x
_atom_site_fract_y
_atom_site_fract_z
Si Si1 0.306029 0.644269 0.337530
Si Si2 0.304199 0.290153 0.275632
Si Si3 0.693493 0.585848 0.949196
Si Si4 0.199639 0.210017 0.015153
Si Si5 0.801270 0.942067 0.003612
Si Si6 0.195001 0.549743 0.619865
Si Si7 0.797830 0.799836 0.172905
Si Si8 0.193811 0.033082 0.294404
O O1 0.500000 0.604770 0.343247
O O2 0.202369 0.539356 0.388764
O O3 0.283586 0.761339 0.405350
O O4 0.268386 0.686384 0.233268
O O5 0.500000 0.276775 0.255301
O O6 0.284459 0.317829 0.384141
O O7 0.237573 0.408211 0.219073
O O8 0.212557 0.166172 0.247711
O O9 0.500000 0.621432 0.958660
O O10 0.770750 0.548567 0.048608
O O11 0.290401 0.320028 0.066766
O O12 0.000000 0.218491 0.035288
O O13 0.264273 0.074865 0.036311
O O14 0.737720 0.831564 0.068584
O O15 0.000000 0.944507 0.020273
O O16 0.777419 0.946620 0.893880
O O17 0.000000 0.516961 0.629478
O O18 0.000000 0.789057 0.174137
O O19 0.746301 0.922078 0.230749
O O20 0.000000 0.008564 0.312615
#
# Coordination Sequence:
#
# PCOD9342944 Si02
#       8
#     4   4   4   4   4   4   4   4
#     4  10  19  34  58  84 112 147 190 239 291 345
#     4  11  23  41  62  87 119 156 197 244 297 354
#     4  10  21  40  63  87 116 150 194 247 296 347
#     4   9  17  31  55  83 114 149 189 237 285 338
#     4  10  20  36  55  82 119 158 195 237 290 349
#     4   9  20  37  60  88 115 148 194 244 292 343
#     4  10  21  36  57  85 120 157 196 240 291 350
#     4  11  23  39  60  88 121 159 197 242 294 350
#
# _framework density 25.380721999999999
#
# number of rings (size 3 to 8) (size 9 to 14) (size 15 to 20)
#    0.000    2.000    1.250    2.250    0.000    4.500 
#    2.250    0.000    0.000    0.000    0.000    0.000 
#    0.000    0.000    0.000    0.000    0.000    0.000 
#
# Total GULP energy -178893.303977 kJ/mol
# GULP energy per Si atom -5590.415749 kJ/mol
# Density = 2.532295 g / cm^3
# Si number density = 25.380722 Si / 1000 Ang^3
#
#
#
# Elastic Constant Matrix: (Units=GPa)
#
#
# Indices 1 2 3 4 5 6 
#
# 1 38.3956 -4.3845 -0.5999 0.0000 0.0000 0.0000
# 2 -4.3845 79.5998 1.1261 0.0000 0.0000 0.0000
# 3 -0.5999 1.1261 122.0519 0.0000 0.0000 0.0000
# 4 0.0000 0.0000 0.0000 48.5371 0.0000 0.0000
# 5 0.0000 0.0000 0.0000 0.0000 24.9111 0.0000
# 6 0.0000 0.0000 0.0000 0.0000 0.0000 24.1154
#
#
#
# Elastic Compliance Matrix: (Units=1/GPa)
#
#
# Indices 1 2 3 4 5 6 
#
# 1 0.026211 0.001442 0.000116 0.000000 0.000000 0.000000
# 2 0.001442 0.012644 -0.000110 0.000000 0.000000 0.000000
# 3 0.000116 -0.000110 0.008195 0.000000 0.000000 0.000000
# 4 0.000000 0.000000 0.000000 0.020603 0.000000 0.000000
# 5 0.000000 0.000000 0.000000 0.000000 0.040143 0.000000
# 6 0.000000 0.000000 0.000000 0.000000 0.000000 0.041467
#
#
# Mechanical properties :
#
#
# Convention : Reuss Voigt Hill
#
# Bulk Modulus (GPa) = 20.02165 25.81453 22.91809
# Shear Modulus (GPa) = 30.67202 35.77310 33.22256
#
# Velocity S-wave (km/s) = 3.48009 3.75835 3.62189
# Velocity P-wave (km/s) = 4.90445 5.38763 5.15171
#
# Compressibility (1/GPa) = 0.04994593
#
# Stress axis : x y z
#
# Youngs Moduli (GPa) = 38.15171 79.08997 122.02835
#
# Poissons Ratio (x) = -0.11406 -0.01410
# Poissons Ratio (y) = -0.05502 0.01337
# Poissons Ratio (z) = -0.00441 0.00867
#
# Static dielectric constant tensor:
#      x y z
#    x 1.873920 0.000000 0.000000 
#    y 0.000000 2.044580 0.000000 
#    z 0.000000 0.000000 2.096310 
# 
# From -- ./inp_files/4967.got.cif
#   From: 2010.05.17/outbox.cif.g08.bks.cpg/sg31_3_cif.got.tgz:4967.got - 2010.06.03 17:08:30.
