data_PCOD9342219
_publ_section_title
;
Structure prediction by ZEFSAII (Michael W. Deem and Ramdas Pophale) SiO2 
 PCOD9342219
Probable space group: P N C 2
;
_chemical_formula_sum "Si O2"
_cell_formula_units_Z 28
_cell_length_a 8.848519
_cell_length_b 16.356644
_cell_length_c 9.431294
_cell_angle_alpha 90.000000
_cell_angle_beta 90.000000
_cell_angle_gamma 90.000000
_cell_volume 1365.010753
_symmetry_space_group_name_H-M "P N C 2"
_symmetry_group_IT_number 30
_symmetry_cell_setting 'orthorhombic'
loop_
_space_group_symop_operation_xyz
x,y,z
-x,-y,z
-x,1/2+y,1/2+z
x,1/2-y,1/2+z
loop_
_atom_site_type_symbol
_atom_site_label
_atom_site_fract_x
_atom_site_fract_y
_atom_site_fract_z
Si Si1 0.294662 0.771610 0.773370
Si Si2 0.544687 0.860253 0.237754
Si Si3 0.245194 0.211936 0.455966
Si Si4 0.900633 0.325887 0.999983
Si Si5 0.293372 0.070471 0.670293
Si Si6 0.500000 0.500000 0.950361
Si Si7 0.000000 0.000000 0.588400
Si Si8 0.541754 0.870794 0.930442
O O1 0.434701 0.717257 0.715721
O O2 0.189133 0.805950 0.647011
O O3 0.380924 0.839256 0.869898
O O4 0.199286 0.711795 0.874521
O O5 0.704133 0.833512 0.309451
O O6 0.479134 0.920931 0.355070
O O7 0.544359 0.904896 0.088071
O O8 0.301753 0.157450 0.589203
O O9 0.341113 0.294364 0.447204
O O10 0.066118 0.216623 0.481106
O O11 0.936341 0.423311 0.997769
O O12 0.360675 0.009321 0.555106
O O13 0.122829 0.043410 0.687130
O O14 0.385863 0.072443 0.812352
#
# Coordination Sequence:
#
# PCOD9342219 Si02
#       8
#     4   4   4   4   4   2   2   4
#     4  11  23  40  66  99 130 168 228 287 336 400
#     4  10  21  40  61  91 127 167 220 272 332 405
#     4   9  21  38  63  87 123 167 206 263 332 398
#     4  11  24  41  67  97 134 173 227 282 341 410
#     4  10  22  39  65  88 126 169 216 260 332 407
#     4  10  22  40  64  86 124 178 216 262 334 410
#     4  10  24  44  62  96 130 180 216 270 342 430
#     4  11  22  38  63  97 125 167 217 286 325 398
#
# _framework density 20.512658999999999
#
# number of rings (size 3 to 8) (size 9 to 14) (size 15 to 20)
#    0.000    1.714    1.429    2.571   12.000    0.571 
#    0.000    0.000    0.000    4.286    0.000    0.000 
#    0.000    0.000    0.000    0.000    0.000    0.000 
#
# Total GULP energy -156200.457366 kJ/mol
# GULP energy per Si atom -5578.587763 kJ/mol
# Density = 2.046597 g / cm^3
# Si number density = 20.512659 Si / 1000 Ang^3
#
#
#
# Elastic Constant Matrix: (Units=GPa)
#
#
# Indices 1 2 3 4 5 6 
#
# 1 118.9977 35.3847 50.0825 0.0000 0.0000 0.0000
# 2 35.3847 68.7479 27.9864 0.0000 0.0000 0.0000
# 3 50.0825 27.9864 145.0134 0.0000 0.0000 0.0000
# 4 0.0000 0.0000 0.0000 -24.0792 0.0000 0.0000
# 5 0.0000 0.0000 0.0000 0.0000 135.4499 0.0000
# 6 0.0000 0.0000 0.0000 0.0000 0.0000 34.1316
#
#
#
# Elastic Compliance Matrix: (Units=1/GPa)
#
#
# Indices 1 2 3 4 5 6 
#
# 1 0.010958 -0.004449 -0.002926 0.000000 0.000000 0.000000
# 2 -0.004449 0.017592 -0.001859 0.000000 0.000000 0.000000
# 3 -0.002926 -0.001859 0.008265 0.000000 0.000000 0.000000
# 4 0.000000 0.000000 0.000000 -0.041530 0.000000 0.000000
# 5 0.000000 0.000000 0.000000 0.000000 0.007383 0.000000
# 6 0.000000 0.000000 0.000000 0.000000 0.000000 0.029298
#
#
# Mechanical properties :
#
#
# Convention : Reuss Voigt Hill
#
# Bulk Modulus (GPa) = 54.50056 62.18512 58.34284
# Shear Modulus (GPa) = 88.41738 43.72083 66.06911
#
# Velocity S-wave (km/s) = 6.57247 4.62173 5.68145
# Velocity P-wave (km/s) = 9.17733 7.67214 8.45829
#
# Compressibility (1/GPa) = 0.01834844
#
# Stress axis : x y z
#
# Youngs Moduli (GPa) = 91.25885 56.84259 120.99066
#
# Poissons Ratio (x) = 0.25289 0.35400
# Poissons Ratio (y) = 0.40601 0.22488
# Poissons Ratio (z) = 0.26701 0.10565
#
# Static dielectric constant tensor:
#      x y z
#    x -0.533080 0.000000 0.000000 
#    y 0.000000 1.778020 0.000000 
#    z 0.000000 0.000000 1.733350 
# 
# From -- ./inp_files/2024.got.cif
#   From: 2010.05.17/outbox.cif.g08.bks.cpg/sg30_2_cif.got.tgz:2024.got - 2010.06.03 17:03:02.
