data_PCOD9342137
_publ_section_title
;
Structure prediction by ZEFSAII (Michael W. Deem and Ramdas Pophale) SiO2 
 PCOD9342137
Probable space group: P N C 2
;
_chemical_formula_sum "Si O2"
_cell_formula_units_Z 24
_cell_length_a 8.483278
_cell_length_b 8.855638
_cell_length_c 12.477521
_cell_angle_alpha 90.000000
_cell_angle_beta 90.000000
_cell_angle_gamma 90.000000
_cell_volume 937.371757
_symmetry_space_group_name_H-M "P N C 2"
_symmetry_group_IT_number 30
_symmetry_cell_setting 'orthorhombic'
loop_
_space_group_symop_operation_xyz
x,y,z
-x,-y,z
-x,1/2+y,1/2+z
x,1/2-y,1/2+z
loop_
_atom_site_type_symbol
_atom_site_label
_atom_site_fract_x
_atom_site_fract_y
_atom_site_fract_z
Si Si1 0.077676 0.290224 0.611460
Si Si2 0.822155 0.532080 0.408368
Si Si3 0.500000 0.000000 0.173362
Si Si4 0.274069 0.788286 0.028057
Si Si5 0.653936 0.550205 0.083370
Si Si6 0.000000 0.000000 0.304701
Si Si7 0.304418 0.347944 0.860164
O O1 0.167852 0.409825 0.533750
O O2 0.194515 0.147409 0.621378
O O3 0.015724 0.359343 0.722795
O O4 0.915148 0.279364 0.548080
O O5 0.721506 0.378896 0.415107
O O6 0.747228 0.674895 0.351609
O O7 0.000000 0.500000 0.369870
O O8 0.608100 0.115972 0.105566
O O9 0.392449 0.097744 0.254336
O O10 0.303292 0.615009 0.045072
O O11 0.500000 0.500000 0.153150
O O12 0.606031 0.638120 0.973033
O O13 0.845674 0.961679 0.372062
#
# Coordination Sequence:
#
# PCOD9342137 Si02
#       7
#     4   4   2   4   4   2   4
#     4  10  20  43  68 100 130 187 241 284 353 448
#     4   9  20  42  72  98 129 184 245 289 346 448
#     4  12  24  42  72 104 144 196 232 318 390 418
#     4  11  23  42  74  97 134 194 250 290 365 450
#     4  11  26  42  70 101 143 189 245 297 360 450
#     4  12  22  42  72  98 146 184 234 310 364 428
#     4  11  25  41  68 105 146 178 239 307 377 426
#
# _framework density 25.603503
#
# number of rings (size 3 to 8) (size 9 to 14) (size 15 to 20)
#    0.000    1.333    5.000    0.500   14.000    0.000 
#    0.000    3.333    3.667    0.000    0.000    0.000 
#    0.000    0.000    0.000    0.000    0.000    0.000 
#
# Total GULP energy -133778.735099 kJ/mol
# GULP energy per Si atom -5574.113962 kJ/mol
# Density = 2.554523 g / cm^3
# Si number density = 25.603503 Si / 1000 Ang^3
#
#
#
# Elastic Constant Matrix: (Units=GPa)
#
#
# Indices 1 2 3 4 5 6 
#
# 1 122.2973 76.4106 11.4257 0.0000 0.0000 0.0000
# 2 76.4106 193.2951 11.5174 0.0000 0.0000 0.0000
# 3 11.4257 11.5174 47.1853 0.0000 0.0000 0.0000
# 4 0.0000 0.0000 0.0000 20.4709 0.0000 0.0000
# 5 0.0000 0.0000 0.0000 0.0000 50.7752 0.0000
# 6 0.0000 0.0000 0.0000 0.0000 0.0000 51.9740
#
#
#
# Elastic Compliance Matrix: (Units=1/GPa)
#
#
# Indices 1 2 3 4 5 6 
#
# 1 0.010980 -0.004244 -0.001623 0.000000 0.000000 0.000000
# 2 -0.004244 0.006890 -0.000654 0.000000 0.000000 0.000000
# 3 -0.001623 -0.000654 0.021746 0.000000 0.000000 0.000000
# 4 0.000000 0.000000 0.000000 0.048850 0.000000 0.000000
# 5 0.000000 0.000000 0.000000 0.000000 0.019695 0.000000
# 6 0.000000 0.000000 0.000000 0.000000 0.000000 0.019240
#
#
# Mechanical properties :
#
#
# Convention : Reuss Voigt Hill
#
# Bulk Modulus (GPa) = 37.63077 62.38725 50.00901
# Shear Modulus (GPa) = 33.48964 42.20563 37.84764
#
# Velocity S-wave (km/s) = 3.62057 4.06449 3.84894
# Velocity P-wave (km/s) = 5.67516 6.81516 6.27112
#
# Compressibility (1/GPa) = 0.02657400
#
# Stress axis : x y z
#
# Youngs Moduli (GPa) = 91.07597 145.13851 45.98615
#
# Poissons Ratio (x) = 0.61592 0.07463
# Poissons Ratio (y) = 0.38650 0.03008
# Poissons Ratio (z) = 0.14781 0.09495
#
# Static dielectric constant tensor:
#      x y z
#    x 2.020350 0.000000 0.000000 
#    y 0.000000 2.183250 0.000000 
#    z 0.000000 0.000000 2.077660 
# 
# From -- ./inp_files/5043.got.cif
#   From: 2010.05.17/outbox.cif.g08.bks.cpg/sg30_3_cif.got.tgz:5043.got - 2010.06.03 17:03:02.
