data_PCOD9342687
_publ_section_title
;
Structure prediction by ZEFSAII (Michael W. Deem and Ramdas Pophale) SiO2 
 PCOD9342687
Probable space group: P M N 21
;
_chemical_formula_sum "Si O2"
_cell_formula_units_Z 32
_cell_length_a 8.623342
_cell_length_b 21.538615
_cell_length_c 7.649423
_cell_angle_alpha 90.000000
_cell_angle_beta 90.000000
_cell_angle_gamma 90.000000
_cell_volume 1420.764383
_symmetry_space_group_name_H-M "P M N 21"
_symmetry_group_IT_number 31
_symmetry_cell_setting 'orthorhombic'
loop_
_space_group_symop_operation_xyz
x,y,z
1/2-x,-y,1/2+z
-x,y,z
1/2+x,-y,1/2+z
loop_
_atom_site_type_symbol
_atom_site_label
_atom_site_fract_x
_atom_site_fract_y
_atom_site_fract_z
Si Si1 0.682010 0.588425 0.572620
Si Si2 0.677507 0.087013 0.340082
Si Si3 0.815985 0.784996 0.956967
Si Si4 0.686061 0.293252 0.951445
Si Si5 0.183583 0.338104 0.575564
Si Si6 0.685914 0.455262 0.707525
Si Si7 0.816218 0.835414 0.357150
Si Si8 0.322117 0.038262 0.738444
O O1 0.500000 0.599454 0.597073
O O2 0.768737 0.653900 0.589427
O O3 0.726579 0.526863 0.677204
O O4 0.720126 0.566016 0.376527
O O5 0.500000 0.093681 0.283695
O O6 0.745028 0.156651 0.343883
O O7 0.748621 0.029184 0.240842
O O8 0.679189 0.063930 0.541437
O O9 0.735229 0.718414 0.951259
O O10 0.802680 0.809221 0.158442
O O11 0.000000 0.777043 0.921843
O O12 0.500000 0.293504 0.929450
O O13 0.763238 0.314396 0.768325
O O14 0.737802 0.221856 0.977102
O O15 0.265085 0.405322 0.558942
O O16 0.000000 0.346319 0.567635
O O17 0.500000 0.450260 0.733780
O O18 0.000000 0.842528 0.389811
O O19 0.749383 0.905217 0.353469
O O20 0.500000 0.030370 0.794815
#
# Coordination Sequence:
#
# PCOD9342687 Si02
#       8
#     4   4   4   4   4   4   4   4
#     4  10  20  32  48  72  97 121 155 194 229 272
#     4   9  18  31  47  69  95 123 155 190 230 277
#     4   8  14  27  44  61  87 119 150 186 229 274
#     4   9  15  26  45  65  89 121 153 187 231 274
#     4  10  17  25  42  68  93 115 149 194 232 270
#     4  10  20  33  49  69  96 128 156 187 232 279
#     4   7  12  24  42  63  85 114 149 183 222 268
#     4   9  17  30  47  67  94 123 153 191 229 270
#
# _framework density 22.523088000000001
#
# number of rings (size 3 to 8) (size 9 to 14) (size 15 to 20)
#    0.000    3.000    0.000    6.000    0.000    3.000 
#    0.000    5.625    0.000    1.500    0.000    5.250 
#    0.000    0.000    0.000    0.000    0.000    0.000 
#
# Total GULP energy -178345.375735 kJ/mol
# GULP energy per Si atom -5573.292992 kJ/mol
# Density = 2.247182 g / cm^3
# Si number density = 22.523088 Si / 1000 Ang^3
#
#
#
# Elastic Constant Matrix: (Units=GPa)
#
#
# Indices 1 2 3 4 5 6 
#
# 1 30.0069 4.5590 10.8975 0.0000 0.0000 0.0000
# 2 4.5590 32.9842 93.4564 0.0000 0.0000 0.0000
# 3 10.8975 93.4564 18.8009 0.0000 0.0000 0.0000
# 4 0.0000 0.0000 0.0000 16.5282 0.0000 0.0000
# 5 0.0000 0.0000 0.0000 0.0000 13.5282 0.0000
# 6 0.0000 0.0000 0.0000 0.0000 0.0000 29.4602
#
#
#
# Elastic Compliance Matrix: (Units=1/GPa)
#
#
# Indices 1 2 3 4 5 6 
#
# 1 0.034021 -0.003911 -0.000279 0.000000 0.000000 0.000000
# 2 -0.003911 -0.001868 0.011550 0.000000 0.000000 0.000000
# 3 -0.000279 0.011550 -0.004063 0.000000 0.000000 0.000000
# 4 0.000000 0.000000 0.000000 0.060503 0.000000 0.000000
# 5 0.000000 0.000000 0.000000 0.000000 0.073920 0.000000
# 6 0.000000 0.000000 0.000000 0.000000 0.000000 0.033944
#
#
# Mechanical properties :
#
#
# Convention : Reuss Voigt Hill
#
# Bulk Modulus (GPa) = 23.35866 33.29086 28.32476
# Shear Modulus (GPa) = 25.50923 10.09528 17.80225
#
# Velocity S-wave (km/s) = 3.36904 2.11942 2.81446
# Velocity P-wave (km/s) = 5.05246 4.56093 4.81297
#
# Compressibility (1/GPa) = 0.04281067
#
# Stress axis : x y z
#
# Youngs Moduli (GPa) = 29.39339 -535.46647 -246.13426
#
# Poissons Ratio (x) = -2.09414 -0.06875
# Poissons Ratio (y) = 0.11495 2.84287
# Poissons Ratio (z) = 0.00821 6.18468
#
# Static dielectric constant tensor:
#      x y z
#    x 1.759230 0.000000 0.000000 
#    y 0.000000 1.932440 0.000000 
#    z 0.000000 0.000000 1.945540 
# 
# From -- ./inp_files/3791.got.cif
#   From: 2010.05.17/outbox.cif.g08.bks.cpg/sg31_2_cif.got.tgz:3791.got - 2010.06.03 17:08:30.
