data_PCOD9342645
_publ_section_title
;
Structure prediction by ZEFSAII (Michael W. Deem and Ramdas Pophale) SiO2 
 PCOD9342645
Probable space group: P N C 2
;
_chemical_formula_sum "Si O2"
_cell_formula_units_Z 24
_cell_length_a 11.678630
_cell_length_b 5.770118
_cell_length_c 16.452206
_cell_angle_alpha 90.000000
_cell_angle_beta 90.000000
_cell_angle_gamma 90.000000
_cell_volume 1108.666010
_symmetry_space_group_name_H-M "P N C 2"
_symmetry_group_IT_number 30
_symmetry_cell_setting 'orthorhombic'
loop_
_space_group_symop_operation_xyz
x,y,z
-x,-y,z
-x,1/2+y,1/2+z
x,1/2-y,1/2+z
loop_
_atom_site_type_symbol
_atom_site_label
_atom_site_fract_x
_atom_site_fract_y
_atom_site_fract_z
Si Si1 0.320434 0.852047 0.260730
Si Si2 0.500000 0.500000 0.320166
Si Si3 0.663064 0.830285 0.412785
Si Si4 0.000000 0.500000 0.039211
Si Si5 0.500000 0.000000 0.547275
Si Si6 0.126101 0.115084 0.979135
Si Si7 0.500000 0.500000 0.639901
Si Si8 0.887425 0.382625 0.648288
O O1 0.398399 0.623797 0.270842
O O2 0.203219 0.811470 0.214261
O O3 0.300755 0.981331 0.345784
O O4 0.392110 0.018824 0.200445
O O5 0.553712 0.699445 0.375388
O O6 0.614256 0.957221 0.492755
O O7 0.758501 0.628382 0.427439
O O8 0.066147 0.668742 0.097917
O O9 0.093008 0.382960 0.982936
O O10 0.487907 0.747374 0.592559
O O11 0.000000 0.000000 0.958516
O O12 0.154790 0.041965 0.072265
O O13 0.000000 0.500000 0.686215
#
# Coordination Sequence:
#
# PCOD9342645 Si02
#       8
#     4   2   4   2   2   4   2   4
#     4  12  25  45  68  98 148 185 236 304 369 446
#     4  12  24  46  64  94 152 188 236 284 382 434
#     4  12  25  45  67  99 145 187 233 311 365 442
#     4   8  18  40  70  96 132 166 230 286 358 404
#     4  12  26  44  75 107 142 190 258 294 376 440
#     4   9  21  43  70 101 131 177 241 295 363 430
#     4  12  26  44  73 111 138 196 250 296 368 446
#     4   9  21  42  68 101 129 175 237 292 354 436
#
# _framework density 21.647635000000001
#
# number of rings (size 3 to 8) (size 9 to 14) (size 15 to 20)
#    0.000    1.667    3.333    2.000    2.333    5.333 
#    4.500    0.000    0.000    0.000    0.000    0.000 
#    0.000    0.000    0.000    0.000    0.000    0.000 
#
# Total GULP energy -133724.684561 kJ/mol
# GULP energy per Si atom -5571.861857 kJ/mol
# Density = 2.159836 g / cm^3
# Si number density = 21.647635 Si / 1000 Ang^3
#
#
#
# Elastic Constant Matrix: (Units=GPa)
#
#
# Indices 1 2 3 4 5 6 
#
# 1 99.4025 12.0732 32.7146 0.0000 0.0000 0.0000
# 2 12.0732 76.5926 27.5097 0.0000 0.0000 0.0000
# 3 32.7146 27.5097 78.9874 0.0000 0.0000 0.0000
# 4 0.0000 0.0000 0.0000 12.4295 0.0000 0.0000
# 5 0.0000 0.0000 0.0000 0.0000 24.4582 0.0000
# 6 0.0000 0.0000 0.0000 0.0000 0.0000 21.9215
#
#
#
# Elastic Compliance Matrix: (Units=1/GPa)
#
#
# Indices 1 2 3 4 5 6 
#
# 1 0.011649 -0.000118 -0.004783 0.000000 0.000000 0.000000
# 2 -0.000118 0.014924 -0.005149 0.000000 0.000000 0.000000
# 3 -0.004783 -0.005149 0.016435 0.000000 0.000000 0.000000
# 4 0.000000 0.000000 0.000000 0.080454 0.000000 0.000000
# 5 0.000000 0.000000 0.000000 0.000000 0.040886 0.000000
# 6 0.000000 0.000000 0.000000 0.000000 0.000000 0.045617
#
#
# Mechanical properties :
#
#
# Convention : Reuss Voigt Hill
#
# Bulk Modulus (GPa) = 43.65549 44.39751 44.02650
# Shear Modulus (GPa) = 21.03485 23.94084 22.48784
#
# Velocity S-wave (km/s) = 3.12058 3.32917 3.22656
# Velocity P-wave (km/s) = 5.76144 5.94403 5.85345
#
# Compressibility (1/GPa) = 0.02290663
#
# Stress axis : x y z
#
# Youngs Moduli (GPa) = 85.84608 67.00615 60.84689
#
# Poissons Ratio (x) = 0.00791 0.29106
# Poissons Ratio (y) = 0.01014 0.31329
# Poissons Ratio (z) = 0.41064 0.34500
#
# Static dielectric constant tensor:
#      x y z
#    x 1.852450 0.000000 0.000000 
#    y 0.000000 1.792850 0.000000 
#    z 0.000000 0.000000 1.796620 
# 
# From -- ./inp_files/6527.got.cif
#   From: 2010.05.17/outbox.cif.g08.bks.cpg/sg30_4_cif.got.tgz:6527.got - 2010.06.03 17:03:02.
