data_PCOD9342991
_publ_section_title
;
Structure prediction by ZEFSAII (Michael W. Deem and Ramdas Pophale) SiO2 
 PCOD9342991
Probable space group: P M N 21
;
_chemical_formula_sum "Si O2"
_cell_formula_units_Z 32
_cell_length_a 27.915161
_cell_length_b 6.132042
_cell_length_c 8.139266
_cell_angle_alpha 90.000000
_cell_angle_beta 90.000000
_cell_angle_gamma 90.000000
_cell_volume 1393.254645
_symmetry_space_group_name_H-M "P M N 21"
_symmetry_group_IT_number 31
_symmetry_cell_setting 'orthorhombic'
loop_
_space_group_symop_operation_xyz
x,y,z
1/2-x,-y,1/2+z
-x,y,z
1/2+x,-y,1/2+z
loop_
_atom_site_type_symbol
_atom_site_label
_atom_site_fract_x
_atom_site_fract_y
_atom_site_fract_z
Si Si1 0.675645 0.378134 0.353480
Si Si2 0.204746 0.227933 0.704908
Si Si3 0.730681 0.925950 0.853145
Si Si4 0.392672 0.329500 0.902687
Si Si5 0.117098 0.950130 0.709474
Si Si6 0.444844 0.951923 0.720770
Si Si7 0.850385 0.320363 0.157840
Si Si8 0.551930 0.707276 0.071486
O O1 0.691162 0.522203 0.196544
O O2 0.720307 0.215072 0.360917
O O3 0.625653 0.253222 0.328375
O O4 0.669793 0.542514 0.504365
O O5 0.211625 0.112660 0.532957
O O6 0.251489 0.168349 0.809611
O O7 0.157286 0.115369 0.771785
O O8 0.691215 0.839651 0.725234
O O9 0.426357 0.193620 0.774997
O O10 0.360559 0.493505 0.796172
O O11 0.419036 0.489658 0.031697
O O12 0.372527 0.144761 0.025637
O O13 0.071795 0.104781 0.690331
O O14 0.500000 0.956312 0.651296
O O15 0.400168 0.820032 0.634696
O O16 0.449477 0.823605 0.893586
O O17 0.500000 0.639745 0.128110
#
# Coordination Sequence:
#
# PCOD9342991 Si02
#       8
#     4   4   4   4   4   4   4   4
#     4  11  24  39  57  82 121 162 201 248 303 367
#     4  11  23  40  59  83 117 153 196 247 301 358
#     4  11  23  38  60  88 116 156 203 253 309 370
#     4  10  19  35  61  87 116 150 196 249 305 362
#     4  10  21  37  57  83 114 152 192 239 295 356
#     4   9  19  35  58  89 121 154 197 250 307 368
#     4  11  23  38  60  90 121 160 205 252 306 372
#     4   9  17  32  57  88 117 147 192 248 303 359
#
# _framework density 22.967804000000001
#
# number of rings (size 3 to 8) (size 9 to 14) (size 15 to 20)
#    0.000    1.750    0.000    5.625    0.000    9.000 
#    0.000    0.625    0.000    3.750    0.000    0.000 
#    0.000    0.000    0.000    0.000    0.000    0.000 
#
# Total GULP energy -178339.878662 kJ/mol
# GULP energy per Si atom -5573.121208 kJ/mol
# Density = 2.291553 g / cm^3
# Si number density = 22.967804 Si / 1000 Ang^3
#
#
#
# Elastic Constant Matrix: (Units=GPa)
#
#
# Indices 1 2 3 4 5 6 
#
# 1 109.0138 35.1972 20.1442 0.0000 0.0000 0.0000
# 2 35.1972 75.6719 0.9301 0.0000 0.0000 0.0000
# 3 20.1442 0.9301 31.6172 0.0000 0.0000 0.0000
# 4 0.0000 0.0000 0.0000 23.4156 0.0000 0.0000
# 5 0.0000 0.0000 0.0000 0.0000 18.9442 0.0000
# 6 0.0000 0.0000 0.0000 0.0000 0.0000 23.4737
#
#
#
# Elastic Compliance Matrix: (Units=1/GPa)
#
#
# Indices 1 2 3 4 5 6 
#
# 1 0.012446 -0.005693 -0.007762 0.000000 0.000000 0.000000
# 2 -0.005693 0.015824 0.003162 0.000000 0.000000 0.000000
# 3 -0.007762 0.003162 0.036481 0.000000 0.000000 0.000000
# 4 0.000000 0.000000 0.000000 0.042707 0.000000 0.000000
# 5 0.000000 0.000000 0.000000 0.000000 0.052787 0.000000
# 6 0.000000 0.000000 0.000000 0.000000 0.000000 0.042601
#
#
# Mechanical properties :
#
#
# Convention : Reuss Voigt Hill
#
# Bulk Modulus (GPa) = 22.64304 36.53843 29.59073
# Shear Modulus (GPa) = 20.99491 23.83547 22.41519
#
# Velocity S-wave (km/s) = 3.02669 3.22495 3.12739
# Velocity P-wave (km/s) = 4.70048 5.45987 5.09434
#
# Compressibility (1/GPa) = 0.04416369
#
# Stress axis : x y z
#
# Youngs Moduli (GPa) = 80.34910 63.19410 27.41170
#
# Poissons Ratio (x) = 0.35979 0.21277
# Poissons Ratio (y) = 0.45746 -0.08667
# Poissons Ratio (z) = 0.62367 -0.19982
#
# Static dielectric constant tensor:
#      x y z
#    x 1.931380 0.000000 0.000000 
#    y 0.000000 1.912800 0.000000 
#    z 0.000000 0.000000 1.900470 
# 
# From -- ./inp_files/3202.got.cif
#   From: 2010.05.17/outbox.cif.g08.bks.cpg/sg31_2_cif.got.tgz:3202.got - 2010.06.03 17:08:30.
