data_PCOD9342593
_publ_section_title
;
Structure prediction by ZEFSAII (Michael W. Deem and Ramdas Pophale) SiO2 
 PCOD9342593
Probable space group: P N C 2
;
_chemical_formula_sum "Si O2"
_cell_formula_units_Z 32
_cell_length_a 14.879674
_cell_length_b 7.524617
_cell_length_c 12.101695
_cell_angle_alpha 90.000000
_cell_angle_beta 90.000000
_cell_angle_gamma 90.000000
_cell_volume 1354.952339
_symmetry_space_group_name_H-M "P N C 2"
_symmetry_group_IT_number 30
_symmetry_cell_setting 'orthorhombic'
loop_
_space_group_symop_operation_xyz
x,y,z
-x,-y,z
-x,1/2+y,1/2+z
x,1/2-y,1/2+z
loop_
_atom_site_type_symbol
_atom_site_label
_atom_site_fract_x
_atom_site_fract_y
_atom_site_fract_z
Si Si1 0.224887 0.944800 0.917680
Si Si2 0.262034 0.373784 0.189768
Si Si3 0.097980 0.941559 0.097532
Si Si4 0.347514 0.501636 0.759755
Si Si5 0.893143 0.022360 0.559246
Si Si6 0.599197 0.929425 0.510441
Si Si7 0.401658 0.005796 0.025153
Si Si8 0.160868 0.892676 0.326485
O O1 0.149728 0.806629 0.871682
O O2 0.254663 0.051156 0.812202
O O3 0.172911 0.032363 0.020693
O O4 0.321301 0.892144 0.971360
O O5 0.303333 0.181399 0.215615
O O6 0.162316 0.395840 0.139943
O O7 0.326755 0.480990 0.103719
O O8 0.119425 0.729576 0.092523
O O9 0.105099 0.975524 0.227908
O O10 0.000000 0.000000 0.058770
O O11 0.406112 0.555753 0.653829
O O12 0.261486 0.623375 0.779906
O O13 0.388853 0.483456 0.881735
O O14 0.852118 0.994092 0.436965
O O15 0.000000 0.000000 0.557853
O O16 0.615102 0.716417 0.512074
O O17 0.500000 0.000000 0.543521
O O18 0.500000 0.000000 0.972274
#
# Coordination Sequence:
#
# PCOD9342593 Si02
#       8
#     4   4   4   4   4   4   4   4
#     4  11  24  45  68  96 137 177 224 274 339 399
#     4  11  24  45  68  96 137 177 224 274 339 399
#     4  11  25  43  69 102 135 174 224 282 336 399
#     4  11  23  43  71  96 130 177 228 276 338 403
#     4  11  25  43  65 100 135 176 222 276 339 404
#     4  11  25  43  69 102 135 174 224 282 336 399
#     4  11  25  43  65 100 135 176 222 276 339 404
#     4  11  23  43  71  96 130 177 228 276 338 403
#
# _framework density 23.617068
#
# number of rings (size 3 to 8) (size 9 to 14) (size 15 to 20)
#    0.000    1.000    5.000    0.750    3.500    3.000 
#    0.000    0.000    0.000    0.000    0.000    0.000 
#    0.000    0.000    0.000    0.000    0.000    0.000 
#
# Total GULP energy -178429.340118 kJ/mol
# GULP energy per Si atom -5575.916879 kJ/mol
# Density = 2.356331 g / cm^3
# Si number density = 23.617068 Si / 1000 Ang^3
#
#
#
# Elastic Constant Matrix: (Units=GPa)
#
#
# Indices 1 2 3 4 5 6 
#
# 1 121.4953 -4.2718 32.4164 0.0000 0.0000 0.0000
# 2 -4.2718 45.2878 15.1043 0.0000 0.0000 0.0000
# 3 32.4164 15.1043 144.3294 0.0000 0.0000 0.0000
# 4 0.0000 0.0000 0.0000 21.4322 0.0000 0.0000
# 5 0.0000 0.0000 0.0000 0.0000 -2.6981 0.0000
# 6 0.0000 0.0000 0.0000 0.0000 0.0000 26.5877
#
#
#
# Elastic Compliance Matrix: (Units=1/GPa)
#
#
# Indices 1 2 3 4 5 6 
#
# 1 0.008860 0.001554 -0.002152 0.000000 0.000000 0.000000
# 2 0.001554 0.023152 -0.002772 0.000000 0.000000 0.000000
# 3 -0.002152 -0.002772 0.007702 0.000000 0.000000 0.000000
# 4 0.000000 0.000000 0.000000 0.046659 0.000000 0.000000
# 5 0.000000 0.000000 0.000000 0.000000 -0.370628 0.000000
# 6 0.000000 0.000000 0.000000 0.000000 0.000000 0.037611
#
#
# Mechanical properties :
#
#
# Convention : Reuss Voigt Hill
#
# Bulk Modulus (GPa) = 30.32841 44.17892 37.25367
# Shear Modulus (GPa) = -21.84246 26.92192 2.53973
#
# Velocity S-wave (km/s) = -3.04445 3.37996 1.03813
# Velocity P-wave (km/s) = 0.71512 5.82916 4.15274
#
# Compressibility (1/GPa) = 0.03297238
#
# Stress axis : x y z
#
# Youngs Moduli (GPa) = 112.87063 43.19282 129.83445
#
# Poissons Ratio (x) = -0.06710 0.27947
# Poissons Ratio (y) = -0.17535 0.35988
# Poissons Ratio (z) = 0.24295 0.11972
#
# Static dielectric constant tensor:
#      x y z
#    x 1.993980 0.000000 0.000000 
#    y 0.000000 1.981700 0.000000 
#    z 0.000000 0.000000 1.935290 
# 
# From -- ./inp_files/4353.got.cif
#   From: 2010.05.17/outbox.cif.g08.bks.cpg/sg30_3_cif.got.tgz:4353.got - 2010.06.03 17:03:02.
