data_PCOD9342358
_publ_section_title
;
Structure prediction by ZEFSAII (Michael W. Deem and Ramdas Pophale) SiO2 
 PCOD9342358
Probable space group: P N C 2
;
_chemical_formula_sum "Si O2"
_cell_formula_units_Z 24
_cell_length_a 11.030426
_cell_length_b 10.656188
_cell_length_c 9.268533
_cell_angle_alpha 90.000000
_cell_angle_beta 90.000000
_cell_angle_gamma 90.000000
_cell_volume 1089.444623
_symmetry_space_group_name_H-M "P N C 2"
_symmetry_group_IT_number 30
_symmetry_cell_setting 'orthorhombic'
loop_
_space_group_symop_operation_xyz
x,y,z
-x,-y,z
-x,1/2+y,1/2+z
x,1/2-y,1/2+z
loop_
_atom_site_type_symbol
_atom_site_label
_atom_site_fract_x
_atom_site_fract_y
_atom_site_fract_z
Si Si1 0.616309 0.930731 0.769220
Si Si2 0.283451 0.621434 0.832566
Si Si3 0.204162 0.644292 0.150582
Si Si4 0.825532 0.807660 0.938356
Si Si5 0.500000 0.500000 0.995150
Si Si6 0.117033 0.408061 0.738264
Si Si7 0.000000 0.500000 0.289032
O O1 0.691518 0.834196 0.868763
O O2 0.500000 0.000000 0.843270
O O3 0.712201 0.034053 0.714515
O O4 0.560713 0.900203 0.609517
O O5 0.260805 0.733400 0.723022
O O6 0.413111 0.581533 0.894455
O O7 0.228559 0.500864 0.757040
O O8 0.210262 0.652083 0.979066
O O9 0.070083 0.605258 0.197775
O O10 0.883759 0.680266 0.878187
O O11 0.905108 0.925485 0.885547
O O12 0.845351 0.815428 0.108720
O O13 0.000000 0.500000 0.720842
#
# Coordination Sequence:
#
# PCOD9342358 Si02
#       7
#     4   4   4   4   2   4   2
#     4   8  19  43  70 101 139 185 237 289 355 416
#     4  11  25  45  69 106 143 188 241 294 364 432
#     4  10  23  40  72  97 142 188 230 296 359 423
#     4  11  25  45  69 104 139 189 238 298 357 429
#     4   8  20  46  66 106 142 186 240 298 342 436
#     4  12  29  46  71 105 145 188 244 299 364 432
#     4  10  22  42  70  94 138 182 238 292 352 428
#
# _framework density 22.029574
#
# number of rings (size 3 to 8) (size 9 to 14) (size 15 to 20)
#    0.500    1.333    0.833    1.000   12.833    4.000 
#    1.500    0.000    0.000    0.000    0.000    0.000 
#    0.000    0.000    0.000    0.000    0.000    0.000 
#
# Total GULP energy -133803.167385 kJ/mol
# GULP energy per Si atom -5575.131974 kJ/mol
# Density = 2.197943 g / cm^3
# Si number density = 22.029574 Si / 1000 Ang^3
#
#
#
# Elastic Constant Matrix: (Units=GPa)
#
#
# Indices 1 2 3 4 5 6 
#
# 1 92.5101 -1.0897 14.0775 0.0000 0.0000 0.0000
# 2 -1.0897 19.8898 2.2448 0.0000 0.0000 0.0000
# 3 14.0775 2.2448 54.4913 0.0000 0.0000 0.0000
# 4 0.0000 0.0000 0.0000 43.1882 0.0000 0.0000
# 5 0.0000 0.0000 0.0000 0.0000 15.7709 0.0000
# 6 0.0000 0.0000 0.0000 0.0000 0.0000 18.3500
#
#
#
# Elastic Compliance Matrix: (Units=1/GPa)
#
#
# Indices 1 2 3 4 5 6 
#
# 1 0.011270 0.000950 -0.002951 0.000000 0.000000 0.000000
# 2 0.000950 0.050592 -0.002330 0.000000 0.000000 0.000000
# 3 -0.002951 -0.002330 0.019210 0.000000 0.000000 0.000000
# 4 0.000000 0.000000 0.000000 0.023154 0.000000 0.000000
# 5 0.000000 0.000000 0.000000 0.000000 0.063408 0.000000
# 6 0.000000 0.000000 0.000000 0.000000 0.000000 0.054496
#
#
# Mechanical properties :
#
#
# Convention : Reuss Voigt Hill
#
# Bulk Modulus (GPa) = 13.80993 21.92851 17.86922
# Shear Modulus (GPa) = 19.61347 25.57241 22.59294
#
# Velocity S-wave (km/s) = 2.98707 3.41078 3.20593
# Velocity P-wave (km/s) = 4.26371 5.04846 4.67259
#
# Compressibility (1/GPa) = 0.07241168
#
# Stress axis : x y z
#
# Youngs Moduli (GPa) = 88.73249 19.76600 52.05674
#
# Poissons Ratio (x) = -0.01879 0.15360
# Poissons Ratio (y) = -0.08433 0.12128
# Poissons Ratio (z) = 0.26182 0.04605
#
# Static dielectric constant tensor:
#      x y z
#    x 1.879420 0.000000 0.000000 
#    y 0.000000 1.763320 0.000000 
#    z 0.000000 0.000000 1.836940 
# 
# From -- ./inp_files/2378.got.cif
#   From: 2010.05.17/outbox.cif.g08.bks.cpg/sg30_2_cif.got.tgz:2378.got - 2010.06.03 17:03:02.
