data_PCOD9342875
_publ_section_title
;
Structure prediction by ZEFSAII (Michael W. Deem and Ramdas Pophale) SiO2 
 PCOD9342875
Probable space group: P M N 21
;
_chemical_formula_sum "Si O2"
_cell_formula_units_Z 32
_cell_length_a 8.055339
_cell_length_b 10.971575
_cell_length_c 14.500943
_cell_angle_alpha 90.000000
_cell_angle_beta 90.000000
_cell_angle_gamma 90.000000
_cell_volume 1281.589804
_symmetry_space_group_name_H-M "P M N 21"
_symmetry_group_IT_number 31
_symmetry_cell_setting 'orthorhombic'
loop_
_space_group_symop_operation_xyz
x,y,z
1/2-x,-y,1/2+z
-x,y,z
1/2+x,-y,1/2+z
loop_
_atom_site_type_symbol
_atom_site_label
_atom_site_fract_x
_atom_site_fract_y
_atom_site_fract_z
Si Si1 0.694339 0.056759 0.170110
Si Si2 0.306361 0.848317 0.389924
Si Si3 0.695047 0.207765 0.329782
Si Si4 0.696553 0.564297 0.051368
Si Si5 0.195827 0.465506 0.345015
Si Si6 0.197852 0.695004 0.227277
Si Si7 0.307588 0.921281 0.000287
Si Si8 0.196884 0.297547 0.067042
O O1 0.500000 0.026011 0.178656
O O2 0.760560 0.092892 0.270179
O O3 0.713088 0.187215 0.118748
O O4 0.768397 0.958507 0.099284
O O5 0.500000 0.884131 0.396139
O O6 0.267517 0.808492 0.285761
O O7 0.205099 0.955124 0.439292
O O8 0.278856 0.732529 0.458001
O O9 0.500000 0.219678 0.312034
O O10 0.782466 0.332222 0.301419
O O11 0.722665 0.178268 0.436692
O O12 0.500000 0.580541 0.043717
O O13 0.758089 0.667670 0.121447
O O14 0.736916 0.430324 0.091295
O O15 0.768868 0.552722 0.947740
O O16 0.262999 0.574989 0.283038
O O17 0.000000 0.490469 0.355079
O O18 0.000000 0.701520 0.233940
O O19 0.500000 0.887616 0.011088
O O20 0.000000 0.290582 0.085379
#
# Coordination Sequence:
#
# PCOD9342875 Si02
#       8
#     4   4   4   4   4   4   4   4
#     4   9  20  38  61  88 116 155 199 243 300 358
#     4  10  20  36  59  86 116 150 192 243 296 349
#     4  11  23  40  62  89 120 155 200 252 302 357
#     4  11  22  37  56  83 120 162 199 238 297 360
#     4  10  23  41  60  85 122 163 198 240 298 360
#     4  11  22  38  60  89 121 156 201 247 295 357
#     4  10  21  40  64  87 116 155 199 247 299 357
#     4  10  19  32  56  87 117 150 194 246 289 342
#
# _framework density 24.968986000000001
#
# number of rings (size 3 to 8) (size 9 to 14) (size 15 to 20)
#    0.000    1.750    1.250    3.000    0.000    6.500 
#    2.250    0.000    0.000    0.000    0.000    0.000 
#    0.000    0.000    0.000    0.000    0.000    0.000 
#
# Total GULP energy -178976.361760 kJ/mol
# GULP energy per Si atom -5593.011305 kJ/mol
# Density = 2.491216 g / cm^3
# Si number density = 24.968986 Si / 1000 Ang^3
#
#
#
# Elastic Constant Matrix: (Units=GPa)
#
#
# Indices 1 2 3 4 5 6 
#
# 1 39.7493 -10.6081 0.9332 0.0000 0.0000 0.0000
# 2 -10.6081 80.7389 8.1838 0.0000 0.0000 0.0000
# 3 0.9332 8.1838 133.1348 0.0000 0.0000 0.0000
# 4 0.0000 0.0000 0.0000 46.9687 0.0000 0.0000
# 5 0.0000 0.0000 0.0000 0.0000 9.8911 0.0000
# 6 0.0000 0.0000 0.0000 0.0000 0.0000 -8.5720
#
#
#
# Elastic Compliance Matrix: (Units=1/GPa)
#
#
# Indices 1 2 3 4 5 6 
#
# 1 0.026093 0.003468 -0.000396 0.000000 0.000000 0.000000
# 2 0.003468 0.012924 -0.000819 0.000000 0.000000 0.000000
# 3 -0.000396 -0.000819 0.007564 0.000000 0.000000 0.000000
# 4 0.000000 0.000000 0.000000 0.021291 0.000000 0.000000
# 5 0.000000 0.000000 0.000000 0.000000 0.101101 0.000000
# 6 0.000000 0.000000 0.000000 0.000000 0.000000 -0.116660
#
#
# Mechanical properties :
#
#
# Convention : Reuss Voigt Hill
#
# Bulk Modulus (GPa) = 19.57397 27.84898 23.71148
# Shear Modulus (GPa) = 77.11805 26.66518 51.89161
#
# Velocity S-wave (km/s) = 5.56350 3.27147 4.56372
# Velocity P-wave (km/s) = 7.00903 5.04457 6.10631
#
# Compressibility (1/GPa) = 0.05108825
#
# Stress axis : x y z
#
# Youngs Moduli (GPa) = 38.32502 77.37370 132.20015
#
# Poissons Ratio (x) = -0.26836 0.05236
# Poissons Ratio (y) = -0.13293 0.10824
# Poissons Ratio (z) = 0.01518 0.06335
#
# Static dielectric constant tensor:
#      x y z
#    x 1.893460 0.000000 0.000000 
#    y 0.000000 1.990300 0.000000 
#    z 0.000000 0.000000 2.064430 
# 
# From -- ./inp_files/4966.got.cif
#   From: 2010.05.17/outbox.cif.g08.bks.cpg/sg31_3_cif.got.tgz:4966.got - 2010.06.03 17:08:30.
