data_PCOD9342714
_publ_section_title
;
Structure prediction by ZEFSAII (Michael W. Deem and Ramdas Pophale) SiO2 
 PCOD9342714
Probable space group: P M N 21
;
_chemical_formula_sum "Si O2"
_cell_formula_units_Z 32
_cell_length_a 7.324256
_cell_length_b 11.187888
_cell_length_c 14.486603
_cell_angle_alpha 90.000000
_cell_angle_beta 90.000000
_cell_angle_gamma 90.000000
_cell_volume 1187.075069
_symmetry_space_group_name_H-M "P M N 21"
_symmetry_group_IT_number 31
_symmetry_cell_setting 'orthorhombic'
loop_
_space_group_symop_operation_xyz
x,y,z
1/2-x,-y,1/2+z
-x,y,z
1/2+x,-y,1/2+z
loop_
_atom_site_type_symbol
_atom_site_label
_atom_site_fract_x
_atom_site_fract_y
_atom_site_fract_z
Si Si1 0.722263 0.958136 0.110400
Si Si2 0.219310 0.567336 0.268839
Si Si3 0.282395 0.939331 0.896716
Si Si4 0.723424 0.569885 0.935716
Si Si5 0.279616 0.196892 0.876663
Si Si6 0.786236 0.293300 0.600188
Si Si7 0.719950 0.337978 0.053607
Si Si8 0.217819 0.807436 0.718520
O O1 0.500000 0.968381 0.113166
O O2 0.783971 0.827608 0.147046
O O3 0.787772 0.072274 0.166842
O O4 0.778717 0.946207 0.002941
O O5 0.284786 0.457765 0.331798
O O6 0.285607 0.689481 0.318658
O O7 0.270930 0.590108 0.163987
O O8 0.000000 0.566025 0.271751
O O9 0.500000 0.946476 0.903377
O O10 0.251379 0.829986 0.826611
O O11 0.213417 0.064573 0.852622
O O12 0.500000 0.574929 0.933240
O O13 0.788859 0.678013 0.998999
O O14 0.779141 0.453741 0.996288
O O15 0.500000 0.198091 0.868972
O O16 0.239914 0.227934 0.983905
O O17 0.000000 0.271962 0.587147
O O18 0.500000 0.349618 0.057587
O O19 0.787405 0.303050 0.155710
O O20 0.000000 0.803314 0.709528
#
# Coordination Sequence:
#
# PCOD9342714 Si02
#       8
#     4   4   4   4   4   4   4   4
#     4   9  18  32  50  71  99 132 159 188 237 298
#     4   9  17  31  52  76  94 120 166 209 237 267
#     4  10  18  30  47  70  98 129 158 186 234 294
#     4   8  16  31  51  71  92 124 164 198 231 281
#     4   8  13  25  48  69  87 119 162 197 220 266
#     4  10  19  33  51  72  99 130 160 192 238 295
#     4   8  13  26  48  67  84 114 160 199 223 262
#     4  10  18  30  49  72  95 122 159 199 236 277
#
# _framework density 26.957011999999999
#
# number of rings (size 3 to 8) (size 9 to 14) (size 15 to 20)
#    0.000    3.000    1.250    2.250    0.000    0.000 
#    2.250    1.875    0.000    3.000    0.000    0.000 
#    0.000    0.000    0.000    0.000    0.000    0.000 
#
# Total GULP energy -178741.520329 kJ/mol
# GULP energy per Si atom -5585.672510 kJ/mol
# Density = 2.689566 g / cm^3
# Si number density = 26.957012 Si / 1000 Ang^3
#
#
#
# Elastic Constant Matrix: (Units=GPa)
#
#
# Indices 1 2 3 4 5 6 
#
# 1 108.4718 -3.9844 -10.3241 0.0000 0.0000 0.0000
# 2 -3.9844 56.1034 17.2685 0.0000 0.0000 0.0000
# 3 -10.3241 17.2685 146.9439 0.0000 0.0000 0.0000
# 4 0.0000 0.0000 0.0000 48.9190 0.0000 0.0000
# 5 0.0000 0.0000 0.0000 0.0000 2.6952 0.0000
# 6 0.0000 0.0000 0.0000 0.0000 0.0000 -2.8609
#
#
#
# Elastic Compliance Matrix: (Units=1/GPa)
#
#
# Indices 1 2 3 4 5 6 
#
# 1 0.009293 0.000476 0.000597 0.000000 0.000000 0.000000
# 2 0.000476 0.018518 -0.002143 0.000000 0.000000 0.000000
# 3 0.000597 -0.002143 0.007099 0.000000 0.000000 0.000000
# 4 0.000000 0.000000 0.000000 0.020442 0.000000 0.000000
# 5 0.000000 0.000000 0.000000 0.000000 0.371031 0.000000
# 6 0.000000 0.000000 0.000000 0.000000 0.000000 -0.349545
#
#
# Mechanical properties :
#
#
# Convention : Reuss Voigt Hill
#
# Bulk Modulus (GPa) = 30.51475 35.27099 32.89287
# Shear Modulus (GPa) = 55.61691 30.32127 42.96909
#
# Velocity S-wave (km/s) = 4.54714 3.35744 3.99681
# Velocity P-wave (km/s) = 6.23803 5.30495 5.79031
#
# Compressibility (1/GPa) = 0.03277104
#
# Stress axis : x y z
#
# Youngs Moduli (GPa) = 107.60440 54.00278 140.86367
#
# Poissons Ratio (x) = -0.02572 -0.08409
# Poissons Ratio (y) = -0.05125 0.30182
# Poissons Ratio (z) = -0.06424 0.11571
#
# Static dielectric constant tensor:
#      x y z
#    x 2.034120 0.000000 0.000000 
#    y 0.000000 2.149270 0.000000 
#    z 0.000000 0.000000 2.138790 
# 
# From -- ./inp_files/5061.got.cif
#   From: 2010.05.17/outbox.cif.g08.bks.cpg/sg31_3_cif.got.tgz:5061.got - 2010.06.03 17:08:30.
