data_PCOD9342767
_publ_section_title
;
Structure prediction by ZEFSAII (Michael W. Deem and Ramdas Pophale) SiO2 
 PCOD9342767
Probable space group: P M N 21
;
_chemical_formula_sum "Si O2"
_cell_formula_units_Z 32
_cell_length_a 7.228649
_cell_length_b 10.018702
_cell_length_c 16.724334
_cell_angle_alpha 90.000000
_cell_angle_beta 90.000000
_cell_angle_gamma 90.000000
_cell_volume 1211.204368
_symmetry_space_group_name_H-M "P M N 21"
_symmetry_group_IT_number 31
_symmetry_cell_setting 'orthorhombic'
loop_
_space_group_symop_operation_xyz
x,y,z
1/2-x,-y,1/2+z
-x,y,z
1/2+x,-y,1/2+z
loop_
_atom_site_type_symbol
_atom_site_label
_atom_site_fract_x
_atom_site_fract_y
_atom_site_fract_z
Si Si1 0.724476 0.581743 0.882670
Si Si2 0.209141 0.611673 0.707819
Si Si3 0.775956 0.175113 0.806789
Si Si4 0.774470 0.339758 0.647944
Si Si5 0.724669 0.815048 0.986694
Si Si6 0.723660 0.081026 0.054347
Si Si7 0.710374 0.330246 0.969926
Si Si8 0.777165 0.908379 0.733776
O O1 0.500000 0.576311 0.879604
O O2 0.796098 0.546204 0.795781
O O3 0.789859 0.472502 0.946409
O O4 0.782875 0.728264 0.911073
O O5 0.288032 0.494223 0.653148
O O6 0.293355 0.756439 0.727780
O O7 0.000000 0.638849 0.679691
O O8 0.720070 0.258034 0.727479
O O9 0.709203 0.245333 0.887349
O O10 0.000000 0.176247 0.809305
O O11 0.713326 0.021280 0.795218
O O12 0.721208 0.264253 0.567119
O O13 0.000000 0.343641 0.648320
O O14 0.500000 0.817027 0.985745
O O15 0.788876 0.966481 0.994605
O O16 0.500000 0.087590 0.047714
O O17 0.762335 0.037836 0.144467
O O18 0.792677 0.228699 0.034126
O O19 0.500000 0.358360 0.994585
O O20 0.000000 0.900801 0.743310
#
# Coordination Sequence:
#
# PCOD9342767 Si02
#       8
#     4   4   4   4   4   4   4   4
#     4  10  21  34  49  74 105 134 164 202 247 297
#     4  10  20  33  52  77 102 130 166 208 250 291
#     4  10  18  33  54  74  97 130 166 203 248 295
#     4   9  16  29  51  74  94 124 168 207 240 284
#     4   9  17  30  49  73 100 130 166 206 247 292
#     4   9  17  31  49  73 102 129 163 208 251 288
#     4  10  21  33  49  75 104 132 164 204 249 296
#     4   9  18  31  51  78 102 125 165 216 250 281
#
# _framework density 26.419983999999999
#
# number of rings (size 3 to 8) (size 9 to 14) (size 15 to 20)
#    0.000    2.500    2.500    0.000    3.500    0.000 
#    0.000    0.000    0.000    3.000    0.000    0.000 
#    0.000    0.000    0.000    0.000    0.000    0.000 
#
# Total GULP energy -179008.365524 kJ/mol
# GULP energy per Si atom -5594.011423 kJ/mol
# Density = 2.635985 g / cm^3
# Si number density = 26.419984 Si / 1000 Ang^3
#
#
#
# Elastic Constant Matrix: (Units=GPa)
#
#
# Indices 1 2 3 4 5 6 
#
# 1 133.5514 0.1889 -5.0596 0.0000 0.0000 0.0000
# 2 0.1889 135.4066 -12.9433 0.0000 0.0000 0.0000
# 3 -5.0596 -12.9433 66.2900 0.0000 0.0000 0.0000
# 4 0.0000 0.0000 0.0000 52.5059 0.0000 0.0000
# 5 0.0000 0.0000 0.0000 0.0000 -1.6315 0.0000
# 6 0.0000 0.0000 0.0000 0.0000 0.0000 -10.1048
#
#
#
# Elastic Compliance Matrix: (Units=1/GPa)
#
#
# Indices 1 2 3 4 5 6 
#
# 1 0.007510 0.000045 0.000582 0.000000 0.000000 0.000000
# 2 0.000045 0.007526 0.001473 0.000000 0.000000 0.000000
# 3 0.000582 0.001473 0.015417 0.000000 0.000000 0.000000
# 4 0.000000 0.000000 0.000000 0.019045 0.000000 0.000000
# 5 0.000000 0.000000 0.000000 0.000000 -0.612943 0.000000
# 6 0.000000 0.000000 0.000000 0.000000 0.000000 -0.098963
#
#
# Mechanical properties :
#
#
# Convention : Reuss Voigt Hill
#
# Bulk Modulus (GPa) = 28.85754 33.29111 31.07432
# Shear Modulus (GPa) = -7.63292 31.69139 12.02924
#
# Velocity S-wave (km/s) = -1.70157 3.46717 2.13611
# Velocity P-wave (km/s) = 2.66193 5.35317 4.22743
#
# Compressibility (1/GPa) = 0.03465299
#
# Stress axis : x y z
#
# Youngs Moduli (GPa) = 133.16044 132.87458 64.86243
#
# Poissons Ratio (x) = -0.00600 -0.03775
# Poissons Ratio (y) = -0.00601 -0.09554
# Poissons Ratio (z) = -0.07750 -0.19571
#
# Static dielectric constant tensor:
#      x y z
#    x 2.019920 0.000000 0.000000 
#    y 0.000000 2.071260 0.000000 
#    z 0.000000 0.000000 2.018790 
# 
# From -- ./inp_files/6037.got.cif
#   From: 2010.05.17/outbox.cif.g08.bks.cpg/sg31_4_cif.got.tgz:6037.got - 2010.06.03 17:08:30.
