data_PCOD9342125
_publ_section_title
;
Structure prediction by ZEFSAII (Michael W. Deem and Ramdas Pophale) SiO2 
 PCOD9342125
Probable space group: P N C 2
;
_chemical_formula_sum "Si O2"
_cell_formula_units_Z 12
_cell_length_a 6.723314
_cell_length_b 4.957787
_cell_length_c 16.999708
_cell_angle_alpha 90.000000
_cell_angle_beta 90.000000
_cell_angle_gamma 90.000000
_cell_volume 566.647166
_symmetry_space_group_name_H-M "P N C 2"
_symmetry_group_IT_number 30
_symmetry_cell_setting 'orthorhombic'
loop_
_space_group_symop_operation_xyz
x,y,z
-x,-y,z
-x,1/2+y,1/2+z
x,1/2-y,1/2+z
loop_
_atom_site_type_symbol
_atom_site_label
_atom_site_fract_x
_atom_site_fract_y
_atom_site_fract_z
Si Si1 0.000000 0.500000 0.724910
Si Si2 0.000000 0.500000 0.121691
Si Si3 0.866701 0.760989 0.371849
Si Si4 0.363063 0.242946 0.024515
O O1 0.168938 0.385555 0.785282
O O2 0.079315 0.752929 0.675335
O O3 0.169056 0.339216 0.072867
O O4 0.702893 0.682508 0.434839
O O5 0.000000 0.500000 0.358930
O O6 0.000000 0.000000 0.410056
O O7 0.500000 0.500000 0.021511
O O8 0.500000 0.000000 0.055900
#
# Coordination Sequence:
#
# PCOD9342125 Si02
#       4
#     2   2   4   4
#     4  10  21  40  73  90 132 192 212 278 357 402
#     4  12  23  44  69  96 146 176 224 284 349 422
#     4  10  20  42  68  97 122 176 233 265 339 401
#     4  12  26  42  70 103 133 179 233 284 340 408
#
# _framework density 21.177199999999999
#
# number of rings (size 3 to 8) (size 9 to 14) (size 15 to 20)
#    1.000    0.000    3.333    4.000    2.333    0.000 
#    0.000    6.667    0.000    0.000    0.000    0.000 
#    0.000    0.000    0.000    0.000    0.000    0.000 
#
# Total GULP energy -66802.501223 kJ/mol
# GULP energy per Si atom -5566.875102 kJ/mol
# Density = 2.112900 g / cm^3
# Si number density = 21.177200 Si / 1000 Ang^3
#
#
#
# Elastic Constant Matrix: (Units=GPa)
#
#
# Indices 1 2 3 4 5 6 
#
# 1 81.4117 44.8112 54.6084 0.0000 0.0000 0.0000
# 2 44.8112 163.7098 59.7005 0.0000 0.0000 0.0000
# 3 54.6084 59.7005 110.6345 0.0000 0.0000 0.0000
# 4 0.0000 0.0000 0.0000 103.4715 0.0000 0.0000
# 5 0.0000 0.0000 0.0000 0.0000 7.2797 0.0000
# 6 0.0000 0.0000 0.0000 0.0000 0.0000 36.6077
#
#
#
# Elastic Compliance Matrix: (Units=1/GPa)
#
#
# Indices 1 2 3 4 5 6 
#
# 1 0.018987 -0.002216 -0.008176 0.000000 0.000000 0.000000
# 2 -0.002216 0.007863 -0.003150 0.000000 0.000000 0.000000
# 3 -0.008176 -0.003150 0.014774 0.000000 0.000000 0.000000
# 4 0.000000 0.000000 0.000000 0.009664 0.000000 0.000000
# 5 0.000000 0.000000 0.000000 0.000000 0.137369 0.000000
# 6 0.000000 0.000000 0.000000 0.000000 0.000000 0.027317
#
#
# Mechanical properties :
#
#
# Convention : Reuss Voigt Hill
#
# Bulk Modulus (GPa) = 68.76822 74.88848 71.82835
# Shear Modulus (GPa) = 20.16900 42.58082 31.37491
#
# Velocity S-wave (km/s) = 3.08943 4.48894 3.85326
# Velocity P-wave (km/s) = 6.72825 7.89348 7.33404
#
# Compressibility (1/GPa) = 0.01454160
#
# Stress axis : x y z
#
# Youngs Moduli (GPa) = 52.66703 127.17124 67.68547
#
# Poissons Ratio (x) = 0.28175 0.55342
# Poissons Ratio (y) = 0.11669 0.21319
# Poissons Ratio (z) = 0.43063 0.40055
#
# Static dielectric constant tensor:
#      x y z
#    x 1.766960 0.000000 0.000000 
#    y 0.000000 1.732450 0.000000 
#    z 0.000000 0.000000 1.893300 
# 
# From -- ./inp_files/5708.got.cif
#   From: 2010.05.17/outbox.cif.g08.bks.cpg/sg30_3_cif.got.tgz:5708.got - 2010.06.03 17:03:02.
