data_PCOD9342103
_publ_section_title
;
Structure prediction by ZEFSAII (Michael W. Deem and Ramdas Pophale) SiO2 
 PCOD9342103
Probable space group: P N C 2
;
_chemical_formula_sum "Si O2"
_cell_formula_units_Z 30
_cell_length_a 7.223537
_cell_length_b 21.154682
_cell_length_c 8.489078
_cell_angle_alpha 90.000000
_cell_angle_beta 90.000000
_cell_angle_gamma 90.000000
_cell_volume 1297.229831
_symmetry_space_group_name_H-M "P N C 2"
_symmetry_group_IT_number 30
_symmetry_cell_setting 'orthorhombic'
loop_
_space_group_symop_operation_xyz
x,y,z
-x,-y,z
-x,1/2+y,1/2+z
x,1/2-y,1/2+z
loop_
_atom_site_type_symbol
_atom_site_label
_atom_site_fract_x
_atom_site_fract_y
_atom_site_fract_z
Si Si1 0.766879 0.830948 0.378730
Si Si2 0.846588 0.931835 0.854651
Si Si3 0.332591 0.805979 0.462836
Si Si4 0.902864 0.406545 0.810759
Si Si5 0.364235 0.675195 0.310675
Si Si6 0.000000 0.500000 0.070257
Si Si7 0.258231 0.948429 0.987567
Si Si8 0.781577 0.800968 0.730835
O O1 0.542136 0.829254 0.407861
O O2 0.840210 0.820019 0.556279
O O3 0.826545 0.769583 0.279432
O O4 0.876116 0.889917 0.299750
O O5 0.857740 0.960365 0.678291
O O6 0.827067 0.856882 0.851554
O O7 0.053867 0.939854 0.914794
O O8 0.706142 0.977579 0.948767
O O9 0.196055 0.840985 0.345105
O O10 0.314004 0.730834 0.432396
O O11 0.265073 0.824996 0.640183
O O12 0.788183 0.437294 0.669118
O O13 0.889553 0.452574 0.959374
O O14 0.367005 0.607978 0.399390
O O15 0.560666 0.696610 0.242040
#
# Coordination Sequence:
#
# PCOD9342103 Si02
#       8
#     4   4   4   4   4   2   4   4
#     4  10  24  40  64  99 122 163 213 256 323 376
#     4  10  21  41  63  89 127 164 214 258 308 378
#     4  10  22  40  63  95 125 163 208 270 311 380
#     4  12  23  41  67  90 127 169 206 267 320 372
#     4  10  21  40  62  89 130 160 212 260 318 377
#     4  10  20  40  66  88 124 164 222 260 306 388
#     4  10  23  38  59  94 121 168 209 252 314 380
#     4  10  22  41  64  92 125 163 206 267 312 375
#
# _framework density 23.126204000000001
#
# number of rings (size 3 to 8) (size 9 to 14) (size 15 to 20)
#    0.000    1.867    1.333    3.200    3.733    1.600 
#    0.000    0.667    2.933    0.000    0.000    0.000 
#    0.000    0.000    0.000    0.000    0.000    0.000 
#
# Total GULP energy -167148.000030 kJ/mol
# GULP energy per Si atom -5571.600001 kJ/mol
# Density = 2.307357 g / cm^3
# Si number density = 23.126204 Si / 1000 Ang^3
#
#
#
# Elastic Constant Matrix: (Units=GPa)
#
#
# Indices 1 2 3 4 5 6 
#
# 1 44.7060 -1.8656 0.8255 0.0000 0.0000 0.0000
# 2 -1.8656 24.5489 -3.6911 0.0000 0.0000 0.0000
# 3 0.8255 -3.6911 77.2760 0.0000 0.0000 0.0000
# 4 0.0000 0.0000 0.0000 24.6459 0.0000 0.0000
# 5 0.0000 0.0000 0.0000 0.0000 8.7134 0.0000
# 6 0.0000 0.0000 0.0000 0.0000 0.0000 20.1223
#
#
#
# Elastic Compliance Matrix: (Units=1/GPa)
#
#
# Indices 1 2 3 4 5 6 
#
# 1 0.022441 0.001681 -0.000159 0.000000 0.000000 0.000000
# 2 0.001681 0.041156 0.001948 0.000000 0.000000 0.000000
# 3 -0.000159 0.001948 0.013035 0.000000 0.000000 0.000000
# 4 0.000000 0.000000 0.000000 0.040575 0.000000 0.000000
# 5 0.000000 0.000000 0.000000 0.000000 0.114766 0.000000
# 6 0.000000 0.000000 0.000000 0.000000 0.000000 0.049696
#
#
# Mechanical properties :
#
#
# Convention : Reuss Voigt Hill
#
# Bulk Modulus (GPa) = 11.96567 15.22982 13.59774
# Shear Modulus (GPa) = 16.52420 20.78048 18.65234
#
# Velocity S-wave (km/s) = 2.67596 3.00087 2.84306
# Velocity P-wave (km/s) = 3.83835 4.31355 4.08287
#
# Compressibility (1/GPa) = 0.08357244
#
# Stress axis : x y z
#
# Youngs Moduli (GPa) = 44.56035 24.29795 76.71432
#
# Poissons Ratio (x) = -0.04086 0.01223
# Poissons Ratio (y) = -0.07493 -0.14943
# Poissons Ratio (z) = 0.00710 -0.04733
#
# Static dielectric constant tensor:
#      x y z
#    x 2.018470 0.000000 0.000000 
#    y 0.000000 2.061880 0.000000 
#    z 0.000000 0.000000 1.986310 
# 
# From -- ./inp_files/2102.got.cif
#   From: 2010.05.17/outbox.cif.g08.bks.cpg/sg30_2_cif.got.tgz:2102.got - 2010.06.03 17:03:02.
