data_PCOD9342627
_publ_section_title
;
Structure prediction by ZEFSAII (Michael W. Deem and Ramdas Pophale) SiO2 
 PCOD9342627
Probable space group: P N C 2
;
_chemical_formula_sum "Si O2"
_cell_formula_units_Z 12
_cell_length_a 5.560319
_cell_length_b 5.031788
_cell_length_c 17.895739
_cell_angle_alpha 90.000000
_cell_angle_beta 90.000000
_cell_angle_gamma 90.000000
_cell_volume 500.693185
_symmetry_space_group_name_H-M "P N C 2"
_symmetry_group_IT_number 30
_symmetry_cell_setting 'orthorhombic'
loop_
_space_group_symop_operation_xyz
x,y,z
-x,-y,z
-x,1/2+y,1/2+z
x,1/2-y,1/2+z
loop_
_atom_site_type_symbol
_atom_site_label
_atom_site_fract_x
_atom_site_fract_y
_atom_site_fract_z
Si Si1 0.243871 0.349237 0.883920
Si Si2 0.000000 0.500000 0.492244
Si Si3 0.339352 0.254683 0.218449
Si Si4 0.000000 0.000000 0.593734
O O1 0.500000 0.500000 0.892152
O O2 0.204594 0.302271 0.795613
O O3 0.000000 0.500000 0.906146
O O4 0.216433 0.095025 0.937775
O O5 0.081504 0.748107 0.544132
O O6 0.500000 0.500000 0.242382
O O7 0.190781 0.362295 0.148865
O O8 0.500000 0.000000 0.198535
#
# Coordination Sequence:
#
# PCOD9342627 Si02
#       4
#     4   2   4   2
#     4  11  28  52  84 116 155 209 274 332 393 473
#     4  12  27  50  77 118 166 214 258 328 411 488
#     4  11  27  48  81 114 150 208 271 329 390 472
#     4  12  27  50  79 112 172 206 262 328 411 484
#
# _framework density 23.966771000000001
#
# number of rings (size 3 to 8) (size 9 to 14) (size 15 to 20)
#    0.000    0.667    1.667    3.000   21.000    1.333 
#   12.000    0.000    0.000    0.000    0.000    0.000 
#    0.000    0.000    0.000    0.000    0.000    0.000 
#
# Total GULP energy -67050.726715 kJ/mol
# GULP energy per Si atom -5587.560560 kJ/mol
# Density = 2.391222 g / cm^3
# Si number density = 23.966771 Si / 1000 Ang^3
#
#
#
# Elastic Constant Matrix: (Units=GPa)
#
#
# Indices 1 2 3 4 5 6 
#
# 1 91.6050 64.2111 56.8622 0.0000 0.0000 0.0000
# 2 64.2111 182.0720 82.9738 0.0000 0.0000 0.0000
# 3 56.8622 82.9738 177.5350 0.0000 0.0000 0.0000
# 4 0.0000 0.0000 0.0000 83.1866 0.0000 0.0000
# 5 0.0000 0.0000 0.0000 0.0000 -211.9082 0.0000
# 6 0.0000 0.0000 0.0000 0.0000 0.0000 36.5594
#
#
#
# Elastic Compliance Matrix: (Units=1/GPa)
#
#
# Indices 1 2 3 4 5 6 
#
# 1 0.015746 -0.004136 -0.003110 0.000000 0.000000 0.000000
# 2 -0.004136 0.008065 -0.002445 0.000000 0.000000 0.000000
# 3 -0.003110 -0.002445 0.007771 0.000000 0.000000 0.000000
# 4 0.000000 0.000000 0.000000 0.012021 0.000000 0.000000
# 5 0.000000 0.000000 0.000000 0.000000 -0.004719 0.000000
# 6 0.000000 0.000000 0.000000 0.000000 0.000000 0.027353
#
#
# Mechanical properties :
#
#
# Convention : Reuss Voigt Hill
#
# Bulk Modulus (GPa) = 81.96047 95.47844 88.71946
# Shear Modulus (GPa) = 55.75013 -1.95478 26.89768
#
# Velocity S-wave (km/s) = 4.82824 -0.90410 3.35369
# Velocity P-wave (km/s) = 8.08420 6.23173 7.21765
#
# Compressibility (1/GPa) = 0.01220100
#
# Stress axis : x y z
#
# Youngs Moduli (GPa) = 63.50782 123.99347 128.67585
#
# Poissons Ratio (x) = 0.51280 0.40023
# Poissons Ratio (y) = 0.26265 0.31457
# Poissons Ratio (z) = 0.19753 0.30312
#
# Static dielectric constant tensor:
#      x y z
#    x 1.939210 0.000000 0.000000 
#    y 0.000000 1.999820 0.000000 
#    z 0.000000 0.000000 1.938950 
# 
# From -- ./inp_files/5713.got.cif
#   From: 2010.05.17/outbox.cif.g08.bks.cpg/sg30_3_cif.got.tgz:5713.got - 2010.06.03 17:03:02.
