data_PCOD9342105
_publ_section_title
;
Structure prediction by ZEFSAII (Michael W. Deem and Ramdas Pophale) SiO2 
 PCOD9342105
Probable space group: P N C 2
;
_chemical_formula_sum "Si O2"
_cell_formula_units_Z 24
_cell_length_a 11.353555
_cell_length_b 11.455417
_cell_length_c 7.839267
_cell_angle_alpha 90.000000
_cell_angle_beta 90.000000
_cell_angle_gamma 90.000000
_cell_volume 1019.572769
_symmetry_space_group_name_H-M "P N C 2"
_symmetry_group_IT_number 30
_symmetry_cell_setting 'orthorhombic'
loop_
_space_group_symop_operation_xyz
x,y,z
-x,-y,z
-x,1/2+y,1/2+z
x,1/2-y,1/2+z
loop_
_atom_site_type_symbol
_atom_site_label
_atom_site_fract_x
_atom_site_fract_y
_atom_site_fract_z
Si Si1 0.633351 0.977263 0.196260
Si Si2 0.239250 0.808297 0.021489
Si Si3 0.189303 0.189032 0.308912
Si Si4 0.639248 0.125736 0.697043
Si Si5 0.614249 0.870285 0.809898
Si Si6 0.976920 0.867232 0.017204
O O1 0.710641 0.910147 0.337738
O O2 0.500000 0.000000 0.251131
O O3 0.694948 0.097018 0.138900
O O4 0.625895 0.904244 0.012545
O O5 0.312420 0.689164 0.033032
O O6 0.101976 0.810001 0.060189
O O7 0.255793 0.850425 0.829661
O O8 0.279983 0.289595 0.248510
O O9 0.104133 0.118789 0.182602
O O10 0.099568 0.269028 0.417615
O O11 0.515840 0.177504 0.768290
O O12 0.623165 0.989056 0.704894
O O13 0.000000 0.000000 0.946339
#
# Coordination Sequence:
#
# PCOD9342105 Si02
#       6
#     4   4   4   4   4   4
#     4  11  20  42  71 100 138 182 233 299 370 433
#     4  11  21  41  65  93 130 187 223 281 352 424
#     4  12  24  43  73 102 137 191 246 292 368 434
#     4  10  21  39  67  95 132 172 226 278 355 419
#     4  10  20  40  67  97 133 178 223 292 355 428
#     4  12  25  46  69  99 147 193 242 298 359 437
#
# _framework density 23.539269000000001
#
# number of rings (size 3 to 8) (size 9 to 14) (size 15 to 20)
#    0.000    1.000    6.667    3.000    0.000    0.000 
#    3.000    0.833    0.000    0.000    0.000    0.000 
#    0.000    0.000    0.000    0.000    0.000    0.000 
#
# Total GULP energy -133806.105212 kJ/mol
# GULP energy per Si atom -5575.254384 kJ/mol
# Density = 2.348569 g / cm^3
# Si number density = 23.539269 Si / 1000 Ang^3
#
#
#
# Elastic Constant Matrix: (Units=GPa)
#
#
# Indices 1 2 3 4 5 6 
#
# 1 191.3713 30.9591 21.5264 0.0000 0.0000 0.0000
# 2 30.9591 77.8208 21.3158 0.0000 0.0000 0.0000
# 3 21.5264 21.3158 44.0962 0.0000 0.0000 0.0000
# 4 0.0000 0.0000 0.0000 18.2538 0.0000 0.0000
# 5 0.0000 0.0000 0.0000 0.0000 -0.5859 0.0000
# 6 0.0000 0.0000 0.0000 0.0000 0.0000 52.4879
#
#
#
# Elastic Compliance Matrix: (Units=1/GPa)
#
#
# Indices 1 2 3 4 5 6 
#
# 1 0.005727 -0.001743 -0.001953 0.000000 0.000000 0.000000
# 2 -0.001743 0.015342 -0.006565 0.000000 0.000000 0.000000
# 3 -0.001953 -0.006565 0.026805 0.000000 0.000000 0.000000
# 4 0.000000 0.000000 0.000000 0.054783 0.000000 0.000000
# 5 0.000000 0.000000 0.000000 0.000000 -1.706707 0.000000
# 6 0.000000 0.000000 0.000000 0.000000 0.000000 0.019052
#
#
# Mechanical properties :
#
#
# Convention : Reuss Voigt Hill
#
# Bulk Modulus (GPa) = 36.56238 51.21010 43.88624
# Shear Modulus (GPa) = -3.21469 29.99695 13.39113
#
# Velocity S-wave (km/s) = -1.16989 3.57366 2.38772
# Velocity P-wave (km/s) = 3.70694 6.23141 5.12698
#
# Compressibility (1/GPa) = 0.02735052
#
# Stress axis : x y z
#
# Youngs Moduli (GPa) = 174.60599 65.18118 37.30703
#
# Poissons Ratio (x) = 0.11364 0.07286
# Poissons Ratio (y) = 0.30442 0.24492
# Poissons Ratio (z) = 0.34102 0.42792
#
# Static dielectric constant tensor:
#      x y z
#    x 1.911320 0.000000 0.000000 
#    y 0.000000 1.994150 0.000000 
#    z 0.000000 0.000000 2.041140 
# 
# From -- ./inp_files/2350.got.cif
#   From: 2010.05.17/outbox.cif.g08.bks.cpg/sg30_2_cif.got.tgz:2350.got - 2010.06.03 17:03:02.
