data_PCOD9342825
_publ_section_title
;
Structure prediction by ZEFSAII (Michael W. Deem and Ramdas Pophale) SiO2 
 PCOD9342825
Probable space group: P M N 21
;
_chemical_formula_sum "Si O2"
_cell_formula_units_Z 32
_cell_length_a 13.449701
_cell_length_b 7.712969
_cell_length_c 14.620227
_cell_angle_alpha 90.000000
_cell_angle_beta 90.000000
_cell_angle_gamma 90.000000
_cell_volume 1516.660343
_symmetry_space_group_name_H-M "P M N 21"
_symmetry_group_IT_number 31
_symmetry_cell_setting 'orthorhombic'
loop_
_space_group_symop_operation_xyz
x,y,z
1/2-x,-y,1/2+z
-x,y,z
1/2+x,-y,1/2+z
loop_
_atom_site_type_symbol
_atom_site_label
_atom_site_fract_x
_atom_site_fract_y
_atom_site_fract_z
Si Si1 0.388760 0.365438 0.443350
Si Si2 0.299863 0.088590 0.572902
Si Si3 0.757242 0.208303 0.774620
Si Si4 0.700077 0.232873 0.107766
Si Si5 0.186965 0.570373 0.430514
Si Si6 0.393819 0.765535 0.996918
Si Si7 0.112378 0.901900 0.785264
Si Si8 0.110337 0.455426 0.683883
O O1 0.500000 0.437612 0.451140
O O2 0.375826 0.206174 0.515870
O O3 0.299036 0.501300 0.454840
O O4 0.378051 0.273155 0.344223
O O5 0.287170 0.170075 0.674262
O O6 0.198882 0.110920 0.512600
O O7 0.298361 0.880870 0.588953
O O8 0.686931 0.315654 0.840301
O O9 0.855582 0.326447 0.761918
O O10 0.800536 0.031249 0.815869
O O11 0.631405 0.119650 0.176279
O O12 0.699979 0.410193 0.166431
O O13 0.654967 0.304678 0.013760
O O14 0.127110 0.390511 0.426372
O O15 0.500000 0.849921 0.980140
O O16 0.396697 0.660719 0.092807
O O17 0.000000 0.965439 0.799902
O O18 0.000000 0.532933 0.697289
#
# Coordination Sequence:
#
# PCOD9342825 Si02
#       8
#     4   4   4   4   4   4   4   4
#     4  10  21  37  55  77 106 139 179 224 268 318
#     4   9  19  34  52  75 104 141 176 213 264 315
#     4  10  19  32  52  77 110 143 173 214 260 318
#     4  10  19  31  49  75 108 137 168 212 263 320
#     4  10  20  33  51  77 107 141 178 217 268 319
#     4   8  16  31  49  70  98 131 170 215 259 304
#     4  10  20  33  54  82 107 136 175 223 277 321
#     4   9  16  27  46  73 102 130 163 208 259 303
#
# _framework density 21.098990000000001
#
# number of rings (size 3 to 8) (size 9 to 14) (size 15 to 20)
#    0.000    2.500    0.000    3.000    0.000    6.000 
#    0.000    1.250    0.000    0.000    0.000   19.250 
#    0.000    0.000    0.000    0.000    0.000    0.000 
#
# Total GULP energy -178141.458343 kJ/mol
# GULP energy per Si atom -5566.920573 kJ/mol
# Density = 2.105097 g / cm^3
# Si number density = 21.098990 Si / 1000 Ang^3
#
#
#
# Elastic Constant Matrix: (Units=GPa)
#
#
# Indices 1 2 3 4 5 6 
#
# 1 46.5680 -3.9164 8.3318 0.0000 0.0000 0.0000
# 2 -3.9164 52.6329 11.3933 0.0000 0.0000 0.0000
# 3 8.3318 11.3933 72.6833 0.0000 0.0000 0.0000
# 4 0.0000 0.0000 0.0000 24.8136 0.0000 0.0000
# 5 0.0000 0.0000 0.0000 0.0000 14.5484 0.0000
# 6 0.0000 0.0000 0.0000 0.0000 0.0000 20.8691
#
#
#
# Elastic Compliance Matrix: (Units=1/GPa)
#
#
# Indices 1 2 3 4 5 6 
#
# 1 0.022184 0.002279 -0.002900 0.000000 0.000000 0.000000
# 2 0.002279 0.019901 -0.003381 0.000000 0.000000 0.000000
# 3 -0.002900 -0.003381 0.014621 0.000000 0.000000 0.000000
# 4 0.000000 0.000000 0.000000 0.040300 0.000000 0.000000
# 5 0.000000 0.000000 0.000000 0.000000 0.068736 0.000000
# 6 0.000000 0.000000 0.000000 0.000000 0.000000 0.047918
#
#
# Mechanical properties :
#
#
# Convention : Reuss Voigt Hill
#
# Bulk Modulus (GPa) = 20.53333 22.61130 21.57232
# Shear Modulus (GPa) = 21.01735 22.45127 21.73431
#
# Velocity S-wave (km/s) = 3.15958 3.26558 3.21302
# Velocity P-wave (km/s) = 4.80246 4.99587 4.90012
#
# Compressibility (1/GPa) = 0.04870130
#
# Stress axis : x y z
#
# Youngs Moduli (GPa) = 45.07658 50.24901 68.39619
#
# Poissons Ratio (x) = -0.11449 0.19836
# Poissons Ratio (y) = -0.10271 0.23123
# Poissons Ratio (z) = 0.13073 0.16988
#
# Static dielectric constant tensor:
#      x y z
#    x 1.751690 0.000000 0.000000 
#    y 0.000000 1.833670 0.000000 
#    z 0.000000 0.000000 1.797740 
# 
# From -- ./inp_files/5460.got.cif
#   From: 2010.05.17/outbox.cif.g08.bks.cpg/sg31_3_cif.got.tgz:5460.got - 2010.06.03 17:08:30.
