data_PCOD9342544
_publ_section_title
;
Structure prediction by ZEFSAII (Michael W. Deem and Ramdas Pophale) SiO2 
 PCOD9342544
Probable space group: P N C 2
;
_chemical_formula_sum "Si O2"
_cell_formula_units_Z 16
_cell_length_a 5.329345
_cell_length_b 5.155554
_cell_length_c 23.547186
_cell_angle_alpha 90.000000
_cell_angle_beta 90.000000
_cell_angle_gamma 90.000000
_cell_volume 646.976029
_symmetry_space_group_name_H-M "P N C 2"
_symmetry_group_IT_number 30
_symmetry_cell_setting 'orthorhombic'
loop_
_space_group_symop_operation_xyz
x,y,z
-x,-y,z
-x,1/2+y,1/2+z
x,1/2-y,1/2+z
loop_
_atom_site_type_symbol
_atom_site_label
_atom_site_fract_x
_atom_site_fract_y
_atom_site_fract_z
Si Si1 0.169081 0.243353 0.835210
Si Si2 0.248258 0.827747 0.156969
Si Si3 0.753789 0.659553 0.957955
Si Si4 0.000000 0.000000 0.562317
Si Si5 0.500000 0.500000 0.249587
O O1 0.269916 0.182667 0.899744
O O2 0.392512 0.222639 0.790533
O O3 0.000000 0.500000 0.829050
O O4 0.000000 0.000000 0.820999
O O5 0.297743 0.628969 0.208015
O O6 0.191000 0.657830 0.101062
O O7 0.500000 0.000000 0.151109
O O8 0.000000 0.000000 0.166858
O O9 0.500000 0.500000 0.963356
O O10 0.000000 0.500000 0.940888
O O11 0.847275 0.708649 0.022402
#
# Coordination Sequence:
#
# PCOD9342544 Si02
#       5
#     4   4   4   2   2
#     4  11  29  52  80 122 167 219 276 344 426 507
#     4  12  30  50  80 120 160 225 285 349 425 502
#     4   9  23  47  77 114 161 206 272 335 422 493
#     4  10  26  52  80 116 168 208 290 346 430 500
#     4  12  32  48  84 114 180 212 292 342 430 506
#
# _framework density 24.730435
#
# number of rings (size 3 to 8) (size 9 to 14) (size 15 to 20)
#    0.750    0.500    0.000    1.500   21.000    1.000 
#    0.000    0.000    0.000    0.000    0.000    0.000 
#    0.000    0.000    0.000    0.000    0.000    0.000 
#
# Total GULP energy -89270.916996 kJ/mol
# GULP energy per Si atom -5579.432312 kJ/mol
# Density = 2.467415 g / cm^3
# Si number density = 24.730435 Si / 1000 Ang^3
#
#
#
# Elastic Constant Matrix: (Units=GPa)
#
#
# Indices 1 2 3 4 5 6 
#
# 1 158.8893 52.9373 59.5798 0.0000 0.0000 0.0000
# 2 52.9373 114.3511 46.9690 0.0000 0.0000 0.0000
# 3 59.5798 46.9690 198.7848 0.0000 0.0000 0.0000
# 4 0.0000 0.0000 0.0000 39.1673 0.0000 0.0000
# 5 0.0000 0.0000 0.0000 0.0000 99.6515 0.0000
# 6 0.0000 0.0000 0.0000 0.0000 0.0000 55.5425
#
#
#
# Elastic Compliance Matrix: (Units=1/GPa)
#
#
# Indices 1 2 3 4 5 6 
#
# 1 0.007911 -0.002977 -0.001668 0.000000 0.000000 0.000000
# 2 -0.002977 0.010805 -0.001661 0.000000 0.000000 0.000000
# 3 -0.001668 -0.001661 0.005923 0.000000 0.000000 0.000000
# 4 0.000000 0.000000 0.000000 0.025531 0.000000 0.000000
# 5 0.000000 0.000000 0.000000 0.000000 0.010035 0.000000
# 6 0.000000 0.000000 0.000000 0.000000 0.000000 0.018004
#
#
# Mechanical properties :
#
#
# Convention : Reuss Voigt Hill
#
# Bulk Modulus (GPa) = 83.14033 87.88861 85.51447
# Shear Modulus (GPa) = 52.72566 59.70821 56.21693
#
# Velocity S-wave (km/s) = 4.62238 4.91895 4.77297
# Velocity P-wave (km/s) = 7.88544 8.23876 8.06404
#
# Compressibility (1/GPa) = 0.01202786
#
# Stress axis : x y z
#
# Youngs Moduli (GPa) = 126.40701 92.54582 168.83964
#
# Poissons Ratio (x) = 0.27554 0.28156
# Poissons Ratio (y) = 0.37635 0.28040
# Poissons Ratio (z) = 0.21079 0.15370
#
# Static dielectric constant tensor:
#      x y z
#    x 1.821830 0.000000 0.000000 
#    y 0.000000 1.956480 0.000000 
#    z 0.000000 0.000000 2.100480 
# 
# From -- ./inp_files/7146.got.cif
#   From: 2010.05.17/outbox.cif.g08.bks.cpg/sg30_4_cif.got.tgz:7146.got - 2010.06.03 17:03:02.
