data_PCOD9342161
_publ_section_title
;
Structure prediction by ZEFSAII (Michael W. Deem and Ramdas Pophale) SiO2 
 PCOD9342161
Probable space group: P N C 2
;
_chemical_formula_sum "Si O2"
_cell_formula_units_Z 28
_cell_length_a 5.324146
_cell_length_b 26.920744
_cell_length_c 10.263032
_cell_angle_alpha 90.000000
_cell_angle_beta 90.000000
_cell_angle_gamma 90.000000
_cell_volume 1471.000084
_symmetry_space_group_name_H-M "P N C 2"
_symmetry_group_IT_number 30
_symmetry_cell_setting 'orthorhombic'
loop_
_space_group_symop_operation_xyz
x,y,z
-x,-y,z
-x,1/2+y,1/2+z
x,1/2-y,1/2+z
loop_
_atom_site_type_symbol
_atom_site_label
_atom_site_fract_x
_atom_site_fract_y
_atom_site_fract_z
Si Si1 0.749995 0.643014 0.283270
Si Si2 0.750000 0.467628 0.638310
Si Si3 0.750008 0.847848 0.475359
Si Si4 0.749992 0.375334 0.836732
Si Si5 0.249996 0.605266 0.404799
Si Si6 0.750004 0.301701 0.604178
Si Si7 0.749996 0.764142 0.982333
O O1 0.501605 0.612358 0.321842
O O2 0.749995 0.693388 0.370752
O O3 0.998382 0.612357 0.321845
O O4 0.750000 0.654491 0.131177
O O5 0.500000 0.500000 0.655177
O O6 0.749999 0.422498 0.741200
O O7 0.750001 0.443287 0.494370
O O8 0.000000 0.500000 0.655178
O O9 0.999333 0.873956 0.422153
O O10 0.500692 0.873957 0.422146
O O11 0.750005 0.790968 0.426134
O O12 0.749995 0.325788 0.746449
O O13 0.249998 0.651338 0.506241
O O14 0.499063 0.271706 0.569625
O O15 0.000953 0.271708 0.569630
#
# Coordination Sequence:
#
# PCOD9342161 Si02
#       7
#     4   4   4   4   4   4   4
#     4  10  21  37  58  82 124 164 200 244 285 348
#     4  11  22  41  72  97 113 143 198 262 318 369
#     4  12  24  37  57  86 124 176 202 233 300 363
#     4  11  24  39  59  90 124 158 194 258 307 363
#     4   9  19  38  60  87 114 149 188 248 312 345
#     4   9  19  36  57  78 116 151 200 254 299 321
#     4  10  21  36  55  84 111 163 216 251 269 335
#
# _framework density 19.034666999999999
#
# number of rings (size 3 to 8) (size 9 to 14) (size 15 to 20)
#    0.000    1.714    0.000    4.286    4.000    4.571 
#    0.000    0.000    0.000   17.143    0.000    0.000 
#    0.000    0.000    0.000    0.000    0.000    0.000 
#
# Total GULP energy -156485.779331 kJ/mol
# GULP energy per Si atom -5588.777833 kJ/mol
# Density = 1.899134 g / cm^3
# Si number density = 19.034667 Si / 1000 Ang^3
#
#
#
# Elastic Constant Matrix: (Units=GPa)
#
#
# Indices 1 2 3 4 5 6 
#
# 1 208.9186 58.3093 66.3276 0.0000 0.0000 0.0000
# 2 58.3093 90.6593 30.0526 0.0000 0.0000 0.0000
# 3 66.3276 30.0526 108.4279 0.0000 0.0000 0.0000
# 4 0.0000 0.0000 0.0000 29.1153 0.0000 0.0000
# 5 0.0000 0.0000 0.0000 0.0000 80.1380 0.0000
# 6 0.0000 0.0000 0.0000 0.0000 0.0000 10.6677
#
#
#
# Elastic Compliance Matrix: (Units=1/GPa)
#
#
# Indices 1 2 3 4 5 6 
#
# 1 0.006712 -0.003255 -0.003204 0.000000 0.000000 0.000000
# 2 -0.003255 0.013725 -0.001813 0.000000 0.000000 0.000000
# 3 -0.003204 -0.001813 0.011685 0.000000 0.000000 0.000000
# 4 0.000000 0.000000 0.000000 0.034346 0.000000 0.000000
# 5 0.000000 0.000000 0.000000 0.000000 0.012478 0.000000
# 6 0.000000 0.000000 0.000000 0.000000 0.000000 0.093741
#
#
# Mechanical properties :
#
#
# Convention : Reuss Voigt Hill
#
# Bulk Modulus (GPa) = 64.19072 79.70942 71.95007
# Shear Modulus (GPa) = 25.71696 40.87195 33.29445
#
# Velocity S-wave (km/s) = 3.67966 4.63886 4.18682
# Velocity P-wave (km/s) = 7.20066 8.40588 7.82650
#
# Compressibility (1/GPa) = 0.01557857
#
# Stress axis : x y z
#
# Youngs Moduli (GPa) = 148.98286 72.86074 85.57966
#
# Poissons Ratio (x) = 0.23717 0.27418
# Poissons Ratio (y) = 0.48495 0.15515
# Poissons Ratio (z) = 0.47731 0.13209
#
# Static dielectric constant tensor:
#      x y z
#    x 1.637370 0.000000 0.000000 
#    y 0.000000 1.642050 0.000000 
#    z 0.000000 0.000000 1.649600 
# 
# From -- ./inp_files/1444.got.cif
#   From: 2010.05.17/outbox.cif.g08.bks.cpg/sg30_1_cif.got.tgz:1444.got - 2010.06.03 17:03:02.
