data_PCOD9342638
_publ_section_title
;
Structure prediction by ZEFSAII (Michael W. Deem and Ramdas Pophale) SiO2 
 PCOD9342638
Probable space group: P N C 2
;
_chemical_formula_sum "Si O2"
_cell_formula_units_Z 16
_cell_length_a 10.882793
_cell_length_b 7.300382
_cell_length_c 8.850966
_cell_angle_alpha 90.000000
_cell_angle_beta 90.000000
_cell_angle_gamma 90.000000
_cell_volume 703.196381
_symmetry_space_group_name_H-M "P N C 2"
_symmetry_group_IT_number 30
_symmetry_cell_setting 'orthorhombic'
loop_
_space_group_symop_operation_xyz
x,y,z
-x,-y,z
-x,1/2+y,1/2+z
x,1/2-y,1/2+z
loop_
_atom_site_type_symbol
_atom_site_label
_atom_site_fract_x
_atom_site_fract_y
_atom_site_fract_z
Si Si1 0.250778 0.800512 0.427200
Si Si2 0.299192 0.372811 0.729198
Si Si3 0.476056 0.185217 0.951234
Si Si4 0.145924 0.001606 0.719844
O O1 0.392008 0.773304 0.478454
O O2 0.181076 0.895021 0.565776
O O3 0.201100 0.607312 0.364162
O O4 0.242028 0.936333 0.282021
O O5 0.393221 0.381001 0.590495
O O6 0.203421 0.206020 0.710986
O O7 0.388903 0.321775 0.865622
O O8 0.500000 0.000000 0.854593
O O9 0.000000 0.000000 0.735003
#
# Coordination Sequence:
#
# PCOD9342638 Si02
#       4
#     4   4   4   4
#     4  12  27  50  76 111 148 196 247 311 372 434
#     4  12  26  45  74 112 144 193 241 306 370 435
#     4  12  23  43  74 109 153 184 242 307 378 430
#     4  12  30  50  75 108 151 201 252 295 364 450
#
# _framework density 22.753246000000001
#
# number of rings (size 3 to 8) (size 9 to 14) (size 15 to 20)
#    0.000    0.000    5.000    5.250    3.500    0.000 
#    0.000    0.000    0.000    0.000    0.000    0.000 
#    0.000    0.000    0.000    0.000    0.000    0.000 
#
# Total GULP energy -89553.814775 kJ/mol
# GULP energy per Si atom -5597.113423 kJ/mol
# Density = 2.270146 g / cm^3
# Si number density = 22.753246 Si / 1000 Ang^3
#
#
#
# Elastic Constant Matrix: (Units=GPa)
#
#
# Indices 1 2 3 4 5 6 
#
# 1 169.2676 45.2403 28.9188 0.0000 0.0000 0.0000
# 2 45.2403 126.4378 7.2184 0.0000 0.0000 0.0000
# 3 28.9188 7.2184 73.8835 0.0000 0.0000 0.0000
# 4 0.0000 0.0000 0.0000 43.1128 0.0000 0.0000
# 5 0.0000 0.0000 0.0000 0.0000 22.7416 0.0000
# 6 0.0000 0.0000 0.0000 0.0000 0.0000 25.5049
#
#
#
# Elastic Compliance Matrix: (Units=1/GPa)
#
#
# Indices 1 2 3 4 5 6 
#
# 1 0.006962 -0.002349 -0.002495 0.000000 0.000000 0.000000
# 2 -0.002349 0.008746 0.000065 0.000000 0.000000 0.000000
# 3 -0.002495 0.000065 0.014505 0.000000 0.000000 0.000000
# 4 0.000000 0.000000 0.000000 0.023195 0.000000 0.000000
# 5 0.000000 0.000000 0.000000 0.000000 0.043972 0.000000
# 6 0.000000 0.000000 0.000000 0.000000 0.000000 0.039208
#
#
# Mechanical properties :
#
#
# Convention : Reuss Voigt Hill
#
# Bulk Modulus (GPa) = 48.41608 59.14933 53.78270
# Shear Modulus (GPa) = 32.67303 37.48594 35.07948
#
# Velocity S-wave (km/s) = 3.79353 4.06334 3.93075
# Velocity P-wave (km/s) = 6.36497 6.93302 6.65506
#
# Compressibility (1/GPa) = 0.02065429
#
# Stress axis : x y z
#
# Youngs Moduli (GPa) = 143.64011 114.34255 68.94056
#
# Poissons Ratio (x) = 0.26854 0.17204
# Poissons Ratio (y) = 0.33734 -0.00447
# Poissons Ratio (z) = 0.35845 -0.00741
#
# Static dielectric constant tensor:
#      x y z
#    x 1.727060 0.000000 0.000000 
#    y 0.000000 1.981180 0.000000 
#    z 0.000000 0.000000 1.871140 
# 
# From -- ./inp_files/1556.got.cif
#   From: 2010.05.17/outbox.cif.g08.bks.cpg/sg30_1_cif.got.tgz:1556.got - 2010.06.03 17:03:02.
