data_PCOD9342813
_publ_section_title
;
Structure prediction by ZEFSAII (Michael W. Deem and Ramdas Pophale) SiO2 
 PCOD9342813
Probable space group: P M N 21
;
_chemical_formula_sum "Si O2"
_cell_formula_units_Z 32
_cell_length_a 7.740335
_cell_length_b 10.465948
_cell_length_c 20.090160
_cell_angle_alpha 90.000000
_cell_angle_beta 90.000000
_cell_angle_gamma 90.000000
_cell_volume 1627.502729
_symmetry_space_group_name_H-M "P M N 21"
_symmetry_group_IT_number 31
_symmetry_cell_setting 'orthorhombic'
loop_
_space_group_symop_operation_xyz
x,y,z
1/2-x,-y,1/2+z
-x,y,z
1/2+x,-y,1/2+z
loop_
_atom_site_type_symbol
_atom_site_label
_atom_site_fract_x
_atom_site_fract_y
_atom_site_fract_z
Si Si1 0.296226 0.617469 0.428160
Si Si2 0.290264 0.234793 0.133637
Si Si3 0.208151 0.506667 0.289411
Si Si4 0.211902 0.637739 0.005858
Si Si5 0.293605 0.468116 0.641671
Si Si6 0.699042 0.124122 0.997287
Si Si7 0.703422 0.124730 0.419888
Si Si8 0.703545 0.211268 0.281565
O O1 0.500000 0.630879 0.440877
O O2 0.266045 0.593772 0.350273
O O3 0.235951 0.489078 0.465534
O O4 0.209762 0.743296 0.457225
O O5 0.500000 0.230412 0.133495
O O6 0.241476 0.383421 0.124500
O O7 0.226990 0.153081 0.070836
O O8 0.224952 0.193621 0.206826
O O9 0.270831 0.552667 0.216747
O O10 0.275672 0.361841 0.298196
O O11 0.000000 0.500435 0.289019
O O12 0.272040 0.619664 0.081771
O O13 0.000000 0.639772 0.006684
O O14 0.273695 0.763402 0.967583
O O15 0.500000 0.452017 0.643956
O O16 0.500000 0.087633 0.005951
O O17 0.781020 0.010952 0.955061
O O18 0.500000 0.153425 0.412461
O O19 0.776585 0.135095 0.344897
O O20 0.500000 0.182060 0.275803
#
# Coordination Sequence:
#
# PCOD9342813 Si02
#       8
#     4   4   4   4   4   4   4   4
#     4  11  20  35  58  79 104 142 183 222 261 317
#     4   9  18  32  52  77 107 138 172 220 270 320
#     4  10  19  30  50  82 115 141 171 222 278 316
#     4   9  17  32  55  80 103 133 179 221 257 308
#     4   9  17  31  52  79 110 140 174 219 266 317
#     4  11  23  37  52  79 113 143 176 223 277 323
#     4  10  20  36  56  78 104 142 184 222 261 316
#     4   9  17  33  55  78 104 139 183 221 262 323
#
# _framework density 19.662026999999998
#
# number of rings (size 3 to 8) (size 9 to 14) (size 15 to 20)
#    0.000    2.250    2.500    1.125    0.000    1.500 
#    0.000    1.875    0.000    3.000    0.000    0.000 
#    0.000    0.000    0.000    0.000    0.000    0.000 
#
# Total GULP energy -178508.643063 kJ/mol
# GULP energy per Si atom -5578.395096 kJ/mol
# Density = 1.961728 g / cm^3
# Si number density = 19.662027 Si / 1000 Ang^3
#
#
#
# Elastic Constant Matrix: (Units=GPa)
#
#
# Indices 1 2 3 4 5 6 
#
# 1 22.4893 -12.7354 -3.9873 0.0000 0.0000 0.0000
# 2 -12.7354 75.3504 59.6630 0.0000 0.0000 0.0000
# 3 -3.9873 59.6630 173.2154 0.0000 0.0000 0.0000
# 4 0.0000 0.0000 0.0000 27.4583 0.0000 0.0000
# 5 0.0000 0.0000 0.0000 0.0000 9.3011 0.0000
# 6 0.0000 0.0000 0.0000 0.0000 0.0000 9.0156
#
#
#
# Elastic Compliance Matrix: (Units=1/GPa)
#
#
# Indices 1 2 3 4 5 6 
#
# 1 0.049896 0.010345 -0.002415 0.000000 0.000000 0.000000
# 2 0.010345 0.020393 -0.006786 0.000000 0.000000 0.000000
# 3 -0.002415 -0.006786 0.008055 0.000000 0.000000 0.000000
# 4 0.000000 0.000000 0.000000 0.036419 0.000000 0.000000
# 5 0.000000 0.000000 0.000000 0.000000 0.107514 0.000000
# 6 0.000000 0.000000 0.000000 0.000000 0.000000 0.110918
#
#
# Mechanical properties :
#
#
# Convention : Reuss Voigt Hill
#
# Bulk Modulus (GPa) = 12.40191 39.65950 26.03071
# Shear Modulus (GPa) = 13.97489 24.36266 19.16878
#
# Velocity S-wave (km/s) = 2.66889 3.52386 3.12575
# Velocity P-wave (km/s) = 3.97725 6.06393 5.12785
#
# Compressibility (1/GPa) = 0.08063271
#
# Stress axis : x y z
#
# Youngs Moduli (GPa) = 20.04172 49.03605 124.14616
#
# Poissons Ratio (x) = -0.50729 0.29979
# Poissons Ratio (y) = -0.20734 0.84248
# Poissons Ratio (z) = 0.04840 0.33277
#
# Static dielectric constant tensor:
#      x y z
#    x 1.715660 0.000000 0.000000 
#    y 0.000000 1.631080 0.000000 
#    z 0.000000 0.000000 1.747720 
# 
# From -- ./inp_files/5928.got.cif
#   From: 2010.05.17/outbox.cif.g08.bks.cpg/sg31_3_cif.got.tgz:5928.got - 2010.06.03 17:08:30.
