data_PCOD9342160
_publ_section_title
;
Structure prediction by ZEFSAII (Michael W. Deem and Ramdas Pophale) SiO2 
 PCOD9342160
Probable space group: P N C 2
;
_chemical_formula_sum "Si O2"
_cell_formula_units_Z 24
_cell_length_a 5.221547
_cell_length_b 7.215502
_cell_length_c 27.472194
_cell_angle_alpha 90.000000
_cell_angle_beta 90.000000
_cell_angle_gamma 90.000000
_cell_volume 1035.044656
_symmetry_space_group_name_H-M "P N C 2"
_symmetry_group_IT_number 30
_symmetry_cell_setting 'orthorhombic'
loop_
_space_group_symop_operation_xyz
x,y,z
-x,-y,z
-x,1/2+y,1/2+z
x,1/2-y,1/2+z
loop_
_atom_site_type_symbol
_atom_site_label
_atom_site_fract_x
_atom_site_fract_y
_atom_site_fract_z
Si Si1 0.251388 0.371460 0.822510
Si Si2 0.057327 0.214683 0.725705
Si Si3 0.251388 0.128539 0.430340
Si Si4 0.554159 0.280825 0.181449
Si Si5 0.057326 0.285317 0.527145
Si Si6 0.445842 0.719176 0.571402
O O1 0.500000 0.500000 0.814286
O O2 0.187532 0.234339 0.778448
O O3 0.282056 0.284729 0.876425
O O4 0.000000 0.500000 0.823918
O O5 0.270395 0.299229 0.689883
O O6 0.772702 0.294019 0.717783
O O7 0.000000 0.000000 0.715125
O O8 0.187531 0.265660 0.474403
O O9 0.500000 0.000000 0.438564
O O10 0.000000 0.000000 0.428932
O O11 0.500000 0.500000 0.189157
O O12 0.641812 0.250002 0.126425
O O13 0.270394 0.200771 0.562968
O O14 0.000000 0.500000 0.537726
O O15 0.772701 0.205982 0.535067
O O16 0.500000 0.500000 0.563695
#
# Coordination Sequence:
#
# PCOD9342160 Si02
#       6
#     4   4   4   4   4   4
#     4  10  21  37  57  83 112 142 182 230 278 332
#     4  10  21  37  56  80 111 146 185 229 278 335
#     4  10  21  37  57  83 112 142 182 230 278 332
#     4  10  21  36  54  79 110 144 185 230 276 331
#     4  10  21  37  56  80 111 146 185 229 278 335
#     4  10  21  36  54  79 110 144 185 230 276 331
#
# _framework density 23.187405999999999
#
# number of rings (size 3 to 8) (size 9 to 14) (size 15 to 20)
#    0.000    2.000    0.000    3.000    0.000    4.667 
#    0.000    0.000    0.000   12.000    0.000    0.000 
#    0.000    0.000    0.000    0.000    0.000    0.000 
#
# Total GULP energy -133868.210967 kJ/mol
# GULP energy per Si atom -5577.842124 kJ/mol
# Density = 2.313463 g / cm^3
# Si number density = 23.187406 Si / 1000 Ang^3
#
#
#
# Elastic Constant Matrix: (Units=GPa)
#
#
# Indices 1 2 3 4 5 6 
#
# 1 208.7196 17.3556 52.8373 0.0000 0.0000 0.0000
# 2 17.3556 32.1714 -26.6923 0.0000 0.0000 0.0000
# 3 52.8373 -26.6923 106.8624 0.0000 0.0000 0.0000
# 4 0.0000 0.0000 0.0000 31.2631 0.0000 0.0000
# 5 0.0000 0.0000 0.0000 0.0000 38.6538 0.0000
# 6 0.0000 0.0000 0.0000 0.0000 0.0000 6.7421
#
#
#
# Elastic Compliance Matrix: (Units=1/GPa)
#
#
# Indices 1 2 3 4 5 6 
#
# 1 0.006850 -0.008206 -0.005436 0.000000 0.000000 0.000000
# 2 -0.008206 0.049040 0.016307 0.000000 0.000000 0.000000
# 3 -0.005436 0.016307 0.016119 0.000000 0.000000 0.000000
# 4 0.000000 0.000000 0.000000 0.031987 0.000000 0.000000
# 5 0.000000 0.000000 0.000000 0.000000 0.025871 0.000000
# 6 0.000000 0.000000 0.000000 0.000000 0.000000 0.148321
#
#
# Mechanical properties :
#
#
# Convention : Reuss Voigt Hill
#
# Bulk Modulus (GPa) = 12.93045 48.30608 30.61826
# Shear Modulus (GPa) = 16.74274 35.61533 26.17904
#
# Velocity S-wave (km/s) = 2.69004 3.92341 3.36373
# Velocity P-wave (km/s) = 3.90346 6.43446 5.32162
#
# Compressibility (1/GPa) = 0.07733686
#
# Stress axis : x y z
#
# Youngs Moduli (GPa) = 145.99214 20.39165 62.03897
#
# Poissons Ratio (x) = 0.16733 0.33727
# Poissons Ratio (y) = 1.19798 -1.01164
# Poissons Ratio (z) = 0.79368 -0.33252
#
# Static dielectric constant tensor:
#      x y z
#    x 1.922210 0.000000 0.000000 
#    y 0.000000 1.881810 0.000000 
#    z 0.000000 0.000000 1.888840 
# 
# From -- ./inp_files/7179.got.cif
#   From: 2010.05.17/outbox.cif.g08.bks.cpg/sg30_4_cif.got.tgz:7179.got - 2010.06.03 17:03:02.
