data_PCOD9342367
_publ_section_title
;
Structure prediction by ZEFSAII (Michael W. Deem and Ramdas Pophale) SiO2 
 PCOD9342367
Probable space group: P N C 2
;
_chemical_formula_sum "Si O2"
_cell_formula_units_Z 22
_cell_length_a 8.087380
_cell_length_b 12.852111
_cell_length_c 8.342523
_cell_angle_alpha 90.000000
_cell_angle_beta 90.000000
_cell_angle_gamma 90.000000
_cell_volume 867.121052
_symmetry_space_group_name_H-M "P N C 2"
_symmetry_group_IT_number 30
_symmetry_cell_setting 'orthorhombic'
loop_
_space_group_symop_operation_xyz
x,y,z
-x,-y,z
-x,1/2+y,1/2+z
x,1/2-y,1/2+z
loop_
_atom_site_type_symbol
_atom_site_label
_atom_site_fract_x
_atom_site_fract_y
_atom_site_fract_z
Si Si1 0.530452 0.656785 0.615430
Si Si2 0.235291 0.155131 0.511262
Si Si3 0.981406 0.874436 0.828158
Si Si4 0.500000 0.500000 0.080083
Si Si5 0.350009 0.678408 0.304662
Si Si6 0.873194 0.905483 0.180117
O O1 0.640913 0.749517 0.537134
O O2 0.397090 0.636661 0.479609
O O3 0.433364 0.710641 0.761960
O O4 0.675686 0.574130 0.649387
O O5 0.142077 0.143684 0.680203
O O6 0.130481 0.158889 0.347039
O O7 0.346799 0.051367 0.490261
O O8 0.154598 0.820712 0.788198
O O9 0.933140 0.852309 0.013744
O O10 0.000000 0.000000 0.829926
O O11 0.426298 0.592806 0.186736
O O12 0.000000 0.000000 0.205199
#
# Coordination Sequence:
#
# PCOD9342367 Si02
#       6
#     4   4   4   2   4   4
#     4  11  24  48  70 107 148 198 246 313 373 450
#     4  11  23  48  75 104 150 193 249 310 377 440
#     4  11  24  46  73 108 142 192 247 312 372 442
#     4  10  22  42  76 100 144 206 238 308 378 448
#     4  11  24  46  74 103 150 197 248 308 382 444
#     4  11  25  45  74 110 146 197 248 310 369 449
#
# _framework density 25.371313000000001
#
# number of rings (size 3 to 8) (size 9 to 14) (size 15 to 20)
#    0.000    1.091    3.636    2.727    2.545    1.455 
#    9.818    0.000    0.000    0.000    0.000    0.000 
#    0.000    0.000    0.000    0.000    0.000    0.000 
#
# Total GULP energy -123044.762227 kJ/mol
# GULP energy per Si atom -5592.943738 kJ/mol
# Density = 2.531357 g / cm^3
# Si number density = 25.371313 Si / 1000 Ang^3
#
#
#
# Elastic Constant Matrix: (Units=GPa)
#
#
# Indices 1 2 3 4 5 6 
#
# 1 140.7097 26.4077 43.4018 0.0000 0.0000 0.0000
# 2 26.4077 58.3269 33.9288 0.0000 0.0000 0.0000
# 3 43.4018 33.9288 197.9710 0.0000 0.0000 0.0000
# 4 0.0000 0.0000 0.0000 21.1411 0.0000 0.0000
# 5 0.0000 0.0000 0.0000 0.0000 -49.4889 0.0000
# 6 0.0000 0.0000 0.0000 0.0000 0.0000 44.6615
#
#
#
# Elastic Compliance Matrix: (Units=1/GPa)
#
#
# Indices 1 2 3 4 5 6 
#
# 1 0.008042 -0.002905 -0.001265 0.000000 0.000000 0.000000
# 2 -0.002905 0.020093 -0.002807 0.000000 0.000000 0.000000
# 3 -0.001265 -0.002807 0.005810 0.000000 0.000000 0.000000
# 4 0.000000 0.000000 0.000000 0.047301 0.000000 0.000000
# 5 0.000000 0.000000 0.000000 0.000000 -0.020207 0.000000
# 6 0.000000 0.000000 0.000000 0.000000 0.000000 0.022391
#
#
# Mechanical properties :
#
#
# Convention : Reuss Voigt Hill
#
# Bulk Modulus (GPa) = 50.02369 67.16492 58.59431
# Shear Modulus (GPa) = 48.05492 22.81404 35.43448
#
# Velocity S-wave (km/s) = 4.35681 3.00193 3.74121
# Velocity P-wave (km/s) = 6.71330 6.20852 6.46584
#
# Compressibility (1/GPa) = 0.01999053
#
# Stress axis : x y z
#
# Youngs Moduli (GPa) = 124.34208 49.76929 172.12782
#
# Poissons Ratio (x) = 0.14459 0.21778
# Poissons Ratio (y) = 0.36124 0.48310
# Poissons Ratio (z) = 0.15732 0.13968
#
# Static dielectric constant tensor:
#      x y z
#    x 1.980770 0.000000 0.000000 
#    y 0.000000 2.103870 0.000000 
#    z 0.000000 0.000000 1.986660 
# 
# From -- ./inp_files/1805.got.cif
#   From: 2010.05.17/outbox.cif.g08.bks.cpg/sg30_1_cif.got.tgz:1805.got - 2010.06.03 17:03:02.
