data_PCOD9342004
_publ_section_title
;
Structure prediction by ZEFSAII (Michael W. Deem and Ramdas Pophale) SiO2 
 PCOD9342004
Probable space group: P N C 2
;
_chemical_formula_sum "Si O2"
_cell_formula_units_Z 30
_cell_length_a 7.651044
_cell_length_b 12.713807
_cell_length_c 14.210134
_cell_angle_alpha 90.000000
_cell_angle_beta 90.000000
_cell_angle_gamma 90.000000
_cell_volume 1382.275108
_symmetry_space_group_name_H-M "P N C 2"
_symmetry_group_IT_number 30
_symmetry_cell_setting 'orthorhombic'
loop_
_space_group_symop_operation_xyz
x,y,z
-x,-y,z
-x,1/2+y,1/2+z
x,1/2-y,1/2+z
loop_
_atom_site_type_symbol
_atom_site_label
_atom_site_fract_x
_atom_site_fract_y
_atom_site_fract_z
Si Si1 0.931106 0.765399 0.238300
Si Si2 0.195764 0.845511 0.084975
Si Si3 0.348463 0.928775 0.402179
Si Si4 0.000000 0.000000 0.500915
Si Si5 0.204992 0.022314 0.222566
Si Si6 0.378347 0.648281 0.178909
Si Si7 0.248526 0.712811 0.375489
Si Si8 0.231985 0.422776 0.148771
O O1 0.780478 0.853961 0.246355
O O2 0.858211 0.647855 0.228660
O O3 0.021993 0.806575 0.141080
O O4 0.078964 0.760469 0.319484
O O5 0.325729 0.756586 0.127719
O O6 0.233677 0.963644 0.123255
O O7 0.191510 0.842994 0.972084
O O8 0.158948 0.950932 0.444607
O O9 0.375508 0.806066 0.409803
O O10 0.500000 0.000000 0.445210
O O11 0.325621 0.959403 0.293920
O O12 0.898480 0.911976 0.561290
O O13 0.000000 0.000000 0.245155
O O14 0.353496 0.656133 0.291707
O O15 0.252192 0.549093 0.156167
O O16 0.571798 0.619266 0.146111
#
# Coordination Sequence:
#
# PCOD9342004 Si02
#       8
#     4   4   4   2   4   4   4   4
#     4  10  21  40  65  96 137 187 233 291 350 425
#     4  10  21  40  67  96 136 182 226 291 360 418
#     4  12  24  38  69 104 137 178 228 297 353 411
#     4  12  24  42  68 106 132 176 238 292 352 420
#     4  10  19  41  62  96 143 184 228 291 356 422
#     4  10  23  43  66  95 136 179 232 291 358 413
#     4  11  21  41  67  97 139 184 234 290 353 433
#     4  11  24  42  68  94 134 178 234 292 345 425
#
# _framework density 21.703351000000001
#
# number of rings (size 3 to 8) (size 9 to 14) (size 15 to 20)
#    0.000    1.333    4.667    3.200    5.600    0.000 
#    7.200    1.333    5.867    0.000    0.000    0.000 
#    0.000    0.000    0.000    0.000    0.000    0.000 
#
# Total GULP energy -167148.710634 kJ/mol
# GULP energy per Si atom -5571.623688 kJ/mol
# Density = 2.165395 g / cm^3
# Si number density = 21.703351 Si / 1000 Ang^3
#
#
#
# Elastic Constant Matrix: (Units=GPa)
#
#
# Indices 1 2 3 4 5 6 
#
# 1 63.7755 30.0606 17.2895 0.0000 0.0000 0.0000
# 2 30.0606 63.1057 21.1385 0.0000 0.0000 0.0000
# 3 17.2895 21.1385 130.3002 0.0000 0.0000 0.0000
# 4 0.0000 0.0000 0.0000 30.4737 0.0000 0.0000
# 5 0.0000 0.0000 0.0000 0.0000 7.6553 0.0000
# 6 0.0000 0.0000 0.0000 0.0000 0.0000 24.9124
#
#
#
# Elastic Compliance Matrix: (Units=1/GPa)
#
#
# Indices 1 2 3 4 5 6 
#
# 1 0.020394 -0.009315 -0.001195 0.000000 0.000000 0.000000
# 2 -0.009315 0.021011 -0.002173 0.000000 0.000000 0.000000
# 3 -0.001195 -0.002173 0.008186 0.000000 0.000000 0.000000
# 4 0.000000 0.000000 0.000000 0.032815 0.000000 0.000000
# 5 0.000000 0.000000 0.000000 0.000000 0.130628 0.000000
# 6 0.000000 0.000000 0.000000 0.000000 0.000000 0.040141
#
#
# Mechanical properties :
#
#
# Convention : Reuss Voigt Hill
#
# Bulk Modulus (GPa) = 41.27691 43.79540 42.53615
# Shear Modulus (GPa) = 17.44500 25.18781 21.31640
#
# Velocity S-wave (km/s) = 2.83820 3.41038 3.13736
# Velocity P-wave (km/s) = 5.45898 5.97750 5.72411
#
# Compressibility (1/GPa) = 0.02422662
#
# Stress axis : x y z
#
# Youngs Moduli (GPa) = 49.03297 47.59349 122.16539
#
# Poissons Ratio (x) = 0.44332 0.14599
# Poissons Ratio (y) = 0.45672 0.26543
# Poissons Ratio (z) = 0.05860 0.10341
#
# Static dielectric constant tensor:
#      x y z
#    x 1.828200 0.000000 0.000000 
#    y 0.000000 1.911530 0.000000 
#    z 0.000000 0.000000 1.846140 
# 
# From -- ./inp_files/5187.got.cif
#   From: 2010.05.17/outbox.cif.g08.bks.cpg/sg30_3_cif.got.tgz:5187.got - 2010.06.03 17:03:02.
