data_PCOD9342757
_publ_section_title
;
Structure prediction by ZEFSAII (Michael W. Deem and Ramdas Pophale) SiO2 
 PCOD9342757
Probable space group: P M N 21
;
_chemical_formula_sum "Si O2"
_cell_formula_units_Z 32
_cell_length_a 7.955905
_cell_length_b 10.680263
_cell_length_c 19.911052
_cell_angle_alpha 90.000000
_cell_angle_beta 90.000000
_cell_angle_gamma 90.000000
_cell_volume 1691.865142
_symmetry_space_group_name_H-M "P M N 21"
_symmetry_group_IT_number 31
_symmetry_cell_setting 'orthorhombic'
loop_
_space_group_symop_operation_xyz
x,y,z
1/2-x,-y,1/2+z
-x,y,z
1/2+x,-y,1/2+z
loop_
_atom_site_type_symbol
_atom_site_label
_atom_site_fract_x
_atom_site_fract_y
_atom_site_fract_z
Si Si1 0.797647 0.615214 0.726500
Si Si2 0.703125 0.768890 0.515944
Si Si3 0.298054 0.131738 0.156649
Si Si4 0.201966 0.371330 0.646275
Si Si5 0.803038 0.215034 0.866879
Si Si6 0.793090 0.124444 0.724973
Si Si7 0.195821 0.501551 0.361400
Si Si8 0.200718 0.517898 0.009780
O O1 0.733399 0.744033 0.694637
O O2 0.733633 0.493962 0.685761
O O3 0.753281 0.592604 0.803776
O O4 0.000000 0.616163 0.720603
O O5 0.500000 0.767620 0.513835
O O6 0.757071 0.852844 0.578205
O O7 0.766855 0.807563 0.441780
O O8 0.759204 0.624354 0.527235
O O9 0.500000 0.131314 0.162826
O O10 0.236960 0.004328 0.190930
O O11 0.261360 0.244303 0.681248
O O12 0.247477 0.389499 0.568774
O O13 0.000000 0.371775 0.651733
O O14 0.734066 0.144598 0.801659
O O15 0.788643 0.364606 0.854459
O O16 0.000000 0.183385 0.870162
O O17 0.000000 0.125179 0.725889
O O18 0.229597 0.452472 0.436246
O O19 0.000000 0.527842 0.353290
O O20 0.000000 0.514844 0.005037
#
# Coordination Sequence:
#
# PCOD9342757 Si02
#       8
#     4   4   4   4   4   4   4   4
#     4  10  19  33  53  77 106 141 176 213 260 312
#     4   9  18  31  51  76 104 136 170 218 266 311
#     4  10  20  34  54  78 105 141 181 215 253 315
#     4  10  18  32  55  79 105 138 174 215 262 310
#     4   9  17  34  55  76 103 138 177 214 266 320
#     4   9  18  34  55  77 105 141 177 216 262 315
#     4  11  21  32  52  81 109 137 176 223 270 313
#     4  10  20  34  53  78 109 140 175 220 269 316
#
# _framework density 18.914037
#
# number of rings (size 3 to 8) (size 9 to 14) (size 15 to 20)
#    0.000    2.250    2.500    2.250    0.000    3.000 
#    0.000    2.500    0.000    1.500    0.000    0.000 
#    0.000    0.000    0.000    0.000    0.000    0.000 
#
# Total GULP energy -178537.237928 kJ/mol
# GULP energy per Si atom -5579.288685 kJ/mol
# Density = 1.887099 g / cm^3
# Si number density = 18.914037 Si / 1000 Ang^3
#
#
#
# Elastic Constant Matrix: (Units=GPa)
#
#
# Indices 1 2 3 4 5 6 
#
# 1 11.8793 9.6328 -2.5522 0.0000 0.0000 0.0000
# 2 9.6328 117.4568 93.8310 0.0000 0.0000 0.0000
# 3 -2.5522 93.8310 175.7485 0.0000 0.0000 0.0000
# 4 0.0000 0.0000 0.0000 30.1945 0.0000 0.0000
# 5 0.0000 0.0000 0.0000 0.0000 22.8278 0.0000
# 6 0.0000 0.0000 0.0000 0.0000 0.0000 7.4512
#
#
#
# Elastic Compliance Matrix: (Units=1/GPa)
#
#
# Indices 1 2 3 4 5 6 
#
# 1 0.099527 -0.016246 0.010119 0.000000 0.000000 0.000000
# 2 -0.016246 0.017497 -0.009578 0.000000 0.000000 0.000000
# 3 0.010119 -0.009578 0.010950 0.000000 0.000000 0.000000
# 4 0.000000 0.000000 0.000000 0.033119 0.000000 0.000000
# 5 0.000000 0.000000 0.000000 0.000000 0.043806 0.000000
# 6 0.000000 0.000000 0.000000 0.000000 0.000000 0.134207
#
#
# Mechanical properties :
#
#
# Convention : Reuss Voigt Hill
#
# Bulk Modulus (GPa) = 10.35564 56.32311 33.33938
# Shear Modulus (GPa) = 12.41605 25.70624 19.06115
#
# Velocity S-wave (km/s) = 2.56490 3.69061 3.17800
# Velocity P-wave (km/s) = 3.77606 6.92849 5.57954
#
# Compressibility (1/GPa) = 0.09656572
#
# Stress axis : x y z
#
# Youngs Moduli (GPa) = 10.04748 57.15188 91.32163
#
# Poissons Ratio (x) = 0.92849 -0.92408
# Poissons Ratio (y) = 0.16323 0.87464
# Poissons Ratio (z) = -0.10167 0.54738
#
# Static dielectric constant tensor:
#      x y z
#    x 1.678490 0.000000 0.000000 
#    y 0.000000 1.637650 0.000000 
#    z 0.000000 0.000000 1.666660 
# 
# From -- ./inp_files/5840.got.cif
#   From: 2010.05.17/outbox.cif.g08.bks.cpg/sg31_3_cif.got.tgz:5840.got - 2010.06.03 17:08:30.
