data_PCOD9342772
_publ_section_title
;
Structure prediction by ZEFSAII (Michael W. Deem and Ramdas Pophale) SiO2 
 PCOD9342772
Probable space group: P M N 21
;
_chemical_formula_sum "Si O2"
_cell_formula_units_Z 32
_cell_length_a 7.838209
_cell_length_b 10.473545
_cell_length_c 19.968837
_cell_angle_alpha 90.000000
_cell_angle_beta 90.000000
_cell_angle_gamma 90.000000
_cell_volume 1639.318403
_symmetry_space_group_name_H-M "P M N 21"
_symmetry_group_IT_number 31
_symmetry_cell_setting 'orthorhombic'
loop_
_space_group_symop_operation_xyz
x,y,z
1/2-x,-y,1/2+z
-x,y,z
1/2+x,-y,1/2+z
loop_
_atom_site_type_symbol
_atom_site_label
_atom_site_fract_x
_atom_site_fract_y
_atom_site_fract_z
Si Si1 0.791249 0.980785 0.253380
Si Si2 0.799021 0.625219 0.474508
Si Si3 0.206999 0.897179 0.964094
Si Si4 0.300639 0.726690 0.765347
Si Si5 0.793572 0.003912 0.104496
Si Si6 0.200886 0.851551 0.383241
Si Si7 0.699238 0.297259 0.115631
Si Si8 0.800994 0.630257 0.902931
O O1 0.741914 0.951816 0.177180
O O2 0.728516 0.883288 0.309596
O O3 0.000000 0.982902 0.255795
O O4 0.734204 0.126607 0.268518
O O5 0.724027 0.736964 0.427362
O O6 0.729479 0.629374 0.550492
O O7 0.782689 0.492011 0.436683
O O8 0.000000 0.654991 0.483048
O O9 0.265995 0.763512 0.933428
O O10 0.000000 0.902257 0.958800
O O11 0.279300 0.016984 0.923666
O O12 0.254569 0.918163 0.041493
O O13 0.500000 0.730878 0.781184
O O14 0.280633 0.682673 0.688577
O O15 0.217961 0.641353 0.822861
O O16 0.000000 0.016719 0.104529
O O17 0.721325 0.146960 0.098380
O O18 0.000000 0.823227 0.374351
O O19 0.500000 0.326468 0.124443
O O20 0.000000 0.622075 0.919658
#
# Coordination Sequence:
#
# PCOD9342772 Si02
#       8
#     4   4   4   4   4   4   4   4
#     4   8  15  28  51  79 104 133 170 220 271 324
#     4  10  22  37  54  79 112 150 188 225 272 331
#     4  10  20  33  52  79 109 140 179 228 276 321
#     4  10  19  34  57  81 107 142 184 226 278 334
#     4   9  17  31  51  78 109 139 176 220 275 330
#     4  10  18  33  55  79 105 137 182 227 273 327
#     4  10  19  33  54  81 112 141 179 227 273 327
#     4  11  23  37  54  80 114 150 188 231 278 326
#
# _framework density 19.520308
#
# number of rings (size 3 to 8) (size 9 to 14) (size 15 to 20)
#    0.000    2.250    2.500    1.875    0.000    2.000 
#    0.000    1.250    0.000    3.000    0.000    0.000 
#    0.000    0.000    0.000    0.000    0.000    0.000 
#
# Total GULP energy -178492.718553 kJ/mol
# GULP energy per Si atom -5577.897455 kJ/mol
# Density = 1.947588 g / cm^3
# Si number density = 19.520308 Si / 1000 Ang^3
#
#
#
# Elastic Constant Matrix: (Units=GPa)
#
#
# Indices 1 2 3 4 5 6 
#
# 1 20.3598 -13.0981 -9.1787 0.0000 0.0000 0.0000
# 2 -13.0981 67.0544 38.2789 0.0000 0.0000 0.0000
# 3 -9.1787 38.2789 135.0629 0.0000 0.0000 0.0000
# 4 0.0000 0.0000 0.0000 28.9432 0.0000 0.0000
# 5 0.0000 0.0000 0.0000 0.0000 65.8690 0.0000
# 6 0.0000 0.0000 0.0000 0.0000 0.0000 16.4110
#
#
#
# Elastic Compliance Matrix: (Units=1/GPa)
#
#
# Indices 1 2 3 4 5 6 
#
# 1 0.056257 0.010506 0.000845 0.000000 0.000000 0.000000
# 2 0.010506 0.019754 -0.004885 0.000000 0.000000 0.000000
# 3 0.000845 -0.004885 0.008846 0.000000 0.000000 0.000000
# 4 0.000000 0.000000 0.000000 0.034550 0.000000 0.000000
# 5 0.000000 0.000000 0.000000 0.000000 0.015182 0.000000
# 6 0.000000 0.000000 0.000000 0.000000 0.000000 0.060935
#
#
# Mechanical properties :
#
#
# Convention : Reuss Voigt Hill
#
# Bulk Modulus (GPa) = 10.22591 28.27568 19.25080
# Shear Modulus (GPa) = 23.23573 36.00963 29.62268
#
# Velocity S-wave (km/s) = 3.45387 4.29969 3.89978
# Velocity P-wave (km/s) = 4.59952 6.25831 5.49191
#
# Compressibility (1/GPa) = 0.09779078
#
# Stress axis : x y z
#
# Youngs Moduli (GPa) = 17.77567 50.62279 113.04827
#
# Poissons Ratio (x) = -0.53186 -0.09558
# Poissons Ratio (y) = -0.18676 0.55219
# Poissons Ratio (z) = -0.01503 0.24727
#
# Static dielectric constant tensor:
#      x y z
#    x 1.693160 0.000000 0.000000 
#    y 0.000000 1.644760 0.000000 
#    z 0.000000 0.000000 1.720330 
# 
# From -- ./inp_files/6251.got.cif
#   From: 2010.05.17/outbox.cif.g08.bks.cpg/sg31_4_cif.got.tgz:6251.got - 2010.06.03 17:08:30.
