data_PCOD9342597
_publ_section_title
;
Structure prediction by ZEFSAII (Michael W. Deem and Ramdas Pophale) SiO2 
 PCOD9342597
Probable space group: P N C 2
;
_chemical_formula_sum "Si O2"
_cell_formula_units_Z 18
_cell_length_a 8.571476
_cell_length_b 7.954103
_cell_length_c 10.337031
_cell_angle_alpha 90.000000
_cell_angle_beta 90.000000
_cell_angle_gamma 90.000000
_cell_volume 704.762265
_symmetry_space_group_name_H-M "P N C 2"
_symmetry_group_IT_number 30
_symmetry_cell_setting 'orthorhombic'
loop_
_space_group_symop_operation_xyz
x,y,z
-x,-y,z
-x,1/2+y,1/2+z
x,1/2-y,1/2+z
loop_
_atom_site_type_symbol
_atom_site_label
_atom_site_fract_x
_atom_site_fract_y
_atom_site_fract_z
Si Si1 0.500000 0.500000 0.875000
Si Si2 0.154076 0.607763 0.936890
Si Si3 0.873493 0.148613 0.159401
Si Si4 0.394496 0.333397 0.227010
Si Si5 0.335983 0.411018 0.495628
O O1 0.330586 0.534916 0.942043
O O2 0.521707 0.670353 0.791584
O O3 0.160253 0.711522 0.802912
O O4 0.000000 0.500000 0.910158
O O5 0.102034 0.697348 0.066500
O O6 0.000000 0.000000 0.154556
O O7 0.736644 0.052600 0.085756
O O8 0.500000 0.500000 0.202235
O O9 0.276046 0.374057 0.348647
O O10 0.338227 0.250658 0.091335
O O11 0.500000 0.500000 0.466213
#
# Coordination Sequence:
#
# PCOD9342597 Si02
#       5
#     2   4   4   4   4
#     4  12  24  50  76 110 162 196 266 332 380 484
#     4  11  26  51  78 112 158 212 259 340 403 473
#     4  11  26  48  75 110 161 201 264 339 390 481
#     4  11  24  41  72 105 143 195 250 312 386 454
#     4  11  23  44  66 106 144 189 251 314 372 461
#
# _framework density 25.540526
#
# number of rings (size 3 to 8) (size 9 to 14) (size 15 to 20)
#    0.000    0.889    3.333    2.667    4.667    0.889 
#    4.000    0.000    0.000    0.000    0.000    0.000 
#    0.000    0.000    0.000    0.000    0.000    0.000 
#
# Total GULP energy -100253.659871 kJ/mol
# GULP energy per Si atom -5569.647771 kJ/mol
# Density = 2.548239 g / cm^3
# Si number density = 25.540526 Si / 1000 Ang^3
#
#
#
# Elastic Constant Matrix: (Units=GPa)
#
#
# Indices 1 2 3 4 5 6 
#
# 1 82.0496 -19.1722 -0.1208 0.0000 0.0000 0.0000
# 2 -19.1722 67.8199 -0.1482 0.0000 0.0000 0.0000
# 3 -0.1208 -0.1482 179.3636 0.0000 0.0000 0.0000
# 4 0.0000 0.0000 0.0000 66.3371 0.0000 0.0000
# 5 0.0000 0.0000 0.0000 0.0000 18.0055 0.0000
# 6 0.0000 0.0000 0.0000 0.0000 0.0000 29.4011
#
#
#
# Elastic Compliance Matrix: (Units=1/GPa)
#
#
# Indices 1 2 3 4 5 6 
#
# 1 0.013050 0.003689 0.000012 0.000000 0.000000 0.000000
# 2 0.003689 0.015788 0.000016 0.000000 0.000000 0.000000
# 3 0.000012 0.000016 0.005575 0.000000 0.000000 0.000000
# 4 0.000000 0.000000 0.000000 0.015075 0.000000 0.000000
# 5 0.000000 0.000000 0.000000 0.000000 0.055539 0.000000
# 6 0.000000 0.000000 0.000000 0.000000 0.000000 0.034012
#
#
# Mechanical properties :
#
#
# Convention : Reuss Voigt Hill
#
# Bulk Modulus (GPa) = 23.89724 32.26121 28.07922
# Shear Modulus (GPa) = 34.35151 45.99370 40.17260
#
# Velocity S-wave (km/s) = 3.67138 4.24820 3.97028
# Velocity P-wave (km/s) = 5.22962 6.05985 5.65998
#
# Compressibility (1/GPa) = 0.04184583
#
# Stress axis : x y z
#
# Youngs Moduli (GPa) = 76.62962 63.33988 179.36291
#
# Poissons Ratio (x) = -0.23367 -0.00212
# Poissons Ratio (y) = -0.28269 -0.00279
# Poissons Ratio (z) = -0.00091 -0.00098
#
# Static dielectric constant tensor:
#      x y z
#    x 2.155500 0.000000 0.000000 
#    y 0.000000 2.058560 0.000000 
#    z 0.000000 0.000000 2.098140 
# 
# From -- ./inp_files/3496.got.cif
#   From: 2010.05.17/outbox.cif.g08.bks.cpg/sg30_2_cif.got.tgz:3496.got - 2010.06.03 17:03:02.
