data_PCOD9342574
_publ_section_title
;
Structure prediction by ZEFSAII (Michael W. Deem and Ramdas Pophale) SiO2 
 PCOD9342574
Probable space group: P N C 2
;
_chemical_formula_sum "Si O2"
_cell_formula_units_Z 24
_cell_length_a 4.965067
_cell_length_b 13.362245
_cell_length_c 14.840235
_cell_angle_alpha 90.000000
_cell_angle_beta 90.000000
_cell_angle_gamma 90.000000
_cell_volume 984.567106
_symmetry_space_group_name_H-M "P N C 2"
_symmetry_group_IT_number 30
_symmetry_cell_setting 'orthorhombic'
loop_
_space_group_symop_operation_xyz
x,y,z
-x,-y,z
-x,1/2+y,1/2+z
x,1/2-y,1/2+z
loop_
_atom_site_type_symbol
_atom_site_label
_atom_site_fract_x
_atom_site_fract_y
_atom_site_fract_z
Si Si1 0.812372 0.596477 0.337940
Si Si2 0.564645 0.335605 0.028060
Si Si3 0.500000 0.500000 0.172558
Si Si4 0.202721 0.093638 0.226594
Si Si5 0.261171 0.634902 0.623983
Si Si6 0.500000 0.000000 0.983829
Si Si7 0.943495 0.813690 0.407960
O O1 0.678310 0.569485 0.241123
O O2 0.592469 0.586715 0.416900
O O3 0.945519 0.703210 0.360153
O O4 0.000000 0.500000 0.353786
O O5 0.625798 0.420953 0.102249
O O6 0.629494 0.231249 0.074161
O O7 0.260911 0.327983 0.991121
O O8 0.763615 0.344011 0.942667
O O9 0.511201 0.104130 0.197568
O O10 0.171076 0.116429 0.330132
O O11 0.025910 0.166883 0.163875
O O12 0.000000 0.000000 0.209453
O O13 0.277448 0.546375 0.549887
#
# Coordination Sequence:
#
# PCOD9342574 Si02
#       7
#     4   4   2   4   4   2   4
#     4  11  26  46  75 106 149 196 250 310 379 450
#     4  12  28  48  76 107 146 194 246 308 366 452
#     4  11  30  48  77 110 152 200 257 314 384 453
#     4  12  26  43  71 103 143 186 232 296 358 440
#     4  12  24  44  72 105 142 178 242 297 367 423
#     4  11  22  42  69 106 136 186 239 306 366 435
#     4  12  28  48  74 105 152 194 247 300 375 445
#
# _framework density 24.376197000000001
#
# number of rings (size 3 to 8) (size 9 to 14) (size 15 to 20)
#    0.000    0.333    3.333    4.000   11.667    0.000 
#    0.000    0.000    0.000    0.000    0.000    0.000 
#    0.000    0.000    0.000    0.000    0.000    0.000 
#
# Total GULP energy -134067.626532 kJ/mol
# GULP energy per Si atom -5586.151106 kJ/mol
# Density = 2.432072 g / cm^3
# Si number density = 24.376197 Si / 1000 Ang^3
#
#
#
# Elastic Constant Matrix: (Units=GPa)
#
#
# Indices 1 2 3 4 5 6 
#
# 1 108.6163 3.3128 19.1987 0.0000 0.0000 0.0000
# 2 3.3128 41.1114 40.7041 0.0000 0.0000 0.0000
# 3 19.1987 40.7041 120.5731 0.0000 0.0000 0.0000
# 4 0.0000 0.0000 0.0000 37.5291 0.0000 0.0000
# 5 0.0000 0.0000 0.0000 0.0000 15.4767 0.0000
# 6 0.0000 0.0000 0.0000 0.0000 0.0000 18.4251
#
#
#
# Elastic Compliance Matrix: (Units=1/GPa)
#
#
# Indices 1 2 3 4 5 6 
#
# 1 0.009506 0.001101 -0.001885 0.000000 0.000000 0.000000
# 2 0.001101 0.036664 -0.012552 0.000000 0.000000 0.000000
# 3 -0.001885 -0.012552 0.012831 0.000000 0.000000 0.000000
# 4 0.000000 0.000000 0.000000 0.026646 0.000000 0.000000
# 5 0.000000 0.000000 0.000000 0.000000 0.064613 0.000000
# 6 0.000000 0.000000 0.000000 0.000000 0.000000 0.054274
#
#
# Mechanical properties :
#
#
# Convention : Reuss Voigt Hill
#
# Bulk Modulus (GPa) = 30.93379 44.08133 37.50756
# Shear Modulus (GPa) = 20.66248 28.09184 24.37716
#
# Velocity S-wave (km/s) = 2.91460 3.39843 3.16577
# Velocity P-wave (km/s) = 4.90349 5.78983 5.36499
#
# Compressibility (1/GPa) = 0.03232711
#
# Stress axis : x y z
#
# Youngs Moduli (GPa) = 105.19250 27.27508 77.93345
#
# Poissons Ratio (x) = -0.03002 0.14692
# Poissons Ratio (y) = -0.11577 0.97825
# Poissons Ratio (z) = 0.19831 0.34237
#
# Static dielectric constant tensor:
#      x y z
#    x 2.102400 0.000000 0.000000 
#    y 0.000000 2.183540 0.000000 
#    z 0.000000 0.000000 1.913340 
# 
# From -- ./inp_files/4687.got.cif
#   From: 2010.05.17/outbox.cif.g08.bks.cpg/sg30_3_cif.got.tgz:4687.got - 2010.06.03 17:03:02.
