data_PCOD9342673
_publ_section_title
;
Structure prediction by ZEFSAII (Michael W. Deem and Ramdas Pophale) SiO2 
 PCOD9342673
Probable space group: P N C 2
;
_chemical_formula_sum "Si O2"
_cell_formula_units_Z 22
_cell_length_a 6.000000
_cell_length_b 12.000000
_cell_length_c 15.000000
_cell_angle_alpha 90.000000
_cell_angle_beta 90.000000
_cell_angle_gamma 90.000000
_cell_volume 1080.000000
_symmetry_space_group_name_H-M "P N C 2"
_symmetry_group_IT_number 30
_symmetry_cell_setting 'orthorhombic'
loop_
_space_group_symop_operation_xyz
x,y,z
-x,-y,z
-x,1/2+y,1/2+z
x,1/2-y,1/2+z
loop_
_atom_site_type_symbol
_atom_site_label
_atom_site_fract_x
_atom_site_fract_y
_atom_site_fract_z
Si Si1 0.224384 0.226865 0.039560
Si Si2 0.454378 0.621936 0.676401
Si Si3 0.325305 0.285946 0.843796
Si Si4 0.049284 0.726646 0.203087
Si Si5 0.671407 0.093592 0.821643
Si Si6 0.000000 0.000000 0.969013
O O1 0.441785 0.203217 0.100997
O O2 0.066203 0.288764 0.109170
O O3 0.255620 0.293720 0.947172
O O4 0.113862 0.104773 0.019090
O O5 0.500000 0.500000 0.639757
O O6 0.583953 0.624773 0.771809
O O7 0.205077 0.663473 0.694922
O O8 0.530325 0.200699 0.849096
O O9 0.120063 0.238332 0.786077
O O10 0.196417 0.624311 0.233580
O O11 0.500000 0.000000 0.798261
O O12 0.816938 0.053197 0.903889
#
# Coordination Sequence:
#
# PCOD9342673 Si02
#       6
#     4   4   4   4   4   2
#     4  11  22  35  61  96 120 159 211 256 310 374
#     4  10  23  39  62  91 125 159 212 260 313 371
#     4  10  22  38  59  89 126 165 203 256 319 372
#     4  10  22  39  58  88 129 166 198 267 313 368
#     4  11  20  36  60  91 126 163 206 255 320 370
#     4  12  22  34  68  96 120 154 208 274 316 368
#
# _framework density 20.370370000000001
#
# number of rings (size 3 to 8) (size 9 to 14) (size 15 to 20)
#    0.000    1.455    3.636    1.091    5.091    2.182 
#    0.000    0.000    0.000   34.909    0.000    0.000 
#    0.000    0.000    0.000    0.000    0.000    0.000 
#
# Total GULP energy -122550.163586 kJ/mol
# GULP energy per Si atom -5570.461981 kJ/mol
# Density = 2.032401 g / cm^3
# Si number density = 20.370370 Si / 1000 Ang^3
#
#
#
# Elastic Constant Matrix: (Units=GPa)
#
#
# Indices 1 2 3 4 5 6 
#
# 1 82.6533 10.9790 52.6115 0.0000 0.0000 0.0000
# 2 10.9790 10.4212 7.2429 0.0000 0.0000 0.0000
# 3 52.6115 7.2429 173.0001 0.0000 0.0000 0.0000
# 4 0.0000 0.0000 0.0000 28.0261 0.0000 0.0000
# 5 0.0000 0.0000 0.0000 0.0000 19.9458 0.0000
# 6 0.0000 0.0000 0.0000 0.0000 0.0000 19.8920
#
#
#
# Elastic Compliance Matrix: (Units=1/GPa)
#
#
# Indices 1 2 3 4 5 6 
#
# 1 0.016937 -0.014692 -0.004536 0.000000 0.000000 0.000000
# 2 -0.014692 0.111577 -0.000203 0.000000 0.000000 0.000000
# 3 -0.004536 -0.000203 0.007168 0.000000 0.000000 0.000000
# 4 0.000000 0.000000 0.000000 0.035681 0.000000 0.000000
# 5 0.000000 0.000000 0.000000 0.000000 0.050136 0.000000
# 6 0.000000 0.000000 0.000000 0.000000 0.000000 0.050272
#
#
# Mechanical properties :
#
#
# Convention : Reuss Voigt Hill
#
# Bulk Modulus (GPa) = 10.32828 45.30459 27.81643
# Shear Modulus (GPa) = 14.58121 26.58886 20.58504
#
# Velocity S-wave (km/s) = 2.67836 3.61677 3.18235
# Velocity P-wave (km/s) = 3.82701 6.30318 5.21422
#
# Compressibility (1/GPa) = 0.09682159
#
# Stress axis : x y z
#
# Youngs Moduli (GPa) = 59.04088 8.96238 139.50397
#
# Poissons Ratio (x) = 0.13167 0.63276
# Poissons Ratio (y) = 0.86740 0.02838
# Poissons Ratio (z) = 0.26780 0.00182
#
# Static dielectric constant tensor:
#      x y z
#    x 1.867620 0.000000 0.000000 
#    y 0.000000 1.726720 0.000000 
#    z 0.000000 0.000000 1.703340 
# 
# From -- ./inp_files/3093.got.cif
#   From: 2010.05.17/outbox.ucp.g08.bks.cvg/sg30_2_cif.got.tgz:3093.got - 2010.06.11 10:34:04.
