data_PCOD9342676
_publ_section_title
;
Structure prediction by ZEFSAII (Michael W. Deem and Ramdas Pophale) SiO2 
 PCOD9342676
Probable space group: P N C 2
;
_chemical_formula_sum "Si O2"
_cell_formula_units_Z 18
_cell_length_a 9.000000
_cell_length_b 9.000000
_cell_length_c 9.000000
_cell_angle_alpha 90.000000
_cell_angle_beta 90.000000
_cell_angle_gamma 90.000000
_cell_volume 729.000000
_symmetry_space_group_name_H-M "P N C 2"
_symmetry_group_IT_number 30
_symmetry_cell_setting 'orthorhombic'
loop_
_space_group_symop_operation_xyz
x,y,z
-x,-y,z
-x,1/2+y,1/2+z
x,1/2-y,1/2+z
loop_
_atom_site_type_symbol
_atom_site_label
_atom_site_fract_x
_atom_site_fract_y
_atom_site_fract_z
Si Si1 0.724433 0.723897 0.203800
Si Si2 0.240126 0.722151 0.445025
Si Si3 0.044406 0.667655 0.702741
Si Si4 0.500000 0.000000 0.874844
Si Si5 0.333309 0.452062 0.928961
O O1 0.616733 0.602006 0.280784
O O2 0.679258 0.887813 0.261996
O O3 0.901389 0.729060 0.227697
O O4 0.707798 0.688101 0.030307
O O5 0.104918 0.652040 0.536261
O O6 0.183865 0.748686 0.277707
O O7 0.389101 0.621509 0.453696
O O8 0.251951 0.898798 0.482331
O O9 0.000000 0.500000 0.757131
O O10 0.500000 0.500000 0.950087
#
# Coordination Sequence:
#
# PCOD9342676 Si02
#       5
#     4   4   4   2   4
#     4  12  27  50  81 114 157 213 269 336 413 485
#     4  12  29  52  79 123 162 212 274 339 415 490
#     4  12  29  51  83 117 162 216 273 335 415 497
#     4  12  28  48  86 122 158 218 276 342 414 496
#     4  12  26  51  79 114 158 206 269 337 396 487
#
# _framework density 24.691358000000001
#
# number of rings (size 3 to 8) (size 9 to 14) (size 15 to 20)
#    0.000    0.000    5.556    2.667    6.222    1.778 
#    4.000    0.000    0.000    0.000    0.000    0.000 
#    0.000    0.000    0.000    0.000    0.000    0.000 
#
# Total GULP energy -100452.984461 kJ/mol
# GULP energy per Si atom -5580.721359 kJ/mol
# Density = 2.463516 g / cm^3
# Si number density = 24.691358 Si / 1000 Ang^3
#
#
#
# Elastic Constant Matrix: (Units=GPa)
#
#
# Indices 1 2 3 4 5 6 
#
# 1 103.3331 64.3843 22.8660 0.0000 0.0000 0.0000
# 2 64.3843 115.2161 41.7773 0.0000 0.0000 0.0000
# 3 22.8660 41.7773 63.5429 0.0000 0.0000 0.0000
# 4 0.0000 0.0000 0.0000 35.6371 0.0000 0.0000
# 5 0.0000 0.0000 0.0000 0.0000 229.8691 0.0000
# 6 0.0000 0.0000 0.0000 0.0000 0.0000 51.8434
#
#
#
# Elastic Compliance Matrix: (Units=1/GPa)
#
#
# Indices 1 2 3 4 5 6 
#
# 1 0.014848 -0.008351 0.000147 0.000000 0.000000 0.000000
# 2 -0.008351 0.016093 -0.007575 0.000000 0.000000 0.000000
# 3 0.000147 -0.007575 0.020665 0.000000 0.000000 0.000000
# 4 0.000000 0.000000 0.000000 0.028061 0.000000 0.000000
# 5 0.000000 0.000000 0.000000 0.000000 0.004350 0.000000
# 6 0.000000 0.000000 0.000000 0.000000 0.000000 0.019289
#
#
# Mechanical properties :
#
#
# Convention : Reuss Voigt Hill
#
# Bulk Modulus (GPa) = 49.88043 60.01638 54.94841
# Shear Modulus (GPa) = 35.32435 73.67422 54.49928
#
# Velocity S-wave (km/s) = 3.78648 5.46835 4.70320
# Velocity P-wave (km/s) = 6.27391 8.01435 7.19694
#
# Compressibility (1/GPa) = 0.02004794
#
# Stress axis : x y z
#
# Youngs Moduli (GPa) = 67.34946 62.14042 48.39111
#
# Poissons Ratio (x) = 0.51891 -0.00712
# Poissons Ratio (y) = 0.56241 0.36658
# Poissons Ratio (z) = -0.00991 0.47074
#
# Static dielectric constant tensor:
#      x y z
#    x 1.794580 0.000000 0.000000 
#    y 0.000000 2.088640 0.000000 
#    z 0.000000 0.000000 2.043070 
# 
# From -- ./inp_files/1586.got.cif
#   From: 2010.05.17/outbox.ucp.g08.bks.cvg/sg30_1_cif.got.tgz:1586.got - 2010.06.11 10:34:04.
