data_PCOD9342353
_publ_section_title
;
Structure prediction by ZEFSAII (Michael W. Deem and Ramdas Pophale) SiO2 
 PCOD9342353
Probable space group: P N C 2
;
_chemical_formula_sum "Si O2"
_cell_formula_units_Z 22
_cell_length_a 15.154992
_cell_length_b 4.956052
_cell_length_c 12.582241
_cell_angle_alpha 90.000000
_cell_angle_beta 90.000000
_cell_angle_gamma 90.000000
_cell_volume 945.038639
_symmetry_space_group_name_H-M "P N C 2"
_symmetry_group_IT_number 30
_symmetry_cell_setting 'orthorhombic'
loop_
_space_group_symop_operation_xyz
x,y,z
-x,-y,z
-x,1/2+y,1/2+z
x,1/2-y,1/2+z
loop_
_atom_site_type_symbol
_atom_site_label
_atom_site_fract_x
_atom_site_fract_y
_atom_site_fract_z
Si Si1 0.598901 0.399174 0.587450
Si Si2 0.086598 0.312006 0.415744
Si Si3 0.500000 0.000000 0.478929
Si Si4 0.000000 0.500000 0.093869
Si Si5 0.355447 0.368364 0.815552
Si Si6 0.732197 0.110647 0.900281
Si Si7 0.000000 0.500000 0.736818
O O1 0.500000 0.500000 0.556305
O O2 0.618461 0.501949 0.703827
O O3 0.677449 0.462710 0.506672
O O4 0.577280 0.088581 0.560828
O O5 0.169153 0.508349 0.413896
O O6 0.000000 0.500000 0.416513
O O7 0.076283 0.120410 0.518276
O O8 0.075603 0.122197 0.312688
O O9 0.558728 0.840091 0.390631
O O10 0.031361 0.749999 0.165371
O O11 0.287871 0.580744 0.870873
O O12 0.310615 0.077861 0.809074
#
# Coordination Sequence:
#
# PCOD9342353 Si02
#       7
#     4   4   2   2   4   4   2
#     4  11  23  44  74 100 142 188 233 289 362 422
#     4  11  26  49  76 105 152 197 241 308 372 436
#     4  10  22  42  68  98 142 180 234 282 358 422
#     4  11  24  45  80 108 136 195 250 297 370 444
#     4  11  25  42  71 105 140 188 233 293 353 428
#     4  11  28  46  67 109 145 180 246 293 350 432
#     4  11  24  45  74 110 138 197 246 297 372 440
#
# _framework density 23.279471999999998
#
# number of rings (size 3 to 8) (size 9 to 14) (size 15 to 20)
#    0.000    1.091    4.545    0.000    7.636    1.455 
#    3.273    0.000    0.000    0.000    0.000    0.000 
#    0.000    0.000    0.000    0.000    0.000    0.000 
#
# Total GULP energy -122801.972368 kJ/mol
# GULP energy per Si atom -5581.907835 kJ/mol
# Density = 2.322649 g / cm^3
# Si number density = 23.279472 Si / 1000 Ang^3
#
#
#
# Elastic Constant Matrix: (Units=GPa)
#
#
# Indices 1 2 3 4 5 6 
#
# 1 125.3937 15.6538 21.6403 0.0000 0.0000 0.0000
# 2 15.6538 96.4299 25.4450 0.0000 0.0000 0.0000
# 3 21.6403 25.4450 134.5755 0.0000 0.0000 0.0000
# 4 0.0000 0.0000 0.0000 -6.1275 0.0000 0.0000
# 5 0.0000 0.0000 0.0000 0.0000 7.0743 0.0000
# 6 0.0000 0.0000 0.0000 0.0000 0.0000 14.3760
#
#
#
# Elastic Compliance Matrix: (Units=1/GPa)
#
#
# Indices 1 2 3 4 5 6 
#
# 1 0.008302 -0.001048 -0.001137 0.000000 0.000000 0.000000
# 2 -0.001048 0.011047 -0.001920 0.000000 0.000000 0.000000
# 3 -0.001137 -0.001920 0.007977 0.000000 0.000000 0.000000
# 4 0.000000 0.000000 0.000000 -0.163198 0.000000 0.000000
# 5 0.000000 0.000000 0.000000 0.000000 0.141357 0.000000
# 6 0.000000 0.000000 0.000000 0.000000 0.000000 0.069561
#
#
# Mechanical properties :
#
#
# Convention : Reuss Voigt Hill
#
# Bulk Modulus (GPa) = 52.31247 53.54192 52.92719
# Shear Modulus (GPa) = 55.78675 22.64187 39.21431
#
# Velocity S-wave (km/s) = 4.90061 3.12205 4.10872
# Velocity P-wave (km/s) = 7.38523 6.00382 6.73006
#
# Compressibility (1/GPa) = 0.01911590
#
# Stress axis : x y z
#
# Youngs Moduli (GPa) = 120.45469 90.52226 125.36573
#
# Poissons Ratio (x) = 0.09484 0.14253
# Poissons Ratio (y) = 0.12620 0.24073
# Poissons Ratio (z) = 0.13694 0.17383
#
# Static dielectric constant tensor:
#      x y z
#    x 1.949310 0.000000 0.000000 
#    y 0.000000 15.709460 0.000000 
#    z 0.000000 0.000000 1.869790 
# 
# From -- ./inp_files/4306.got.cif
#   From: 2010.05.17/outbox.cif.g08.bks.cpg/sg30_3_cif.got.tgz:4306.got - 2010.06.03 17:03:02.
