data_PCOD9342265
_publ_section_title
;
Structure prediction by ZEFSAII (Michael W. Deem and Ramdas Pophale) SiO2 
 PCOD9342265
Probable space group: P N C 2
;
_chemical_formula_sum "Si O2"
_cell_formula_units_Z 22
_cell_length_a 6.783154
_cell_length_b 13.823228
_cell_length_c 10.240956
_cell_angle_alpha 90.000000
_cell_angle_beta 90.000000
_cell_angle_gamma 90.000000
_cell_volume 960.244103
_symmetry_space_group_name_H-M "P N C 2"
_symmetry_group_IT_number 30
_symmetry_cell_setting 'orthorhombic'
loop_
_space_group_symop_operation_xyz
x,y,z
-x,-y,z
-x,1/2+y,1/2+z
x,1/2-y,1/2+z
loop_
_atom_site_type_symbol
_atom_site_label
_atom_site_fract_x
_atom_site_fract_y
_atom_site_fract_z
Si Si1 0.179920 0.759464 0.698560
Si Si2 0.431105 0.164661 0.792831
Si Si3 0.387290 0.912275 0.046075
Si Si4 0.846969 0.849807 0.305492
Si Si5 0.874680 0.905918 0.590270
Si Si6 0.000000 0.000000 0.086480
O O1 0.344018 0.832190 0.747058
O O2 0.309879 0.677357 0.629132
O O3 0.051064 0.711402 0.813105
O O4 0.016483 0.812933 0.612018
O O5 0.326966 0.270720 0.791969
O O6 0.302301 0.103813 0.692151
O O7 0.457593 0.123010 0.937924
O O8 0.500000 0.000000 0.119016
O O9 0.175664 0.955377 0.001819
O O10 0.810521 0.906378 0.439260
O O11 0.898738 0.920443 0.183756
O O12 0.000000 0.000000 0.618368
#
# Coordination Sequence:
#
# PCOD9342265 Si02
#       6
#     4   4   4   4   4   2
#     4  10  23  42  66  97 133 174 228 284 345 405
#     4  11  24  41  66  96 138 175 224 280 347 408
#     4  11  24  41  66 100 133 179 228 283 341 410
#     4  10  21  43  69  97 131 179 226 285 338 408
#     4  11  24  41  67  97 137 179 228 280 345 411
#     4  10  22  42  70  98 134 176 236 280 338 404
#
# _framework density 22.91084
#
# number of rings (size 3 to 8) (size 9 to 14) (size 15 to 20)
#    0.000    1.455    0.909    3.273    2.545    5.818 
#    0.000    0.000    0.000    0.000    0.000    0.000 
#    0.000    0.000    0.000    0.000    0.000    0.000 
#
# Total GULP energy -122830.141182 kJ/mol
# GULP energy per Si atom -5583.188236 kJ/mol
# Density = 2.285869 g / cm^3
# Si number density = 22.910840 Si / 1000 Ang^3
#
#
#
# Elastic Constant Matrix: (Units=GPa)
#
#
# Indices 1 2 3 4 5 6 
#
# 1 121.6869 27.2543 45.8796 0.0000 0.0000 0.0000
# 2 27.2543 69.3430 18.9831 0.0000 0.0000 0.0000
# 3 45.8796 18.9831 76.0922 0.0000 0.0000 0.0000
# 4 0.0000 0.0000 0.0000 -3.6415 0.0000 0.0000
# 5 0.0000 0.0000 0.0000 0.0000 23.8373 0.0000
# 6 0.0000 0.0000 0.0000 0.0000 0.0000 44.0029
#
#
#
# Elastic Compliance Matrix: (Units=1/GPa)
#
#
# Indices 1 2 3 4 5 6 
#
# 1 0.011092 -0.002714 -0.006011 0.000000 0.000000 0.000000
# 2 -0.002714 0.016142 -0.002391 0.000000 0.000000 0.000000
# 3 -0.006011 -0.002391 0.017363 0.000000 0.000000 0.000000
# 4 0.000000 0.000000 0.000000 -0.274614 0.000000 0.000000
# 5 0.000000 0.000000 0.000000 0.000000 0.041951 0.000000
# 6 0.000000 0.000000 0.000000 0.000000 0.000000 0.022726
#
#
# Mechanical properties :
#
#
# Convention : Reuss Voigt Hill
#
# Bulk Modulus (GPa) = 44.71118 50.15067 47.43093
# Shear Modulus (GPa) = -36.85828 24.50676 -6.17576
#
# Velocity S-wave (km/s) = -4.01530 3.27411 -1.64360
# Velocity P-wave (km/s) = 1.39254 6.01914 4.14071
#
# Compressibility (1/GPa) = 0.02236577
#
# Stress axis : x y z
#
# Youngs Moduli (GPa) = 90.15583 61.94931 57.59529
#
# Poissons Ratio (x) = 0.16813 0.34619
# Poissons Ratio (y) = 0.24469 0.13769
# Poissons Ratio (z) = 0.54190 0.14810
#
# Static dielectric constant tensor:
#      x y z
#    x 1.832350 0.000000 0.000000 
#    y 0.000000 1.997350 0.000000 
#    z 0.000000 0.000000 1.884480 
# 
# From -- ./inp_files/3096.got.cif
#   From: 2010.05.17/outbox.cif.g08.bks.cpg/sg30_2_cif.got.tgz:3096.got - 2010.06.03 17:03:02.
