data_PCOD9342002
_publ_section_title
;
Structure prediction by ZEFSAII (Michael W. Deem and Ramdas Pophale) SiO2 
 PCOD9342002
Probable space group: P N C 2
;
_chemical_formula_sum "Si O2"
_cell_formula_units_Z 24
_cell_length_a 16.391477
_cell_length_b 7.815004
_cell_length_c 8.724462
_cell_angle_alpha 90.000000
_cell_angle_beta 90.000000
_cell_angle_gamma 90.000000
_cell_volume 1117.598856
_symmetry_space_group_name_H-M "P N C 2"
_symmetry_group_IT_number 30
_symmetry_cell_setting 'orthorhombic'
loop_
_space_group_symop_operation_xyz
x,y,z
-x,-y,z
-x,1/2+y,1/2+z
x,1/2-y,1/2+z
loop_
_atom_site_type_symbol
_atom_site_label
_atom_site_fract_x
_atom_site_fract_y
_atom_site_fract_z
Si Si1 0.580079 0.094401 0.691360
Si Si2 0.134410 0.083385 0.696442
Si Si3 0.741917 0.103120 0.519390
Si Si4 0.080080 0.405600 0.535456
Si Si5 0.241918 0.103117 0.207426
Si Si6 0.365591 0.583383 0.530375
O O1 0.662973 0.032703 0.610522
O O2 0.582662 0.297354 0.647819
O O3 0.588370 0.061044 0.871937
O O4 0.500000 0.000000 0.631971
O O5 0.082663 0.202647 0.578997
O O6 0.088371 0.061044 0.854879
O O7 0.212487 0.204530 0.737915
O O8 0.175344 0.921929 0.614922
O O9 0.712487 0.295475 0.488904
O O10 0.749999 0.000003 0.363407
O O11 0.162973 0.467300 0.616295
O O12 0.000000 0.500000 0.594844
O O13 0.324657 0.078074 0.111894
#
# Coordination Sequence:
#
# PCOD9342002 Si02
#       6
#     4   4   4   4   4   4
#     4  10  22  40  60  92 128 156 201 259 310 358
#     4  10  20  40  63  89 119 160 209 247 304 370
#     4  10  19  40  66  89 120 159 208 252 298 373
#     4  10  22  40  60  92 128 156 201 259 310 358
#     4  10  19  40  66  89 120 159 208 252 298 373
#     4  10  20  40  63  89 119 160 209 247 304 370
#
# _framework density 21.474610999999999
#
# number of rings (size 3 to 8) (size 9 to 14) (size 15 to 20)
#    2.000    0.000    3.333    1.000    0.000    0.000 
#   12.000    3.333    0.000    0.000    0.000    0.000 
#    0.000    0.000    0.000    0.000    0.000    0.000 
#
# Total GULP energy -133656.259136 kJ/mol
# GULP energy per Si atom -5569.010797 kJ/mol
# Density = 2.142573 g / cm^3
# Si number density = 21.474611 Si / 1000 Ang^3
#
#
#
# Elastic Constant Matrix: (Units=GPa)
#
#
# Indices 1 2 3 4 5 6 
#
# 1 95.7905 15.3874 23.2589 0.0000 0.0000 0.0000
# 2 15.3874 33.5642 -15.7172 0.0000 0.0000 0.0000
# 3 23.2589 -15.7172 92.9455 0.0000 0.0000 0.0000
# 4 0.0000 0.0000 0.0000 6.5379 0.0000 0.0000
# 5 0.0000 0.0000 0.0000 0.0000 23.6673 0.0000
# 6 0.0000 0.0000 0.0000 0.0000 0.0000 20.1376
#
#
#
# Elastic Compliance Matrix: (Units=1/GPa)
#
#
# Indices 1 2 3 4 5 6 
#
# 1 0.012838 -0.008026 -0.004570 0.000000 0.000000 0.000000
# 2 -0.008026 0.037373 0.008328 0.000000 0.000000 0.000000
# 3 -0.004570 0.008328 0.013311 0.000000 0.000000 0.000000
# 4 0.000000 0.000000 0.000000 0.152954 0.000000 0.000000
# 5 0.000000 0.000000 0.000000 0.000000 0.042252 0.000000
# 6 0.000000 0.000000 0.000000 0.000000 0.000000 0.049658
#
#
# Mechanical properties :
#
#
# Convention : Reuss Voigt Hill
#
# Bulk Modulus (GPa) = 18.18599 29.79539 23.99069
# Shear Modulus (GPa) = 14.91423 23.35997 19.13710
#
# Velocity S-wave (km/s) = 2.63821 3.30175 2.98845
# Velocity P-wave (km/s) = 4.21511 5.33294 4.80663
#
# Compressibility (1/GPa) = 0.05498738
#
# Stress axis : x y z
#
# Youngs Moduli (GPa) = 77.89230 26.75742 75.12671
#
# Poissons Ratio (x) = 0.21474 0.34331
# Poissons Ratio (y) = 0.62513 -0.62566
# Poissons Ratio (z) = 0.35595 -0.22284
#
# Static dielectric constant tensor:
#      x y z
#    x 1.783580 0.000000 0.000000 
#    y 0.000000 1.865890 0.000000 
#    z 0.000000 0.000000 1.779100 
# 
# From -- ./inp_files/2633.got.cif
#   From: 2010.05.17/outbox.cif.g08.bks.cpg/sg30_2_cif.got.tgz:2633.got - 2010.06.03 17:03:02.
