data_PCOD9342436
_publ_section_title
;
Structure prediction by ZEFSAII (Michael W. Deem and Ramdas Pophale) SiO2 
 PCOD9342436
Probable space group: P N C 2
;
_chemical_formula_sum "Si O2"
_cell_formula_units_Z 30
_cell_length_a 20.887478
_cell_length_b 4.917227
_cell_length_c 11.048304
_cell_angle_alpha 90.000000
_cell_angle_beta 90.000000
_cell_angle_gamma 90.000000
_cell_volume 1134.754409
_symmetry_space_group_name_H-M "P N C 2"
_symmetry_group_IT_number 30
_symmetry_cell_setting 'orthorhombic'
loop_
_space_group_symop_operation_xyz
x,y,z
-x,-y,z
-x,1/2+y,1/2+z
x,1/2-y,1/2+z
loop_
_atom_site_type_symbol
_atom_site_label
_atom_site_fract_x
_atom_site_fract_y
_atom_site_fract_z
Si Si1 0.747629 0.697800 0.375000
Si Si2 0.735380 0.303552 0.704021
Si Si3 0.170234 0.613443 0.019189
Si Si4 0.600607 0.810479 0.905543
Si Si5 0.924441 0.542086 0.438017
Si Si6 0.928766 0.630582 0.180131
Si Si7 0.590941 0.309586 0.746770
Si Si8 0.500000 0.500000 0.073092
O O1 0.756496 0.406525 0.310783
O O2 0.676543 0.708738 0.434827
O O3 0.745742 0.901315 0.260051
O O4 0.800672 0.836964 0.461832
O O5 0.769894 0.271227 0.576080
O O6 0.660207 0.251456 0.690021
O O7 0.126183 0.573768 0.138150
O O8 0.121753 0.781932 0.934509
O O9 0.590672 0.621124 0.786931
O O10 0.586152 0.119097 0.866697
O O11 0.551858 0.675975 0.998404
O O12 0.913970 0.718835 0.316389
O O13 0.920684 0.655906 0.573052
O O14 0.000000 0.500000 0.426245
O O15 0.000000 0.500000 0.170728
O O16 0.538099 0.210925 0.656012
#
# Coordination Sequence:
#
# PCOD9342436 Si02
#       8
#     4   4   4   4   4   4   4   2
#     4  10  24  44  66  98 140 184 235 300 370 438
#     4  10  24  44  67  97 141 184 235 302 367 441
#     4  12  25  42  71 102 134 188 244 300 366 453
#     4  10  23  42  62  94 137 177 230 294 358 429
#     4  11  26  48  69 106 148 192 243 304 380 451
#     4  11  26  46  71 103 146 194 238 310 372 457
#     4  10  23  42  62  95 136 178 231 293 360 427
#     4  12  22  38  68  96 128 184 236 292 356 434
#
# _framework density 26.437439000000001
#
# number of rings (size 3 to 8) (size 9 to 14) (size 15 to 20)
#    0.000    1.333    1.333    2.400    5.600    3.733 
#    0.000    8.000    0.000    0.000    0.000    0.000 
#    0.000    0.000    0.000    0.000    0.000    0.000 
#
# Total GULP energy -168072.446174 kJ/mol
# GULP energy per Si atom -5602.414872 kJ/mol
# Density = 2.637727 g / cm^3
# Si number density = 26.437439 Si / 1000 Ang^3
#
#
#
# Elastic Constant Matrix: (Units=GPa)
#
#
# Indices 1 2 3 4 5 6 
#
# 1 179.8503 21.0896 64.2165 0.0000 0.0000 0.0000
# 2 21.0896 82.3012 30.2380 0.0000 0.0000 0.0000
# 3 64.2165 30.2380 129.2006 0.0000 0.0000 0.0000
# 4 0.0000 0.0000 0.0000 -1.0953 0.0000 0.0000
# 5 0.0000 0.0000 0.0000 0.0000 20.4979 0.0000
# 6 0.0000 0.0000 0.0000 0.0000 0.0000 32.7498
#
#
#
# Elastic Compliance Matrix: (Units=1/GPa)
#
#
# Indices 1 2 3 4 5 6 
#
# 1 0.006782 -0.000546 -0.003243 0.000000 0.000000 0.000000
# 2 -0.000546 0.013338 -0.002850 0.000000 0.000000 0.000000
# 3 -0.003243 -0.002850 0.010019 0.000000 0.000000 0.000000
# 4 0.000000 0.000000 0.000000 -0.912978 0.000000 0.000000
# 5 0.000000 0.000000 0.000000 0.000000 0.048786 0.000000
# 6 0.000000 0.000000 0.000000 0.000000 0.000000 0.030535
#
#
# Mechanical properties :
#
#
# Convention : Reuss Voigt Hill
#
# Bulk Modulus (GPa) = 59.31285 69.16005 64.23645
# Shear Modulus (GPa) = -6.37250 28.81767 11.22258
#
# Velocity S-wave (km/s) = -1.55423 3.30515 2.06256
# Velocity P-wave (km/s) = 4.38897 6.38608 5.47928
#
# Compressibility (1/GPa) = 0.01685975
#
# Stress axis : x y z
#
# Youngs Moduli (GPa) = 147.44461 74.97607 99.81236
#
# Poissons Ratio (x) = 0.04097 0.32370
# Poissons Ratio (y) = 0.08057 0.28446
# Poissons Ratio (z) = 0.47817 0.21368
#
# Static dielectric constant tensor:
#      x y z
#    x 2.133630 0.000000 0.000000 
#    y 0.000000 2.138080 0.000000 
#    z 0.000000 0.000000 2.047550 
# 
# From -- ./inp_files/4495.got.cif
#   From: 2010.05.17/outbox.cif.g08.bks.cpg/sg30_3_cif.got.tgz:4495.got - 2010.06.03 17:03:02.
