data_PCOD9342865
_publ_section_title
;
Structure prediction by ZEFSAII (Michael W. Deem and Ramdas Pophale) SiO2 
 PCOD9342865
Probable space group: P M N 21
;
_chemical_formula_sum "Si O2"
_cell_formula_units_Z 32
_cell_length_a 7.831480
_cell_length_b 16.242705
_cell_length_c 11.649754
_cell_angle_alpha 90.000000
_cell_angle_beta 90.000000
_cell_angle_gamma 90.000000
_cell_volume 1481.900193
_symmetry_space_group_name_H-M "P M N 21"
_symmetry_group_IT_number 31
_symmetry_cell_setting 'orthorhombic'
loop_
_space_group_symop_operation_xyz
x,y,z
1/2-x,-y,1/2+z
-x,y,z
1/2+x,-y,1/2+z
loop_
_atom_site_type_symbol
_atom_site_label
_atom_site_fract_x
_atom_site_fract_y
_atom_site_fract_z
Si Si1 0.295157 0.978200 0.429440
Si Si2 0.704878 0.264322 0.562072
Si Si3 0.705386 0.161852 0.108956
Si Si4 0.202883 0.160785 0.766712
Si Si5 0.306493 0.524402 0.376317
Si Si6 0.197271 0.702129 0.441742
Si Si7 0.794076 0.554268 0.116891
Si Si8 0.209699 0.844013 0.868227
O O1 0.500000 0.982932 0.429751
O O2 0.245619 0.918323 0.533275
O O3 0.243955 0.928079 0.314106
O O4 0.230593 0.071044 0.426824
O O5 0.500000 0.270319 0.562955
O O6 0.755592 0.186445 0.638943
O O7 0.768863 0.350713 0.611911
O O8 0.761928 0.238122 0.435437
O O9 0.500000 0.168839 0.109659
O O10 0.767611 0.154639 0.237620
O O11 0.768525 0.245586 0.048408
O O12 0.296093 0.230008 0.841828
O O13 0.000000 0.168584 0.786155
O O14 0.500000 0.494063 0.372295
O O15 0.295779 0.621551 0.403758
O O16 0.244249 0.515950 0.243337
O O17 0.230906 0.484992 0.495097
O O18 0.000000 0.677914 0.461303
O O19 0.000000 0.553225 0.111527
O O20 0.000000 0.844788 0.868317
#
# Coordination Sequence:
#
# PCOD9342865 Si02
#       8
#     4   4   4   4   4   4   4   4
#     4   9  19  34  52  77 110 145 181 232 287 331
#     4  10  20  36  58  80 109 149 191 231 278 342
#     4   9  19  35  55  78 107 144 190 234 278 343
#     4  10  19  32  54  81 109 141 182 228 277 332
#     4  11  23  39  62  91 121 157 198 247 303 358
#     4  10  19  34  58  84 108 142 187 232 282 343
#     4  10  23  41  61  89 122 155 200 251 301 361
#     4   9  19  35  54  78 110 149 189 233 286 340
#
# _framework density 21.593897999999999
#
# number of rings (size 3 to 8) (size 9 to 14) (size 15 to 20)
#    0.000    2.250    1.250    1.125    1.750    3.000 
#    0.000    3.750    0.000    0.000    0.000    0.000 
#    0.000    0.000    0.000    0.000    0.000    0.000 
#
# Total GULP energy -178351.925586 kJ/mol
# GULP energy per Si atom -5573.497675 kJ/mol
# Density = 2.154475 g / cm^3
# Si number density = 21.593898 Si / 1000 Ang^3
#
#
#
# Elastic Constant Matrix: (Units=GPa)
#
#
# Indices 1 2 3 4 5 6 
#
# 1 25.1292 7.7009 11.1467 0.0000 0.0000 0.0000
# 2 7.7009 55.5648 48.6273 0.0000 0.0000 0.0000
# 3 11.1467 48.6273 161.9873 0.0000 0.0000 0.0000
# 4 0.0000 0.0000 0.0000 20.8006 0.0000 0.0000
# 5 0.0000 0.0000 0.0000 0.0000 19.8802 0.0000
# 6 0.0000 0.0000 0.0000 0.0000 0.0000 22.5891
#
#
#
# Elastic Compliance Matrix: (Units=1/GPa)
#
#
# Indices 1 2 3 4 5 6 
#
# 1 0.041842 -0.004448 -0.001544 0.000000 0.000000 0.000000
# 2 -0.004448 0.024883 -0.007163 0.000000 0.000000 0.000000
# 3 -0.001544 -0.007163 0.008430 0.000000 0.000000 0.000000
# 4 0.000000 0.000000 0.000000 0.048076 0.000000 0.000000
# 5 0.000000 0.000000 0.000000 0.000000 0.050301 0.000000
# 6 0.000000 0.000000 0.000000 0.000000 0.000000 0.044269
#
#
# Mechanical properties :
#
#
# Convention : Reuss Voigt Hill
#
# Bulk Modulus (GPa) = 20.47325 41.95903 31.21614
# Shear Modulus (GPa) = 19.20176 24.33441 21.76808
#
# Velocity S-wave (km/s) = 2.98522 3.36059 3.17845
# Velocity P-wave (km/s) = 4.62425 5.87633 5.28748
#
# Compressibility (1/GPa) = 0.04884422
#
# Stress axis : x y z
#
# Youngs Moduli (GPa) = 23.89925 40.18888 118.62403
#
# Poissons Ratio (x) = 0.17875 0.18317
# Poissons Ratio (y) = 0.10630 0.84976
# Poissons Ratio (z) = 0.03690 0.28789
#
# Static dielectric constant tensor:
#      x y z
#    x 1.816600 0.000000 0.000000 
#    y 0.000000 1.767810 0.000000 
#    z 0.000000 0.000000 1.846520 
# 
# From -- ./inp_files/3587.got.cif
#   From: 2010.05.17/outbox.cif.g08.bks.cpg/sg31_2_cif.got.tgz:3587.got - 2010.06.03 17:08:30.
