data_PCOD9342247
_publ_section_title
;
Structure prediction by ZEFSAII (Michael W. Deem and Ramdas Pophale) SiO2 
 PCOD9342247
Probable space group: P N C 2
;
_chemical_formula_sum "Si O2"
_cell_formula_units_Z 24
_cell_length_a 10.126273
_cell_length_b 12.030131
_cell_length_c 8.668735
_cell_angle_alpha 90.000000
_cell_angle_beta 90.000000
_cell_angle_gamma 90.000000
_cell_volume 1056.028685
_symmetry_space_group_name_H-M "P N C 2"
_symmetry_group_IT_number 30
_symmetry_cell_setting 'orthorhombic'
loop_
_space_group_symop_operation_xyz
x,y,z
-x,-y,z
-x,1/2+y,1/2+z
x,1/2-y,1/2+z
loop_
_atom_site_type_symbol
_atom_site_label
_atom_site_fract_x
_atom_site_fract_y
_atom_site_fract_z
Si Si1 0.759820 0.662860 0.860930
Si Si2 0.149884 0.977676 0.167412
Si Si3 0.935861 0.801918 0.625414
Si Si4 0.897083 0.364869 0.401675
Si Si5 0.492955 0.630639 0.034309
Si Si6 0.674894 0.279822 0.771550
O O1 0.749622 0.563006 0.740996
O O2 0.827563 0.754329 0.748230
O O3 0.864727 0.629232 0.992980
O O4 0.629457 0.680000 0.963224
O O5 0.211478 0.857384 0.199125
O O6 0.135866 0.981324 0.982712
O O7 0.000000 0.000000 0.226287
O O8 0.009029 0.705890 0.521243
O O9 0.037725 0.865214 0.733876
O O10 0.757509 0.305946 0.373935
O O11 0.500000 0.500000 0.083138
O O12 0.424849 0.711082 0.161671
O O13 0.400887 0.638440 0.885242
#
# Coordination Sequence:
#
# PCOD9342247 Si02
#       6
#     4   4   4   4   4   4
#     4  11  23  43  68 101 142 196 247 309 378 460
#     4  12  22  41  72 107 145 186 247 319 398 449
#     4  10  21  41  69  99 146 186 239 304 386 464
#     4  11  20  42  71 104 143 189 232 317 389 450
#     4  12  26  47  71 103 145 205 255 304 374 459
#     4  12  24  46  73 101 148 195 249 314 371 458
#
# _framework density 22.726655000000001
#
# number of rings (size 3 to 8) (size 9 to 14) (size 15 to 20)
#    0.000    0.667    6.667    2.000    0.000    0.000 
#    3.000    4.167    0.000    0.000    0.000    0.000 
#    0.000    0.000    0.000    0.000    0.000    0.000 
#
# Total GULP energy -133704.844623 kJ/mol
# GULP energy per Si atom -5571.035193 kJ/mol
# Density = 2.267493 g / cm^3
# Si number density = 22.726655 Si / 1000 Ang^3
#
#
#
# Elastic Constant Matrix: (Units=GPa)
#
#
# Indices 1 2 3 4 5 6 
#
# 1 78.1193 10.0766 20.3559 0.0000 0.0000 0.0000
# 2 10.0766 67.4810 26.4016 0.0000 0.0000 0.0000
# 3 20.3559 26.4016 106.7602 0.0000 0.0000 0.0000
# 4 0.0000 0.0000 0.0000 24.6393 0.0000 0.0000
# 5 0.0000 0.0000 0.0000 0.0000 32.3455 0.0000
# 6 0.0000 0.0000 0.0000 0.0000 0.0000 28.5319
#
#
#
# Elastic Compliance Matrix: (Units=1/GPa)
#
#
# Indices 1 2 3 4 5 6 
#
# 1 0.013546 -0.001121 -0.002306 0.000000 0.000000 0.000000
# 2 -0.001121 0.016499 -0.003866 0.000000 0.000000 0.000000
# 3 -0.002306 -0.003866 0.010763 0.000000 0.000000 0.000000
# 4 0.000000 0.000000 0.000000 0.040586 0.000000 0.000000
# 5 0.000000 0.000000 0.000000 0.000000 0.030916 0.000000
# 6 0.000000 0.000000 0.000000 0.000000 0.000000 0.035049
#
#
# Mechanical properties :
#
#
# Convention : Reuss Voigt Hill
#
# Bulk Modulus (GPa) = 38.13574 40.66985 39.40280
# Shear Modulus (GPa) = 29.29375 30.13843 29.71609
#
# Velocity S-wave (km/s) = 3.59410 3.64555 3.61992
# Velocity P-wave (km/s) = 5.83439 5.97111 5.90314
#
# Compressibility (1/GPa) = 0.02622212
#
# Stress axis : x y z
#
# Youngs Moduli (GPa) = 73.82082 60.60945 92.91439
#
# Poissons Ratio (x) = 0.06793 0.21423
# Poissons Ratio (y) = 0.08273 0.35925
# Poissons Ratio (z) = 0.17021 0.23435
#
# Static dielectric constant tensor:
#      x y z
#    x 1.976400 0.000000 0.000000 
#    y 0.000000 2.009030 0.000000 
#    z 0.000000 0.000000 1.890330 
# 
# From -- ./inp_files/1851.got.cif
#   From: 2010.05.17/outbox.cif.g08.bks.cpg/sg30_1_cif.got.tgz:1851.got - 2010.06.03 17:03:02.
