data_PCOD9342267
_publ_section_title
;
Structure prediction by ZEFSAII (Michael W. Deem and Ramdas Pophale) SiO2 
 PCOD9342267
Probable space group: P N C 2
;
_chemical_formula_sum "Si O2"
_cell_formula_units_Z 26
_cell_length_a 5.118763
_cell_length_b 8.212132
_cell_length_c 26.699186
_cell_angle_alpha 90.000000
_cell_angle_beta 90.000000
_cell_angle_gamma 90.000000
_cell_volume 1122.325846
_symmetry_space_group_name_H-M "P N C 2"
_symmetry_group_IT_number 30
_symmetry_cell_setting 'orthorhombic'
loop_
_space_group_symop_operation_xyz
x,y,z
-x,-y,z
-x,1/2+y,1/2+z
x,1/2-y,1/2+z
loop_
_atom_site_type_symbol
_atom_site_label
_atom_site_fract_x
_atom_site_fract_y
_atom_site_fract_z
Si Si1 0.189274 0.844495 0.743430
Si Si2 0.507108 0.691388 0.340345
Si Si3 0.986215 0.301738 0.397971
Si Si4 0.000000 0.000000 0.213543
Si Si5 0.381322 0.225935 0.570893
Si Si6 0.500000 0.000000 0.144033
Si Si7 0.903588 0.185679 0.510812
Si Si8 0.500000 0.000000 0.653296
O O1 0.425270 0.810968 0.782342
O O2 0.036703 0.673317 0.741295
O O3 0.323766 0.892116 0.690733
O O4 0.000000 0.000000 0.757809
O O5 0.500000 0.500000 0.353373
O O6 0.772341 0.755934 0.363756
O O7 0.267364 0.765454 0.370201
O O8 0.960407 0.247470 0.455048
O O9 0.000000 0.500000 0.397782
O O10 0.747973 0.979081 0.178969
O O11 0.526222 0.352180 0.606329
O O12 0.109822 0.279801 0.546473
O O13 0.601729 0.190201 0.528608
O O14 0.316859 0.089795 0.612852
O O15 0.000000 0.000000 0.513840
#
# Coordination Sequence:
#
# PCOD9342267 Si02
#       8
#     4   4   4   2   4   2   4   2
#     4  12  26  45  79 107 147 201 243 302 379 444
#     4  10  21  43  71 103 130 179 236 294 355 448
#     4  10  23  42  71  97 136 174 237 298 360 427
#     4  12  28  46  70 110 152 186 250 300 350 444
#     4  12  26  42  70 101 140 192 242 293 353 449
#     4  12  26  46  64 101 149 188 236 304 354 414
#     4  12  25  45  68 101 140 183 241 297 366 437
#     4  12  24  44  72 103 147 202 238 288 378 434
#
# _framework density 23.166177999999999
#
# number of rings (size 3 to 8) (size 9 to 14) (size 15 to 20)
#    0.000    0.615    3.846    4.154    4.308    0.000 
#    1.385    0.000    6.769    0.000    0.000    0.000 
#    0.000    0.000    0.000    0.000    0.000    0.000 
#
# Total GULP energy -145197.510740 kJ/mol
# GULP energy per Si atom -5584.519644 kJ/mol
# Density = 2.311345 g / cm^3
# Si number density = 23.166178 Si / 1000 Ang^3
#
#
#
# Elastic Constant Matrix: (Units=GPa)
#
#
# Indices 1 2 3 4 5 6 
#
# 1 159.7449 23.9393 71.4515 0.0000 0.0000 0.0000
# 2 23.9393 69.5685 22.0976 0.0000 0.0000 0.0000
# 3 71.4515 22.0976 164.2857 0.0000 0.0000 0.0000
# 4 0.0000 0.0000 0.0000 47.9870 0.0000 0.0000
# 5 0.0000 0.0000 0.0000 0.0000 -4.5198 0.0000
# 6 0.0000 0.0000 0.0000 0.0000 0.0000 16.7194
#
#
#
# Elastic Compliance Matrix: (Units=1/GPa)
#
#
# Indices 1 2 3 4 5 6 
#
# 1 0.007963 -0.001713 -0.003233 0.000000 0.000000 0.000000
# 2 -0.001713 0.015384 -0.001324 0.000000 0.000000 0.000000
# 3 -0.003233 -0.001324 0.007671 0.000000 0.000000 0.000000
# 4 0.000000 0.000000 0.000000 0.020839 0.000000 0.000000
# 5 0.000000 0.000000 0.000000 0.000000 -0.221248 0.000000
# 6 0.000000 0.000000 0.000000 0.000000 0.000000 0.059811
#
#
# Mechanical properties :
#
#
# Convention : Reuss Voigt Hill
#
# Bulk Modulus (GPa) = 54.11857 69.84175 61.98016
# Shear Modulus (GPa) = -55.01754 30.44470 -12.28642
#
# Velocity S-wave (km/s) = -4.87859 3.62911 -2.30545
# Velocity P-wave (km/s) = 2.88486 6.91188 4.44138
#
# Compressibility (1/GPa) = 0.01847795
#
# Stress axis : x y z
#
# Youngs Moduli (GPa) = 125.58624 65.00063 130.36042
#
# Poissons Ratio (x) = 0.11136 0.42142
# Poissons Ratio (y) = 0.21516 0.17262
# Poissons Ratio (z) = 0.40598 0.08607
#
# Static dielectric constant tensor:
#      x y z
#    x 1.848230 0.000000 0.000000 
#    y 0.000000 1.926990 0.000000 
#    z 0.000000 0.000000 1.849180 
# 
# From -- ./inp_files/7229.got.cif
#   From: 2010.05.17/outbox.cif.g08.bks.cpg/sg30_4_cif.got.tgz:7229.got - 2010.06.03 17:03:02.
