data_PCOD9342082
_publ_section_title
;
Structure prediction by ZEFSAII (Michael W. Deem and Ramdas Pophale) SiO2 
 PCOD9342082
Probable space group: P N C 2
;
_chemical_formula_sum "Si O2"
_cell_formula_units_Z 26
_cell_length_a 9.197001
_cell_length_b 18.572325
_cell_length_c 5.597628
_cell_angle_alpha 90.000000
_cell_angle_beta 90.000000
_cell_angle_gamma 90.000000
_cell_volume 956.129112
_symmetry_space_group_name_H-M "P N C 2"
_symmetry_group_IT_number 30
_symmetry_cell_setting 'orthorhombic'
loop_
_space_group_symop_operation_xyz
x,y,z
-x,-y,z
-x,1/2+y,1/2+z
x,1/2-y,1/2+z
loop_
_atom_site_type_symbol
_atom_site_label
_atom_site_fract_x
_atom_site_fract_y
_atom_site_fract_z
Si Si1 0.227455 0.261432 0.870530
Si Si2 0.356945 0.096045 0.510592
Si Si3 0.129681 0.559087 0.757704
Si Si4 0.500000 0.000000 0.165327
Si Si5 0.508402 0.345589 0.408444
Si Si6 0.182097 0.789537 0.078512
Si Si7 0.829637 0.489884 0.261452
O O1 0.149567 0.242634 0.625307
O O2 0.282271 0.342885 0.857543
O O3 0.369801 0.209345 0.904578
O O4 0.500870 0.130948 0.627398
O O5 0.244973 0.066155 0.706352
O O6 0.382167 0.024946 0.362184
O O7 0.094927 0.638838 0.660970
O O8 0.221689 0.534413 0.522398
O O9 0.000000 0.500000 0.778525
O O10 0.183004 0.563774 0.033877
O O11 0.502578 0.925499 0.020609
O O12 0.644239 0.310206 0.545973
O O13 0.157772 0.737900 0.307586
O O14 0.000000 0.500000 0.289669
#
# Coordination Sequence:
#
# PCOD9342082 Si02
#       7
#     4   4   4   2   4   4   4
#     4  10  20  39  57  83 134 172 209 259 333 408
#     4  11  24  38  65  98 137 184 230 283 359 429
#     4  10  23  46  74 103 139 185 244 316 366 417
#     4  12  24  38  64 102 136 184 234 288 348 444
#     4  11  25  40  60 101 146 184 228 288 352 446
#     4  12  26  43  72 107 148 196 242 295 372 446
#     4  10  23  43  70 100 134 183 246 303 357 416
#
# _framework density 27.192979999999999
#
# number of rings (size 3 to 8) (size 9 to 14) (size 15 to 20)
#    0.000    1.231    1.538    4.154    8.615    0.000 
#    0.000    0.000    0.000   44.308    0.000    0.000 
#    0.000    0.000    0.000    0.000    0.000    0.000 
#
# Total GULP energy -144961.354340 kJ/mol
# GULP energy per Si atom -5575.436705 kJ/mol
# Density = 2.713109 g / cm^3
# Si number density = 27.192980 Si / 1000 Ang^3
#
#
#
# Elastic Constant Matrix: (Units=GPa)
#
#
# Indices 1 2 3 4 5 6 
#
# 1 73.9796 23.6493 28.1560 0.0000 0.0000 0.0000
# 2 23.6493 137.9411 41.4206 0.0000 0.0000 0.0000
# 3 28.1560 41.4206 215.2921 0.0000 0.0000 0.0000
# 4 0.0000 0.0000 0.0000 59.9491 0.0000 0.0000
# 5 0.0000 0.0000 0.0000 0.0000 18.2090 0.0000
# 6 0.0000 0.0000 0.0000 0.0000 0.0000 35.9314
#
#
#
# Elastic Compliance Matrix: (Units=1/GPa)
#
#
# Indices 1 2 3 4 5 6 
#
# 1 0.014762 -0.002071 -0.001532 0.000000 0.000000 0.000000
# 2 -0.002071 0.007984 -0.001265 0.000000 0.000000 0.000000
# 3 -0.001532 -0.001265 0.005089 0.000000 0.000000 0.000000
# 4 0.000000 0.000000 0.000000 0.016681 0.000000 0.000000
# 5 0.000000 0.000000 0.000000 0.000000 0.054918 0.000000
# 6 0.000000 0.000000 0.000000 0.000000 0.000000 0.027831
#
#
# Mechanical properties :
#
#
# Convention : Reuss Voigt Hill
#
# Bulk Modulus (GPa) = 55.25243 68.18494 61.71869
# Shear Modulus (GPa) = 34.95654 45.08370 40.02012
#
# Velocity S-wave (km/s) = 3.58928 4.07617 3.84045
# Velocity P-wave (km/s) = 6.12698 6.87622 6.51239
#
# Compressibility (1/GPa) = 0.01809875
#
# Stress axis : x y z
#
# Youngs Moduli (GPa) = 67.73973 125.24339 196.51481
#
# Poissons Ratio (x) = 0.25936 0.30110
# Poissons Ratio (y) = 0.14028 0.24865
# Poissons Ratio (z) = 0.10379 0.15847
#
# Static dielectric constant tensor:
#      x y z
#    x 2.330990 0.000000 0.000000 
#    y 0.000000 1.855140 0.000000 
#    z 0.000000 0.000000 2.343700 
# 
# From -- ./inp_files/707.got.cif
#   From: 2010.05.17/outbox.cif.g08.bks.cpg/sg30_1_cif.got.tgz:707.got - 2010.06.03 17:03:02.
