data_PCOD9342155
_publ_section_title
;
Structure prediction by ZEFSAII (Michael W. Deem and Ramdas Pophale) SiO2 
 PCOD9342155
Probable space group: P N C 2
;
_chemical_formula_sum "Si O2"
_cell_formula_units_Z 32
_cell_length_a 19.991726
_cell_length_b 7.328749
_cell_length_c 10.293501
_cell_angle_alpha 90.000000
_cell_angle_beta 90.000000
_cell_angle_gamma 90.000000
_cell_volume 1508.145525
_symmetry_space_group_name_H-M "P N C 2"
_symmetry_group_IT_number 30
_symmetry_cell_setting 'orthorhombic'
loop_
_space_group_symop_operation_xyz
x,y,z
-x,-y,z
-x,1/2+y,1/2+z
x,1/2-y,1/2+z
loop_
_atom_site_type_symbol
_atom_site_label
_atom_site_fract_x
_atom_site_fract_y
_atom_site_fract_z
Si Si1 0.425133 0.074052 0.359180
Si Si2 0.296753 0.041106 0.771154
Si Si3 0.796753 0.541106 0.035618
Si Si4 0.429733 0.397337 0.155961
Si Si5 0.284284 0.013238 0.286973
Si Si6 0.784284 0.986762 0.019800
Si Si7 0.929733 0.602663 0.150812
Si Si8 0.925133 0.574052 0.447592
O O1 0.433815 0.218254 0.243486
O O2 0.408706 0.143664 0.506402
O O3 0.360439 0.953514 0.318652
O O4 0.500000 0.000000 0.372992
O O5 0.250000 0.985280 0.653386
O O6 0.371392 0.991539 0.728867
O O7 0.292305 0.263898 0.780769
O O8 0.266633 0.969205 0.904227
O O9 0.792305 0.763898 0.026003
O O10 0.871392 0.491539 0.077906
O O11 0.766633 0.469205 0.902546
O O12 0.500000 0.500000 0.157379
O O13 0.250000 0.955143 0.153386
O O14 0.860439 0.046486 0.988120
O O15 0.908706 0.643664 0.300370
O O16 0.000000 0.500000 0.149393
O O17 0.933815 0.781746 0.063286
O O18 0.000000 0.500000 0.433780
#
# Coordination Sequence:
#
# PCOD9342155 Si02
#       8
#     4   4   4   4   4   4   4   4
#     4  10  21  36  53  77 108 137 170 213 258 307
#     4   9  15  28  48  73  98 127 167 213 257 290
#     4   9  15  28  48  73  98 127 167 213 257 290
#     4  10  21  35  53  78 106 138 172 211 259 309
#     4   9  17  28  48  76 100 129 168 217 255 295
#     4   9  17  28  48  76 100 129 168 217 255 295
#     4  10  21  35  53  78 106 138 172 211 259 309
#     4  10  21  36  53  77 108 137 170 213 258 307
#
# _framework density 21.218112000000001
#
# number of rings (size 3 to 8) (size 9 to 14) (size 15 to 20)
#    0.000    2.500    2.500    0.000   10.500    1.000 
#    0.000    0.000    0.000    3.000    0.000    0.000 
#    0.000    0.000    0.000    0.000    0.000    0.000 
#
# Total GULP energy -178328.552257 kJ/mol
# GULP energy per Si atom -5572.767258 kJ/mol
# Density = 2.116982 g / cm^3
# Si number density = 21.218112 Si / 1000 Ang^3
#
#
#
# Elastic Constant Matrix: (Units=GPa)
#
#
# Indices 1 2 3 4 5 6 
#
# 1 175.5403 -1.5618 77.7453 0.0000 0.0000 0.0000
# 2 -1.5618 30.0314 12.5397 0.0000 0.0000 0.0000
# 3 77.7453 12.5397 200.4299 0.0000 0.0000 0.0000
# 4 0.0000 0.0000 0.0000 -1.4435 0.0000 0.0000
# 5 0.0000 0.0000 0.0000 0.0000 120.9112 0.0000
# 6 0.0000 0.0000 0.0000 0.0000 0.0000 12.3296
#
#
#
# Elastic Compliance Matrix: (Units=1/GPa)
#
#
# Indices 1 2 3 4 5 6 
#
# 1 0.006946 0.001526 -0.002790 0.000000 0.000000 0.000000
# 2 0.001526 0.034527 -0.002752 0.000000 0.000000 0.000000
# 3 -0.002790 -0.002752 0.006244 0.000000 0.000000 0.000000
# 4 0.000000 0.000000 0.000000 -0.692770 0.000000 0.000000
# 5 0.000000 0.000000 0.000000 0.000000 0.008271 0.000000
# 6 0.000000 0.000000 0.000000 0.000000 0.000000 0.081106
#
#
# Mechanical properties :
#
#
# Convention : Reuss Voigt Hill
#
# Bulk Modulus (GPa) = 25.19849 64.82755 45.01302
# Shear Modulus (GPa) = -9.35598 47.51137 19.07770
#
# Velocity S-wave (km/s) = -2.10214 4.73714 3.00179
# Velocity P-wave (km/s) = 2.45147 7.78074 5.76843
#
# Compressibility (1/GPa) = 0.03968492
#
# Stress axis : x y z
#
# Youngs Moduli (GPa) = 143.97166 28.96284 160.16496
#
# Poissons Ratio (x) = -0.04420 0.44681
# Poissons Ratio (y) = -0.21971 0.44079
# Poissons Ratio (z) = 0.40164 0.07971
#
# Static dielectric constant tensor:
#      x y z
#    x 1.873400 0.000000 0.000000 
#    y 0.000000 1.827270 0.000000 
#    z 0.000000 0.000000 1.747520 
# 
# From -- ./inp_files/2791.got.cif
#   From: 2010.05.17/outbox.cif.g08.bks.cpg/sg30_2_cif.got.tgz:2791.got - 2010.06.03 17:03:02.
