data_PCOD9342705
_publ_section_title
;
Structure prediction by ZEFSAII (Michael W. Deem and Ramdas Pophale) SiO2 
 PCOD9342705
Probable space group: P M N 21
;
_chemical_formula_sum "Si O2"
_cell_formula_units_Z 24
_cell_length_a 22.998402
_cell_length_b 6.188379
_cell_length_c 7.116737
_cell_angle_alpha 90.000000
_cell_angle_beta 90.000000
_cell_angle_gamma 90.000000
_cell_volume 1012.874136
_symmetry_space_group_name_H-M "P M N 21"
_symmetry_group_IT_number 31
_symmetry_cell_setting 'orthorhombic'
loop_
_space_group_symop_operation_xyz
x,y,z
1/2-x,-y,1/2+z
-x,y,z
1/2+x,-y,1/2+z
loop_
_atom_site_type_symbol
_atom_site_label
_atom_site_fract_x
_atom_site_fract_y
_atom_site_fract_z
Si Si1 0.563890 0.130664 0.762350
Si Si2 0.732056 0.750000 0.060410
Si Si3 0.673602 0.095316 0.283941
Si Si4 0.118743 0.249999 0.060408
Si Si5 0.326398 0.404686 0.836877
Si Si6 0.936110 0.630663 0.858466
O O1 0.500000 0.141790 0.851476
O O2 0.580889 0.886129 0.709060
O O3 0.617140 0.255047 0.857612
O O4 0.559978 0.250001 0.560409
O O5 0.773210 0.777699 0.879195
O O6 0.843369 0.417942 0.178252
O O7 0.693672 0.960818 0.103119
O O8 0.693671 0.539185 0.017700
O O9 0.773210 0.722297 0.241625
O O10 0.617140 0.244953 0.263205
O O11 0.656631 0.917944 0.442565
O O12 0.080890 0.386128 0.911755
O O13 0.000000 0.641788 0.769341
#
# Coordination Sequence:
#
# PCOD9342705 Si02
#       6
#     4   4   4   4   4   4
#     4   9  18  35  61  93 127 165 219 269 320 392
#     4  12  24  42  64  92 134 172 220 270 326 398
#     4  11  23  40  61  95 126 172 218 272 325 385
#     4  10  17  38  62  96 122 168 219 262 334 378
#     4  11  23  40  61  95 126 172 218 272 325 385
#     4   9  18  35  61  93 127 165 219 269 320 392
#
# _framework density 23.694945000000001
#
# number of rings (size 3 to 8) (size 9 to 14) (size 15 to 20)
#    0.000    1.667    5.000    2.500    0.000    1.333 
#    0.000    0.833    0.000    2.000    0.000    0.000 
#    0.000    0.000    0.000    0.000    0.000    0.000 
#
# Total GULP energy -134288.648467 kJ/mol
# GULP energy per Si atom -5595.360353 kJ/mol
# Density = 2.364101 g / cm^3
# Si number density = 23.694945 Si / 1000 Ang^3
#
#
#
# Elastic Constant Matrix: (Units=GPa)
#
#
# Indices 1 2 3 4 5 6 
#
# 1 209.0346 84.6474 48.9877 0.0000 0.0000 0.0000
# 2 84.6474 111.0997 24.0499 0.0000 0.0000 0.0000
# 3 48.9877 24.0499 79.4181 0.0000 0.0000 0.0000
# 4 0.0000 0.0000 0.0000 49.6692 0.0000 0.0000
# 5 0.0000 0.0000 0.0000 0.0000 3.2123 0.0000
# 6 0.0000 0.0000 0.0000 0.0000 0.0000 19.1932
#
#
#
# Elastic Compliance Matrix: (Units=1/GPa)
#
#
# Indices 1 2 3 4 5 6 
#
# 1 0.007583 -0.005099 -0.003133 0.000000 0.000000 0.000000
# 2 -0.005099 0.013061 -0.000810 0.000000 0.000000 0.000000
# 3 -0.003133 -0.000810 0.014770 0.000000 0.000000 0.000000
# 4 0.000000 0.000000 0.000000 0.020133 0.000000 0.000000
# 5 0.000000 0.000000 0.000000 0.000000 0.311301 0.000000
# 6 0.000000 0.000000 0.000000 0.000000 0.000000 0.052102
#
#
# Mechanical properties :
#
#
# Convention : Reuss Voigt Hill
#
# Bulk Modulus (GPa) = 57.70661 79.43582 68.57121
# Shear Modulus (GPa) = 11.29148 30.53944 20.91546
#
# Velocity S-wave (km/s) = 2.18534 3.59396 2.97424
# Velocity P-wave (km/s) = 5.54747 7.12876 6.38724
#
# Compressibility (1/GPa) = 0.01732904
#
# Stress axis : x y z
#
# Youngs Moduli (GPa) = 131.87115 76.56097 67.70677
#
# Poissons Ratio (x) = 0.39041 0.21215
# Poissons Ratio (y) = 0.67246 0.05484
# Poissons Ratio (z) = 0.41319 0.06201
#
# Static dielectric constant tensor:
#      x y z
#    x 1.891270 0.000000 0.000000 
#    y 0.000000 1.929000 0.000000 
#    z 0.000000 0.000000 1.924850 
# 
# From -- ./inp_files/5406.got.cif
#   From: 2010.05.17/outbox.cif.g08.bks.cpg/sg31_3_cif.got.tgz:5406.got - 2010.06.03 17:08:30.
