data_PCOD9342888
_publ_section_title
;
Structure prediction by ZEFSAII (Michael W. Deem and Ramdas Pophale) SiO2 
 PCOD9342888
Probable space group: P M N 21
;
_chemical_formula_sum "Si O2"
_cell_formula_units_Z 32
_cell_length_a 7.596017
_cell_length_b 12.774737
_cell_length_c 14.501525
_cell_angle_alpha 90.000000
_cell_angle_beta 90.000000
_cell_angle_gamma 90.000000
_cell_volume 1407.186213
_symmetry_space_group_name_H-M "P M N 21"
_symmetry_group_IT_number 31
_symmetry_cell_setting 'orthorhombic'
loop_
_space_group_symop_operation_xyz
x,y,z
1/2-x,-y,1/2+z
-x,y,z
1/2+x,-y,1/2+z
loop_
_atom_site_type_symbol
_atom_site_label
_atom_site_fract_x
_atom_site_fract_y
_atom_site_fract_z
Si Si1 0.713578 0.407668 0.869560
Si Si2 0.294661 0.344250 0.574236
Si Si3 0.289938 0.174720 0.837877
Si Si4 0.298672 0.426013 0.085718
Si Si5 0.714752 0.638494 0.859652
Si Si6 0.196965 0.236798 0.196775
Si Si7 0.712613 0.916213 0.539265
Si Si8 0.715275 0.120295 0.642088
O O1 0.500000 0.407640 0.861272
O O2 0.778140 0.295145 0.834212
O O3 0.773280 0.520582 0.831354
O O4 0.754860 0.412488 0.978885
O O5 0.500000 0.350558 0.598535
O O6 0.212375 0.451964 0.608978
O O7 0.271980 0.343983 0.464164
O O8 0.224900 0.235525 0.612627
O O9 0.500000 0.183469 0.828847
O O10 0.230000 0.108315 0.749066
O O11 0.258446 0.123142 0.937316
O O12 0.500000 0.390926 0.093764
O O13 0.186823 0.349922 0.148076
O O14 0.500000 0.639357 0.857494
O O15 0.780863 0.731169 0.793709
O O16 0.278132 0.161684 0.120050
O O17 0.000000 0.195350 0.215850
O O18 0.500000 0.913344 0.541832
O O19 0.773419 0.030728 0.571485
O O20 0.500000 0.118736 0.638439
#
# Coordination Sequence:
#
# PCOD9342888 Si02
#       8
#     4   4   4   4   4   4   4   4
#     4   8  15  29  51  76 106 140 180 221 267 321
#     4  10  20  36  56  80 110 148 191 231 278 337
#     4  10  19  36  60  83 105 147 193 226 271 338
#     4  10  19  33  53  80 115 146 179 232 283 328
#     4   9  19  34  53  82 118 153 183 228 284 335
#     4  10  20  33  55  82 112 151 190 224 275 340
#     4  10  21  39  57  83 117 146 183 238 283 319
#     4   9  21  38  59  82 111 149 189 230 279 332
#
# _framework density 22.740417000000001
#
# number of rings (size 3 to 8) (size 9 to 14) (size 15 to 20)
#    0.000    2.500    1.250    1.500    1.750    1.500 
#    0.000    4.375    0.000    0.000    0.000    0.000 
#    0.000    0.000    0.000    0.000    0.000    0.000 
#
# Total GULP energy -178597.887333 kJ/mol
# GULP energy per Si atom -5581.183979 kJ/mol
# Density = 2.268866 g / cm^3
# Si number density = 22.740417 Si / 1000 Ang^3
#
#
#
# Elastic Constant Matrix: (Units=GPa)
#
#
# Indices 1 2 3 4 5 6 
#
# 1 48.1588 -6.7216 -8.6640 0.0000 0.0000 0.0000
# 2 -6.7216 96.4372 32.0713 0.0000 0.0000 0.0000
# 3 -8.6640 32.0713 73.1107 0.0000 0.0000 0.0000
# 4 0.0000 0.0000 0.0000 28.4843 0.0000 0.0000
# 5 0.0000 0.0000 0.0000 0.0000 18.8045 0.0000
# 6 0.0000 0.0000 0.0000 0.0000 0.0000 10.8420
#
#
#
# Elastic Compliance Matrix: (Units=1/GPa)
#
#
# Indices 1 2 3 4 5 6 
#
# 1 0.021264 0.000754 0.002189 0.000000 0.000000 0.000000
# 2 0.000754 0.012167 -0.005248 0.000000 0.000000 0.000000
# 3 0.002189 -0.005248 0.016239 0.000000 0.000000 0.000000
# 4 0.000000 0.000000 0.000000 0.035107 0.000000 0.000000
# 5 0.000000 0.000000 0.000000 0.000000 0.053179 0.000000
# 6 0.000000 0.000000 0.000000 0.000000 0.000000 0.092234
#
#
# Mechanical properties :
#
#
# Convention : Reuss Voigt Hill
#
# Bulk Modulus (GPa) = 22.19231 27.89756 25.04493
# Shear Modulus (GPa) = 20.01438 25.02755 22.52096
#
# Velocity S-wave (km/s) = 2.96991 3.32109 3.15040
# Velocity P-wave (km/s) = 4.64119 5.19622 4.92652
#
# Compressibility (1/GPa) = 0.04506066
#
# Stress axis : x y z
#
# Youngs Moduli (GPa) = 47.02845 82.18756 61.57850
#
# Poissons Ratio (x) = -0.06197 -0.13480
# Poissons Ratio (y) = -0.03546 0.32317
# Poissons Ratio (z) = -0.10295 0.43132
#
# Static dielectric constant tensor:
#      x y z
#    x 1.861630 0.000000 0.000000 
#    y 0.000000 1.843540 0.000000 
#    z 0.000000 0.000000 1.846800 
# 
# From -- ./inp_files/5036.got.cif
#   From: 2010.05.17/outbox.cif.g08.bks.cpg/sg31_3_cif.got.tgz:5036.got - 2010.06.03 17:08:30.
