data_PCOD9342239
_publ_section_title
;
Structure prediction by ZEFSAII (Michael W. Deem and Ramdas Pophale) SiO2 
 PCOD9342239
Probable space group: P N C 2
;
_chemical_formula_sum "Si O2"
_cell_formula_units_Z 30
_cell_length_a 16.989617
_cell_length_b 6.339667
_cell_length_c 13.802353
_cell_angle_alpha 90.000000
_cell_angle_beta 90.000000
_cell_angle_gamma 90.000000
_cell_volume 1486.630935
_symmetry_space_group_name_H-M "P N C 2"
_symmetry_group_IT_number 30
_symmetry_cell_setting 'orthorhombic'
loop_
_space_group_symop_operation_xyz
x,y,z
-x,-y,z
-x,1/2+y,1/2+z
x,1/2-y,1/2+z
loop_
_atom_site_type_symbol
_atom_site_label
_atom_site_fract_x
_atom_site_fract_y
_atom_site_fract_z
Si Si1 0.592797 0.984280 0.014950
Si Si2 0.073125 0.370704 0.225024
Si Si3 0.000000 0.500000 0.852533
Si Si4 0.701494 0.258751 0.368611
Si Si5 0.292789 0.776957 0.144650
Si Si6 0.118187 0.652740 0.409399
Si Si7 0.831565 0.615743 0.570626
Si Si8 0.302587 0.394993 0.995722
O O1 0.621793 0.744450 0.019068
O O2 0.500000 0.000000 0.006778
O O3 0.629422 0.100019 0.108649
O O4 0.639442 0.096226 0.925826
O O5 0.104207 0.527630 0.308907
O O6 0.131929 0.283443 0.144531
O O7 0.000000 0.500000 0.180168
O O8 0.044507 0.165142 0.283552
O O9 0.937168 0.358058 0.910669
O O10 0.702089 0.291267 0.254951
O O11 0.789596 0.293025 0.409035
O O12 0.684935 0.015784 0.395436
O O13 0.287681 0.573767 0.075977
O O14 0.219784 0.937635 0.126746
O O15 0.105844 0.502162 0.502029
O O16 0.771524 0.739090 0.499989
#
# Coordination Sequence:
#
# PCOD9342239 Si02
#       8
#     4   4   2   4   4   4   4   4
#     4  10  23  44  61  99 140 166 221 269 325 402
#     4  10  24  45  62  92 130 172 220 284 337 394
#     4  10  24  44  60  88 130 170 216 296 332 394
#     4  11  22  41  68  96 127 174 224 263 334 397
#     4  10  22  39  65  99 125 177 224 267 329 389
#     4  11  22  42  67  94 126 171 227 278 340 400
#     4  11  22  40  67  98 124 171 227 270 330 409
#     4  10  21  41  66  94 129 171 211 274 320 385
#
# _framework density 20.179859
#
# number of rings (size 3 to 8) (size 9 to 14) (size 15 to 20)
#    0.000    1.600    4.000    1.600    3.733    5.333 
#    9.600    0.000    0.000    0.000    0.000    0.000 
#    0.000    0.000    0.000    0.000    0.000    0.000 
#
# Total GULP energy -167585.449166 kJ/mol
# GULP energy per Si atom -5586.181639 kJ/mol
# Density = 2.013393 g / cm^3
# Si number density = 20.179859 Si / 1000 Ang^3
#
#
#
# Elastic Constant Matrix: (Units=GPa)
#
#
# Indices 1 2 3 4 5 6 
#
# 1 126.1333 52.4681 31.8997 0.0000 0.0000 0.0000
# 2 52.4681 111.9692 18.2158 0.0000 0.0000 0.0000
# 3 31.8997 18.2158 84.3275 0.0000 0.0000 0.0000
# 4 0.0000 0.0000 0.0000 17.5237 0.0000 0.0000
# 5 0.0000 0.0000 0.0000 0.0000 16.3649 0.0000
# 6 0.0000 0.0000 0.0000 0.0000 0.0000 19.0498
#
#
#
# Elastic Compliance Matrix: (Units=1/GPa)
#
#
# Indices 1 2 3 4 5 6 
#
# 1 0.010544 -0.004448 -0.003028 0.000000 0.000000 0.000000
# 2 -0.004448 0.011133 -0.000722 0.000000 0.000000 0.000000
# 3 -0.003028 -0.000722 0.013160 0.000000 0.000000 0.000000
# 4 0.000000 0.000000 0.000000 0.057066 0.000000 0.000000
# 5 0.000000 0.000000 0.000000 0.000000 0.061106 0.000000
# 6 0.000000 0.000000 0.000000 0.000000 0.000000 0.052494
#
#
# Mechanical properties :
#
#
# Convention : Reuss Voigt Hill
#
# Bulk Modulus (GPa) = 54.22844 58.62191 56.42518
# Shear Modulus (GPa) = 21.92533 25.24410 23.58472
#
# Velocity S-wave (km/s) = 3.29978 3.54072 3.42237
# Velocity P-wave (km/s) = 6.43809 6.76967 6.60596
#
# Compressibility (1/GPa) = 0.01844051
#
# Stress axis : x y z
#
# Youngs Moduli (GPa) = 94.83804 89.82305 75.98853
#
# Poissons Ratio (x) = 0.39957 0.23008
# Poissons Ratio (y) = 0.42188 0.05487
# Poissons Ratio (z) = 0.28715 0.06486
#
# Static dielectric constant tensor:
#      x y z
#    x 1.721220 0.000000 0.000000 
#    y 0.000000 1.743990 0.000000 
#    z 0.000000 0.000000 1.713040 
# 
# From -- ./inp_files/5656.got.cif
#   From: 2010.05.17/outbox.cif.g08.bks.cpg/sg30_3_cif.got.tgz:5656.got - 2010.06.03 17:03:02.
