data_PCOD9342722
_publ_section_title
;
Structure prediction by ZEFSAII (Michael W. Deem and Ramdas Pophale) SiO2 
 PCOD9342722
Probable space group: P M N 21
;
_chemical_formula_sum "Si O2"
_cell_formula_units_Z 24
_cell_length_a 8.786923
_cell_length_b 8.032735
_cell_length_c 14.475027
_cell_angle_alpha 90.000000
_cell_angle_beta 90.000000
_cell_angle_gamma 90.000000
_cell_volume 1021.691177
_symmetry_space_group_name_H-M "P M N 21"
_symmetry_group_IT_number 31
_symmetry_cell_setting 'orthorhombic'
loop_
_space_group_symop_operation_xyz
x,y,z
1/2-x,-y,1/2+z
-x,y,z
1/2+x,-y,1/2+z
loop_
_atom_site_type_symbol
_atom_site_label
_atom_site_fract_x
_atom_site_fract_y
_atom_site_fract_z
Si Si1 0.317591 0.611311 0.495710
Si Si2 0.819078 0.424634 0.331698
Si Si3 0.822290 0.109078 0.776125
Si Si4 0.819620 0.714611 0.114082
Si Si5 0.315085 0.105896 0.437293
Si Si6 0.820583 0.761088 0.664226
O O1 0.500000 0.622464 0.488709
O O2 0.251657 0.571695 0.394461
O O3 0.272446 0.447984 0.556953
O O4 0.256006 0.753767 0.563574
O O5 0.770451 0.257993 0.387727
O O6 0.753005 0.379143 0.231143
O O7 0.000000 0.443133 0.326400
O O8 0.772940 0.058221 0.879608
O O9 0.802813 0.936271 0.718014
O O10 0.000000 0.149370 0.780045
O O11 0.743244 0.247510 0.714552
O O12 0.000000 0.704027 0.122496
O O13 0.782052 0.867460 0.044645
O O14 0.500000 0.127579 0.425557
O O15 0.000000 0.729430 0.655080
#
# Coordination Sequence:
#
# PCOD9342722 Si02
#       6
#     4   4   4   4   4   4
#     4  10  20  35  53  75 102 134 170 210 251 297
#     4  10  18  30  51  76  99 130 168 206 250 304
#     4   9  18  32  51  73  99 129 164 204 247 294
#     4   9  18  32  51  73  99 129 164 204 247 294
#     4   8  16  32  49  68  97 132 166 202 242 294
#     4  10  20  35  53  75 102 134 170 210 251 297
#
# _framework density 23.490462000000001
#
# number of rings (size 3 to 8) (size 9 to 14) (size 15 to 20)
#    0.000    2.667    0.000    4.500    0.000    6.667 
#    0.000    1.667    0.000    8.000    0.000    0.000 
#    0.000    0.000    0.000    0.000    0.000    0.000 
#
# Total GULP energy -134074.515189 kJ/mol
# GULP energy per Si atom -5586.438133 kJ/mol
# Density = 2.343700 g / cm^3
# Si number density = 23.490462 Si / 1000 Ang^3
#
#
#
# Elastic Constant Matrix: (Units=GPa)
#
#
# Indices 1 2 3 4 5 6 
#
# 1 27.6537 14.0147 33.9971 0.0000 0.0000 0.0000
# 2 14.0147 71.8784 13.8639 0.0000 0.0000 0.0000
# 3 33.9971 13.8639 167.4725 0.0000 0.0000 0.0000
# 4 0.0000 0.0000 0.0000 43.9231 0.0000 0.0000
# 5 0.0000 0.0000 0.0000 0.0000 -99.6651 0.0000
# 6 0.0000 0.0000 0.0000 0.0000 0.0000 -56.3561
#
#
#
# Elastic Compliance Matrix: (Units=1/GPa)
#
#
# Indices 1 2 3 4 5 6 
#
# 1 0.052691 -0.008344 -0.010006 0.000000 0.000000 0.000000
# 2 -0.008344 0.015459 0.000414 0.000000 0.000000 0.000000
# 3 -0.010006 0.000414 0.007968 0.000000 0.000000 0.000000
# 4 0.000000 0.000000 0.000000 0.022767 0.000000 0.000000
# 5 0.000000 0.000000 0.000000 0.000000 -0.010034 0.000000
# 6 0.000000 0.000000 0.000000 0.000000 0.000000 -0.017744
#
#
# Mechanical properties :
#
#
# Convention : Reuss Voigt Hill
#
# Bulk Modulus (GPa) = 24.84617 43.41736 34.13177
# Shear Modulus (GPa) = 41.53042 -8.74436 16.39303
#
# Velocity S-wave (km/s) = 4.20928 -1.93147 2.64457
# Velocity P-wave (km/s) = 5.85015 3.68089 4.88739
#
# Compressibility (1/GPa) = 0.04024765
#
# Stress axis : x y z
#
# Youngs Moduli (GPa) = 18.97865 64.68574 125.50198
#
# Poissons Ratio (x) = 0.53972 1.25572
# Poissons Ratio (y) = 0.15835 -0.05196
# Poissons Ratio (z) = 0.18989 -0.02678
#
# Static dielectric constant tensor:
#      x y z
#    x 1.787640 0.000000 0.000000 
#    y 0.000000 2.090080 0.000000 
#    z 0.000000 0.000000 1.897550 
# 
# From -- ./inp_files/3458.got.cif
#   From: 2010.05.17/outbox.cif.g08.bks.cpg/sg31_2_cif.got.tgz:3458.got - 2010.06.03 17:08:30.
