data_PCOD9342447
_publ_section_title
;
Structure prediction by ZEFSAII (Michael W. Deem and Ramdas Pophale) SiO2 
 PCOD9342447
Probable space group: P N C 2
;
_chemical_formula_sum "Si O2"
_cell_formula_units_Z 24
_cell_length_a 8.358254
_cell_length_b 16.067309
_cell_length_c 9.222656
_cell_angle_alpha 90.000000
_cell_angle_beta 90.000000
_cell_angle_gamma 90.000000
_cell_volume 1238.553357
_symmetry_space_group_name_H-M "P N C 2"
_symmetry_group_IT_number 30
_symmetry_cell_setting 'orthorhombic'
loop_
_space_group_symop_operation_xyz
x,y,z
-x,-y,z
-x,1/2+y,1/2+z
x,1/2-y,1/2+z
loop_
_atom_site_type_symbol
_atom_site_label
_atom_site_fract_x
_atom_site_fract_y
_atom_site_fract_z
Si Si1 0.735732 0.160971 0.274680
Si Si2 0.615061 0.577824 0.140523
Si Si3 0.814129 0.978984 0.363540
Si Si4 0.754087 0.816333 0.867760
Si Si5 0.445256 0.756398 0.529246
Si Si6 0.900351 0.826947 0.171868
O O1 0.690892 0.214082 0.416909
O O2 0.619110 0.192069 0.147912
O O3 0.915919 0.174930 0.220452
O O4 0.726007 0.063480 0.315064
O O5 0.500000 0.500000 0.163526
O O6 0.719010 0.599242 0.281627
O O7 0.511408 0.660138 0.105624
O O8 0.726632 0.559331 0.002375
O O9 0.821743 0.910717 0.236588
O O10 0.000000 0.000000 0.398317
O O11 0.813965 0.750218 0.749349
O O12 0.590792 0.783387 0.939980
O O13 0.877204 0.823515 0.000079
#
# Coordination Sequence:
#
# PCOD9342447 Si02
#       6
#     4   4   4   4   4   4
#     4  11  24  41  67  95 132 167 219 271 325 388
#     4  12  24  41  65  96 129 171 214 271 333 389
#     4  10  23  43  66  94 129 173 217 265 332 388
#     4  12  23  41  66  94 130 169 222 261 326 394
#     4  12  22  41  65  97 128 168 219 270 321 392
#     4  11  22  42  65  94 128 177 214 266 325 390
#
# _framework density 19.377445999999999
#
# number of rings (size 3 to 8) (size 9 to 14) (size 15 to 20)
#    0.000    0.667    6.667    1.000    0.000    2.667 
#    0.000    2.500    0.000    0.000    0.000    0.000 
#    0.000    0.000    0.000    0.000    0.000    0.000 
#
# Total GULP energy -134209.153171 kJ/mol
# GULP energy per Si atom -5592.048049 kJ/mol
# Density = 1.933334 g / cm^3
# Si number density = 19.377446 Si / 1000 Ang^3
#
#
#
# Elastic Constant Matrix: (Units=GPa)
#
#
# Indices 1 2 3 4 5 6 
#
# 1 47.4608 20.8265 26.3955 0.0000 0.0000 0.0000
# 2 20.8265 58.0124 13.4802 0.0000 0.0000 0.0000
# 3 26.3955 13.4802 102.0630 0.0000 0.0000 0.0000
# 4 0.0000 0.0000 0.0000 39.7870 0.0000 0.0000
# 5 0.0000 0.0000 0.0000 0.0000 36.4739 0.0000
# 6 0.0000 0.0000 0.0000 0.0000 0.0000 33.7983
#
#
#
# Elastic Compliance Matrix: (Units=1/GPa)
#
#
# Indices 1 2 3 4 5 6 
#
# 1 0.028339 -0.008739 -0.006175 0.000000 0.000000 0.000000
# 2 -0.008739 0.020478 -0.000445 0.000000 0.000000 0.000000
# 3 -0.006175 -0.000445 0.011454 0.000000 0.000000 0.000000
# 4 0.000000 0.000000 0.000000 0.025134 0.000000 0.000000
# 5 0.000000 0.000000 0.000000 0.000000 0.027417 0.000000
# 6 0.000000 0.000000 0.000000 0.000000 0.000000 0.029587
#
#
# Mechanical properties :
#
#
# Convention : Reuss Voigt Hill
#
# Bulk Modulus (GPa) = 33.83632 36.54896 35.19264
# Shear Modulus (GPa) = 27.32588 31.80077 29.56332
#
# Velocity S-wave (km/s) = 3.75932 4.05547 3.91020
# Velocity P-wave (km/s) = 6.02851 6.38997 6.21187
#
# Compressibility (1/GPa) = 0.02955404
#
# Stress axis : x y z
#
# Youngs Moduli (GPa) = 35.28722 48.83221 87.30941
#
# Poissons Ratio (x) = 0.42674 0.53912
# Poissons Ratio (y) = 0.30837 0.03882
# Poissons Ratio (z) = 0.21789 0.02171
#
# Static dielectric constant tensor:
#      x y z
#    x 1.679680 0.000000 0.000000 
#    y 0.000000 1.662030 0.000000 
#    z 0.000000 0.000000 1.660630 
# 
# From -- ./inp_files/1816.got.cif
#   From: 2010.05.17/outbox.cif.g08.bks.cpg/sg30_1_cif.got.tgz:1816.got - 2010.06.03 17:03:02.
