data_PCOD9342589
_publ_section_title
;
Structure prediction by ZEFSAII (Michael W. Deem and Ramdas Pophale) SiO2 
 PCOD9342589
Probable space group: P N C 2
;
_chemical_formula_sum "Si O2"
_cell_formula_units_Z 16
_cell_length_a 7.591286
_cell_length_b 9.757614
_cell_length_c 8.473192
_cell_angle_alpha 90.000000
_cell_angle_beta 90.000000
_cell_angle_gamma 90.000000
_cell_volume 627.633383
_symmetry_space_group_name_H-M "P N C 2"
_symmetry_group_IT_number 30
_symmetry_cell_setting 'orthorhombic'
loop_
_space_group_symop_operation_xyz
x,y,z
-x,-y,z
-x,1/2+y,1/2+z
x,1/2-y,1/2+z
loop_
_atom_site_type_symbol
_atom_site_label
_atom_site_fract_x
_atom_site_fract_y
_atom_site_fract_z
Si Si1 0.254783 0.124174 0.789460
Si Si2 0.346438 0.661096 0.167625
Si Si3 0.884404 0.867631 0.129222
Si Si4 0.681613 0.435812 0.810537
O O1 0.450796 0.166901 0.728140
O O2 0.108728 0.210663 0.692391
O O3 0.251599 0.962278 0.757287
O O4 0.238824 0.148537 0.975433
O O5 0.264193 0.808943 0.201213
O O6 0.341013 0.621661 0.984772
O O7 0.811185 0.938326 0.289983
O O8 0.000000 0.000000 0.073436
O O9 0.500000 0.500000 0.752497
#
# Coordination Sequence:
#
# PCOD9342589 Si02
#       4
#     4   4   4   4
#     4  11  23  45  72 103 144 190 246 301 363 430
#     4  11  23  42  76 111 137 188 249 316 360 418
#     4  12  28  46  72 108 153 200 238 303 377 457
#     4  12  23  42  72 109 141 190 249 306 363 429
#
# _framework density 25.492588999999999
#
# number of rings (size 3 to 8) (size 9 to 14) (size 15 to 20)
#    0.000    0.500    5.000    4.500    3.500    4.000 
#    0.000    2.500    0.000    0.000    0.000    0.000 
#    0.000    0.000    0.000    0.000    0.000    0.000 
#
# Total GULP energy -89328.471317 kJ/mol
# GULP energy per Si atom -5583.029457 kJ/mol
# Density = 2.543457 g / cm^3
# Si number density = 25.492589 Si / 1000 Ang^3
#
#
#
# Elastic Constant Matrix: (Units=GPa)
#
#
# Indices 1 2 3 4 5 6 
#
# 1 34.8702 6.3765 25.4362 0.0000 0.0000 0.0000
# 2 6.3765 168.2247 43.2568 0.0000 0.0000 0.0000
# 3 25.4362 43.2568 125.0307 0.0000 0.0000 0.0000
# 4 0.0000 0.0000 0.0000 43.3685 0.0000 0.0000
# 5 0.0000 0.0000 0.0000 0.0000 -9.1448 0.0000
# 6 0.0000 0.0000 0.0000 0.0000 0.0000 19.4926
#
#
#
# Elastic Compliance Matrix: (Units=1/GPa)
#
#
# Indices 1 2 3 4 5 6 
#
# 1 0.033719 0.000533 -0.007044 0.000000 0.000000 0.000000
# 2 0.000533 0.006533 -0.002369 0.000000 0.000000 0.000000
# 3 -0.007044 -0.002369 0.010251 0.000000 0.000000 0.000000
# 4 0.000000 0.000000 0.000000 0.023058 0.000000 0.000000
# 5 0.000000 0.000000 0.000000 0.000000 -0.109351 0.000000
# 6 0.000000 0.000000 0.000000 0.000000 0.000000 0.051302
#
#
# Mechanical properties :
#
#
# Convention : Reuss Voigt Hill
#
# Bulk Modulus (GPa) = 30.54080 53.14052 41.84066
# Shear Modulus (GPa) = 113.16050 27.61365 70.38707
#
# Velocity S-wave (km/s) = 6.66978 3.29478 5.26030
# Velocity P-wave (km/s) = 8.44517 5.94683 7.30362
#
# Compressibility (1/GPa) = 0.03274308
#
# Stress axis : x y z
#
# Youngs Moduli (GPa) = 29.65716 153.06135 97.55483
#
# Poissons Ratio (x) = -0.08162 0.68720
# Poissons Ratio (y) = -0.01581 0.23109
# Poissons Ratio (z) = 0.20891 0.36257
#
# Static dielectric constant tensor:
#      x y z
#    x 2.230500 0.000000 0.000000 
#    y 0.000000 2.162520 0.000000 
#    z 0.000000 0.000000 1.911150 
# 
# From -- ./inp_files/1564.got.cif
#   From: 2010.05.17/outbox.cif.g08.bks.cpg/sg30_1_cif.got.tgz:1564.got - 2010.06.03 17:03:02.
