data_PCOD9342238
_publ_section_title
;
Structure prediction by ZEFSAII (Michael W. Deem and Ramdas Pophale) SiO2 
 PCOD9342238
Probable space group: P N C 2
;
_chemical_formula_sum "Si O2"
_cell_formula_units_Z 24
_cell_length_a 6.693686
_cell_length_b 15.871917
_cell_length_c 10.398983
_cell_angle_alpha 90.000000
_cell_angle_beta 90.000000
_cell_angle_gamma 90.000000
_cell_volume 1104.804890
_symmetry_space_group_name_H-M "P N C 2"
_symmetry_group_IT_number 30
_symmetry_cell_setting 'orthorhombic'
loop_
_space_group_symop_operation_xyz
x,y,z
-x,-y,z
-x,1/2+y,1/2+z
x,1/2-y,1/2+z
loop_
_atom_site_type_symbol
_atom_site_label
_atom_site_fract_x
_atom_site_fract_y
_atom_site_fract_z
Si Si1 0.000000 0.000000 0.125000
Si Si2 0.862063 0.127393 0.336309
Si Si3 0.429524 0.713625 0.646933
Si Si4 0.280527 0.100426 0.982648
Si Si5 0.254257 0.138802 0.692170
Si Si6 0.986757 0.251059 0.532217
Si Si7 0.000000 0.000000 0.537623
O O1 0.964179 0.079094 0.218266
O O2 0.195798 0.013731 0.038444
O O3 0.667147 0.174555 0.278317
O O4 0.008399 0.192161 0.407731
O O5 0.852572 0.055934 0.446943
O O6 0.554454 0.641610 0.573971
O O7 0.558739 0.799611 0.656901
O O8 0.243264 0.736195 0.558364
O O9 0.315758 0.103518 0.831419
O O10 0.094634 0.163768 0.997988
O O11 0.079084 0.206728 0.658349
O O12 0.152946 0.059175 0.617779
#
# Coordination Sequence:
#
# PCOD9342238 Si02
#       7
#     2   4   4   4   4   4   2
#     4  11  23  42  62  94 131 175 216 276 346 385
#     4  10  21  42  67  93 132 171 228 275 336 404
#     4  11  22  40  65 102 126 173 226 274 334 407
#     4  11  23  38  65  94 132 175 219 273 337 405
#     4  10  22  41  68  96 133 174 228 275 338 406
#     4  10  21  41  66  94 126 175 221 276 330 396
#     4   9  21  44  70  98 135 187 220 292 354 387
#
# _framework density 21.723292000000001
#
# number of rings (size 3 to 8) (size 9 to 14) (size 15 to 20)
#    0.000    1.667    1.667    2.500    2.333    0.667 
#    9.000    2.500    7.333    0.000    0.000    0.000 
#    0.000    0.000    0.000    0.000    0.000    0.000 
#
# Total GULP energy -133637.784692 kJ/mol
# GULP energy per Si atom -5568.241029 kJ/mol
# Density = 2.167385 g / cm^3
# Si number density = 21.723292 Si / 1000 Ang^3
#
#
#
# Elastic Constant Matrix: (Units=GPa)
#
#
# Indices 1 2 3 4 5 6 
#
# 1 73.3109 14.3340 9.8559 0.0000 0.0000 0.0000
# 2 14.3340 70.3953 26.1396 0.0000 0.0000 0.0000
# 3 9.8559 26.1396 90.0667 0.0000 0.0000 0.0000
# 4 0.0000 0.0000 0.0000 30.8658 0.0000 0.0000
# 5 0.0000 0.0000 0.0000 0.0000 16.5682 0.0000
# 6 0.0000 0.0000 0.0000 0.0000 0.0000 26.0375
#
#
#
# Elastic Compliance Matrix: (Units=1/GPa)
#
#
# Indices 1 2 3 4 5 6 
#
# 1 0.014258 -0.002605 -0.000804 0.000000 0.000000 0.000000
# 2 -0.002605 0.016397 -0.004474 0.000000 0.000000 0.000000
# 3 -0.000804 -0.004474 0.012489 0.000000 0.000000 0.000000
# 4 0.000000 0.000000 0.000000 0.032398 0.000000 0.000000
# 5 0.000000 0.000000 0.000000 0.000000 0.060357 0.000000
# 6 0.000000 0.000000 0.000000 0.000000 0.000000 0.038406
#
#
# Mechanical properties :
#
#
# Convention : Reuss Voigt Hill
#
# Bulk Modulus (GPa) = 36.52447 37.15911 36.84179
# Shear Modulus (GPa) = 25.10079 26.92388 26.01233
#
# Velocity S-wave (km/s) = 3.40292 3.52433 3.46416
# Velocity P-wave (km/s) = 5.68241 5.80552 5.74429
#
# Compressibility (1/GPa) = 0.02737891
#
# Stress axis : x y z
#
# Youngs Moduli (GPa) = 70.13650 60.98648 80.06847
#
# Poissons Ratio (x) = 0.15884 0.06440
# Poissons Ratio (y) = 0.18267 0.35821
# Poissons Ratio (z) = 0.05641 0.27284
#
# Static dielectric constant tensor:
#      x y z
#    x 1.775480 0.000000 0.000000 
#    y 0.000000 1.859370 0.000000 
#    z 0.000000 0.000000 1.821860 
# 
# From -- ./inp_files/3169.got.cif
#   From: 2010.05.17/outbox.cif.g08.bks.cpg/sg30_2_cif.got.tgz:3169.got - 2010.06.03 17:03:02.
