data_PCOD9342805
_publ_section_title
;
Structure prediction by ZEFSAII (Michael W. Deem and Ramdas Pophale) SiO2 
 PCOD9342805
Probable space group: P M N 21
;
_chemical_formula_sum "Si O2"
_cell_formula_units_Z 32
_cell_length_a 15.445914
_cell_length_b 8.552039
_cell_length_c 11.435513
_cell_angle_alpha 90.000000
_cell_angle_beta 90.000000
_cell_angle_gamma 90.000000
_cell_volume 1510.563328
_symmetry_space_group_name_H-M "P M N 21"
_symmetry_group_IT_number 31
_symmetry_cell_setting 'orthorhombic'
loop_
_space_group_symop_operation_xyz
x,y,z
1/2-x,-y,1/2+z
-x,y,z
1/2+x,-y,1/2+z
loop_
_atom_site_type_symbol
_atom_site_label
_atom_site_fract_x
_atom_site_fract_y
_atom_site_fract_z
Si Si1 0.099635 0.058595 0.410430
Si Si2 0.781377 0.930545 0.609309
Si Si3 0.218623 0.569457 0.676362
Si Si4 0.902343 0.364316 0.529665
Si Si5 0.906019 0.439376 0.145372
Si Si6 0.406019 0.939376 0.640298
Si Si7 0.400366 0.558593 0.375240
Si Si8 0.097657 0.135686 0.756004
O O1 0.119318 0.244594 0.425202
O O2 0.102903 0.012457 0.276049
O O3 0.000000 0.041546 0.450472
O O4 0.160819 0.963712 0.496082
O O5 0.776717 0.750001 0.642835
O O6 0.684129 0.990620 0.584338
O O7 0.828952 0.014861 0.718816
O O8 0.171048 0.485141 0.566854
O O9 0.315871 0.509381 0.701332
O O10 0.160819 0.536290 0.789588
O O11 0.905941 0.250001 0.642835
O O12 0.000000 0.428947 0.512682
O O13 0.909262 0.250000 0.142835
O O14 0.000000 0.493133 0.191612
O O15 0.897097 0.487544 0.009621
O O16 0.500000 0.993133 0.594058
O O17 0.500000 0.541543 0.335198
O O18 0.380682 0.744593 0.360467
O O19 0.000000 0.071054 0.772988
#
# Coordination Sequence:
#
# PCOD9342805 Si02
#       8
#     4   4   4   4   4   4   4   4
#     4   9  18  34  54  74 102 141 177 212 257 310
#     4  10  19  29  49  81 109 132 168 220 271 310
#     4  10  19  29  49  81 109 132 168 220 271 310
#     4   8  15  29  49  72  99 134 173 211 253 307
#     4   9  19  35  53  74 103 140 181 217 253 308
#     4   9  19  35  53  74 103 140 181 217 253 308
#     4   9  18  34  54  74 102 141 177 212 257 310
#     4   8  15  29  49  72  99 134 173 211 253 307
#
# _framework density 21.184149999999999
#
# number of rings (size 3 to 8) (size 9 to 14) (size 15 to 20)
#    0.000    3.000    0.000    2.250    0.000    6.000 
#    0.000    0.000    0.000    8.250    0.000   10.500 
#    0.000    0.000    0.000    0.000    0.000    0.000 
#
# Total GULP energy -178407.615782 kJ/mol
# GULP energy per Si atom -5575.237993 kJ/mol
# Density = 2.113593 g / cm^3
# Si number density = 21.184150 Si / 1000 Ang^3
#
#
#
# Elastic Constant Matrix: (Units=GPa)
#
#
# Indices 1 2 3 4 5 6 
#
# 1 173.8053 44.9151 26.5206 0.0000 0.0000 0.0000
# 2 44.9151 30.5551 0.7473 0.0000 0.0000 0.0000
# 3 26.5206 0.7473 45.9292 0.0000 0.0000 0.0000
# 4 0.0000 0.0000 0.0000 22.8203 0.0000 0.0000
# 5 0.0000 0.0000 0.0000 0.0000 21.7282 0.0000
# 6 0.0000 0.0000 0.0000 0.0000 0.0000 30.2554
#
#
#
# Elastic Compliance Matrix: (Units=1/GPa)
#
#
# Indices 1 2 3 4 5 6 
#
# 1 0.010672 -0.015543 -0.005909 0.000000 0.000000 0.000000
# 2 -0.015543 0.055378 0.008074 0.000000 0.000000 0.000000
# 3 -0.005909 0.008074 0.025053 0.000000 0.000000 0.000000
# 4 0.000000 0.000000 0.000000 0.043821 0.000000 0.000000
# 5 0.000000 0.000000 0.000000 0.000000 0.046023 0.000000
# 6 0.000000 0.000000 0.000000 0.000000 0.000000 0.033052
#
#
# Mechanical properties :
#
#
# Convention : Reuss Voigt Hill
#
# Bulk Modulus (GPa) = 15.54088 43.85061 29.69574
# Shear Modulus (GPa) = 19.06912 26.83456 22.95184
#
# Velocity S-wave (km/s) = 3.00352 3.56297 3.29514
# Velocity P-wave (km/s) = 4.40230 6.13767 5.34094
#
# Compressibility (1/GPa) = 0.06434641
#
# Stress axis : x y z
#
# Youngs Moduli (GPa) = 93.70455 18.05783 39.91463
#
# Poissons Ratio (x) = 0.28067 0.23587
# Poissons Ratio (y) = 1.45643 -0.32226
# Poissons Ratio (z) = 0.55373 -0.14580
#
# Static dielectric constant tensor:
#      x y z
#    x 1.807790 0.000000 0.000000 
#    y 0.000000 1.760790 0.000000 
#    z 0.000000 0.000000 1.822310 
# 
# From -- ./inp_files/4291.got.cif
#   From: 2010.05.17/outbox.cif.g08.bks.cpg/sg31_3_cif.got.tgz:4291.got - 2010.06.03 17:08:30.
