data_PCOD9342007
_publ_section_title
;
Structure prediction by ZEFSAII (Michael W. Deem and Ramdas Pophale) SiO2 
 PCOD9342007
Probable space group: P N C 2
;
_chemical_formula_sum "Si O2"
_cell_formula_units_Z 18
_cell_length_a 7.208642
_cell_length_b 6.103027
_cell_length_c 17.355747
_cell_angle_alpha 90.000000
_cell_angle_beta 90.000000
_cell_angle_gamma 90.000000
_cell_volume 763.558049
_symmetry_space_group_name_H-M "P N C 2"
_symmetry_group_IT_number 30
_symmetry_cell_setting 'orthorhombic'
loop_
_space_group_symop_operation_xyz
x,y,z
-x,-y,z
-x,1/2+y,1/2+z
x,1/2-y,1/2+z
loop_
_atom_site_type_symbol
_atom_site_label
_atom_site_fract_x
_atom_site_fract_y
_atom_site_fract_z
Si Si1 0.000000 0.500000 0.545130
Si Si2 0.263681 0.841022 0.473451
Si Si3 0.500000 0.500000 0.388406
Si Si4 0.848763 0.795363 0.680515
Si Si5 0.500000 0.500000 0.115347
Si Si6 0.301692 0.374179 0.826106
O O1 0.101296 0.673674 0.491163
O O2 0.113949 0.347915 0.604087
O O3 0.428278 0.694414 0.440182
O O4 0.342645 0.915464 0.555732
O O5 0.229614 0.016904 0.405979
O O6 0.658886 0.616420 0.340526
O O7 0.838171 0.637311 0.754945
O O8 0.632547 0.861983 0.670401
O O9 0.000000 0.000000 0.685564
O O10 0.500000 0.500000 0.808869
#
# Coordination Sequence:
#
# PCOD9342007 Si02
#       6
#     2   4   2   4   2   4
#     4  12  28  46  76 116 154 192 262 326 390 458
#     4  11  23  46  76 112 147 204 259 316 384 469
#     4  10  19  44  74 105 142 204 254 306 389 444
#     4  12  28  49  74 115 155 199 256 321 400 457
#     4  12  23  50  80 105 156 194 258 324 373 464
#     4  10  24  45  75 106 151 202 262 308 391 473
#
# _framework density 23.573843
#
# number of rings (size 3 to 8) (size 9 to 14) (size 15 to 20)
#    0.000    0.889    5.556    2.000    3.111    3.556 
#    6.000    0.000    0.000    0.000    0.000    0.000 
#    0.000    0.000    0.000    0.000    0.000    0.000 
#
# Total GULP energy -100363.327415 kJ/mol
# GULP energy per Si atom -5575.740412 kJ/mol
# Density = 2.352019 g / cm^3
# Si number density = 23.573843 Si / 1000 Ang^3
#
#
#
# Elastic Constant Matrix: (Units=GPa)
#
#
# Indices 1 2 3 4 5 6 
#
# 1 96.6151 43.6540 43.7755 0.0000 0.0000 0.0000
# 2 43.6540 89.2916 45.3264 0.0000 0.0000 0.0000
# 3 43.7755 45.3264 140.5309 0.0000 0.0000 0.0000
# 4 0.0000 0.0000 0.0000 49.1306 0.0000 0.0000
# 5 0.0000 0.0000 0.0000 0.0000 38.5292 0.0000
# 6 0.0000 0.0000 0.0000 0.0000 0.0000 46.0340
#
#
#
# Elastic Compliance Matrix: (Units=1/GPa)
#
#
# Indices 1 2 3 4 5 6 
#
# 1 0.014026 -0.005548 -0.002580 0.000000 0.000000 0.000000
# 2 -0.005548 0.015586 -0.003299 0.000000 0.000000 0.000000
# 3 -0.002580 -0.003299 0.008984 0.000000 0.000000 0.000000
# 4 0.000000 0.000000 0.000000 0.020354 0.000000 0.000000
# 5 0.000000 0.000000 0.000000 0.000000 0.025954 0.000000
# 6 0.000000 0.000000 0.000000 0.000000 0.000000 0.021723
#
#
# Mechanical properties :
#
#
# Convention : Reuss Voigt Hill
#
# Bulk Modulus (GPa) = 63.52139 65.77216 64.64677
# Shear Modulus (GPa) = 37.11209 39.65087 38.38148
#
# Velocity S-wave (km/s) = 3.97204 4.10565 4.03940
# Velocity P-wave (km/s) = 6.93111 7.10185 7.01700
#
# Compressibility (1/GPa) = 0.01574273
#
# Stress axis : x y z
#
# Youngs Moduli (GPa) = 71.29723 64.15984 111.31494
#
# Poissons Ratio (x) = 0.35593 0.28717
# Poissons Ratio (y) = 0.39553 0.36723
# Poissons Ratio (z) = 0.18393 0.21166
#
# Static dielectric constant tensor:
#      x y z
#    x 1.735790 0.000000 0.000000 
#    y 0.000000 1.923540 0.000000 
#    z 0.000000 0.000000 2.048050 
# 
# From -- ./inp_files/6199.got.cif
#   From: 2010.05.17/outbox.cif.g08.bks.cpg/sg30_4_cif.got.tgz:6199.got - 2010.06.03 17:03:02.
