data_PCOD9342603
_publ_section_title
;
Structure prediction by ZEFSAII (Michael W. Deem and Ramdas Pophale) SiO2 
 PCOD9342603
Probable space group: P N C 2
;
_chemical_formula_sum "Si O2"
_cell_formula_units_Z 18
_cell_length_a 5.406064
_cell_length_b 5.225990
_cell_length_c 24.732289
_cell_angle_alpha 90.000000
_cell_angle_beta 90.000000
_cell_angle_gamma 90.000000
_cell_volume 698.737529
_symmetry_space_group_name_H-M "P N C 2"
_symmetry_group_IT_number 30
_symmetry_cell_setting 'orthorhombic'
loop_
_space_group_symop_operation_xyz
x,y,z
-x,-y,z
-x,1/2+y,1/2+z
x,1/2-y,1/2+z
loop_
_atom_site_type_symbol
_atom_site_label
_atom_site_fract_x
_atom_site_fract_y
_atom_site_fract_z
Si Si1 0.748710 0.163106 0.363380
Si Si2 0.500000 0.500000 0.664492
Si Si3 0.834327 0.263031 0.245368
Si Si4 0.748606 0.350506 0.485244
Si Si5 0.752487 0.359516 0.095266
O O1 0.763175 0.318470 0.307716
O O2 0.739749 0.293050 0.421712
O O3 0.500000 0.000000 0.359143
O O4 0.000000 0.000000 0.364624
O O5 0.406892 0.709210 0.709202
O O6 0.283467 0.574452 0.620616
O O7 0.000000 0.500000 0.227149
O O8 0.000000 0.000000 0.242968
O O9 0.500000 0.500000 0.498001
O O10 0.753229 0.131742 0.530106
O O11 0.000000 0.500000 0.495329
O O12 0.500000 0.500000 0.112469
O O13 0.000000 0.500000 0.113194
#
# Coordination Sequence:
#
# PCOD9342603 Si02
#       5
#     4   2   4   4   4
#     4  11  23  46  72 111 154 203 261 328 409 486
#     4  12  28  48  76 112 156 210 280 328 408 484
#     4  11  27  49  77 114 160 214 273 337 409 487
#     4  12  24  44  73 112 154 200 260 330 409 491
#     4  12  28  48  76 109 156 207 266 334 411 487
#
# _framework density 25.760748
#
# number of rings (size 3 to 8) (size 9 to 14) (size 15 to 20)
#    0.000    0.444    2.222    5.333    6.222    1.778 
#    0.000    0.000    0.000    0.000    0.000    0.000 
#    0.000    0.000    0.000    0.000    0.000    0.000 
#
# Total GULP energy -100554.460490 kJ/mol
# GULP energy per Si atom -5586.358916 kJ/mol
# Density = 2.570212 g / cm^3
# Si number density = 25.760748 Si / 1000 Ang^3
#
#
#
# Elastic Constant Matrix: (Units=GPa)
#
#
# Indices 1 2 3 4 5 6 
#
# 1 237.2068 82.5686 42.4355 0.0000 0.0000 0.0000
# 2 82.5686 102.6676 31.8901 0.0000 0.0000 0.0000
# 3 42.4355 31.8901 213.5049 0.0000 0.0000 0.0000
# 4 0.0000 0.0000 0.0000 76.2317 0.0000 0.0000
# 5 0.0000 0.0000 0.0000 0.0000 -408.1935 0.0000
# 6 0.0000 0.0000 0.0000 0.0000 0.0000 77.6143
#
#
#
# Elastic Compliance Matrix: (Units=1/GPa)
#
#
# Indices 1 2 3 4 5 6 
#
# 1 0.005903 -0.004596 -0.000487 0.000000 0.000000 0.000000
# 2 -0.004596 0.013792 -0.001147 0.000000 0.000000 0.000000
# 3 -0.000487 -0.001147 0.004952 0.000000 0.000000 0.000000
# 4 0.000000 0.000000 0.000000 0.013118 0.000000 0.000000
# 5 0.000000 0.000000 0.000000 0.000000 -0.002450 0.000000
# 6 0.000000 0.000000 0.000000 0.000000 0.000000 0.012884
#
#
# Mechanical properties :
#
#
# Convention : Reuss Voigt Hill
#
# Bulk Modulus (GPa) = 82.04566 96.35197 89.19881
# Shear Modulus (GPa) = 77.25554 -24.43718 26.40918
#
# Velocity S-wave (km/s) = 5.48222 -3.08331 3.20530
# Velocity P-wave (km/s) = 8.48476 4.98077 6.95699
#
# Compressibility (1/GPa) = 0.01218834
#
# Stress axis : x y z
#
# Youngs Moduli (GPa) = 169.41816 72.50337 201.94917
#
# Poissons Ratio (x) = 0.33321 0.09829
# Poissons Ratio (y) = 0.77862 0.23157
# Poissons Ratio (z) = 0.08246 0.08314
#
# Static dielectric constant tensor:
#      x y z
#    x 2.282090 0.000000 0.000000 
#    y 0.000000 2.042730 0.000000 
#    z 0.000000 0.000000 2.085690 
# 
# From -- ./inp_files/7144.got.cif
#   From: 2010.05.17/outbox.cif.g08.bks.cpg/sg30_4_cif.got.tgz:7144.got - 2010.06.03 17:03:02.
