data_PCOD9342327
_publ_section_title
;
Structure prediction by ZEFSAII (Michael W. Deem and Ramdas Pophale) SiO2 
 PCOD9342327
Probable space group: P N C 2
;
_chemical_formula_sum "Si O2"
_cell_formula_units_Z 24
_cell_length_a 8.607546
_cell_length_b 8.379688
_cell_length_c 16.688367
_cell_angle_alpha 90.000000
_cell_angle_beta 90.000000
_cell_angle_gamma 90.000000
_cell_volume 1203.707712
_symmetry_space_group_name_H-M "P N C 2"
_symmetry_group_IT_number 30
_symmetry_cell_setting 'orthorhombic'
loop_
_space_group_symop_operation_xyz
x,y,z
-x,-y,z
-x,1/2+y,1/2+z
x,1/2-y,1/2+z
loop_
_atom_site_type_symbol
_atom_site_label
_atom_site_fract_x
_atom_site_fract_y
_atom_site_fract_z
Si Si1 0.324866 0.437456 0.211280
Si Si2 0.317510 0.564585 0.378547
Si Si3 0.823871 0.057766 0.548197
Si Si4 0.825386 0.439832 0.546222
Si Si5 0.817208 0.435877 0.875023
Si Si6 0.325224 0.439910 0.710457
O O1 0.500000 0.500000 0.211710
O O2 0.251193 0.494007 0.295375
O O3 0.252982 0.500057 0.129343
O O4 0.321952 0.249067 0.209550
O O5 0.500000 0.500000 0.378347
O O6 0.255252 0.503678 0.463990
O O7 0.252135 0.750593 0.374889
O O8 0.820460 0.248701 0.547094
O O9 0.756533 0.001713 0.461899
O O10 0.000000 0.000000 0.550980
O O11 0.749927 0.498540 0.628460
O O12 0.000000 0.500000 0.544155
O O13 0.755413 0.503123 0.791818
O O14 0.000000 0.500000 0.875986
O O15 0.500000 0.500000 0.712851
#
# Coordination Sequence:
#
# PCOD9342327 Si02
#       6
#     4   4   4   4   4   4
#     4  11  24  40  61  89 124 164 209 261 320 387
#     4  10  22  42  65  92 129 170 217 274 332 398
#     4  10  22  41  63  89 124 163 207 259 318 386
#     4  11  23  40  64  94 127 166 214 267 325 392
#     4  10  23  43  65  93 129 169 216 273 333 399
#     4  12  24  40  65  93 126 168 214 268 328 394
#
# _framework density 19.938396999999998
#
# number of rings (size 3 to 8) (size 9 to 14) (size 15 to 20)
#    0.000    1.333    0.000    6.000    0.000    9.333 
#    0.000    0.000    0.000    0.000    0.000    0.000 
#    0.000    0.000    0.000    0.000    0.000    0.000 
#
# Total GULP energy -133631.895053 kJ/mol
# GULP energy per Si atom -5567.995627 kJ/mol
# Density = 1.989302 g / cm^3
# Si number density = 19.938397 Si / 1000 Ang^3
#
#
#
# Elastic Constant Matrix: (Units=GPa)
#
#
# Indices 1 2 3 4 5 6 
#
# 1 98.3175 33.7394 89.9100 0.0000 0.0000 0.0000
# 2 33.7394 112.1895 76.2671 0.0000 0.0000 0.0000
# 3 89.9100 76.2671 279.1345 0.0000 0.0000 0.0000
# 4 0.0000 0.0000 0.0000 -3.1641 0.0000 0.0000
# 5 0.0000 0.0000 0.0000 0.0000 46.5782 0.0000
# 6 0.0000 0.0000 0.0000 0.0000 0.0000 31.2327
#
#
#
# Elastic Compliance Matrix: (Units=1/GPa)
#
#
# Indices 1 2 3 4 5 6 
#
# 1 0.014612 -0.001467 -0.004306 0.000000 0.000000 0.000000
# 2 -0.001467 0.011094 -0.002559 0.000000 0.000000 0.000000
# 3 -0.004306 -0.002559 0.005668 0.000000 0.000000 0.000000
# 4 0.000000 0.000000 0.000000 -0.316045 0.000000 0.000000
# 5 0.000000 0.000000 0.000000 0.000000 0.021469 0.000000
# 6 0.000000 0.000000 0.000000 0.000000 0.000000 0.032018
#
#
# Mechanical properties :
#
#
# Convention : Reuss Voigt Hill
#
# Bulk Modulus (GPa) = 67.97412 98.83048 83.40230
# Shear Modulus (GPa) = -23.85313 34.24437 5.19562
#
# Velocity S-wave (km/s) = -3.46257 4.14878 1.61601
# Velocity P-wave (km/s) = 4.26383 8.52205 6.73816
#
# Compressibility (1/GPa) = 0.01471148
#
# Stress axis : x y z
#
# Youngs Moduli (GPa) = 68.43600 90.13795 176.41506
#
# Poissons Ratio (x) = 0.13227 0.75959
# Poissons Ratio (y) = 0.10042 0.45137
# Poissons Ratio (z) = 0.29467 0.23062
#
# Static dielectric constant tensor:
#      x y z
#    x 1.712600 0.000000 0.000000 
#    y 0.000000 1.701800 0.000000 
#    z 0.000000 0.000000 1.743140 
# 
# From -- ./inp_files/5009.got.cif
#   From: 2010.05.17/outbox.cif.g08.bks.cpg/sg30_3_cif.got.tgz:5009.got - 2010.06.03 17:03:02.
