data_PCOD9342660
_publ_section_title
;
Structure prediction by ZEFSAII (Michael W. Deem and Ramdas Pophale) SiO2 
 PCOD9342660
Probable space group: P N C 2
;
_chemical_formula_sum "Si O2"
_cell_formula_units_Z 12
_cell_length_a 6.567580
_cell_length_b 15.450073
_cell_length_c 4.622822
_cell_angle_alpha 90.000000
_cell_angle_beta 90.000000
_cell_angle_gamma 90.000000
_cell_volume 469.075855
_symmetry_space_group_name_H-M "P N C 2"
_symmetry_group_IT_number 30
_symmetry_cell_setting 'orthorhombic'
loop_
_space_group_symop_operation_xyz
x,y,z
-x,-y,z
-x,1/2+y,1/2+z
x,1/2-y,1/2+z
loop_
_atom_site_type_symbol
_atom_site_label
_atom_site_fract_x
_atom_site_fract_y
_atom_site_fract_z
Si Si1 0.718580 0.191739 0.061710
Si Si2 0.389285 0.417557 0.207598
Si Si3 0.895672 0.584711 0.715379
O O1 0.699689 0.216443 0.397253
O O2 0.939987 0.147758 0.067358
O O3 0.548007 0.135590 0.904046
O O4 0.500000 0.500000 0.066161
O O5 0.236495 0.451255 0.452315
O O6 0.251710 0.373346 0.958300
O O7 0.000000 0.500000 0.853804
#
# Coordination Sequence:
#
# PCOD9342660 Si02
#       3
#     4   4   4
#     4  12  28  48  72 112 154 188 246 316 374 440
#     4  12  26  46  77 108 145 199 255 304 372 449
#     4  12  26  46  77 108 145 199 255 304 372 449
#
# _framework density 25.582217
#
# number of rings (size 3 to 8) (size 9 to 14) (size 15 to 20)
#    0.000    0.000    3.333    6.000    4.667    8.000 
#    0.000    0.000    0.000    0.000    0.000    0.000 
#    0.000    0.000    0.000    0.000    0.000    0.000 
#
# Total GULP energy -67070.972239 kJ/mol
# GULP energy per Si atom -5589.247687 kJ/mol
# Density = 2.552399 g / cm^3
# Si number density = 25.582217 Si / 1000 Ang^3
#
#
#
# Elastic Constant Matrix: (Units=GPa)
#
#
# Indices 1 2 3 4 5 6 
#
# 1 152.5717 46.9364 64.4119 0.0000 0.0000 0.0000
# 2 46.9364 52.5461 11.3903 0.0000 0.0000 0.0000
# 3 64.4119 11.3903 136.6007 0.0000 0.0000 0.0000
# 4 0.0000 0.0000 0.0000 37.8405 0.0000 0.0000
# 5 0.0000 0.0000 0.0000 0.0000 72.2060 0.0000
# 6 0.0000 0.0000 0.0000 0.0000 0.0000 25.4878
#
#
#
# Elastic Compliance Matrix: (Units=1/GPa)
#
#
# Indices 1 2 3 4 5 6 
#
# 1 0.011272 -0.009081 -0.004558 0.000000 0.000000 0.000000
# 2 -0.009081 0.026697 0.002056 0.000000 0.000000 0.000000
# 3 -0.004558 0.002056 0.009298 0.000000 0.000000 0.000000
# 4 0.000000 0.000000 0.000000 0.026427 0.000000 0.000000
# 5 0.000000 0.000000 0.000000 0.000000 0.013849 0.000000
# 6 0.000000 0.000000 0.000000 0.000000 0.000000 0.039234
#
#
# Mechanical properties :
#
#
# Convention : Reuss Voigt Hill
#
# Bulk Modulus (GPa) = 41.49154 65.24396 53.36775
# Shear Modulus (GPa) = 31.65015 41.70551 36.67783
#
# Velocity S-wave (km/s) = 3.52119 4.04202 3.79056
# Velocity P-wave (km/s) = 5.72589 6.88062 6.32964
#
# Compressibility (1/GPa) = 0.02410130
#
# Stress axis : x y z
#
# Youngs Moduli (GPa) = 88.71453 37.45803 107.54485
#
# Poissons Ratio (x) = 0.34015 0.49019
# Poissons Ratio (y) = 0.80559 -0.22109
# Poissons Ratio (z) = 0.40436 -0.07701
#
# Static dielectric constant tensor:
#      x y z
#    x 2.140400 0.000000 0.000000 
#    y 0.000000 1.958380 0.000000 
#    z 0.000000 0.000000 1.945260 
# 
# From -- ./inp_files/15.got.cif
#   From: 2010.05.17/outbox.cif.g08.bks.cpg/sg30_1_cif.got.tgz:15.got - 2010.06.03 17:03:02.
