data_PCOD9342061
_publ_section_title
;
Structure prediction by ZEFSAII (Michael W. Deem and Ramdas Pophale) SiO2 
 PCOD9342061
Probable space group: P N C 2
;
_chemical_formula_sum "Si O2"
_cell_formula_units_Z 32
_cell_length_a 8.498234
_cell_length_b 20.906342
_cell_length_c 9.014189
_cell_angle_alpha 90.000000
_cell_angle_beta 90.000000
_cell_angle_gamma 90.000000
_cell_volume 1601.523794
_symmetry_space_group_name_H-M "P N C 2"
_symmetry_group_IT_number 30
_symmetry_cell_setting 'orthorhombic'
loop_
_space_group_symop_operation_xyz
x,y,z
-x,-y,z
-x,1/2+y,1/2+z
x,1/2-y,1/2+z
loop_
_atom_site_type_symbol
_atom_site_label
_atom_site_fract_x
_atom_site_fract_y
_atom_site_fract_z
Si Si1 0.029765 0.666121 0.486210
Si Si2 0.811130 0.776979 0.426553
Si Si3 0.374058 0.306925 0.196664
Si Si4 0.058466 0.884150 0.501920
Si Si5 0.280169 0.834058 0.764130
Si Si6 0.155545 0.423255 0.259972
Si Si7 0.669838 0.468231 0.426967
Si Si8 0.871822 0.442794 0.703401
O O1 0.902515 0.720189 0.512046
O O2 0.955320 0.613927 0.375174
O O3 0.168687 0.697993 0.388359
O O4 0.078343 0.624358 0.626056
O O5 0.735363 0.743672 0.283908
O O6 0.665424 0.799865 0.524789
O O7 0.939101 0.833686 0.422954
O O8 0.557131 0.299182 0.229776
O O9 0.306467 0.376787 0.240374
O O10 0.941739 0.925201 0.607664
O O11 0.179135 0.849284 0.615776
O O12 0.145749 0.925579 0.376578
O O13 0.327109 0.899907 0.847229
O O14 0.209344 0.488644 0.332659
O O15 0.500000 0.500000 0.420720
O O16 0.728065 0.463685 0.597326
O O17 0.000000 0.500000 0.691558
#
# Coordination Sequence:
#
# PCOD9342061 Si02
#       8
#     4   4   4   4   4   4   4   4
#     4   9  19  37  63  86 116 163 212 252 298 371
#     4  10  21  40  64  82 124 163 205 257 311 379
#     4  10  20  38  59  92 114 162 203 250 309 372
#     4  10  23  38  59  94 125 159 206 268 323 360
#     4  10  22  36  61  91 120 157 215 254 302 380
#     4   9  18  37  61  83 118 161 211 234 298 388
#     4  11  21  39  62  87 124 167 205 254 308 381
#     4  11  22  36  59  93 124 155 205 261 315 368
#
# _framework density 19.980972000000001
#
# number of rings (size 3 to 8) (size 9 to 14) (size 15 to 20)
#    0.000    2.000    2.500    1.500    1.750    1.000 
#    0.000    6.875    0.000    0.000    0.000    0.000 
#    0.000    0.000    0.000    0.000    0.000    0.000 
#
# Total GULP energy -178451.326122 kJ/mol
# GULP energy per Si atom -5576.603941 kJ/mol
# Density = 1.993549 g / cm^3
# Si number density = 19.980972 Si / 1000 Ang^3
#
#
#
# Elastic Constant Matrix: (Units=GPa)
#
#
# Indices 1 2 3 4 5 6 
#
# 1 103.4152 16.1584 35.1533 0.0000 0.0000 0.0000
# 2 16.1584 42.3078 19.1419 0.0000 0.0000 0.0000
# 3 35.1533 19.1419 99.2950 0.0000 0.0000 0.0000
# 4 0.0000 0.0000 0.0000 11.2315 0.0000 0.0000
# 5 0.0000 0.0000 0.0000 0.0000 21.1876 0.0000
# 6 0.0000 0.0000 0.0000 0.0000 0.0000 22.3959
#
#
#
# Elastic Compliance Matrix: (Units=1/GPa)
#
#
# Indices 1 2 3 4 5 6 
#
# 1 0.011275 -0.002739 -0.003464 0.000000 0.000000 0.000000
# 2 -0.002739 0.026560 -0.004151 0.000000 0.000000 0.000000
# 3 -0.003464 -0.004151 0.012097 0.000000 0.000000 0.000000
# 4 0.000000 0.000000 0.000000 0.089036 0.000000 0.000000
# 5 0.000000 0.000000 0.000000 0.000000 0.047197 0.000000
# 6 0.000000 0.000000 0.000000 0.000000 0.000000 0.044651
#
#
# Mechanical properties :
#
#
# Convention : Reuss Voigt Hill
#
# Bulk Modulus (GPa) = 34.21591 42.88058 38.54824
# Shear Modulus (GPa) = 19.13760 22.60060 20.86910
#
# Velocity S-wave (km/s) = 3.09818 3.36684 3.23530
# Velocity P-wave (km/s) = 5.47355 6.05157 5.76980
#
# Compressibility (1/GPa) = 0.02922617
#
# Stress axis : x y z
#
# Youngs Moduli (GPa) = 88.69077 37.65012 82.66255
#
# Poissons Ratio (x) = 0.10313 0.28632
# Poissons Ratio (y) = 0.24294 0.34309
# Poissons Ratio (z) = 0.30720 0.15627
#
# Static dielectric constant tensor:
#      x y z
#    x 1.715420 0.000000 0.000000 
#    y 0.000000 1.718240 0.000000 
#    z 0.000000 0.000000 1.707170 
# 
# From -- ./inp_files/2157.got.cif
#   From: 2010.05.17/outbox.cif.g08.bks.cpg/sg30_2_cif.got.tgz:2157.got - 2010.06.03 17:03:02.
