data_PCOD9342281
_publ_section_title
;
Structure prediction by ZEFSAII (Michael W. Deem and Ramdas Pophale) SiO2 
 PCOD9342281
Probable space group: P N C 2
;
_chemical_formula_sum "Si O2"
_cell_formula_units_Z 24
_cell_length_a 5.414733
_cell_length_b 30.058222
_cell_length_c 7.083555
_cell_angle_alpha 90.000000
_cell_angle_beta 90.000000
_cell_angle_gamma 90.000000
_cell_volume 1152.899908
_symmetry_space_group_name_H-M "P N C 2"
_symmetry_group_IT_number 30
_symmetry_cell_setting 'orthorhombic'
loop_
_space_group_symop_operation_xyz
x,y,z
-x,-y,z
-x,1/2+y,1/2+z
x,1/2-y,1/2+z
loop_
_atom_site_type_symbol
_atom_site_label
_atom_site_fract_x
_atom_site_fract_y
_atom_site_fract_z
Si Si1 0.613742 0.360859 0.668970
Si Si2 0.749233 0.991403 0.663833
Si Si3 0.884946 0.708657 0.268081
Si Si4 0.884863 0.687740 0.706836
Si Si5 0.617503 0.339897 0.219733
Si Si6 0.555905 0.426480 0.966431
O O1 0.376955 0.334510 0.750928
O O2 0.615318 0.354832 0.441987
O O3 0.573873 0.410047 0.752713
O O4 0.870477 0.340750 0.747517
O O5 0.730678 0.031508 0.511123
O O6 0.500000 0.000000 0.782117
O O7 0.702496 0.945785 0.551032
O O8 0.000000 0.000000 0.769820
O O9 0.885441 0.691888 0.481295
O O10 0.894598 0.761847 0.277846
O O11 0.629573 0.689482 0.184227
O O12 0.136610 0.689061 0.181501
O O13 0.619452 0.384175 0.095266
#
# Coordination Sequence:
#
# PCOD9342281 Si02
#       6
#     4   4   4   4   4   4
#     4  10  22  36  55  83 109 145 191 224 268 335
#     4   8  20  36  56  90 112 128 190 228 268 354
#     4  10  22  36  52  78 113 145 190 235 266 318
#     4  10  22  36  52  78 113 145 190 235 266 318
#     4  10  22  36  55  83 109 145 191 224 268 335
#     4   9  22  36  66  78 114 150 176 228 292 319
#
# _framework density 20.817070999999999
#
# number of rings (size 3 to 8) (size 9 to 14) (size 15 to 20)
#    1.000    1.333    0.000    1.000    9.333    0.000 
#    0.000    3.333    0.000    2.000    0.000    0.000 
#    0.000    0.000    0.000    0.000    0.000    0.000 
#
# Total GULP energy -133614.222029 kJ/mol
# GULP energy per Si atom -5567.259251 kJ/mol
# Density = 2.076969 g / cm^3
# Si number density = 20.817071 Si / 1000 Ang^3
#
#
#
# Elastic Constant Matrix: (Units=GPa)
#
#
# Indices 1 2 3 4 5 6 
#
# 1 116.3287 7.6595 7.1558 0.0000 0.0000 0.0000
# 2 7.6595 78.9695 -1.0200 0.0000 0.0000 0.0000
# 3 7.1558 -1.0200 51.5000 0.0000 0.0000 0.0000
# 4 0.0000 0.0000 0.0000 -11.2468 0.0000 0.0000
# 5 0.0000 0.0000 0.0000 0.0000 -8.9802 0.0000
# 6 0.0000 0.0000 0.0000 0.0000 0.0000 23.6811
#
#
#
# Elastic Compliance Matrix: (Units=1/GPa)
#
#
# Indices 1 2 3 4 5 6 
#
# 1 0.008729 -0.000863 -0.001230 0.000000 0.000000 0.000000
# 2 -0.000863 0.012752 0.000372 0.000000 0.000000 0.000000
# 3 -0.001230 0.000372 0.019596 0.000000 0.000000 0.000000
# 4 0.000000 0.000000 0.000000 -0.088914 0.000000 0.000000
# 5 0.000000 0.000000 0.000000 0.000000 -0.111357 0.000000
# 6 0.000000 0.000000 0.000000 0.000000 0.000000 0.042228
#
#
# Mechanical properties :
#
#
# Convention : Reuss Voigt Hill
#
# Bulk Modulus (GPa) = 26.57031 30.48765 28.52898
# Shear Modulus (GPa) = -49.51413 16.22435 -16.64489
#
# Velocity S-wave (km/s) = -4.88231 2.79476 -2.83075
# Velocity P-wave (km/s) = 4.35789 5.00915 1.74647
#
# Compressibility (1/GPa) = 0.03763600
#
# Stress axis : x y z
#
# Youngs Moduli (GPa) = 114.56352 78.42159 51.03153
#
# Poissons Ratio (x) = 0.06764 0.06276
# Poissons Ratio (y) = 0.09881 -0.01900
# Poissons Ratio (z) = 0.14090 -0.02920
#
# Static dielectric constant tensor:
#      x y z
#    x 1.842140 0.000000 0.000000 
#    y 0.000000 1.825020 0.000000 
#    z 0.000000 0.000000 1.760970 
# 
# From -- ./inp_files/1433.got.cif
#   From: 2010.05.17/outbox.cif.g08.bks.cpg/sg30_1_cif.got.tgz:1433.got - 2010.06.03 17:03:02.
