data_PCOD9342821
_publ_section_title
;
Structure prediction by ZEFSAII (Michael W. Deem and Ramdas Pophale) SiO2 
 PCOD9342821
Probable space group: P M N 21
;
_chemical_formula_sum "Si O2"
_cell_formula_units_Z 32
_cell_length_a 9.842543
_cell_length_b 21.037174
_cell_length_c 7.095951
_cell_angle_alpha 90.000000
_cell_angle_beta 90.000000
_cell_angle_gamma 90.000000
_cell_volume 1469.282574
_symmetry_space_group_name_H-M "P M N 21"
_symmetry_group_IT_number 31
_symmetry_cell_setting 'orthorhombic'
loop_
_space_group_symop_operation_xyz
x,y,z
1/2-x,-y,1/2+z
-x,y,z
1/2+x,-y,1/2+z
loop_
_atom_site_type_symbol
_atom_site_label
_atom_site_fract_x
_atom_site_fract_y
_atom_site_fract_z
Si Si1 0.348573 0.786193 0.830140
Si Si2 0.346696 0.460048 0.143996
Si Si3 0.655544 0.922648 0.858492
Si Si4 0.157810 0.170745 0.884413
Si Si5 0.657744 0.285389 0.803122
Si Si6 0.652585 0.424047 0.706117
Si Si7 0.157129 0.937314 0.508806
Si Si8 0.157185 0.676113 0.748200
O O1 0.500000 0.761744 0.865992
O O2 0.330073 0.852199 0.943382
O O3 0.342958 0.808737 0.608731
O O4 0.241669 0.730366 0.851522
O O5 0.500000 0.475853 0.206298
O O6 0.253370 0.521565 0.140346
O O7 0.296090 0.397665 0.258637
O O8 0.355166 0.436308 0.930146
O O9 0.500000 0.923085 0.775242
O O10 0.777888 0.927536 0.712267
O O11 0.662929 0.987376 0.973808
O O12 0.236647 0.228211 0.782822
O O13 0.246713 0.106163 0.876938
O O14 0.000000 0.162737 0.831014
O O15 0.500000 0.267994 0.763050
O O16 0.661973 0.304159 0.026191
O O17 0.691835 0.350127 0.691036
O O18 0.500000 0.432396 0.630539
O O19 0.000000 0.916691 0.494697
O O20 0.000000 0.677738 0.804146
#
# Coordination Sequence:
#
# PCOD9342821 Si02
#       8
#     4   4   4   4   4   4   4   4
#     4   8  14  25  41  62  88 114 142 183 227 263
#     4   9  18  31  46  67  95 122 151 189 229 272
#     4   9  19  33  47  69  98 122 152 193 230 272
#     4   9  16  26  42  66  93 117 148 191 231 270
#     4   8  14  26  43  63  88 116 148 187 229 271
#     4   9  18  31  47  69  95 122 154 191 229 273
#     4  10  19  31  49  70  94 126 157 188 231 277
#     4   8  14  25  41  62  87 113 144 184 224 264
#
# _framework density 21.779337000000002
#
# number of rings (size 3 to 8) (size 9 to 14) (size 15 to 20)
#    0.000    3.250    0.000    3.000    0.000    5.500 
#    0.000    2.500    0.000    1.500    0.000    3.500 
#    0.000    0.000    0.000    0.000    0.000    0.000 
#
# Total GULP energy -178519.175859 kJ/mol
# GULP energy per Si atom -5578.724246 kJ/mol
# Density = 2.172977 g / cm^3
# Si number density = 21.779337 Si / 1000 Ang^3
#
#
#
# Elastic Constant Matrix: (Units=GPa)
#
#
# Indices 1 2 3 4 5 6 
#
# 1 139.6929 116.7879 24.4282 0.0000 0.0000 0.0000
# 2 116.7879 174.1608 30.2948 0.0000 0.0000 0.0000
# 3 24.4282 30.2948 45.0032 0.0000 0.0000 0.0000
# 4 0.0000 0.0000 0.0000 37.8453 0.0000 0.0000
# 5 0.0000 0.0000 0.0000 0.0000 4.0494 0.0000
# 6 0.0000 0.0000 0.0000 0.0000 0.0000 44.3440
#
#
#
# Elastic Compliance Matrix: (Units=1/GPa)
#
#
# Indices 1 2 3 4 5 6 
#
# 1 0.016406 -0.010706 -0.001698 0.000000 0.000000 0.000000
# 2 -0.010706 0.013490 -0.003270 0.000000 0.000000 0.000000
# 3 -0.001698 -0.003270 0.025344 0.000000 0.000000 0.000000
# 4 0.000000 0.000000 0.000000 0.026423 0.000000 0.000000
# 5 0.000000 0.000000 0.000000 0.000000 0.246953 0.000000
# 6 0.000000 0.000000 0.000000 0.000000 0.000000 0.022551
#
#
# Mechanical properties :
#
#
# Convention : Reuss Voigt Hill
#
# Bulk Modulus (GPa) = 41.85609 77.98652 59.92130
# Shear Modulus (GPa) = 12.80477 29.73746 21.27111
#
# Velocity S-wave (km/s) = 2.42736 3.69914 3.12855
# Velocity P-wave (km/s) = 5.20731 7.35732 6.37363
#
# Compressibility (1/GPa) = 0.02389139
#
# Stress axis : x y z
#
# Youngs Moduli (GPa) = 60.95199 74.12948 39.45782
#
# Poissons Ratio (x) = 0.79365 0.06701
# Poissons Ratio (y) = 0.65257 0.12901
# Poissons Ratio (z) = 0.10352 0.24237
#
# Static dielectric constant tensor:
#      x y z
#    x 1.743180 0.000000 0.000000 
#    y 0.000000 1.799990 0.000000 
#    z 0.000000 0.000000 1.925830 
# 
# From -- ./inp_files/3773.got.cif
#   From: 2010.05.17/outbox.cif.g08.bks.cpg/sg31_2_cif.got.tgz:3773.got - 2010.06.03 17:08:30.
