data_PCOD9342441
_publ_section_title
;
Structure prediction by ZEFSAII (Michael W. Deem and Ramdas Pophale) SiO2 
 PCOD9342441
Probable space group: P N C 2
;
_chemical_formula_sum "Si O2"
_cell_formula_units_Z 28
_cell_length_a 8.211647
_cell_length_b 17.745458
_cell_length_c 9.253057
_cell_angle_alpha 90.000000
_cell_angle_beta 90.000000
_cell_angle_gamma 90.000000
_cell_volume 1348.350256
_symmetry_space_group_name_H-M "P N C 2"
_symmetry_group_IT_number 30
_symmetry_cell_setting 'orthorhombic'
loop_
_space_group_symop_operation_xyz
x,y,z
-x,-y,z
-x,1/2+y,1/2+z
x,1/2-y,1/2+z
loop_
_atom_site_type_symbol
_atom_site_label
_atom_site_fract_x
_atom_site_fract_y
_atom_site_fract_z
Si Si1 0.338296 0.550499 0.535500
Si Si2 0.898936 0.422456 0.300188
Si Si3 0.376330 0.710430 0.683390
Si Si4 0.413081 0.225665 0.926616
Si Si5 0.925787 0.304614 0.071541
Si Si6 0.108696 0.294303 0.782443
Si Si7 0.828185 0.601893 0.519751
O O1 0.500000 0.500000 0.537957
O O2 0.278377 0.578699 0.377288
O O3 0.354452 0.620477 0.647470
O O4 0.200672 0.485958 0.552674
O O5 0.886267 0.383994 0.144913
O O6 0.000000 0.500000 0.281108
O O7 0.016999 0.381590 0.417379
O O8 0.428251 0.747162 0.835664
O O9 0.531004 0.736091 0.589358
O O10 0.217978 0.748695 0.616626
O O11 0.269071 0.278341 0.873686
O O12 0.326158 0.142360 0.937906
O O13 0.073274 0.272881 0.169850
O O14 0.968451 0.305300 0.902860
O O15 0.137800 0.362523 0.674598
#
# Coordination Sequence:
#
# PCOD9342441 Si02
#       7
#     4   4   4   4   4   4   4
#     4  11  21  40  64  95 132 172 219 274 343 423
#     4  10  23  42  67  95 129 177 226 274 340 415
#     4  12  25  38  63 100 134 170 220 282 348 397
#     4  12  21  39  60  96 127 167 219 272 330 404
#     4  12  23  40  64  94 134 163 225 283 334 404
#     4  12  21  39  66  93 123 169 221 276 328 397
#     4  11  22  41  67  96 126 178 227 279 330 409
#
# _framework density 20.766117000000001
#
# number of rings (size 3 to 8) (size 9 to 14) (size 15 to 20)
#    0.000    0.571    5.714    3.429    0.000    0.000 
#    0.000    5.000    0.000    0.000    3.714    0.000 
#    0.000    0.000    0.000    0.000    0.000    0.000 
#
# Total GULP energy -155938.630012 kJ/mol
# GULP energy per Si atom -5569.236786 kJ/mol
# Density = 2.071885 g / cm^3
# Si number density = 20.766117 Si / 1000 Ang^3
#
#
#
# Elastic Constant Matrix: (Units=GPa)
#
#
# Indices 1 2 3 4 5 6 
#
# 1 72.8491 23.4672 13.8961 0.0000 0.0000 0.0000
# 2 23.4672 101.5609 47.4746 0.0000 0.0000 0.0000
# 3 13.8961 47.4746 106.0646 0.0000 0.0000 0.0000
# 4 0.0000 0.0000 0.0000 32.9881 0.0000 0.0000
# 5 0.0000 0.0000 0.0000 0.0000 35.9519 0.0000
# 6 0.0000 0.0000 0.0000 0.0000 0.0000 33.3590
#
#
#
# Elastic Compliance Matrix: (Units=1/GPa)
#
#
# Indices 1 2 3 4 5 6 
#
# 1 0.014853 -0.003190 -0.000518 0.000000 0.000000 0.000000
# 2 -0.003190 0.013137 -0.005462 0.000000 0.000000 0.000000
# 3 -0.000518 -0.005462 0.011941 0.000000 0.000000 0.000000
# 4 0.000000 0.000000 0.000000 0.030314 0.000000 0.000000
# 5 0.000000 0.000000 0.000000 0.000000 0.027815 0.000000
# 6 0.000000 0.000000 0.000000 0.000000 0.000000 0.029977
#
#
# Mechanical properties :
#
#
# Convention : Reuss Voigt Hill
#
# Bulk Modulus (GPa) = 46.31627 50.01671 48.16649
# Shear Modulus (GPa) = 32.55760 33.50224 33.02992
#
# Velocity S-wave (km/s) = 3.96387 4.02096 3.99252
# Velocity P-wave (km/s) = 6.58042 6.75985 6.67074
#
# Compressibility (1/GPa) = 0.02159068
#
# Stress axis : x y z
#
# Youngs Moduli (GPa) = 67.32452 76.12322 83.74559
#
# Poissons Ratio (x) = 0.24282 0.04340
# Poissons Ratio (y) = 0.21476 0.45742
# Poissons Ratio (z) = 0.03489 0.41579
#
# Static dielectric constant tensor:
#      x y z
#    x 1.863460 0.000000 0.000000 
#    y 0.000000 1.817920 0.000000 
#    z 0.000000 0.000000 1.719840 
# 
# From -- ./inp_files/1999.got.cif
#   From: 2010.05.17/outbox.cif.g08.bks.cpg/sg30_1_cif.got.tgz:1999.got - 2010.06.03 17:03:02.
