data_PCOD9342507
_publ_section_title
;
Structure prediction by ZEFSAII (Michael W. Deem and Ramdas Pophale) SiO2 
 PCOD9342507
Probable space group: P N C 2
;
_chemical_formula_sum "Si O2"
_cell_formula_units_Z 26
_cell_length_a 7.965378
_cell_length_b 17.023282
_cell_length_c 9.040343
_cell_angle_alpha 90.000000
_cell_angle_beta 90.000000
_cell_angle_gamma 90.000000
_cell_volume 1225.842268
_symmetry_space_group_name_H-M "P N C 2"
_symmetry_group_IT_number 30
_symmetry_cell_setting 'orthorhombic'
loop_
_space_group_symop_operation_xyz
x,y,z
-x,-y,z
-x,1/2+y,1/2+z
x,1/2-y,1/2+z
loop_
_atom_site_type_symbol
_atom_site_label
_atom_site_fract_x
_atom_site_fract_y
_atom_site_fract_z
Si Si1 0.431814 0.665753 0.725720
Si Si2 0.840169 0.554994 0.037044
Si Si3 0.073252 0.193182 0.367976
Si Si4 0.784735 0.807719 0.072061
Si Si5 0.241811 0.787483 0.928152
Si Si6 0.963671 0.908449 0.839812
Si Si7 0.500000 0.500000 0.898971
O O1 0.614038 0.678512 0.655730
O O2 0.380537 0.737988 0.835505
O O3 0.309038 0.676282 0.582082
O O4 0.444333 0.578869 0.804475
O O5 0.855087 0.603815 0.189852
O O6 0.000000 0.500000 0.055870
O O7 0.888273 0.603662 0.892332
O O8 0.659561 0.519636 0.003118
O O9 0.079191 0.212054 0.197342
O O10 0.219961 0.238276 0.454135
O O11 0.901465 0.220429 0.442008
O O12 0.852950 0.879921 0.977299
O O13 0.135233 0.856437 0.844038
O O14 0.000000 0.000000 0.857655
#
# Coordination Sequence:
#
# PCOD9342507 Si02
#       7
#     4   4   4   4   4   4   2
#     4  12  26  46  70 114 147 194 246 318 380 456
#     4  11  24  46  71 100 145 192 246 302 378 448
#     4  11  21  42  69  98 132 189 236 295 362 447
#     4  11  23  42  69 101 145 181 238 301 373 449
#     4  11  24  44  75 101 143 187 255 301 375 455
#     4  10  24  46  70 105 138 195 243 310 378 453
#     4  12  28  48  74 116 156 200 250 318 394 454
#
# _framework density 21.209907999999999
#
# number of rings (size 3 to 8) (size 9 to 14) (size 15 to 20)
#    0.000    0.923    1.538    6.462    2.154    1.846 
#    5.538    0.000    0.000    0.000    0.000    0.000 
#    0.000    0.000    0.000    0.000    0.000    0.000 
#
# Total GULP energy -144911.890067 kJ/mol
# GULP energy per Si atom -5573.534233 kJ/mol
# Density = 2.116163 g / cm^3
# Si number density = 21.209908 Si / 1000 Ang^3
#
#
#
# Elastic Constant Matrix: (Units=GPa)
#
#
# Indices 1 2 3 4 5 6 
#
# 1 137.9358 52.3181 68.6526 0.0000 0.0000 0.0000
# 2 52.3181 83.3027 33.0292 0.0000 0.0000 0.0000
# 3 68.6526 33.0292 137.4409 0.0000 0.0000 0.0000
# 4 0.0000 0.0000 0.0000 48.6690 0.0000 0.0000
# 5 0.0000 0.0000 0.0000 0.0000 83.9299 0.0000
# 6 0.0000 0.0000 0.0000 0.0000 0.0000 35.1020
#
#
#
# Elastic Compliance Matrix: (Units=1/GPa)
#
#
# Indices 1 2 3 4 5 6 
#
# 1 0.011545 -0.005487 -0.004448 0.000000 0.000000 0.000000
# 2 -0.005487 0.015877 -0.001075 0.000000 0.000000 0.000000
# 3 -0.004448 -0.001075 0.009756 0.000000 0.000000 0.000000
# 4 0.000000 0.000000 0.000000 0.020547 0.000000 0.000000
# 5 0.000000 0.000000 0.000000 0.000000 0.011915 0.000000
# 6 0.000000 0.000000 0.000000 0.000000 0.000000 0.028488
#
#
# Mechanical properties :
#
#
# Convention : Reuss Voigt Hill
#
# Bulk Modulus (GPa) = 65.97203 74.07545 70.02374
# Shear Modulus (GPa) = 39.93622 47.18547 43.56084
#
# Velocity S-wave (km/s) = 4.34395 4.72178 4.53680
# Velocity P-wave (km/s) = 7.50545 8.04535 7.78008
#
# Compressibility (1/GPa) = 0.01515794
#
# Stress axis : x y z
#
# Youngs Moduli (GPa) = 86.61880 62.98570 102.50160
#
# Poissons Ratio (x) = 0.34561 0.45594
# Poissons Ratio (y) = 0.47528 0.11015
# Poissons Ratio (z) = 0.38529 0.06768
#
# Static dielectric constant tensor:
#      x y z
#    x 1.926570 0.000000 0.000000 
#    y 0.000000 1.770430 0.000000 
#    z 0.000000 0.000000 1.874600 
# 
# From -- ./inp_files/1955.got.cif
#   From: 2010.05.17/outbox.cif.g08.bks.cpg/sg30_1_cif.got.tgz:1955.got - 2010.06.03 17:03:02.
