data_PCOD9342763
_publ_section_title
;
Structure prediction by ZEFSAII (Michael W. Deem and Ramdas Pophale) SiO2 
 PCOD9342763
Probable space group: P M N 21
;
_chemical_formula_sum "Si O2"
_cell_formula_units_Z 32
_cell_length_a 7.682888
_cell_length_b 11.690761
_cell_length_c 16.889219
_cell_angle_alpha 90.000000
_cell_angle_beta 90.000000
_cell_angle_gamma 90.000000
_cell_volume 1516.969508
_symmetry_space_group_name_H-M "P M N 21"
_symmetry_group_IT_number 31
_symmetry_cell_setting 'orthorhombic'
loop_
_space_group_symop_operation_xyz
x,y,z
1/2-x,-y,1/2+z
-x,y,z
1/2+x,-y,1/2+z
loop_
_atom_site_type_symbol
_atom_site_label
_atom_site_fract_x
_atom_site_fract_y
_atom_site_fract_z
Si Si1 0.796168 0.198066 0.019670
Si Si2 0.297516 0.433336 0.722041
Si Si3 0.298369 0.943116 0.990165
Si Si4 0.710246 0.783166 0.849355
Si Si5 0.300625 0.641542 0.391945
Si Si6 0.801784 0.746562 0.106341
Si Si7 0.786003 0.309443 0.183563
Si Si8 0.790719 0.417754 0.468513
O O1 0.726754 0.254529 0.100596
O O2 0.000000 0.229736 0.018050
O O3 0.783905 0.061970 0.015910
O O4 0.722394 0.250399 0.937989
O O5 0.500000 0.435083 0.697604
O O6 0.290877 0.409777 0.815198
O O7 0.220565 0.319548 0.680845
O O8 0.227818 0.558568 0.697659
O O9 0.500000 0.966933 0.974666
O O10 0.286424 0.852215 0.061897
O O11 0.225114 0.880864 0.910581
O O12 0.500000 0.795649 0.847663
O O13 0.769720 0.767953 0.759091
O O14 0.745413 0.662732 0.892904
O O15 0.500000 0.662682 0.368372
O O16 0.287948 0.541214 0.456435
O O17 0.000000 0.782604 0.123450
O O18 0.794168 0.646340 0.041436
O O19 0.000000 0.310197 0.184996
O O20 0.000000 0.423235 0.478673
#
# Coordination Sequence:
#
# PCOD9342763 Si02
#       8
#     4   4   4   4   4   4   4   4
#     4  10  22  39  58  80 112 155 194 238 289 339
#     4  10  20  36  59  86 114 147 188 235 289 356
#     4  10  21  38  58  81 112 149 192 236 285 343
#     4   8  15  30  56  83 104 137 183 232 273 323
#     4  11  22  35  53  82 120 154 188 236 293 345
#     4  10  20  35  58  86 113 145 188 235 287 343
#     4   9  16  33  60  84 108 140 189 237 280 338
#     4  10  18  32  56  84 115 149 186 225 282 345
#
# _framework density 21.09469
#
# number of rings (size 3 to 8) (size 9 to 14) (size 15 to 20)
#    0.000    2.250    1.250    3.000    0.000    4.000 
#    2.250    0.625    0.000    0.000    0.000    0.000 
#    0.000    0.000    0.000    0.000    0.000    0.000 
#
# Total GULP energy -178415.128097 kJ/mol
# GULP energy per Si atom -5575.472753 kJ/mol
# Density = 2.104668 g / cm^3
# Si number density = 21.094690 Si / 1000 Ang^3
#
#
#
# Elastic Constant Matrix: (Units=GPa)
#
#
# Indices 1 2 3 4 5 6 
#
# 1 43.2678 -3.1538 6.4286 0.0000 0.0000 0.0000
# 2 -3.1538 117.3765 60.2691 0.0000 0.0000 0.0000
# 3 6.4286 60.2691 83.9840 0.0000 0.0000 0.0000
# 4 0.0000 0.0000 0.0000 24.9138 0.0000 0.0000
# 5 0.0000 0.0000 0.0000 0.0000 21.1510 0.0000
# 6 0.0000 0.0000 0.0000 0.0000 0.0000 7.5902
#
#
#
# Elastic Compliance Matrix: (Units=1/GPa)
#
#
# Indices 1 2 3 4 5 6 
#
# 1 0.023831 0.002497 -0.003616 0.000000 0.000000 0.000000
# 2 0.002497 0.013752 -0.010060 0.000000 0.000000 0.000000
# 3 -0.003616 -0.010060 0.019403 0.000000 0.000000 0.000000
# 4 0.000000 0.000000 0.000000 0.040138 0.000000 0.000000
# 5 0.000000 0.000000 0.000000 0.000000 0.047279 0.000000
# 6 0.000000 0.000000 0.000000 0.000000 0.000000 0.131749
#
#
# Mechanical properties :
#
#
# Convention : Reuss Voigt Hill
#
# Bulk Modulus (GPa) = 28.87809 41.30177 35.08993
# Shear Modulus (GPa) = 16.12621 22.80331 19.46476
#
# Velocity S-wave (km/s) = 2.76790 3.29142 3.04095
# Velocity P-wave (km/s) = 4.89229 5.83664 5.38520
#
# Compressibility (1/GPa) = 0.03462833
#
# Stress axis : x y z
#
# Youngs Moduli (GPa) = 41.96184 72.71557 51.53794
#
# Poissons Ratio (x) = -0.18158 0.18637
# Poissons Ratio (y) = -0.10478 0.51848
# Poissons Ratio (z) = 0.15174 0.73152
#
# Static dielectric constant tensor:
#      x y z
#    x 1.686830 0.000000 0.000000 
#    y 0.000000 1.736960 0.000000 
#    z 0.000000 0.000000 1.817170 
# 
# From -- ./inp_files/5909.got.cif
#   From: 2010.05.17/outbox.cif.g08.bks.cpg/sg31_3_cif.got.tgz:5909.got - 2010.06.03 17:08:30.
