data_PCOD9342791
_publ_section_title
;
Structure prediction by ZEFSAII (Michael W. Deem and Ramdas Pophale) SiO2 
 PCOD9342791
Probable space group: P M N 21
;
_chemical_formula_sum "Si O2"
_cell_formula_units_Z 32
_cell_length_a 7.535601
_cell_length_b 18.633449
_cell_length_c 10.186712
_cell_angle_alpha 90.000000
_cell_angle_beta 90.000000
_cell_angle_gamma 90.000000
_cell_volume 1430.359392
_symmetry_space_group_name_H-M "P M N 21"
_symmetry_group_IT_number 31
_symmetry_cell_setting 'orthorhombic'
loop_
_space_group_symop_operation_xyz
x,y,z
1/2-x,-y,1/2+z
-x,y,z
1/2+x,-y,1/2+z
loop_
_atom_site_type_symbol
_atom_site_label
_atom_site_fract_x
_atom_site_fract_y
_atom_site_fract_z
Si Si1 0.714312 0.968711 0.793830
Si Si2 0.791280 0.077777 0.017030
Si Si3 0.293107 0.466879 0.343023
Si Si4 0.285259 0.686016 0.717360
Si Si5 0.283721 0.815999 0.909325
Si Si6 0.207228 0.424262 0.629575
Si Si7 0.782971 0.263912 0.663318
Si Si8 0.282773 0.763054 0.460816
O O1 0.500000 0.970690 0.796061
O O2 0.772481 0.034878 0.882452
O O3 0.777821 0.965917 0.643047
O O4 0.773742 0.893897 0.860365
O O5 0.720116 0.158332 0.006181
O O6 0.000000 0.087086 0.042765
O O7 0.500000 0.482086 0.362357
O O8 0.276376 0.389717 0.272953
O O9 0.216460 0.461598 0.488452
O O10 0.215625 0.526678 0.245147
O O11 0.500000 0.684168 0.720883
O O12 0.229868 0.752208 0.810585
O O13 0.229166 0.704692 0.569156
O O14 0.500000 0.817062 0.906841
O O15 0.225637 0.793929 0.055227
O O16 0.278060 0.343396 0.621145
O O17 0.000000 0.415456 0.661307
O O18 0.726079 0.250527 0.812122
O O19 0.000000 0.262047 0.661039
O O20 0.500000 0.763169 0.459997
#
# Coordination Sequence:
#
# PCOD9342791 Si02
#       8
#     4   4   4   4   4   4   4   4
#     4  10  21  36  55  82 113 146 187 234 282 337
#     4  10  21  37  55  82 115 146 187 237 282 336
#     4  11  24  38  57  88 119 148 187 234 282 336
#     4  10  18  35  61  81 105 147 189 230 279 328
#     4   9  16  31  56  80 102 138 189 232 267 321
#     4  10  22  40  59  82 114 151 189 227 276 338
#     4   9  17  31  55  84 106 132 182 236 270 315
#     4   9  18  32  56  85 108 138 190 240 274 323
#
# _framework density 22.371998000000001
#
# number of rings (size 3 to 8) (size 9 to 14) (size 15 to 20)
#    0.000    2.250    2.500    0.375    3.500    1.500 
#    0.000    1.250    0.000    0.750    0.000    0.000 
#    0.000    0.000    0.000    0.000    0.000    0.000 
#
# Total GULP energy -178778.784689 kJ/mol
# GULP energy per Si atom -5586.837022 kJ/mol
# Density = 2.232108 g / cm^3
# Si number density = 22.371998 Si / 1000 Ang^3
#
#
#
# Elastic Constant Matrix: (Units=GPa)
#
#
# Indices 1 2 3 4 5 6 
#
# 1 48.4827 -6.4039 -8.7264 0.0000 0.0000 0.0000
# 2 -6.4039 21.9359 -11.0373 0.0000 0.0000 0.0000
# 3 -8.7264 -11.0373 116.4867 0.0000 0.0000 0.0000
# 4 0.0000 0.0000 0.0000 43.0375 0.0000 0.0000
# 5 0.0000 0.0000 0.0000 0.0000 11.7119 0.0000
# 6 0.0000 0.0000 0.0000 0.0000 0.0000 17.5517
#
#
#
# Elastic Compliance Matrix: (Units=1/GPa)
#
#
# Indices 1 2 3 4 5 6 
#
# 1 0.022062 0.007637 0.002376 0.000000 0.000000 0.000000
# 2 0.007637 0.050513 0.005358 0.000000 0.000000 0.000000
# 3 0.002376 0.005358 0.009270 0.000000 0.000000 0.000000
# 4 0.000000 0.000000 0.000000 0.023236 0.000000 0.000000
# 5 0.000000 0.000000 0.000000 0.000000 0.085384 0.000000
# 6 0.000000 0.000000 0.000000 0.000000 0.000000 0.056975
#
#
# Mechanical properties :
#
#
# Convention : Reuss Voigt Hill
#
# Bulk Modulus (GPa) = 8.88196 14.95223 11.91710
# Shear Modulus (GPa) = 19.66751 28.66506 24.16629
#
# Velocity S-wave (km/s) = 2.96820 3.58340 3.29021
# Velocity P-wave (km/s) = 3.96556 4.88047 4.44661
#
# Compressibility (1/GPa) = 0.11258774
#
# Stress axis : x y z
#
# Youngs Moduli (GPa) = 45.32616 19.79694 107.87031
#
# Poissons Ratio (x) = -0.15118 -0.25634
# Poissons Ratio (y) = -0.34613 -0.57799
# Poissons Ratio (z) = -0.10771 -0.10608
#
# Static dielectric constant tensor:
#      x y z
#    x 1.861220 0.000000 0.000000 
#    y 0.000000 1.790600 0.000000 
#    z 0.000000 0.000000 1.808100 
# 
# From -- ./inp_files/2287.got.cif
#   From: 2010.05.17/outbox.cif.g08.bks.cpg/sg31_2_cif.got.tgz:2287.got - 2010.06.03 17:08:30.
