data_PCOD9342067
_publ_section_title
;
Structure prediction by ZEFSAII (Michael W. Deem and Ramdas Pophale) SiO2 
 PCOD9342067
Probable space group: P N C 2
;
_chemical_formula_sum "Si O2"
_cell_formula_units_Z 18
_cell_length_a 9.025939
_cell_length_b 17.386486
_cell_length_c 5.364523
_cell_angle_alpha 90.000000
_cell_angle_beta 90.000000
_cell_angle_gamma 90.000000
_cell_volume 841.851172
_symmetry_space_group_name_H-M "P N C 2"
_symmetry_group_IT_number 30
_symmetry_cell_setting 'orthorhombic'
loop_
_space_group_symop_operation_xyz
x,y,z
-x,-y,z
-x,1/2+y,1/2+z
x,1/2-y,1/2+z
loop_
_atom_site_type_symbol
_atom_site_label
_atom_site_fract_x
_atom_site_fract_y
_atom_site_fract_z
Si Si1 0.292865 0.463704 0.016570
Si Si2 0.278559 0.945604 0.002999
Si Si3 0.740427 0.270044 0.540599
Si Si4 0.415247 0.293157 0.034729
Si Si5 0.000000 0.000000 0.757792
O O1 0.343387 0.516026 0.252218
O O2 0.117523 0.456007 0.083765
O O3 0.310977 0.506448 0.752468
O O4 0.368022 0.381124 0.015794
O O5 0.317035 0.857120 0.038536
O O6 0.102899 0.948453 0.935938
O O7 0.825802 0.250178 0.790529
O O8 0.594356 0.215971 0.538559
O O9 0.363348 0.245948 0.791881
#
# Coordination Sequence:
#
# PCOD9342067 Si02
#       5
#     4   4   4   4   2
#     4  10  20  38  63  87 115 157 203 243 293 351
#     4  10  20  38  63  87 115 157 203 243 293 351
#     4  10  21  39  58  86 127 153 190 246 301 360
#     4  10  21  39  58  86 127 153 190 246 301 360
#     4   8  22  36  66  82 118 148 216 248 280 344
#
# _framework density 21.381450000000001
#
# number of rings (size 3 to 8) (size 9 to 14) (size 15 to 20)
#    1.333    0.889    0.000    3.333    0.000    0.000 
#    0.000   28.889    0.000    0.000    0.000    0.000 
#    0.000    0.000    0.000    0.000    0.000    0.000 
#
# Total GULP energy -100362.852293 kJ/mol
# GULP energy per Si atom -5575.714016 kJ/mol
# Density = 2.133279 g / cm^3
# Si number density = 21.381450 Si / 1000 Ang^3
#
#
#
# Elastic Constant Matrix: (Units=GPa)
#
#
# Indices 1 2 3 4 5 6 
#
# 1 68.0011 7.6150 -6.3244 0.0000 0.0000 0.0000
# 2 7.6150 112.1361 62.9840 0.0000 0.0000 0.0000
# 3 -6.3244 62.9840 220.2999 0.0000 0.0000 0.0000
# 4 0.0000 0.0000 0.0000 40.8445 0.0000 0.0000
# 5 0.0000 0.0000 0.0000 0.0000 -14.8976 0.0000
# 6 0.0000 0.0000 0.0000 0.0000 0.0000 -4.1457
#
#
#
# Elastic Compliance Matrix: (Units=1/GPa)
#
#
# Indices 1 2 3 4 5 6 
#
# 1 0.014953 -0.001497 0.000857 0.000000 0.000000 0.000000
# 2 -0.001497 0.010774 -0.003123 0.000000 0.000000 0.000000
# 3 0.000857 -0.003123 0.005457 0.000000 0.000000 0.000000
# 4 0.000000 0.000000 0.000000 0.024483 0.000000 0.000000
# 5 0.000000 0.000000 0.000000 0.000000 -0.067125 0.000000
# 6 0.000000 0.000000 0.000000 0.000000 0.000000 -0.241212
#
#
# Mechanical properties :
#
#
# Convention : Reuss Voigt Hill
#
# Bulk Modulus (GPa) = 42.26952 58.77625 50.52289
# Shear Modulus (GPa) = -21.07400 26.77109 2.84854
#
# Velocity S-wave (km/s) = -3.14287 3.54230 1.15548
# Velocity P-wave (km/s) = 2.57721 6.65429 5.04587
#
# Compressibility (1/GPa) = 0.02365771
#
# Stress axis : x y z
#
# Youngs Moduli (GPa) = 66.87622 92.81966 183.25796
#
# Poissons Ratio (x) = 0.13894 -0.15710
# Poissons Ratio (y) = 0.10011 0.57234
# Poissons Ratio (z) = -0.05733 0.28989
#
# Static dielectric constant tensor:
#      x y z
#    x 1.790580 0.000000 0.000000 
#    y 0.000000 1.745760 0.000000 
#    z 0.000000 0.000000 1.883300 
# 
# From -- ./inp_files/354.got.cif
#   From: 2010.05.17/outbox.cif.g08.bks.cpg/sg30_1_cif.got.tgz:354.got - 2010.06.03 17:03:02.
