data_PCOD9342703
_publ_section_title
;
Structure prediction by ZEFSAII (Michael W. Deem and Ramdas Pophale) SiO2 
 PCOD9342703
Probable space group: P M N 21
;
_chemical_formula_sum "Si O2"
_cell_formula_units_Z 24
_cell_length_a 26.018805
_cell_length_b 10.652838
_cell_length_c 4.899169
_cell_angle_alpha 90.000000
_cell_angle_beta 90.000000
_cell_angle_gamma 90.000000
_cell_volume 1357.922830
_symmetry_space_group_name_H-M "P M N 21"
_symmetry_group_IT_number 31
_symmetry_cell_setting 'orthorhombic'
loop_
_space_group_symop_operation_xyz
x,y,z
1/2-x,-y,1/2+z
-x,y,z
1/2+x,-y,1/2+z
loop_
_atom_site_type_symbol
_atom_site_label
_atom_site_fract_x
_atom_site_fract_y
_atom_site_fract_z
Si Si1 0.736710 0.664975 0.040880
Si Si2 0.500000 0.055396 0.405349
Si Si3 0.887866 0.939972 0.781090
Si Si4 0.500000 0.229011 0.900847
Si Si5 0.779333 0.052434 0.660750
Si Si6 0.608869 0.238596 0.783983
Si Si7 0.197899 0.596200 0.534620
O O1 0.720862 0.809055 0.029900
O O2 0.754859 0.641501 0.348657
O O3 0.695671 0.554034 0.993734
O O4 0.784550 0.635562 0.837974
O O5 0.556480 0.997441 0.347826
O O6 0.500000 0.102925 0.714921
O O7 0.500000 0.180585 0.211433
O O8 0.891475 0.882669 0.480243
O O9 0.835375 0.018487 0.780299
O O10 0.882293 0.821208 0.987376
O O11 0.552214 0.296463 0.817400
O O12 0.760615 0.961690 0.413642
O O13 0.649904 0.332608 0.908407
#
# Coordination Sequence:
#
# PCOD9342703 Si02
#       7
#     4   2   4   2   4   4   4
#     4  10  21  33  46  69  92 125 161 188 229 279
#     4   8  16  30  44  65  92 123 156 188 231 278
#     4  10  19  30  48  70  96 124 155 195 237 282
#     4   8  16  26  44  69  92 111 150 198 231 274
#     4  12  22  32  48  72 101 126 156 198 241 288
#     4  10  17  30  48  70  92 121 154 192 240 273
#     4  10  19  33  50  64  93 126 157 192 227 282
#
# _framework density 17.674054000000002
#
# number of rings (size 3 to 8) (size 9 to 14) (size 15 to 20)
#    0.000    2.000    0.000    6.000    0.000    0.000 
#    0.000    0.000    0.000    1.000    0.000    0.000 
#    0.000   24.000    0.000    0.000    0.000    8.167 
#
# Total GULP energy -133623.921921 kJ/mol
# GULP energy per Si atom -5567.663413 kJ/mol
# Density = 1.763383 g / cm^3
# Si number density = 17.674054 Si / 1000 Ang^3
#
#
#
# Elastic Constant Matrix: (Units=GPa)
#
#
# Indices 1 2 3 4 5 6 
#
# 1 125.2819 43.7735 2.3514 0.0000 0.0000 0.0000
# 2 43.7735 76.1443 3.1845 0.0000 0.0000 0.0000
# 3 2.3514 3.1845 69.5587 0.0000 0.0000 0.0000
# 4 0.0000 0.0000 0.0000 17.8961 0.0000 0.0000
# 5 0.0000 0.0000 0.0000 0.0000 21.8948 0.0000
# 6 0.0000 0.0000 0.0000 0.0000 0.0000 13.5509
#
#
#
# Elastic Compliance Matrix: (Units=1/GPa)
#
#
# Indices 1 2 3 4 5 6 
#
# 1 0.009989 -0.005739 -0.000075 0.000000 0.000000 0.000000
# 2 -0.005739 0.016456 -0.000559 0.000000 0.000000 0.000000
# 3 -0.000075 -0.000559 0.014404 0.000000 0.000000 0.000000
# 4 0.000000 0.000000 0.000000 0.055878 0.000000 0.000000
# 5 0.000000 0.000000 0.000000 0.000000 0.045673 0.000000
# 6 0.000000 0.000000 0.000000 0.000000 0.000000 0.073796
#
#
# Mechanical properties :
#
#
# Convention : Reuss Voigt Hill
#
# Bulk Modulus (GPa) = 35.58466 41.06710 38.32588
# Shear Modulus (GPa) = 20.98114 25.44675 23.21395
#
# Velocity S-wave (km/s) = 3.44919 3.79856 3.62808
# Velocity P-wave (km/s) = 6.00334 6.52112 6.26758
#
# Compressibility (1/GPa) = 0.02810200
#
# Stress axis : x y z
#
# Youngs Moduli (GPa) = 100.11367 60.76953 69.42285
#
# Poissons Ratio (x) = 0.34876 0.00520
# Poissons Ratio (y) = 0.57456 0.03883
# Poissons Ratio (z) = 0.00750 0.03399
#
# Static dielectric constant tensor:
#      x y z
#    x 1.693830 0.000000 0.000000 
#    y 0.000000 1.601790 0.000000 
#    z 0.000000 0.000000 1.609590 
# 
# From -- ./inp_files/1235.got.cif
#   From: 2010.05.17/outbox.cif.g08.bks.cpg/sg31_1_cif.got.tgz:1235.got - 2010.06.03 17:08:30.
