data_PCOD9342011
_publ_section_title
;
Structure prediction by ZEFSAII (Michael W. Deem and Ramdas Pophale) SiO2 
 PCOD9342011
Probable space group: P N C 2
;
_chemical_formula_sum "Si O2"
_cell_formula_units_Z 32
_cell_length_a 6.708868
_cell_length_b 22.744539
_cell_length_c 12.918626
_cell_angle_alpha 90.000000
_cell_angle_beta 90.000000
_cell_angle_gamma 90.000000
_cell_volume 1971.254561
_symmetry_space_group_name_H-M "P N C 2"
_symmetry_group_IT_number 30
_symmetry_cell_setting 'orthorhombic'
loop_
_space_group_symop_operation_xyz
x,y,z
-x,-y,z
-x,1/2+y,1/2+z
x,1/2-y,1/2+z
loop_
_atom_site_type_symbol
_atom_site_label
_atom_site_fract_x
_atom_site_fract_y
_atom_site_fract_z
Si Si1 0.421212 0.261456 0.117250
Si Si2 0.757206 0.173167 0.487375
Si Si3 0.117627 0.652030 0.383416
Si Si4 0.019037 0.221962 0.073156
Si Si5 0.907448 0.059988 0.597721
Si Si6 0.764334 0.227687 0.268164
Si Si7 0.389876 0.942005 0.788614
Si Si8 0.227265 0.131671 0.729067
O O1 0.257348 0.221135 0.061829
O O2 0.570920 0.228839 0.194825
O O3 0.285600 0.305618 0.183477
O O4 0.558225 0.299805 0.039993
O O5 0.798750 0.106581 0.522657
O O6 0.750708 0.184224 0.365019
O O7 0.932024 0.215360 0.532976
O O8 0.206891 0.706717 0.316335
O O9 0.258602 0.595956 0.367998
O O10 0.085689 0.674703 0.498840
O O11 0.905054 0.638153 0.331639
O O12 0.946463 0.214468 0.190774
O O13 0.755413 0.043904 0.691390
O O14 0.088122 0.095938 0.650197
O O15 0.000000 0.000000 0.552775
O O16 0.566871 0.901008 0.748326
O O17 0.500000 0.000000 0.829051
#
# Coordination Sequence:
#
# PCOD9342011 Si02
#       8
#     4   4   4   4   4   4   4   4
#     4  11  18  31  52  73 105 144 171 207 264 321
#     4  10  21  32  49  79 108 135 175 218 257 317
#     4  10  21  31  50  79 104 139 178 213 259 320
#     4  10  20  34  50  73 109 142 172 211 264 317
#     4  11  20  32  50  79 106 136 174 214 265 321
#     4  10  20  33  49  74 110 139 174 215 259 315
#     4  11  20  33  52  77 108 136 168 218 265 315
#     4  11  18  31  49  75 107 134 170 210 261 315
#
# _framework density 16.233318000000001
#
# number of rings (size 3 to 8) (size 9 to 14) (size 15 to 20)
#    0.000    1.500    6.250    1.500    1.750    1.000 
#    0.000    0.000    0.000    0.000    3.250    0.875 
#    0.000    0.000    0.000    0.000    0.000    0.000 
#
# Total GULP energy -178431.348150 kJ/mol
# GULP energy per Si atom -5575.979630 kJ/mol
# Density = 1.619637 g / cm^3
# Si number density = 16.233318 Si / 1000 Ang^3
#
#
#
# Elastic Constant Matrix: (Units=GPa)
#
#
# Indices 1 2 3 4 5 6 
#
# 1 99.8944 25.4316 31.0882 0.0000 0.0000 0.0000
# 2 25.4316 78.9582 44.0339 0.0000 0.0000 0.0000
# 3 31.0882 44.0339 87.9151 0.0000 0.0000 0.0000
# 4 0.0000 0.0000 0.0000 18.5876 0.0000 0.0000
# 5 0.0000 0.0000 0.0000 0.0000 9.2382 0.0000
# 6 0.0000 0.0000 0.0000 0.0000 0.0000 24.0052
#
#
#
# Elastic Compliance Matrix: (Units=1/GPa)
#
#
# Indices 1 2 3 4 5 6 
#
# 1 0.011469 -0.001987 -0.003060 0.000000 0.000000 0.000000
# 2 -0.001987 0.017918 -0.008272 0.000000 0.000000 0.000000
# 3 -0.003060 -0.008272 0.016600 0.000000 0.000000 0.000000
# 4 0.000000 0.000000 0.000000 0.053799 0.000000 0.000000
# 5 0.000000 0.000000 0.000000 0.000000 0.108246 0.000000
# 6 0.000000 0.000000 0.000000 0.000000 0.000000 0.041658
#
#
# Mechanical properties :
#
#
# Convention : Reuss Voigt Hill
#
# Bulk Modulus (GPa) = 51.68481 51.98613 51.83547
# Shear Modulus (GPa) = 17.68173 21.44715 19.56444
#
# Velocity S-wave (km/s) = 3.30392 3.63875 3.47537
# Velocity P-wave (km/s) = 6.81633 7.05322 6.93578
#
# Compressibility (1/GPa) = 0.01934804
#
# Stress axis : x y z
#
# Youngs Moduli (GPa) = 87.19242 55.80927 60.24149
#
# Poissons Ratio (x) = 0.11092 0.18435
# Poissons Ratio (y) = 0.17329 0.49831
# Poissons Ratio (z) = 0.26682 0.46165
#
# Static dielectric constant tensor:
#      x y z
#    x 1.578320 0.000000 0.000000 
#    y 0.000000 1.566610 0.000000 
#    z 0.000000 0.000000 1.542030 
# 
# From -- ./inp_files/3285.got.cif
#   From: 2010.05.17/outbox.cif.g08.bks.cpg/sg30_2_cif.got.tgz:3285.got - 2010.06.03 17:03:02.
