data_PCOD9342342
_publ_section_title
;
Structure prediction by ZEFSAII (Michael W. Deem and Ramdas Pophale) SiO2 
 PCOD9342342
Probable space group: P N C 2
;
_chemical_formula_sum "Si O2"
_cell_formula_units_Z 22
_cell_length_a 15.345129
_cell_length_b 5.128179
_cell_length_c 11.587632
_cell_angle_alpha 90.000000
_cell_angle_beta 90.000000
_cell_angle_gamma 90.000000
_cell_volume 911.860522
_symmetry_space_group_name_H-M "P N C 2"
_symmetry_group_IT_number 30
_symmetry_cell_setting 'orthorhombic'
loop_
_space_group_symop_operation_xyz
x,y,z
-x,-y,z
-x,1/2+y,1/2+z
x,1/2-y,1/2+z
loop_
_atom_site_type_symbol
_atom_site_label
_atom_site_fract_x
_atom_site_fract_y
_atom_site_fract_z
Si Si1 0.642450 0.699140 0.944730
Si Si2 0.270149 0.687516 0.519075
Si Si3 0.598051 0.097707 0.214333
Si Si4 0.900520 0.602214 0.517764
Si Si5 0.937715 0.749867 0.267603
Si Si6 0.500000 0.000000 0.609396
O O1 0.708315 0.490111 0.003388
O O2 0.620353 0.549027 0.828791
O O3 0.682680 0.986320 0.929318
O O4 0.553713 0.684189 0.019942
O O5 0.319086 0.573123 0.631434
O O6 0.168741 0.631112 0.518474
O O7 0.574734 0.399937 0.195511
O O8 0.500000 0.000000 0.185125
O O9 0.888699 0.739941 0.391989
O O10 0.888905 0.741152 0.643151
O O11 0.000000 0.500000 0.517644
O O12 0.000000 0.500000 0.262746
O O13 0.000000 0.000000 0.272756
#
# Coordination Sequence:
#
# PCOD9342342 Si02
#       6
#     4   4   4   4   4   2
#     4  11  25  42  68  98 139 177 227 282 342 412
#     4  11  27  44  65 107 135 176 236 281 342 418
#     4  11  23  42  71  95 138 181 224 284 346 412
#     4  10  24  48  72 103 142 188 231 293 353 420
#     4  10  22  42  72 102 133 183 235 282 350 417
#     4  10  22  42  64  98 130 180 226 272 346 412
#
# _framework density 24.126497000000001
#
# number of rings (size 3 to 8) (size 9 to 14) (size 15 to 20)
#    0.000    1.455    2.727    0.545    5.091    5.818 
#    6.545    0.000    0.000    0.000    0.000    0.000 
#    0.000    0.000    0.000    0.000    0.000    0.000 
#
# Total GULP energy -122557.783581 kJ/mol
# GULP energy per Si atom -5570.808345 kJ/mol
# Density = 2.407158 g / cm^3
# Si number density = 24.126497 Si / 1000 Ang^3
#
#
#
# Elastic Constant Matrix: (Units=GPa)
#
#
# Indices 1 2 3 4 5 6 
#
# 1 92.4175 -7.0376 0.7696 0.0000 0.0000 0.0000
# 2 -7.0376 65.0334 -3.2724 0.0000 0.0000 0.0000
# 3 0.7696 -3.2724 162.2194 0.0000 0.0000 0.0000
# 4 0.0000 0.0000 0.0000 11.7889 0.0000 0.0000
# 5 0.0000 0.0000 0.0000 0.0000 7.4226 0.0000
# 6 0.0000 0.0000 0.0000 0.0000 0.0000 -37.3948
#
#
#
# Elastic Compliance Matrix: (Units=1/GPa)
#
#
# Indices 1 2 3 4 5 6 
#
# 1 0.010910 0.001179 -0.000028 0.000000 0.000000 0.000000
# 2 0.001179 0.015520 0.000307 0.000000 0.000000 0.000000
# 3 -0.000028 0.000307 0.006171 0.000000 0.000000 0.000000
# 4 0.000000 0.000000 0.000000 0.084826 0.000000 0.000000
# 5 0.000000 0.000000 0.000000 0.000000 0.134723 0.000000
# 6 0.000000 0.000000 0.000000 0.000000 0.000000 -0.026742
#
#
# Mechanical properties :
#
#
# Convention : Reuss Voigt Hill
#
# Bulk Modulus (GPa) = 28.15420 33.39884 30.77652
# Shear Modulus (GPa) = 21.33744 18.31073 19.82408
#
# Velocity S-wave (km/s) = 2.97711 2.75789 2.86959
# Velocity P-wave (km/s) = 4.84895 4.90046 4.87477
#
# Compressibility (1/GPa) = 0.03551868
#
# Stress axis : x y z
#
# Youngs Moduli (GPa) = 91.65486 64.43381 162.05286
#
# Poissons Ratio (x) = -0.07599 0.00453
# Poissons Ratio (y) = -0.10809 -0.04983
# Poissons Ratio (z) = 0.00256 -0.01981
#
# Static dielectric constant tensor:
#      x y z
#    x 1.901840 0.000000 0.000000 
#    y 0.000000 2.612980 0.000000 
#    z 0.000000 0.000000 2.028500 
# 
# From -- ./inp_files/4276.got.cif
#   From: 2010.05.17/outbox.cif.g08.bks.cpg/sg30_3_cif.got.tgz:4276.got - 2010.06.03 17:03:02.
