data_PCOD9342870
_publ_section_title
;
Structure prediction by ZEFSAII (Michael W. Deem and Ramdas Pophale) SiO2 
 PCOD9342870
Probable space group: P M N 21
;
_chemical_formula_sum "Si O2"
_cell_formula_units_Z 32
_cell_length_a 8.671267
_cell_length_b 11.693794
_cell_length_c 16.710211
_cell_angle_alpha 90.000000
_cell_angle_beta 90.000000
_cell_angle_gamma 90.000000
_cell_volume 1694.415563
_symmetry_space_group_name_H-M "P M N 21"
_symmetry_group_IT_number 31
_symmetry_cell_setting 'orthorhombic'
loop_
_space_group_symop_operation_xyz
x,y,z
1/2-x,-y,1/2+z
-x,y,z
1/2+x,-y,1/2+z
loop_
_atom_site_type_symbol
_atom_site_label
_atom_site_fract_x
_atom_site_fract_y
_atom_site_fract_z
Si Si1 0.324270 0.093960 0.782630
Si Si2 0.317450 0.063565 0.519026
Si Si3 0.685026 0.810913 0.576755
Si Si4 0.312740 0.571181 0.258813
Si Si5 0.320821 0.774852 0.146093
Si Si6 0.316843 0.313649 0.233083
Si Si7 0.686027 0.735751 0.402516
Si Si8 0.323801 0.852894 0.853747
O O1 0.500000 0.127679 0.760358
O O2 0.201428 0.136313 0.718681
O O3 0.275274 0.157141 0.864016
O O4 0.321696 0.959179 0.792628
O O5 0.500000 0.052530 0.506839
O O6 0.278463 0.169724 0.576456
O O7 0.238898 0.095129 0.435701
O O8 0.264276 0.942192 0.557631
O O9 0.500000 0.814659 0.585861
O O10 0.751863 0.753306 0.656110
O O11 0.720720 0.736122 0.496845
O O12 0.500000 0.569917 0.258566
O O13 0.267095 0.656619 0.186821
O O14 0.256835 0.443492 0.242695
O O15 0.270788 0.629442 0.344340
O O16 0.500000 0.765693 0.122772
O O17 0.500000 0.318525 0.224277
O O18 0.274285 0.246271 0.313737
O O19 0.500000 0.752435 0.394999
O O20 0.500000 0.815129 0.864347
#
# Coordination Sequence:
#
# PCOD9342870 Si02
#       8
#     4   4   4   4   4   4   4   4
#     4  10  19  32  54  84 115 143 183 231 280 338
#     4  11  22  37  58  88 119 145 188 238 287 348
#     4  10  21  37  59  87 118 149 189 241 294 351
#     4   8  18  38  60  81 110 149 197 239 278 337
#     4  10  20  36  59  83 113 151 187 228 286 341
#     4  11  23  39  59  83 116 156 198 242 284 337
#     4   9  17  35  61  83 109 149 191 236 290 341
#     4  11  23  38  56  81 118 154 185 231 289 347
#
# _framework density 18.885567000000002
#
# number of rings (size 3 to 8) (size 9 to 14) (size 15 to 20)
#    0.000    2.000    1.250    3.375    0.000    6.000 
#    2.250    6.250    0.000    0.000    0.000    0.000 
#    0.000    0.000    0.000    0.000    0.000    0.000 
#
# Total GULP energy -178452.564980 kJ/mol
# GULP energy per Si atom -5576.642656 kJ/mol
# Density = 1.884258 g / cm^3
# Si number density = 18.885567 Si / 1000 Ang^3
#
#
#
# Elastic Constant Matrix: (Units=GPa)
#
#
# Indices 1 2 3 4 5 6 
#
# 1 24.3341 16.4656 10.8242 0.0000 0.0000 0.0000
# 2 16.4656 119.0905 56.0131 0.0000 0.0000 0.0000
# 3 10.8242 56.0131 75.0396 0.0000 0.0000 0.0000
# 4 0.0000 0.0000 0.0000 21.2699 0.0000 0.0000
# 5 0.0000 0.0000 0.0000 0.0000 30.6276 0.0000
# 6 0.0000 0.0000 0.0000 0.0000 0.0000 -54.5723
#
#
#
# Elastic Compliance Matrix: (Units=1/GPa)
#
#
# Indices 1 2 3 4 5 6 
#
# 1 0.045740 -0.004963 -0.002893 0.000000 0.000000 0.000000
# 2 -0.004963 0.013479 -0.009345 0.000000 0.000000 0.000000
# 3 -0.002893 -0.009345 0.020719 0.000000 0.000000 0.000000
# 4 0.000000 0.000000 0.000000 0.047015 0.000000 0.000000
# 5 0.000000 0.000000 0.000000 0.000000 0.032650 0.000000
# 6 0.000000 0.000000 0.000000 0.000000 0.000000 -0.018324
#
#
# Mechanical properties :
#
#
# Convention : Reuss Voigt Hill
#
# Bulk Modulus (GPa) = 21.96118 42.78557 32.37337
# Shear Modulus (GPa) = 26.19726 8.47581 17.33653
#
# Velocity S-wave (km/s) = 3.72850 2.12078 3.03310
# Velocity P-wave (km/s) = 5.49449 5.35736 5.42636
#
# Compressibility (1/GPa) = 0.04553490
#
# Stress axis : x y z
#
# Youngs Moduli (GPa) = 21.86273 74.19159 48.26432
#
# Poissons Ratio (x) = 0.36824 0.13962
# Poissons Ratio (y) = 0.10851 0.45104
# Poissons Ratio (z) = 0.06325 0.69333
#
# Static dielectric constant tensor:
#      x y z
#    x 1.642030 0.000000 0.000000 
#    y 0.000000 1.663220 0.000000 
#    z 0.000000 0.000000 1.698100 
# 
# From -- ./inp_files/5069.got.cif
#   From: 2010.05.17/outbox.cif.g08.bks.cpg/sg31_3_cif.got.tgz:5069.got - 2010.06.03 17:08:30.
