data_PCOD9342121
_publ_section_title
;
Structure prediction by ZEFSAII (Michael W. Deem and Ramdas Pophale) SiO2 
 PCOD9342121
Probable space group: P N C 2
;
_chemical_formula_sum "Si O2"
_cell_formula_units_Z 32
_cell_length_a 8.641565
_cell_length_b 12.060125
_cell_length_c 13.589787
_cell_angle_alpha 90.000000
_cell_angle_beta 90.000000
_cell_angle_gamma 90.000000
_cell_volume 1416.305234
_symmetry_space_group_name_H-M "P N C 2"
_symmetry_group_IT_number 30
_symmetry_cell_setting 'orthorhombic'
loop_
_space_group_symop_operation_xyz
x,y,z
-x,-y,z
-x,1/2+y,1/2+z
x,1/2-y,1/2+z
loop_
_atom_site_type_symbol
_atom_site_label
_atom_site_fract_x
_atom_site_fract_y
_atom_site_fract_z
Si Si1 0.857948 0.564883 0.619320
Si Si2 0.684091 0.721072 0.769746
Si Si3 0.181368 0.033397 0.800629
Si Si4 0.238546 0.378187 0.958528
Si Si5 0.966094 0.256436 0.496824
Si Si6 0.516762 0.735467 0.086206
Si Si7 0.316436 0.903051 0.975698
Si Si8 0.777121 0.417451 0.091057
O O1 0.783139 0.643594 0.698243
O O2 0.934284 0.640149 0.534164
O O3 0.745048 0.477790 0.566528
O O4 0.000000 0.500000 0.666806
O O5 0.771546 0.836698 0.794486
O O6 0.653158 0.648707 0.866614
O O7 0.534195 0.741405 0.702070
O O8 0.300204 0.978748 0.879401
O O9 0.209345 0.982333 0.692755
O O10 0.000000 0.000000 0.825937
O O11 0.076345 0.320132 0.932825
O O12 0.321733 0.313421 0.047924
O O13 0.208613 0.499763 0.998873
O O14 0.809685 0.306487 0.454012
O O15 0.909474 0.176470 0.585119
O O16 0.386372 0.642405 0.078922
O O17 0.466632 0.839499 0.017655
#
# Coordination Sequence:
#
# PCOD9342121 Si02
#       8
#     4   4   4   4   4   4   4   4
#     4  10  20  42  66  97 135 176 223 290 342 405
#     4  12  26  42  69 100 137 182 235 285 351 424
#     4  12  23  41  76 109 133 180 239 294 352 413
#     4  12  23  43  69  96 139 179 227 287 346 406
#     4  10  20  42  70 100 140 173 228 288 350 404
#     4  11  26  48  62  99 141 185 229 280 344 427
#     4  10  24  43  69  98 138 179 228 286 344 415
#     4  11  24  43  69  99 145 184 223 289 350 415
#
# _framework density 22.594000000000001
#
# number of rings (size 3 to 8) (size 9 to 14) (size 15 to 20)
#    0.000    1.000    2.500    4.875    1.750    1.500 
#    4.500    2.500    0.000    0.000    0.000    0.000 
#    0.000    0.000    0.000    0.000    0.000    0.000 
#
# Total GULP energy -178775.835926 kJ/mol
# GULP energy per Si atom -5586.744873 kJ/mol
# Density = 2.254258 g / cm^3
# Si number density = 22.594000 Si / 1000 Ang^3
#
#
#
# Elastic Constant Matrix: (Units=GPa)
#
#
# Indices 1 2 3 4 5 6 
#
# 1 58.2386 35.1432 -7.3136 0.0000 0.0000 0.0000
# 2 35.1432 111.7424 25.7804 0.0000 0.0000 0.0000
# 3 -7.3136 25.7804 80.7072 0.0000 0.0000 0.0000
# 4 0.0000 0.0000 0.0000 35.3128 0.0000 0.0000
# 5 0.0000 0.0000 0.0000 0.0000 18.8656 0.0000
# 6 0.0000 0.0000 0.0000 0.0000 0.0000 38.0394
#
#
#
# Elastic Compliance Matrix: (Units=1/GPa)
#
#
# Indices 1 2 3 4 5 6 
#
# 1 0.022725 -0.008229 0.004688 0.000000 0.000000 0.000000
# 2 -0.008229 0.012641 -0.004783 0.000000 0.000000 0.000000
# 3 0.004688 -0.004783 0.014343 0.000000 0.000000 0.000000
# 4 0.000000 0.000000 0.000000 0.028318 0.000000 0.000000
# 5 0.000000 0.000000 0.000000 0.000000 0.053007 0.000000
# 6 0.000000 0.000000 0.000000 0.000000 0.000000 0.026289
#
#
# Mechanical properties :
#
#
# Convention : Reuss Voigt Hill
#
# Bulk Modulus (GPa) = 30.24785 39.76760 35.00772
# Shear Modulus (GPa) = 27.02836 31.58210 29.30523
#
# Velocity S-wave (km/s) = 3.46246 3.74278 3.60535
# Velocity P-wave (km/s) = 5.42231 6.02637 5.73230
#
# Compressibility (1/GPa) = 0.03306021
#
# Stress axis : x y z
#
# Youngs Moduli (GPa) = 44.00474 79.10978 69.71914
#
# Poissons Ratio (x) = 0.65096 -0.32683
# Poissons Ratio (y) = 0.36209 0.33350
# Poissons Ratio (z) = -0.20628 0.37842
#
# Static dielectric constant tensor:
#      x y z
#    x 1.891240 0.000000 0.000000 
#    y 0.000000 1.860870 0.000000 
#    z 0.000000 0.000000 1.842550 
# 
# From -- ./inp_files/5207.got.cif
#   From: 2010.05.17/outbox.cif.g08.bks.cpg/sg30_3_cif.got.tgz:5207.got - 2010.06.03 17:03:02.
