data_PCOD9342300
_publ_section_title
;
Structure prediction by ZEFSAII (Michael W. Deem and Ramdas Pophale) SiO2 
 PCOD9342300
Probable space group: P N C 2
;
_chemical_formula_sum "Si O2"
_cell_formula_units_Z 32
_cell_length_a 8.503629
_cell_length_b 16.009707
_cell_length_c 12.361305
_cell_angle_alpha 90.000000
_cell_angle_beta 90.000000
_cell_angle_gamma 90.000000
_cell_volume 1682.875587
_symmetry_space_group_name_H-M "P N C 2"
_symmetry_group_IT_number 30
_symmetry_cell_setting 'orthorhombic'
loop_
_space_group_symop_operation_xyz
x,y,z
-x,-y,z
-x,1/2+y,1/2+z
x,1/2-y,1/2+z
loop_
_atom_site_type_symbol
_atom_site_label
_atom_site_fract_x
_atom_site_fract_y
_atom_site_fract_z
Si Si1 0.874687 0.266041 0.500000
Si Si2 0.177309 0.037278 0.060293
Si Si3 0.331785 0.157425 0.223490
Si Si4 0.318863 0.619852 0.647617
Si Si5 0.842160 0.399692 0.876343
Si Si6 0.158915 0.314998 0.139222
Si Si7 0.950198 0.596617 0.356694
Si Si8 0.788747 0.581278 0.933697
O O1 0.747953 0.302802 0.581491
O O2 0.806571 0.187630 0.434524
O O3 0.023872 0.234526 0.571426
O O4 0.930634 0.340143 0.418887
O O5 0.210509 0.098033 0.159246
O O6 0.296687 0.961198 0.072717
O O7 0.187277 0.086064 0.946840
O O8 0.000000 0.000000 0.066437
O O9 0.505082 0.133680 0.185699
O O10 0.283621 0.249850 0.187680
O O11 0.311487 0.135281 0.349107
O O12 0.208882 0.604772 0.752106
O O13 0.759935 0.482141 0.925589
O O14 0.029622 0.408715 0.894274
O O15 0.089011 0.362400 0.242774
O O16 0.225714 0.380943 0.052805
O O17 0.000000 0.500000 0.338368
#
# Coordination Sequence:
#
# PCOD9342300 Si02
#       8
#     4   4   4   4   4   4   4   4
#     4  11  21  40  63  94 126 169 214 267 315 386
#     4  11  20  40  64  91 122 158 212 269 312 371
#     4  12  24  38  64  94 126 164 214 264 324 391
#     4  12  23  39  61  95 126 167 211 263 328 383
#     4  10  22  38  62  93 121 163 215 262 312 379
#     4  11  23  40  65  95 127 168 215 267 333 385
#     4  11  22  38  67  96 130 163 216 276 327 382
#     4  10  22  40  65  92 124 162 213 271 317 378
#
# _framework density 19.015070999999999
#
# number of rings (size 3 to 8) (size 9 to 14) (size 15 to 20)
#    0.000    1.000    5.000    4.125    3.500    1.000 
#    0.000    0.000    0.000    0.000    6.500    0.000 
#    0.000    0.000    0.000    0.000    0.000    0.000 
#
# Total GULP energy -178632.070412 kJ/mol
# GULP energy per Si atom -5582.252200 kJ/mol
# Density = 1.897179 g / cm^3
# Si number density = 19.015071 Si / 1000 Ang^3
#
#
#
# Elastic Constant Matrix: (Units=GPa)
#
#
# Indices 1 2 3 4 5 6 
#
# 1 48.6869 28.4108 33.7650 0.0000 0.0000 0.0000
# 2 28.4108 120.3363 59.7078 0.0000 0.0000 0.0000
# 3 33.7650 59.7078 125.9070 0.0000 0.0000 0.0000
# 4 0.0000 0.0000 0.0000 40.5088 0.0000 0.0000
# 5 0.0000 0.0000 0.0000 0.0000 10.5024 0.0000
# 6 0.0000 0.0000 0.0000 0.0000 0.0000 14.2368
#
#
#
# Elastic Compliance Matrix: (Units=1/GPa)
#
#
# Indices 1 2 3 4 5 6 
#
# 1 0.026343 -0.003549 -0.005381 0.000000 0.000000 0.000000
# 2 -0.003549 0.011345 -0.004428 0.000000 0.000000 0.000000
# 3 -0.005381 -0.004428 0.011485 0.000000 0.000000 0.000000
# 4 0.000000 0.000000 0.000000 0.024686 0.000000 0.000000
# 5 0.000000 0.000000 0.000000 0.000000 0.095216 0.000000
# 6 0.000000 0.000000 0.000000 0.000000 0.000000 0.070240
#
#
# Mechanical properties :
#
#
# Convention : Reuss Voigt Hill
#
# Bulk Modulus (GPa) = 44.53245 59.85526 52.19385
# Shear Modulus (GPa) = 18.28027 24.58603 21.43315
#
# Velocity S-wave (km/s) = 3.10394 3.59970 3.36097
# Velocity P-wave (km/s) = 6.02630 6.98736 6.52455
#
# Compressibility (1/GPa) = 0.02245554
#
# Stress axis : x y z
#
# Youngs Moduli (GPa) = 37.96143 88.14261 87.06641
#
# Poissons Ratio (x) = 0.31285 0.46852
# Poissons Ratio (y) = 0.13474 0.38556
# Poissons Ratio (z) = 0.20428 0.39032
#
# Static dielectric constant tensor:
#      x y z
#    x 1.648840 0.000000 0.000000 
#    y 0.000000 1.703310 0.000000 
#    z 0.000000 0.000000 1.651010 
# 
# From -- ./inp_files/3845.got.cif
#   From: 2010.05.17/outbox.cif.g08.bks.cpg/sg30_2_cif.got.tgz:3845.got - 2010.06.03 17:03:02.
