data_PCOD9342537
_publ_section_title
;
Structure prediction by ZEFSAII (Michael W. Deem and Ramdas Pophale) SiO2 
 PCOD9342537
Probable space group: P N C 2
;
_chemical_formula_sum "Si O2"
_cell_formula_units_Z 18
_cell_length_a 5.061477
_cell_length_b 28.106517
_cell_length_c 4.984538
_cell_angle_alpha 90.000000
_cell_angle_beta 90.000000
_cell_angle_gamma 90.000000
_cell_volume 709.102815
_symmetry_space_group_name_H-M "P N C 2"
_symmetry_group_IT_number 30
_symmetry_cell_setting 'orthorhombic'
loop_
_space_group_symop_operation_xyz
x,y,z
-x,-y,z
-x,1/2+y,1/2+z
x,1/2-y,1/2+z
loop_
_atom_site_type_symbol
_atom_site_label
_atom_site_fract_x
_atom_site_fract_y
_atom_site_fract_z
Si Si1 0.467288 0.344763 0.643480
Si Si2 0.789011 0.588900 0.277494
Si Si3 0.031809 0.781695 0.284118
Si Si4 0.500000 0.500000 0.522031
Si Si5 0.832809 0.425085 0.776116
O O1 0.391847 0.365198 0.348374
O O2 0.211592 0.317086 0.743169
O O3 0.573393 0.391742 0.798414
O O4 0.034371 0.417609 0.016256
O O5 0.615811 0.542005 0.338970
O O6 0.008942 0.590656 0.512745
O O7 0.019948 0.763977 0.589105
O O8 0.293587 0.808519 0.185695
O O9 0.722369 0.477238 0.712367
#
# Coordination Sequence:
#
# PCOD9342537 Si02
#       5
#     4   4   4   2   4
#     4  11  26  51  78 116 154 202 256 315 390 461
#     4  11  26  47  78 109 155 202 258 318 384 464
#     4  12  28  48  80 113 154 197 252 320 388 464
#     4  10  26  46  76 116 152 208 260 328 388 462
#     4  11  26  47  78 109 155 202 258 318 384 464
#
# _framework density 25.384193
#
# number of rings (size 3 to 8) (size 9 to 14) (size 15 to 20)
#    0.000    0.889    2.222    2.000    3.111   16.000 
#    0.000    0.000    4.889    0.000    0.000    0.000 
#    0.000    0.000    0.000    0.000    0.000    0.000 
#
# Total GULP energy -100912.021493 kJ/mol
# GULP energy per Si atom -5606.223416 kJ/mol
# Density = 2.532642 g / cm^3
# Si number density = 25.384193 Si / 1000 Ang^3
#
#
#
# Elastic Constant Matrix: (Units=GPa)
#
#
# Indices 1 2 3 4 5 6 
#
# 1 167.0651 32.8705 31.4957 0.0000 0.0000 0.0000
# 2 32.8705 80.9560 -4.3731 0.0000 0.0000 0.0000
# 3 31.4957 -4.3731 120.5662 0.0000 0.0000 0.0000
# 4 0.0000 0.0000 0.0000 28.1865 0.0000 0.0000
# 5 0.0000 0.0000 0.0000 0.0000 44.3923 0.0000
# 6 0.0000 0.0000 0.0000 0.0000 0.0000 75.5805
#
#
#
# Elastic Compliance Matrix: (Units=1/GPa)
#
#
# Indices 1 2 3 4 5 6 
#
# 1 0.006919 -0.002913 -0.001913 0.000000 0.000000 0.000000
# 2 -0.002913 0.013603 0.001254 0.000000 0.000000 0.000000
# 3 -0.001913 0.001254 0.008839 0.000000 0.000000 0.000000
# 4 0.000000 0.000000 0.000000 0.035478 0.000000 0.000000
# 5 0.000000 0.000000 0.000000 0.000000 0.022526 0.000000
# 6 0.000000 0.000000 0.000000 0.000000 0.000000 0.013231
#
#
# Mechanical properties :
#
#
# Convention : Reuss Voigt Hill
#
# Bulk Modulus (GPa) = 45.00798 54.28595 49.64697
# Shear Modulus (GPa) = 43.42282 50.20482 46.81382
#
# Velocity S-wave (km/s) = 4.14046 4.45207 4.29909
# Velocity P-wave (km/s) = 6.37393 6.91810 6.65158
#
# Compressibility (1/GPa) = 0.02221828
#
# Stress axis : x y z
#
# Youngs Moduli (GPa) = 144.51911 73.51394 113.12861
#
# Poissons Ratio (x) = 0.21414 0.21644
# Poissons Ratio (y) = 0.42097 -0.14190
# Poissons Ratio (z) = 0.27650 -0.09221
#
# Static dielectric constant tensor:
#      x y z
#    x 2.015320 0.000000 0.000000 
#    y 0.000000 2.027230 0.000000 
#    z 0.000000 0.000000 2.011710 
# 
# From -- ./inp_files/154.got.cif
#   From: 2010.05.17/outbox.cif.g08.bks.cpg/sg30_1_cif.got.tgz:154.got - 2010.06.03 17:03:02.
