data_PCOD9342235
_publ_section_title
;
Structure prediction by ZEFSAII (Michael W. Deem and Ramdas Pophale) SiO2 
 PCOD9342235
Probable space group: P N C 2
;
_chemical_formula_sum "Si O2"
_cell_formula_units_Z 32
_cell_length_a 9.416350
_cell_length_b 11.304916
_cell_length_c 14.631783
_cell_angle_alpha 90.000000
_cell_angle_beta 90.000000
_cell_angle_gamma 90.000000
_cell_volume 1557.568602
_symmetry_space_group_name_H-M "P N C 2"
_symmetry_group_IT_number 30
_symmetry_cell_setting 'orthorhombic'
loop_
_space_group_symop_operation_xyz
x,y,z
-x,-y,z
-x,1/2+y,1/2+z
x,1/2-y,1/2+z
loop_
_atom_site_type_symbol
_atom_site_label
_atom_site_fract_x
_atom_site_fract_y
_atom_site_fract_z
Si Si1 0.492714 0.857644 0.911660
Si Si2 0.146121 0.956136 0.705631
Si Si3 0.272014 0.303013 0.266105
Si Si4 0.027785 0.706194 0.755099
Si Si5 0.789204 0.216801 0.414630
Si Si6 0.691160 0.745816 0.054266
Si Si7 0.004635 0.361871 0.544650
Si Si8 0.665739 0.482294 0.037978
O O1 0.600616 0.803986 0.836725
O O2 0.334335 0.811822 0.892064
O O3 0.500000 0.000000 0.910472
O O4 0.556274 0.806803 0.006948
O O5 0.095300 0.838475 0.754131
O O6 0.264144 0.934696 0.630571
O O7 0.205074 0.064313 0.765143
O O8 0.000000 0.000000 0.657591
O O9 0.323931 0.273571 0.163344
O O10 0.136935 0.218454 0.282897
O O11 0.125124 0.652596 0.833032
O O12 0.035963 0.656818 0.652117
O O13 0.901918 0.282812 0.481281
O O14 0.704291 0.112621 0.463588
O O15 0.720514 0.613935 0.017262
O O16 0.832752 0.820264 0.035763
O O17 0.000000 0.500000 0.520679
O O18 0.500000 0.500000 0.051037
#
# Coordination Sequence:
#
# PCOD9342235 Si02
#       8
#     4   4   4   4   4   4   4   4
#     4  12  24  41  63  99 133 176 218 267 333 399
#     4   9  18  37  68  94 118 161 219 276 318 371
#     4   9  21  39  64  95 126 171 217 270 321 383
#     4  10  21  41  64  97 130 165 220 269 329 385
#     4  12  25  39  67  99 130 176 220 271 322 394
#     4  10  23  44  70  90 130 175 216 272 332 380
#     4  11  24  46  67  98 134 172 217 276 331 397
#     4  11  22  41  63  94 129 166 217 270 324 381
#
# _framework density 20.544841999999999
#
# number of rings (size 3 to 8) (size 9 to 14) (size 15 to 20)
#    0.000    1.500    2.500    3.000    0.000    6.500 
#    6.750    0.000    0.000    0.000    0.000    0.000 
#    0.000    0.000    0.000    0.000    0.000    0.000 
#
# Total GULP energy -178688.503474 kJ/mol
# GULP energy per Si atom -5584.015734 kJ/mol
# Density = 2.049808 g / cm^3
# Si number density = 20.544842 Si / 1000 Ang^3
#
#
#
# Elastic Constant Matrix: (Units=GPa)
#
#
# Indices 1 2 3 4 5 6 
#
# 1 82.3109 6.2274 43.9081 0.0000 0.0000 0.0000
# 2 6.2274 41.3742 -2.1901 0.0000 0.0000 0.0000
# 3 43.9081 -2.1901 41.0614 0.0000 0.0000 0.0000
# 4 0.0000 0.0000 0.0000 12.3192 0.0000 0.0000
# 5 0.0000 0.0000 0.0000 0.0000 34.9700 0.0000
# 6 0.0000 0.0000 0.0000 0.0000 0.0000 25.3192
#
#
#
# Elastic Compliance Matrix: (Units=1/GPa)
#
#
# Indices 1 2 3 4 5 6 
#
# 1 0.029781 -0.006186 -0.032175 0.000000 0.000000 0.000000
# 2 -0.006186 0.025523 0.007976 0.000000 0.000000 0.000000
# 3 -0.032175 0.007976 0.059185 0.000000 0.000000 0.000000
# 4 0.000000 0.000000 0.000000 0.081174 0.000000 0.000000
# 5 0.000000 0.000000 0.000000 0.000000 0.028596 0.000000
# 6 0.000000 0.000000 0.000000 0.000000 0.000000 0.039496
#
#
# Mechanical properties :
#
#
# Convention : Reuss Voigt Hill
#
# Bulk Modulus (GPa) = 18.61557 28.95969 23.78763
# Shear Modulus (GPa) = 14.60150 22.30842 18.45496
#
# Velocity S-wave (km/s) = 2.66881 3.29878 3.00038
# Velocity P-wave (km/s) = 4.31015 5.35124 4.85866
#
# Compressibility (1/GPa) = 0.05371849
#
# Stress axis : x y z
#
# Youngs Moduli (GPa) = 33.57887 39.18052 16.89616
#
# Poissons Ratio (x) = 0.24235 0.54364
# Poissons Ratio (y) = 0.20771 -0.13476
# Poissons Ratio (z) = 1.08041 -0.31249
#
# Static dielectric constant tensor:
#      x y z
#    x 1.767420 0.000000 0.000000 
#    y 0.000000 1.750030 0.000000 
#    z 0.000000 0.000000 1.775800 
# 
# From -- ./inp_files/5226.got.cif
#   From: 2010.05.17/outbox.cif.g08.bks.cpg/sg30_3_cif.got.tgz:5226.got - 2010.06.03 17:03:02.
