data_PCOD9342012
_publ_section_title
;
Structure prediction by ZEFSAII (Michael W. Deem and Ramdas Pophale) SiO2 
 PCOD9342012
Probable space group: P N C 2
;
_chemical_formula_sum "Si O2"
_cell_formula_units_Z 32
_cell_length_a 8.395243
_cell_length_b 7.236019
_cell_length_c 22.794761
_cell_angle_alpha 90.000000
_cell_angle_beta 90.000000
_cell_angle_gamma 90.000000
_cell_volume 1384.739284
_symmetry_space_group_name_H-M "P N C 2"
_symmetry_group_IT_number 30
_symmetry_cell_setting 'orthorhombic'
loop_
_space_group_symop_operation_xyz
x,y,z
-x,-y,z
-x,1/2+y,1/2+z
x,1/2-y,1/2+z
loop_
_atom_site_type_symbol
_atom_site_label
_atom_site_fract_x
_atom_site_fract_y
_atom_site_fract_z
Si Si1 0.688948 0.970769 0.887820
Si Si2 0.189032 0.029009 0.011424
Si Si3 0.311014 0.031474 0.261618
Si Si4 0.809892 0.535125 0.637569
Si Si5 0.186317 0.032162 0.511868
Si Si6 0.692002 0.528550 0.261838
Si Si7 0.310916 0.468458 0.888066
Si Si8 0.309974 0.464710 0.135824
O O1 0.748888 0.046506 0.949749
O O2 0.752407 0.042437 0.824898
O O3 0.720721 0.751222 0.887965
O O4 0.500000 0.000000 0.887240
O O5 0.222453 0.248675 0.011387
O O6 0.251629 0.959425 0.074610
O O7 0.000000 0.000000 0.011162
O O8 0.249307 0.957756 0.199664
O O9 0.281350 0.251242 0.261736
O O10 0.249365 0.960600 0.324809
O O11 0.500000 0.000000 0.261508
O O12 0.750229 0.750016 0.636751
O O13 0.000000 0.500000 0.636902
O O14 0.247861 0.957219 0.449741
O O15 0.251870 0.958532 0.573573
O O16 0.000000 0.000000 0.513203
O O17 0.500000 0.500000 0.262243
O O18 0.752177 0.458809 0.198669
O O19 0.500000 0.500000 0.888172
O O20 0.500000 0.500000 0.136676
#
# Coordination Sequence:
#
# PCOD9342012 Si02
#       8
#     4   4   4   4   4   4   4   4
#     4   9  17  30  51  72  92 124 164 202 245 296
#     4   9  19  35  48  66  99 132 161 201 252 306
#     4   9  17  30  50  74  97 127 168 210 252 308
#     4   9  18  33  50  70 102 137 166 208 268 320
#     4  10  20  33  50  73 100 133 170 211 259 309
#     4   8  15  30  49  69  95 124 157 203 253 296
#     4   9  18  32  49  72 102 130 164 209 253 302
#     4   9  17  33  54  72  96 135 175 212 260 319
#
# _framework density 23.109044000000001
#
# number of rings (size 3 to 8) (size 9 to 14) (size 15 to 20)
#    0.000    3.000    0.000    0.375    0.000    2.000 
#    0.000   11.875    0.000    0.000    0.000    0.000 
#    0.000    0.000    0.000    0.000    0.000    0.000 
#
# Total GULP energy -178238.076431 kJ/mol
# GULP energy per Si atom -5569.939888 kJ/mol
# Density = 2.305645 g / cm^3
# Si number density = 23.109044 Si / 1000 Ang^3
#
#
#
# Elastic Constant Matrix: (Units=GPa)
#
#
# Indices 1 2 3 4 5 6 
#
# 1 45.8512 -0.9828 62.0359 0.0000 0.0000 0.0000
# 2 -0.9828 125.5564 22.6454 0.0000 0.0000 0.0000
# 3 62.0359 22.6454 371.0441 0.0000 0.0000 0.0000
# 4 0.0000 0.0000 0.0000 -56.5533 0.0000 0.0000
# 5 0.0000 0.0000 0.0000 0.0000 -18.3508 0.0000
# 6 0.0000 0.0000 0.0000 0.0000 0.0000 19.8878
#
#
#
# Elastic Compliance Matrix: (Units=1/GPa)
#
#
# Indices 1 2 3 4 5 6 
#
# 1 0.028332 0.001088 -0.004803 0.000000 0.000000 0.000000
# 2 0.001088 0.008095 -0.000676 0.000000 0.000000 0.000000
# 3 -0.004803 -0.000676 0.003539 0.000000 0.000000 0.000000
# 4 0.000000 0.000000 0.000000 -0.017682 0.000000 0.000000
# 5 0.000000 0.000000 0.000000 0.000000 -0.054494 0.000000
# 6 0.000000 0.000000 0.000000 0.000000 0.000000 0.050282
#
#
# Mechanical properties :
#
#
# Convention : Reuss Voigt Hill
#
# Bulk Modulus (GPa) = 32.06788 78.87208 55.46998
# Shear Modulus (GPa) = 134.23133 19.58030 76.90581
#
# Velocity S-wave (km/s) = 7.62969 2.91400 5.77510
# Velocity P-wave (km/s) = 9.56677 6.74732 8.27797
#
# Compressibility (1/GPa) = 0.03118385
#
# Stress axis : x y z
#
# Youngs Moduli (GPa) = 35.29608 123.53328 282.53178
#
# Poissons Ratio (x) = -0.13441 1.35708
# Poissons Ratio (y) = -0.03840 0.19098
# Poissons Ratio (z) = 0.16954 0.08350
#
# Static dielectric constant tensor:
#      x y z
#    x 2.205600 0.000000 0.000000 
#    y 0.000000 1.872920 0.000000 
#    z 0.000000 0.000000 1.971750 
# 
# From -- ./inp_files/7363.got.cif
#   From: 2010.05.17/outbox.cif.g08.bks.cpg/sg30_4_cif.got.tgz:7363.got - 2010.06.03 17:03:02.
