data_PCOD9342879
_publ_section_title
;
Structure prediction by ZEFSAII (Michael W. Deem and Ramdas Pophale) SiO2 
 PCOD9342879
Probable space group: P M N 21
;
_chemical_formula_sum "Si O2"
_cell_formula_units_Z 28
_cell_length_a 19.046086
_cell_length_b 13.474271
_cell_length_c 5.253548
_cell_angle_alpha 90.000000
_cell_angle_beta 90.000000
_cell_angle_gamma 90.000000
_cell_volume 1348.229183
_symmetry_space_group_name_H-M "P M N 21"
_symmetry_group_IT_number 31
_symmetry_cell_setting 'orthorhombic'
loop_
_space_group_symop_operation_xyz
x,y,z
1/2-x,-y,1/2+z
-x,y,z
1/2+x,-y,1/2+z
loop_
_atom_site_type_symbol
_atom_site_label
_atom_site_fract_x
_atom_site_fract_y
_atom_site_fract_z
Si Si1 0.575477 0.667258 0.252340
Si Si2 0.185496 0.789538 0.307379
Si Si3 0.185551 0.401227 0.355300
Si Si4 0.838292 0.200461 0.031810
Si Si5 0.424666 0.479336 0.603888
Si Si6 0.162761 0.661652 0.805796
Si Si7 0.701669 0.997860 0.773573
O O1 0.500000 0.667040 0.110486
O O2 0.593800 0.774802 0.364386
O O3 0.568213 0.586089 0.472539
O O4 0.645111 0.630136 0.109749
O O5 0.268450 0.804810 0.360200
O O6 0.159838 0.718691 0.537446
O O7 0.156955 0.901987 0.314736
O O8 0.174109 0.740605 0.033984
O O9 0.173327 0.300568 0.192967
O O10 0.143384 0.500684 0.277613
O O11 0.269130 0.411114 0.329923
O O12 0.839445 0.102707 0.203886
O O13 0.500000 0.454970 0.726878
O O14 0.404873 0.400831 0.387356
O O15 0.751127 0.016611 0.525502
#
# Coordination Sequence:
#
# PCOD9342879 Si02
#       7
#     4   4   4   4   4   4   4
#     4  10  20  36  55  80 117 154 195 244 304 371
#     4  10  20  37  55  92 117 153 193 252 291 353
#     4  10  20  34  57  85 114 152 194 254 295 363
#     4   9  19  33  54  84 119 146 189 238 305 351
#     4  10  24  39  56  83 116 160 206 248 305 367
#     4  11  23  37  61  85 123 154 205 250 305 343
#     4  10  19  32  59  89 120 151 188 242 306 360
#
# _framework density 20.767983999999998
#
# number of rings (size 3 to 8) (size 9 to 14) (size 15 to 20)
#    0.000    2.000    1.429    3.000    6.000    0.571 
#    0.000    0.000    0.000    1.714    0.000    0.000 
#    0.000    0.000    0.000    0.000    0.000    0.000 
#
# Total GULP energy -156002.200146 kJ/mol
# GULP energy per Si atom -5571.507148 kJ/mol
# Density = 2.072071 g / cm^3
# Si number density = 20.767984 Si / 1000 Ang^3
#
#
#
# Elastic Constant Matrix: (Units=GPa)
#
#
# Indices 1 2 3 4 5 6 
#
# 1 48.3638 23.3377 -2.8710 0.0000 0.0000 0.0000
# 2 23.3377 98.0377 18.4175 0.0000 0.0000 0.0000
# 3 -2.8710 18.4175 72.5547 0.0000 0.0000 0.0000
# 4 0.0000 0.0000 0.0000 40.2668 0.0000 0.0000
# 5 0.0000 0.0000 0.0000 0.0000 4.7159 0.0000
# 6 0.0000 0.0000 0.0000 0.0000 0.0000 -13.9594
#
#
#
# Elastic Compliance Matrix: (Units=1/GPa)
#
#
# Indices 1 2 3 4 5 6 
#
# 1 0.023783 -0.006131 0.002497 0.000000 0.000000 0.000000
# 2 -0.006131 0.012291 -0.003363 0.000000 0.000000 0.000000
# 3 0.002497 -0.003363 0.014735 0.000000 0.000000 0.000000
# 4 0.000000 0.000000 0.000000 0.024834 0.000000 0.000000
# 5 0.000000 0.000000 0.000000 0.000000 0.212048 0.000000
# 6 0.000000 0.000000 0.000000 0.000000 0.000000 -0.071636
#
#
# Mechanical properties :
#
#
# Convention : Reuss Voigt Hill
#
# Bulk Modulus (GPa) = 27.16094 32.96939 30.06517
# Shear Modulus (GPa) = 20.63381 18.20945 19.42163
#
# Velocity S-wave (km/s) = 3.15547 2.96430 3.06138
# Velocity P-wave (km/s) = 5.13640 5.25601 5.19655
#
# Compressibility (1/GPa) = 0.03681757
#
# Stress axis : x y z
#
# Youngs Moduli (GPa) = 42.04645 81.35854 67.86514
#
# Poissons Ratio (x) = 0.49878 -0.16948
# Poissons Ratio (y) = 0.25777 0.22821
# Poissons Ratio (z) = -0.10500 0.27358
#
# Static dielectric constant tensor:
#      x y z
#    x 1.846110 0.000000 0.000000 
#    y 0.000000 1.785510 0.000000 
#    z 0.000000 0.000000 1.823310 
# 
# From -- ./inp_files/975.got.cif
#   From: 2010.05.17/outbox.cif.g08.bks.cpg/sg31_1_cif.got.tgz:975.got - 2010.06.03 17:08:30.
