data_PCOD9342283
_publ_section_title
;
Structure prediction by ZEFSAII (Michael W. Deem and Ramdas Pophale) SiO2 
 PCOD9342283
Probable space group: P N C 2
;
_chemical_formula_sum "Si O2"
_cell_formula_units_Z 26
_cell_length_a 6.924377
_cell_length_b 15.636673
_cell_length_c 13.209427
_cell_angle_alpha 90.000000
_cell_angle_beta 90.000000
_cell_angle_gamma 90.000000
_cell_volume 1430.240390
_symmetry_space_group_name_H-M "P N C 2"
_symmetry_group_IT_number 30
_symmetry_cell_setting 'orthorhombic'
loop_
_space_group_symop_operation_xyz
x,y,z
-x,-y,z
-x,1/2+y,1/2+z
x,1/2-y,1/2+z
loop_
_atom_site_type_symbol
_atom_site_label
_atom_site_fract_x
_atom_site_fract_y
_atom_site_fract_z
Si Si1 0.350651 0.923502 0.815790
Si Si2 0.000000 0.000000 0.687162
Si Si3 0.845478 0.296539 0.667471
Si Si4 0.113761 0.337715 0.069323
Si Si5 0.937874 0.099477 0.977350
Si Si6 0.895788 0.762491 0.359817
Si Si7 0.443229 0.266726 0.206992
O O1 0.160686 0.956073 0.756977
O O2 0.450204 0.850394 0.750145
O O3 0.500000 0.000000 0.829072
O O4 0.270824 0.891903 0.923579
O O5 0.895623 0.930542 0.617605
O O6 0.924488 0.371043 0.594082
O O7 0.615102 0.296368 0.676359
O O8 0.924350 0.212262 0.609503
O O9 0.938897 0.286714 0.778657
O O10 0.300773 0.290034 0.115003
O O11 0.112664 0.330151 0.949782
O O12 0.000000 0.000000 0.969841
O O13 0.065694 0.169277 0.913357
O O14 0.699343 0.762252 0.296205
#
# Coordination Sequence:
#
# PCOD9342283 Si02
#       7
#     4   2   4   4   4   4   4
#     4  12  21  34  60  90 121 145 194 260 303 345
#     4  12  20  38  56  90 120 152 196 254 298 352
#     4  10  22  40  60  85 121 159 197 245 304 369
#     4  10  22  36  60  86 118 155 199 244 302 357
#     4  11  22  40  62  89 122 162 202 250 311 357
#     4  10  22  41  61  85 121 161 202 248 293 366
#     4  11  20  36  60  89 115 153 200 251 300 357
#
# _framework density 18.178764000000001
#
# number of rings (size 3 to 8) (size 9 to 14) (size 15 to 20)
#    0.000    1.231    5.385    1.846    2.154    0.000 
#    4.154    0.000    0.000    0.000    0.000    0.000 
#    0.000    0.000    0.000    0.000    0.000    0.000 
#
# Total GULP energy -145058.548001 kJ/mol
# GULP energy per Si atom -5579.174923 kJ/mol
# Density = 1.813739 g / cm^3
# Si number density = 18.178764 Si / 1000 Ang^3
#
#
#
# Elastic Constant Matrix: (Units=GPa)
#
#
# Indices 1 2 3 4 5 6 
#
# 1 100.5869 4.0611 38.8304 0.0000 0.0000 0.0000
# 2 4.0611 43.0368 25.3250 0.0000 0.0000 0.0000
# 3 38.8304 25.3250 128.0546 0.0000 0.0000 0.0000
# 4 0.0000 0.0000 0.0000 26.6372 0.0000 0.0000
# 5 0.0000 0.0000 0.0000 0.0000 7.9592 0.0000
# 6 0.0000 0.0000 0.0000 0.0000 0.0000 21.5165
#
#
#
# Elastic Compliance Matrix: (Units=1/GPa)
#
#
# Indices 1 2 3 4 5 6 
#
# 1 0.011304 0.001075 -0.003640 0.000000 0.000000 0.000000
# 2 0.001075 0.026398 -0.005547 0.000000 0.000000 0.000000
# 3 -0.003640 -0.005547 0.010010 0.000000 0.000000 0.000000
# 4 0.000000 0.000000 0.000000 0.037541 0.000000 0.000000
# 5 0.000000 0.000000 0.000000 0.000000 0.125640 0.000000
# 6 0.000000 0.000000 0.000000 0.000000 0.000000 0.046476
#
#
# Mechanical properties :
#
#
# Convention : Reuss Voigt Hill
#
# Bulk Modulus (GPa) = 31.75747 45.34571 38.55159
# Shear Modulus (GPa) = 17.60010 24.78671 21.19341
#
# Velocity S-wave (km/s) = 3.11492 3.69656 3.41813
# Velocity P-wave (km/s) = 5.51764 6.57403 6.06887
#
# Compressibility (1/GPa) = 0.03148865
#
# Stress axis : x y z
#
# Youngs Moduli (GPa) = 88.46803 37.88095 99.89990
#
# Poissons Ratio (x) = -0.04074 0.36367
# Poissons Ratio (y) = -0.09515 0.55413
# Poissons Ratio (z) = 0.32205 0.21012
#
# Static dielectric constant tensor:
#      x y z
#    x 1.634440 0.000000 0.000000 
#    y 0.000000 1.632860 0.000000 
#    z 0.000000 0.000000 1.638780 
# 
# From -- ./inp_files/4746.got.cif
#   From: 2010.05.17/outbox.cif.g08.bks.cpg/sg30_3_cif.got.tgz:4746.got - 2010.06.03 17:03:02.
