data_PCOD9342104
_publ_section_title
;
Structure prediction by ZEFSAII (Michael W. Deem and Ramdas Pophale) SiO2 
 PCOD9342104
Probable space group: P N C 2
;
_chemical_formula_sum "Si O2"
_cell_formula_units_Z 20
_cell_length_a 12.390176
_cell_length_b 5.866699
_cell_length_c 12.704172
_cell_angle_alpha 90.000000
_cell_angle_beta 90.000000
_cell_angle_gamma 90.000000
_cell_volume 923.459061
_symmetry_space_group_name_H-M "P N C 2"
_symmetry_group_IT_number 30
_symmetry_cell_setting 'orthorhombic'
loop_
_space_group_symop_operation_xyz
x,y,z
-x,-y,z
-x,1/2+y,1/2+z
x,1/2-y,1/2+z
loop_
_atom_site_type_symbol
_atom_site_label
_atom_site_fract_x
_atom_site_fract_y
_atom_site_fract_z
Si Si1 0.895677 0.094144 0.440130
Si Si2 0.601796 0.628112 0.229855
Si Si3 0.784193 0.807025 0.077010
Si Si4 0.500000 0.500000 0.882275
Si Si5 0.312602 0.678432 0.415661
Si Si6 0.000000 0.000000 0.083647
O O1 0.796891 0.199884 0.378731
O O2 0.948965 0.292735 0.513398
O O3 0.835899 0.893868 0.505599
O O4 0.000000 0.000000 0.380283
O O5 0.500000 0.500000 0.178072
O O6 0.693977 0.704385 0.151422
O O7 0.564246 0.836393 0.302878
O O8 0.645519 0.452872 0.315211
O O9 0.890766 0.905188 0.136056
O O10 0.725200 0.002199 0.006536
O O11 0.590016 0.351877 0.944521
#
# Coordination Sequence:
#
# PCOD9342104 Si02
#       6
#     4   4   4   2   4   2
#     4   9  18  37  65  90 124 162 212 260 313 383
#     4  10  23  42  60  92 132 164 209 266 319 393
#     4  10  20  40  67  93 125 168 216 262 331 383
#     4  10  22  44  58  86 136 160 212 268 312 390
#     4  10  21  39  65  93 124 172 208 266 324 376
#     4   8  18  34  66  88 124 164 206 266 316 380
#
# _framework density 21.657699000000001
#
# number of rings (size 3 to 8) (size 9 to 14) (size 15 to 20)
#    0.000    2.400    0.000    1.200    0.000    6.400 
#   23.400    0.000   94.600    0.000    0.000    0.000 
#    0.000    0.000    0.000    0.000    0.000    0.000 
#
# Total GULP energy -111479.931074 kJ/mol
# GULP energy per Si atom -5573.996554 kJ/mol
# Density = 2.160840 g / cm^3
# Si number density = 21.657699 Si / 1000 Ang^3
#
#
#
# Elastic Constant Matrix: (Units=GPa)
#
#
# Indices 1 2 3 4 5 6 
#
# 1 224.7676 86.9325 63.8207 0.0000 0.0000 0.0000
# 2 86.9325 113.2513 28.6384 0.0000 0.0000 0.0000
# 3 63.8207 28.6384 44.0358 0.0000 0.0000 0.0000
# 4 0.0000 0.0000 0.0000 -25.4456 0.0000 0.0000
# 5 0.0000 0.0000 0.0000 0.0000 29.2406 0.0000
# 6 0.0000 0.0000 0.0000 0.0000 0.0000 67.6214
#
#
#
# Elastic Compliance Matrix: (Units=1/GPa)
#
#
# Indices 1 2 3 4 5 6 
#
# 1 0.009053 -0.004346 -0.010294 0.000000 0.000000 0.000000
# 2 -0.004346 0.012654 -0.001931 0.000000 0.000000 0.000000
# 3 -0.010294 -0.001931 0.038883 0.000000 0.000000 0.000000
# 4 0.000000 0.000000 0.000000 -0.039300 0.000000 0.000000
# 5 0.000000 0.000000 0.000000 0.000000 0.034199 0.000000
# 6 0.000000 0.000000 0.000000 0.000000 0.000000 0.014788
#
#
# Mechanical properties :
#
#
# Convention : Reuss Voigt Hill
#
# Bulk Modulus (GPa) = 36.43153 82.31533 59.37343
# Shear Modulus (GPa) = 44.41736 27.79415 36.10576
#
# Velocity S-wave (km/s) = 4.53358 3.58626 4.08745
# Velocity P-wave (km/s) = 6.65300 7.43224 7.05339
#
# Compressibility (1/GPa) = 0.02744875
#
# Stress axis : x y z
#
# Youngs Moduli (GPa) = 110.46479 79.02530 25.71804
#
# Poissons Ratio (x) = 0.34343 0.26473
# Poissons Ratio (y) = 0.48007 0.04967
# Poissons Ratio (z) = 1.13708 0.15261
#
# Static dielectric constant tensor:
#      x y z
#    x 1.822720 0.000000 0.000000 
#    y 0.000000 1.961670 0.000000 
#    z 0.000000 0.000000 1.757950 
# 
# From -- ./inp_files/5325.got.cif
#   From: 2010.05.17/outbox.cif.g08.bks.cpg/sg30_3_cif.got.tgz:5325.got - 2010.06.03 17:03:02.
