data_PCOD9342282
_publ_section_title
;
Structure prediction by ZEFSAII (Michael W. Deem and Ramdas Pophale) SiO2 
 PCOD9342282
Probable space group: P N C 2
;
_chemical_formula_sum "Si O2"
_cell_formula_units_Z 26
_cell_length_a 6.365651
_cell_length_b 16.732588
_cell_length_c 14.464303
_cell_angle_alpha 90.000000
_cell_angle_beta 90.000000
_cell_angle_gamma 90.000000
_cell_volume 1540.648102
_symmetry_space_group_name_H-M "P N C 2"
_symmetry_group_IT_number 30
_symmetry_cell_setting 'orthorhombic'
loop_
_space_group_symop_operation_xyz
x,y,z
-x,-y,z
-x,1/2+y,1/2+z
x,1/2-y,1/2+z
loop_
_atom_site_type_symbol
_atom_site_label
_atom_site_fract_x
_atom_site_fract_y
_atom_site_fract_z
Si Si1 0.500000 0.000000 0.033690
Si Si2 0.180151 0.289672 0.962948
Si Si3 0.561335 0.328379 0.465047
Si Si4 0.836311 0.933360 0.177092
Si Si5 0.799000 0.273203 0.822603
Si Si6 0.547566 0.592754 0.853727
Si Si7 0.905954 0.221401 0.114186
O O1 0.308762 0.024450 0.100696
O O2 0.549842 0.077221 0.973574
O O3 0.335565 0.213868 0.967649
O O4 0.325936 0.365014 0.937284
O O5 0.014711 0.282586 0.879116
O O6 0.045731 0.284847 0.057045
O O7 0.671822 0.296545 0.373196
O O8 0.704566 0.298370 0.550801
O O9 0.689825 0.904715 0.261088
O O10 0.960017 0.859450 0.132015
O O11 0.000000 0.000000 0.211964
O O12 0.659809 0.353954 0.834142
O O13 0.837172 0.254002 0.716188
O O14 0.500000 0.500000 0.871619
#
# Coordination Sequence:
#
# PCOD9342282 Si02
#       7
#     2   4   4   4   4   4   4
#     4  12  20  34  54  86 122 150 184 242 298 358
#     4  10  22  36  56  86 113 156 195 234 292 347
#     4  10  22  36  55  89 114 151 194 239 296 347
#     4  12  21  31  57  91 119 147 177 238 313 361
#     4  10  22  38  56  88 114 155 196 237 285 356
#     4  11  22  35  55  88 120 150 191 241 299 354
#     4  11  20  36  57  83 117 150 195 236 291 355
#
# _framework density 16.876014999999999
#
# number of rings (size 3 to 8) (size 9 to 14) (size 15 to 20)
#    0.000    1.231    5.385    1.846    0.000    0.000 
#    0.000    0.000    0.000    0.000   48.000    0.000 
#    0.000    0.000    0.000    0.000    0.000    0.000 
#
# Total GULP energy -145125.590467 kJ/mol
# GULP energy per Si atom -5581.753480 kJ/mol
# Density = 1.683760 g / cm^3
# Si number density = 16.876015 Si / 1000 Ang^3
#
#
#
# Elastic Constant Matrix: (Units=GPa)
#
#
# Indices 1 2 3 4 5 6 
#
# 1 97.0354 42.3101 56.5581 0.0000 0.0000 0.0000
# 2 42.3101 96.8749 64.8365 0.0000 0.0000 0.0000
# 3 56.5581 64.8365 132.0474 0.0000 0.0000 0.0000
# 4 0.0000 0.0000 0.0000 23.8747 0.0000 0.0000
# 5 0.0000 0.0000 0.0000 0.0000 34.2097 0.0000
# 6 0.0000 0.0000 0.0000 0.0000 0.0000 32.4193
#
#
#
# Elastic Compliance Matrix: (Units=1/GPa)
#
#
# Indices 1 2 3 4 5 6 
#
# 1 0.014376 -0.003214 -0.004580 0.000000 0.000000 0.000000
# 2 -0.003214 0.016094 -0.006526 0.000000 0.000000 0.000000
# 3 -0.004580 -0.006526 0.012739 0.000000 0.000000 0.000000
# 4 0.000000 0.000000 0.000000 0.041885 0.000000 0.000000
# 5 0.000000 0.000000 0.000000 0.000000 0.029231 0.000000
# 6 0.000000 0.000000 0.000000 0.000000 0.000000 0.030846
#
#
# Mechanical properties :
#
#
# Convention : Reuss Voigt Hill
#
# Bulk Modulus (GPa) = 68.63150 72.59633 70.61391
# Shear Modulus (GPa) = 27.98524 28.91762 28.45143
#
# Velocity S-wave (km/s) = 4.07662 4.14398 4.11044
# Velocity P-wave (km/s) = 7.93189 8.12450 8.02877
#
# Compressibility (1/GPa) = 0.01457057
#
# Stress axis : x y z
#
# Youngs Moduli (GPa) = 69.56032 62.13619 78.50113
#
# Poissons Ratio (x) = 0.19969 0.35950
# Poissons Ratio (y) = 0.22355 0.51227
# Poissons Ratio (z) = 0.31855 0.40548
#
# Static dielectric constant tensor:
#      x y z
#    x 1.608610 0.000000 0.000000 
#    y 0.000000 1.551240 0.000000 
#    z 0.000000 0.000000 1.549530 
# 
# From -- ./inp_files/4689.got.cif
#   From: 2010.05.17/outbox.cif.g08.bks.cpg/sg30_3_cif.got.tgz:4689.got - 2010.06.03 17:03:02.
