data_PCOD9342079
_publ_section_title
;
Structure prediction by ZEFSAII (Michael W. Deem and Ramdas Pophale) SiO2 
 PCOD9342079
Probable space group: P N C 2
;
_chemical_formula_sum "Si O2"
_cell_formula_units_Z 26
_cell_length_a 5.288448
_cell_length_b 19.309586
_cell_length_c 9.195512
_cell_angle_alpha 90.000000
_cell_angle_beta 90.000000
_cell_angle_gamma 90.000000
_cell_volume 939.024917
_symmetry_space_group_name_H-M "P N C 2"
_symmetry_group_IT_number 30
_symmetry_cell_setting 'orthorhombic'
loop_
_space_group_symop_operation_xyz
x,y,z
-x,-y,z
-x,1/2+y,1/2+z
x,1/2-y,1/2+z
loop_
_atom_site_type_symbol
_atom_site_label
_atom_site_fract_x
_atom_site_fract_y
_atom_site_fract_z
Si Si1 0.398357 0.890597 0.376500
Si Si2 0.105091 0.397427 0.699727
Si Si3 0.594984 0.598631 0.178938
Si Si4 0.226188 0.754617 0.873742
Si Si5 0.749831 0.092205 0.928898
Si Si6 0.885381 0.762207 0.621225
Si Si7 0.000000 0.000000 0.692002
O O1 0.626383 0.920907 0.273777
O O2 0.394558 0.903711 0.548239
O O3 0.422456 0.806648 0.370313
O O4 0.117408 0.903643 0.317843
O O5 0.171086 0.318801 0.647379
O O6 0.931766 0.427034 0.564776
O O7 0.520671 0.576873 0.345264
O O8 0.703184 0.676846 0.175014
O O9 0.782958 0.541152 0.114073
O O10 0.292813 0.825944 0.950647
O O11 0.143179 0.773641 0.712346
O O12 0.971561 0.729467 0.955332
O O13 0.912536 0.062252 0.797676
#
# Coordination Sequence:
#
# PCOD9342079 Si02
#       7
#     4   4   4   4   4   4   2
#     4  11  24  44  74 111 151 186 245 316 398 451
#     4  10  25  44  74 109 151 189 244 318 395 454
#     4  12  25  45  78 106 153 204 262 313 380 474
#     4  10  20  40  70 110 145 189 236 313 390 454
#     4  11  25  45  75 105 148 203 262 307 380 459
#     4  10  20  38  69 106 147 186 236 308 385 449
#     4  12  28  48  74 104 154 206 270 308 374 466
#
# _framework density 27.688298
#
# number of rings (size 3 to 8) (size 9 to 14) (size 15 to 20)
#    0.000    1.231    1.538    4.154    4.308    2.462 
#    0.000    0.769    0.000    0.000    0.000    0.000 
#    0.000    0.000    0.000    0.000    0.000    0.000 
#
# Total GULP energy -144850.045103 kJ/mol
# GULP energy per Si atom -5571.155581 kJ/mol
# Density = 2.762528 g / cm^3
# Si number density = 27.688298 Si / 1000 Ang^3
#
#
#
# Elastic Constant Matrix: (Units=GPa)
#
#
# Indices 1 2 3 4 5 6 
#
# 1 134.4984 36.0559 30.7409 0.0000 0.0000 0.0000
# 2 36.0559 82.0579 23.7283 0.0000 0.0000 0.0000
# 3 30.7409 23.7283 100.2904 0.0000 0.0000 0.0000
# 4 0.0000 0.0000 0.0000 -1.6273 0.0000 0.0000
# 5 0.0000 0.0000 0.0000 0.0000 51.8078 0.0000
# 6 0.0000 0.0000 0.0000 0.0000 0.0000 38.4229
#
#
#
# Elastic Compliance Matrix: (Units=1/GPa)
#
#
# Indices 1 2 3 4 5 6 
#
# 1 0.008754 -0.003296 -0.001903 0.000000 0.000000 0.000000
# 2 -0.003296 0.014322 -0.002378 0.000000 0.000000 0.000000
# 3 -0.001903 -0.002378 0.011117 0.000000 0.000000 0.000000
# 4 0.000000 0.000000 0.000000 -0.614512 0.000000 0.000000
# 5 0.000000 0.000000 0.000000 0.000000 0.019302 0.000000
# 6 0.000000 0.000000 0.000000 0.000000 0.000000 0.026026
#
#
# Mechanical properties :
#
#
# Convention : Reuss Voigt Hill
#
# Bulk Modulus (GPa) = 52.52662 55.32189 53.92425
# Shear Modulus (GPa) = -9.73731 32.80879 11.53574
#
# Velocity S-wave (km/s) = -1.87734 3.44602 2.04336
# Velocity P-wave (km/s) = 3.78321 5.98807 5.00848
#
# Compressibility (1/GPa) = 0.01903797
#
# Stress axis : x y z
#
# Youngs Moduli (GPa) = 114.23840 69.82031 89.95096
#
# Poissons Ratio (x) = 0.23012 0.17121
# Poissons Ratio (y) = 0.37652 0.21394
# Poissons Ratio (z) = 0.21744 0.16606
#
# Static dielectric constant tensor:
#      x y z
#    x 2.444060 0.000000 0.000000 
#    y 0.000000 2.185510 0.000000 
#    z 0.000000 0.000000 2.125840 
# 
# From -- ./inp_files/1417.got.cif
#   From: 2010.05.17/outbox.cif.g08.bks.cpg/sg30_1_cif.got.tgz:1417.got - 2010.06.03 17:03:02.
