data_PCOD9342693
_publ_section_title
;
Structure prediction by ZEFSAII (Michael W. Deem and Ramdas Pophale) SiO2 
 PCOD9342693
Probable space group: P M N 21
;
_chemical_formula_sum "Si O2"
_cell_formula_units_Z 32
_cell_length_a 8.629219
_cell_length_b 12.003476
_cell_length_c 17.867401
_cell_angle_alpha 90.000000
_cell_angle_beta 90.000000
_cell_angle_gamma 90.000000
_cell_volume 1850.716530
_symmetry_space_group_name_H-M "P M N 21"
_symmetry_group_IT_number 31
_symmetry_cell_setting 'orthorhombic'
loop_
_space_group_symop_operation_xyz
x,y,z
1/2-x,-y,1/2+z
-x,y,z
1/2+x,-y,1/2+z
loop_
_atom_site_type_symbol
_atom_site_label
_atom_site_fract_x
_atom_site_fract_y
_atom_site_fract_z
Si Si1 0.177351 0.927764 0.934180
Si Si2 0.687895 0.957438 0.653835
Si Si3 0.822355 0.817721 0.100738
Si Si4 0.814172 0.352955 0.060763
Si Si5 0.311905 0.394361 0.520453
Si Si6 0.317804 0.710953 0.869920
Si Si7 0.184607 0.860134 0.497158
Si Si8 0.183917 0.744155 0.715220
O O1 0.280089 0.839766 0.889766
O O2 0.000000 0.925119 0.907310
O O3 0.175509 0.878724 0.019349
O O4 0.241773 0.052855 0.938804
O O5 0.500000 0.955335 0.649117
O O6 0.759810 0.907451 0.577650
O O7 0.744954 0.869380 0.714663
O O8 0.741009 0.086636 0.655938
O O9 0.000000 0.798734 0.124432
O O10 0.753384 0.697142 0.081373
O O11 0.746016 0.265929 0.000269
O O12 0.750750 0.318488 0.142390
O O13 0.000000 0.341257 0.061607
O O14 0.773110 0.479884 0.041901
O O15 0.500000 0.384071 0.517394
O O16 0.246857 0.359294 0.439812
O O17 0.500000 0.694569 0.862387
O O18 0.233726 0.685984 0.791959
O O19 0.000000 0.862812 0.492166
O O20 0.000000 0.751508 0.708691
#
# Coordination Sequence:
#
# PCOD9342693 Si02
#       8
#     4   4   4   4   4   4   4   4
#     4   9  16  29  47  68  95 124 155 192 241 295
#     4   9  15  26  45  68  94 122 154 194 244 295
#     4   7  12  24  44  68  92 118 148 188 235 284
#     4  10  19  32  51  74 101 135 176 217 255 299
#     4   9  18  33  52  74 101 135 173 210 253 303
#     4  11  21  33  51  75 101 128 164 210 261 313
#     4  10  17  26  43  69  98 125 157 197 242 288
#     4  11  21  33  49  70 100 133 167 210 259 309
#
# _framework density 17.290600999999999
#
# number of rings (size 3 to 8) (size 9 to 14) (size 15 to 20)
#    0.000    2.500    0.000    7.500    0.000    1.000 
#    0.000    0.625    0.000    1.500    0.000    1.750 
#    0.000    0.000    0.000    0.000    0.000    0.000 
#
# Total GULP energy -178181.016613 kJ/mol
# GULP energy per Si atom -5568.156769 kJ/mol
# Density = 1.725125 g / cm^3
# Si number density = 17.290601 Si / 1000 Ang^3
#
#
#
# Elastic Constant Matrix: (Units=GPa)
#
#
# Indices 1 2 3 4 5 6 
#
# 1 68.4303 33.7112 7.1324 0.0000 0.0000 0.0000
# 2 33.7112 139.8187 26.0941 0.0000 0.0000 0.0000
# 3 7.1324 26.0941 41.9217 0.0000 0.0000 0.0000
# 4 0.0000 0.0000 0.0000 12.6099 0.0000 0.0000
# 5 0.0000 0.0000 0.0000 0.0000 16.6517 0.0000
# 6 0.0000 0.0000 0.0000 0.0000 0.0000 20.0994
#
#
#
# Elastic Compliance Matrix: (Units=1/GPa)
#
#
# Indices 1 2 3 4 5 6 
#
# 1 0.016588 -0.003929 -0.000377 0.000000 0.000000 0.000000
# 2 -0.003929 0.009023 -0.004948 0.000000 0.000000 0.000000
# 3 -0.000377 -0.004948 0.026998 0.000000 0.000000 0.000000
# 4 0.000000 0.000000 0.000000 0.079302 0.000000 0.000000
# 5 0.000000 0.000000 0.000000 0.000000 0.060054 0.000000
# 6 0.000000 0.000000 0.000000 0.000000 0.000000 0.049753
#
#
# Mechanical properties :
#
#
# Convention : Reuss Voigt Hill
#
# Bulk Modulus (GPa) = 29.32386 42.67177 35.99781
# Shear Modulus (GPa) = 18.40993 22.08774 20.24884
#
# Velocity S-wave (km/s) = 3.26657 3.57801 3.42583
# Velocity P-wave (km/s) = 5.58780 6.46547 6.04259
#
# Compressibility (1/GPa) = 0.03410192
#
# Stress axis : x y z
#
# Youngs Moduli (GPa) = 60.28319 110.82925 37.04006
#
# Poissons Ratio (x) = 0.43548 0.01395
# Poissons Ratio (y) = 0.23687 0.18327
# Poissons Ratio (z) = 0.02270 0.54836
#
# Static dielectric constant tensor:
#      x y z
#    x 1.580640 0.000000 0.000000 
#    y 0.000000 1.632680 0.000000 
#    z 0.000000 0.000000 1.607930 
# 
# From -- ./inp_files/5836.got.cif
#   From: 2010.05.17/outbox.cif.g08.bks.cpg/sg31_3_cif.got.tgz:5836.got - 2010.06.03 17:08:30.
