data_PCOD9342157
_publ_section_title
;
Structure prediction by ZEFSAII (Michael W. Deem and Ramdas Pophale) SiO2 
 PCOD9342157
Probable space group: P N C 2
;
_chemical_formula_sum "Si O2"
_cell_formula_units_Z 24
_cell_length_a 7.359152
_cell_length_b 30.097883
_cell_length_c 5.058477
_cell_angle_alpha 90.000000
_cell_angle_beta 90.000000
_cell_angle_gamma 90.000000
_cell_volume 1120.426836
_symmetry_space_group_name_H-M "P N C 2"
_symmetry_group_IT_number 30
_symmetry_cell_setting 'orthorhombic'
loop_
_space_group_symop_operation_xyz
x,y,z
-x,-y,z
-x,1/2+y,1/2+z
x,1/2-y,1/2+z
loop_
_atom_site_type_symbol
_atom_site_label
_atom_site_fract_x
_atom_site_fract_y
_atom_site_fract_z
Si Si1 0.116123 0.637289 0.242750
Si Si2 0.366077 0.637656 0.741264
Si Si3 0.480772 0.226517 0.003107
Si Si4 0.875470 0.041858 0.633045
Si Si5 0.050409 0.272812 0.394212
Si Si6 0.371876 0.957927 0.134814
O O1 0.199338 0.634225 0.535347
O O2 0.029171 0.589832 0.169621
O O3 0.990136 0.680243 0.258808
O O4 0.279875 0.642783 0.031129
O O5 0.479717 0.679284 0.635886
O O6 0.461737 0.589667 0.708123
O O7 0.554858 0.237263 0.712335
O O8 0.265486 0.230863 0.949500
O O9 0.795263 0.038331 0.339533
O O10 0.707556 0.042677 0.838817
O O11 0.000000 0.000000 0.692562
O O12 0.976089 0.263823 0.687711
O O13 0.500000 0.000000 0.169788
#
# Coordination Sequence:
#
# PCOD9342157 Si02
#       6
#     4   4   4   4   4   4
#     4  10  21  36  55  80 108 139 180 225 268 322
#     4  10  21  36  55  80 108 139 180 225 268 322
#     4  10  21  36  53  77 109 142 179 222 267 320
#     4  10  21  38  58  83 113 144 183 229 276 330
#     4  10  21  36  53  77 109 142 179 222 267 320
#     4  10  21  38  58  83 113 144 183 229 276 330
#
# _framework density 21.420411000000001
#
# number of rings (size 3 to 8) (size 9 to 14) (size 15 to 20)
#    0.000    2.000    0.000    3.000    0.000    5.333 
#    0.000    5.000    0.000    0.000    0.000    0.000 
#    0.000    0.000    0.000    0.000    0.000    0.000 
#
# Total GULP energy -133885.463016 kJ/mol
# GULP energy per Si atom -5578.560959 kJ/mol
# Density = 2.137166 g / cm^3
# Si number density = 21.420411 Si / 1000 Ang^3
#
#
#
# Elastic Constant Matrix: (Units=GPa)
#
#
# Indices 1 2 3 4 5 6 
#
# 1 18.0712 19.9038 18.5534 0.0000 0.0000 0.0000
# 2 19.9038 176.0565 49.0980 0.0000 0.0000 0.0000
# 3 18.5534 49.0980 95.7327 0.0000 0.0000 0.0000
# 4 0.0000 0.0000 0.0000 32.9668 0.0000 0.0000
# 5 0.0000 0.0000 0.0000 0.0000 12.7545 0.0000
# 6 0.0000 0.0000 0.0000 0.0000 0.0000 33.7929
#
#
#
# Elastic Compliance Matrix: (Units=1/GPa)
#
#
# Indices 1 2 3 4 5 6 
#
# 1 0.072674 -0.005004 -0.011518 0.000000 0.000000 0.000000
# 2 -0.005004 0.006973 -0.002606 0.000000 0.000000 0.000000
# 3 -0.011518 -0.002606 0.014015 0.000000 0.000000 0.000000
# 4 0.000000 0.000000 0.000000 0.030334 0.000000 0.000000
# 5 0.000000 0.000000 0.000000 0.000000 0.078404 0.000000
# 6 0.000000 0.000000 0.000000 0.000000 0.000000 0.029592
#
#
# Mechanical properties :
#
#
# Convention : Reuss Voigt Hill
#
# Bulk Modulus (GPa) = 18.04913 51.66342 34.85627
# Shear Modulus (GPa) = 17.31815 29.38986 23.35400
#
# Velocity S-wave (km/s) = 2.84648 3.70814 3.30550
# Velocity P-wave (km/s) = 4.38722 6.51957 5.55664
#
# Compressibility (1/GPa) = 0.05540433
#
# Stress axis : x y z
#
# Youngs Moduli (GPa) = 13.76016 143.42057 71.35394
#
# Poissons Ratio (x) = 0.71766 0.82187
# Poissons Ratio (y) = 0.06885 0.18596
# Poissons Ratio (z) = 0.15849 0.37378
#
# Static dielectric constant tensor:
#      x y z
#    x 1.759730 0.000000 0.000000 
#    y 0.000000 1.842810 0.000000 
#    z 0.000000 0.000000 1.765780 
# 
# From -- ./inp_files/432.got.cif
#   From: 2010.05.17/outbox.cif.g08.bks.cpg/sg30_1_cif.got.tgz:432.got - 2010.06.03 17:03:02.
