data_PCOD9342975
_publ_section_title
;
Structure prediction by ZEFSAII (Michael W. Deem and Ramdas Pophale) SiO2 
 PCOD9342975
Probable space group: P M N 21
;
_chemical_formula_sum "Si O2"
_cell_formula_units_Z 32
_cell_length_a 15.821235
_cell_length_b 9.243259
_cell_length_c 11.206349
_cell_angle_alpha 90.000000
_cell_angle_beta 90.000000
_cell_angle_gamma 90.000000
_cell_volume 1638.813932
_symmetry_space_group_name_H-M "P M N 21"
_symmetry_group_IT_number 31
_symmetry_cell_setting 'orthorhombic'
loop_
_space_group_symop_operation_xyz
x,y,z
1/2-x,-y,1/2+z
-x,y,z
1/2+x,-y,1/2+z
loop_
_atom_site_type_symbol
_atom_site_label
_atom_site_fract_x
_atom_site_fract_y
_atom_site_fract_z
Si Si1 0.222936 0.989671 0.192630
Si Si2 0.904279 0.208232 0.141538
Si Si3 0.791550 0.317968 0.625073
Si Si4 0.185118 0.453259 0.031123
Si Si5 0.095356 0.273491 0.413426
Si Si6 0.900055 0.507432 0.789654
Si Si7 0.165130 0.753961 0.617944
Si Si8 0.594265 0.059839 0.907015
O O1 0.153215 0.071074 0.110793
O O2 0.292015 0.118736 0.198160
O O3 0.263942 0.846318 0.140339
O O4 0.170090 0.942947 0.310271
O O5 0.892181 0.346892 0.060533
O O6 0.879878 0.263784 0.274708
O O7 0.000000 0.160852 0.148663
O O8 0.709446 0.421112 0.624337
O O9 0.836909 0.346833 0.497961
O O10 0.859567 0.368725 0.722401
O O11 0.263276 0.341111 0.048859
O O12 0.158672 0.523236 0.906362
O O13 0.000000 0.334215 0.423500
O O14 0.091900 0.105599 0.452712
O O15 0.884713 0.642966 0.701495
O O16 0.000000 0.492130 0.813221
O O17 0.112456 0.832891 0.515086
O O18 0.500000 0.088941 0.855935
#
# Coordination Sequence:
#
# PCOD9342975 Si02
#       8
#     4   4   4   4   4   4   4   4
#     4  10  20  35  61  92 115 150 197 252 300 353
#     4   9  19  39  62  85 116 155 194 240 298 354
#     4  11  22  36  60  86 119 148 198 245 295 350
#     4  10  23  37  62  83 117 157 199 239 293 353
#     4   9  18  33  59  86 112 145 190 243 291 342
#     4  11  24  41  57  83 123 162 196 241 294 356
#     4  10  21  38  61  87 116 161 202 243 297 356
#     4  10  19  35  58  86 118 150 190 245 300 352
#
# _framework density 19.526316999999999
#
# number of rings (size 3 to 8) (size 9 to 14) (size 15 to 20)
#    0.000    2.000    1.250    3.000    7.000    0.000 
#    0.000    2.500    0.000    0.000    0.000    0.000 
#    0.000    0.000    0.000    0.000    0.000    0.000 
#
# Total GULP energy -178220.726779 kJ/mol
# GULP energy per Si atom -5569.397712 kJ/mol
# Density = 1.948187 g / cm^3
# Si number density = 19.526317 Si / 1000 Ang^3
#
#
#
# Elastic Constant Matrix: (Units=GPa)
#
#
# Indices 1 2 3 4 5 6 
#
# 1 81.3312 23.1014 30.9170 0.0000 0.0000 0.0000
# 2 23.1014 82.5344 17.6208 0.0000 0.0000 0.0000
# 3 30.9170 17.6208 41.8746 0.0000 0.0000 0.0000
# 4 0.0000 0.0000 0.0000 29.8990 0.0000 0.0000
# 5 0.0000 0.0000 0.0000 0.0000 18.4935 0.0000
# 6 0.0000 0.0000 0.0000 0.0000 0.0000 13.8097
#
#
#
# Elastic Compliance Matrix: (Units=1/GPa)
#
#
# Indices 1 2 3 4 5 6 
#
# 1 0.017498 -0.002351 -0.011930 0.000000 0.000000 0.000000
# 2 -0.002351 0.013628 -0.003999 0.000000 0.000000 0.000000
# 3 -0.011930 -0.003999 0.034372 0.000000 0.000000 0.000000
# 4 0.000000 0.000000 0.000000 0.033446 0.000000 0.000000
# 5 0.000000 0.000000 0.000000 0.000000 0.054073 0.000000
# 6 0.000000 0.000000 0.000000 0.000000 0.000000 0.072413
#
#
# Mechanical properties :
#
#
# Convention : Reuss Voigt Hill
#
# Bulk Modulus (GPa) = 34.55632 38.77984 36.66808
# Shear Modulus (GPa) = 18.40702 21.38052 19.89377
#
# Velocity S-wave (km/s) = 3.07364 3.31261 3.19536
# Velocity P-wave (km/s) = 5.50745 5.87661 5.69502
#
# Compressibility (1/GPa) = 0.02893826
#
# Stress axis : x y z
#
# Youngs Moduli (GPa) = 57.14871 73.37885 29.09346
#
# Poissons Ratio (x) = 0.17249 0.34709
# Poissons Ratio (y) = 0.13434 0.11635
# Poissons Ratio (z) = 0.68179 0.29344
#
# Static dielectric constant tensor:
#      x y z
#    x 1.705590 0.000000 0.000000 
#    y 0.000000 1.686780 0.000000 
#    z 0.000000 0.000000 1.705520 
# 
# From -- ./inp_files/4288.got.cif
#   From: 2010.05.17/outbox.cif.g08.bks.cpg/sg31_3_cif.got.tgz:4288.got - 2010.06.03 17:08:30.
