data_PCOD9342269
_publ_section_title
;
Structure prediction by ZEFSAII (Michael W. Deem and Ramdas Pophale) SiO2 
 PCOD9342269
Probable space group: P N C 2
;
_chemical_formula_sum "Si O2"
_cell_formula_units_Z 26
_cell_length_a 10.478095
_cell_length_b 18.711302
_cell_length_c 5.128661
_cell_angle_alpha 90.000000
_cell_angle_beta 90.000000
_cell_angle_gamma 90.000000
_cell_volume 1005.519121
_symmetry_space_group_name_H-M "P N C 2"
_symmetry_group_IT_number 30
_symmetry_cell_setting 'orthorhombic'
loop_
_space_group_symop_operation_xyz
x,y,z
-x,-y,z
-x,1/2+y,1/2+z
x,1/2-y,1/2+z
loop_
_atom_site_type_symbol
_atom_site_label
_atom_site_fract_x
_atom_site_fract_y
_atom_site_fract_z
Si Si1 0.000000 0.500000 0.493801
Si Si2 0.757178 0.510292 0.259617
Si Si3 0.669030 0.912546 0.263204
Si Si4 0.849072 0.398164 0.872783
Si Si5 0.547978 0.721908 0.912893
Si Si6 0.902978 0.699626 0.812557
Si Si7 0.267018 0.719451 0.554606
O O1 0.099417 0.457326 0.311186
O O2 0.098020 0.539120 0.685437
O O3 0.678329 0.536843 0.511724
O O4 0.789044 0.641861 0.787595
O O5 0.678619 0.540298 0.018840
O O6 0.553033 0.856854 0.293663
O O7 0.797309 0.068031 0.642327
O O8 0.744771 0.354857 0.703515
O O9 0.970111 0.346038 0.869735
O O10 0.611716 0.726161 0.198805
O O11 0.409801 0.753495 0.989984
O O12 0.899016 0.742884 0.543271
O O13 0.207765 0.725457 0.267020
#
# Coordination Sequence:
#
# PCOD9342269 Si02
#       7
#     2   4   4   4   4   4   4
#     4  12  24  44  64 100 148 214 240 306 362 476
#     4  12  25  41  66 101 141 208 242 312 376 460
#     4  12  23  42  66 102 147 187 255 307 387 464
#     4  12  25  44  67 101 157 193 263 299 385 481
#     4  10  21  43  72 104 138 185 240 319 393 448
#     4  12  25  37  60  98 146 195 243 308 381 463
#     4  10  24  44  72 107 139 194 243 320 389 453
#
# _framework density 25.857289000000002
#
# number of rings (size 3 to 8) (size 9 to 14) (size 15 to 20)
#    0.000    0.615    3.077    5.077    4.308    0.000 
#    0.000    0.000    0.000    3.692   16.000    0.000 
#    0.000    0.000    0.000    0.000    0.000    0.000 
#
# Total GULP energy -145166.635229 kJ/mol
# GULP energy per Si atom -5583.332124 kJ/mol
# Density = 2.579844 g / cm^3
# Si number density = 25.857289 Si / 1000 Ang^3
#
#
#
# Elastic Constant Matrix: (Units=GPa)
#
#
# Indices 1 2 3 4 5 6 
#
# 1 94.6774 35.8503 15.0573 0.0000 0.0000 0.0000
# 2 35.8503 120.8373 51.5633 0.0000 0.0000 0.0000
# 3 15.0573 51.5633 230.9102 0.0000 0.0000 0.0000
# 4 0.0000 0.0000 0.0000 55.5354 0.0000 0.0000
# 5 0.0000 0.0000 0.0000 0.0000 23.1458 0.0000
# 6 0.0000 0.0000 0.0000 0.0000 0.0000 51.7993
#
#
#
# Elastic Compliance Matrix: (Units=1/GPa)
#
#
# Indices 1 2 3 4 5 6 
#
# 1 0.011899 -0.003536 0.000014 0.000000 0.000000 0.000000
# 2 -0.003536 0.010198 -0.002047 0.000000 0.000000 0.000000
# 3 0.000014 -0.002047 0.004787 0.000000 0.000000 0.000000
# 4 0.000000 0.000000 0.000000 0.018007 0.000000 0.000000
# 5 0.000000 0.000000 0.000000 0.000000 0.043204 0.000000
# 6 0.000000 0.000000 0.000000 0.000000 0.000000 0.019305
#
#
# Mechanical properties :
#
#
# Convention : Reuss Voigt Hill
#
# Bulk Modulus (GPa) = 63.50922 72.37405 67.94164
# Shear Modulus (GPa) = 40.39209 49.02637 44.70923
#
# Velocity S-wave (km/s) = 3.95665 4.35907 4.16273
# Velocity P-wave (km/s) = 6.74449 7.30657 7.03115
#
# Compressibility (1/GPa) = 0.01574574
#
# Stress axis : x y z
#
# Youngs Moduli (GPa) = 84.04099 98.05813 208.90660
#
# Poissons Ratio (x) = 0.34674 -0.00286
# Poissons Ratio (y) = 0.29717 0.42757
# Poissons Ratio (z) = -0.00115 0.20069
#
# Static dielectric constant tensor:
#      x y z
#    x 2.230280 0.000000 0.000000 
#    y 0.000000 2.119310 0.000000 
#    z 0.000000 0.000000 2.214810 
# 
# From -- ./inp_files/703.got.cif
#   From: 2010.05.17/outbox.cif.g08.bks.cpg/sg30_1_cif.got.tgz:703.got - 2010.06.03 17:03:02.
