data_PCOD9342333
_publ_section_title
;
Structure prediction by ZEFSAII (Michael W. Deem and Ramdas Pophale) SiO2 
 PCOD9342333
Probable space group: P N C 2
;
_chemical_formula_sum "Si O2"
_cell_formula_units_Z 26
_cell_length_a 11.284357
_cell_length_b 12.575742
_cell_length_c 8.825933
_cell_angle_alpha 90.000000
_cell_angle_beta 90.000000
_cell_angle_gamma 90.000000
_cell_volume 1252.480758
_symmetry_space_group_name_H-M "P N C 2"
_symmetry_group_IT_number 30
_symmetry_cell_setting 'orthorhombic'
loop_
_space_group_symop_operation_xyz
x,y,z
-x,-y,z
-x,1/2+y,1/2+z
x,1/2-y,1/2+z
loop_
_atom_site_type_symbol
_atom_site_label
_atom_site_fract_x
_atom_site_fract_y
_atom_site_fract_z
Si Si1 0.923275 0.669542 0.153650
Si Si2 0.000000 0.000000 0.407243
Si Si3 0.487345 0.178002 0.398679
Si Si4 0.351659 0.348427 0.184502
Si Si5 0.891136 0.365513 0.649062
Si Si6 0.500000 0.000000 0.881990
Si Si7 0.378056 0.662514 0.609935
Si Si8 0.000000 0.500000 0.400283
O O1 0.784003 0.688185 0.174490
O O2 0.959544 0.597196 0.296615
O O3 0.006848 0.774030 0.142617
O O4 0.942470 0.591148 0.011157
O O5 0.089504 0.935918 0.298875
O O6 0.417011 0.257996 0.285901
O O7 0.392013 0.128138 0.511589
O O8 0.569964 0.232729 0.527185
O O9 0.570379 0.125684 0.272964
O O10 0.397377 0.449704 0.277683
O O11 0.760493 0.319401 0.634950
O O12 0.903853 0.448849 0.511398
O O13 0.574023 0.077129 0.990631
#
# Coordination Sequence:
#
# PCOD9342333 Si02
#       8
#     4   2   4   4   4   2   4   2
#     4  11  24  42  68  94 135 178 218 280 335 398
#     4  10  26  42  56 110 120 170 238 254 342 396
#     4   9  22  40  62  93 118 166 216 257 322 408
#     4  10  22  41  65  93 128 164 221 265 340 392
#     4  11  24  42  68  94 135 178 218 280 335 398
#     4  10  22  42  64 100 128 170 208 296 324 390
#     4  10  22  41  65  93 128 164 221 265 340 392
#     4  10  24  42  60 102 124 172 230 266 342 380
#
# _framework density 20.758801999999999
#
# number of rings (size 3 to 8) (size 9 to 14) (size 15 to 20)
#    0.000    1.846    0.000    1.846    8.615    3.077 
#   11.077    0.000    0.000    0.000    0.000    0.000 
#    0.000    0.000    0.000    0.000    0.000    0.000 
#
# Total GULP energy -144778.668239 kJ/mol
# GULP energy per Si atom -5568.410317 kJ/mol
# Density = 2.071155 g / cm^3
# Si number density = 20.758802 Si / 1000 Ang^3
#
#
#
# Elastic Constant Matrix: (Units=GPa)
#
#
# Indices 1 2 3 4 5 6 
#
# 1 102.9327 -7.2054 20.8819 0.0000 0.0000 0.0000
# 2 -7.2054 32.0945 8.0921 0.0000 0.0000 0.0000
# 3 20.8819 8.0921 145.4099 0.0000 0.0000 0.0000
# 4 0.0000 0.0000 0.0000 23.1513 0.0000 0.0000
# 5 0.0000 0.0000 0.0000 0.0000 -15.2277 0.0000
# 6 0.0000 0.0000 0.0000 0.0000 0.0000 5.7518
#
#
#
# Elastic Compliance Matrix: (Units=1/GPa)
#
#
# Indices 1 2 3 4 5 6 
#
# 1 0.010233 0.002706 -0.001620 0.000000 0.000000 0.000000
# 2 0.002706 0.032317 -0.002187 0.000000 0.000000 0.000000
# 3 -0.001620 -0.002187 0.007231 0.000000 0.000000 0.000000
# 4 0.000000 0.000000 0.000000 0.043194 0.000000 0.000000
# 5 0.000000 0.000000 0.000000 0.000000 -0.065670 0.000000
# 6 0.000000 0.000000 0.000000 0.000000 0.000000 0.173859
#
#
# Mechanical properties :
#
#
# Convention : Reuss Voigt Hill
#
# Bulk Modulus (GPa) = 21.01769 35.99715 28.50742
# Shear Modulus (GPa) = 22.80741 19.97966 21.39353
#
# Velocity S-wave (km/s) = 3.31824 3.10573 3.21374
# Velocity P-wave (km/s) = 4.98273 5.49901 5.24722
#
# Compressibility (1/GPa) = 0.04757897
#
# Stress axis : x y z
#
# Youngs Moduli (GPa) = 97.72137 30.94358 138.28425
#
# Poissons Ratio (x) = -0.08373 0.22404
# Poissons Ratio (y) = -0.26442 0.30243
# Poissons Ratio (z) = 0.15832 0.06767
#
# Static dielectric constant tensor:
#      x y z
#    x 1.711070 0.000000 0.000000 
#    y 0.000000 1.798360 0.000000 
#    z 0.000000 0.000000 1.758770 
# 
# From -- ./inp_files/2406.got.cif
#   From: 2010.05.17/outbox.cif.g08.bks.cpg/sg30_2_cif.got.tgz:2406.got - 2010.06.03 17:03:02.
