data_PCOD9342171
_publ_section_title
;
Structure prediction by ZEFSAII (Michael W. Deem and Ramdas Pophale) SiO2 
 PCOD9342171
Probable space group: P N C 2
;
_chemical_formula_sum "Si O2"
_cell_formula_units_Z 32
_cell_length_a 9.881510
_cell_length_b 12.689905
_cell_length_c 13.261523
_cell_angle_alpha 90.000000
_cell_angle_beta 90.000000
_cell_angle_gamma 90.000000
_cell_volume 1662.934288
_symmetry_space_group_name_H-M "P N C 2"
_symmetry_group_IT_number 30
_symmetry_cell_setting 'orthorhombic'
loop_
_space_group_symop_operation_xyz
x,y,z
-x,-y,z
-x,1/2+y,1/2+z
x,1/2-y,1/2+z
loop_
_atom_site_type_symbol
_atom_site_label
_atom_site_fract_x
_atom_site_fract_y
_atom_site_fract_z
Si Si1 0.150199 0.950925 0.258200
Si Si2 0.349801 0.950925 0.874710
Si Si3 0.750000 0.531210 0.066455
Si Si4 0.750000 0.172644 0.066455
Si Si5 0.275985 0.355360 0.253756
Si Si6 0.915471 0.349429 0.956991
Si Si7 0.775985 0.644640 0.879154
Si Si8 0.415471 0.650571 0.175919
O O1 0.193080 0.899908 0.154775
O O2 0.152468 0.864199 0.346993
O O3 0.235345 0.049307 0.299606
O O4 0.000000 0.000000 0.251174
O O5 0.347532 0.864199 0.785917
O O6 0.500000 0.000000 0.881736
O O7 0.264655 0.049307 0.833304
O O8 0.306920 0.899909 0.978135
O O9 0.807596 0.606022 0.155653
O O10 0.639642 0.451299 0.114530
O O11 0.860358 0.451299 0.018380
O O12 0.692404 0.606022 0.977257
O O13 0.636447 0.248642 0.115348
O O14 0.863553 0.248642 0.017562
O O15 0.250000 0.250000 0.316455
O O16 0.426294 0.347718 0.203853
O O17 0.073706 0.347718 0.929057
#
# Coordination Sequence:
#
# PCOD9342171 Si02
#       8
#     4   4   4   4   4   4   4   4
#     4   9  20  37  52  77 114 143 178 236 287 339
#     4   9  20  37  52  77 114 143 178 236 287 339
#     4   9  18  37  60  78 108 155 194 229 288 358
#     4  11  20  33  60  84 106 147 196 243 290 342
#     4  10  21  37  57  83 116 150 191 240 294 355
#     4   9  20  38  56  79 111 149 191 235 292 357
#     4  10  21  37  57  83 116 150 191 240 294 355
#     4   9  20  38  56  79 111 149 191 235 292 357
#
# _framework density 19.243092999999998
#
# number of rings (size 3 to 8) (size 9 to 14) (size 15 to 20)
#    0.000    2.500    0.000    3.000    0.000    7.000 
#    0.000    5.000    0.000    0.000    0.000    0.000 
#    0.000    0.000    0.000    0.000    0.000    0.000 
#
# Total GULP energy -178236.414138 kJ/mol
# GULP energy per Si atom -5569.887942 kJ/mol
# Density = 1.919929 g / cm^3
# Si number density = 19.243093 Si / 1000 Ang^3
#
#
#
# Elastic Constant Matrix: (Units=GPa)
#
#
# Indices 1 2 3 4 5 6 
#
# 1 45.0211 21.1593 35.5662 0.0000 0.0000 0.0000
# 2 21.1593 112.4508 95.0589 0.0000 0.0000 0.0000
# 3 35.5662 95.0589 191.3501 0.0000 0.0000 0.0000
# 4 0.0000 0.0000 0.0000 36.1465 0.0000 0.0000
# 5 0.0000 0.0000 0.0000 0.0000 24.5995 0.0000
# 6 0.0000 0.0000 0.0000 0.0000 0.0000 15.5659
#
#
#
# Elastic Compliance Matrix: (Units=1/GPa)
#
#
# Indices 1 2 3 4 5 6 
#
# 1 0.026162 -0.001400 -0.004167 0.000000 0.000000 0.000000
# 2 -0.001400 0.015406 -0.007393 0.000000 0.000000 0.000000
# 3 -0.004167 -0.007393 0.009673 0.000000 0.000000 0.000000
# 4 0.000000 0.000000 0.000000 0.027665 0.000000 0.000000
# 5 0.000000 0.000000 0.000000 0.000000 0.040651 0.000000
# 6 0.000000 0.000000 0.000000 0.000000 0.000000 0.064243
#
#
# Mechanical properties :
#
#
# Convention : Reuss Voigt Hill
#
# Bulk Modulus (GPa) = 39.49388 72.48785 55.99086
# Shear Modulus (GPa) = 22.91883 28.39823 25.65853
#
# Velocity S-wave (km/s) = 3.45485 3.84573 3.65552
# Velocity P-wave (km/s) = 6.04011 7.58095 6.85397
#
# Compressibility (1/GPa) = 0.02532038
#
# Stress axis : x y z
#
# Youngs Moduli (GPa) = 38.22357 64.91021 103.37709
#
# Poissons Ratio (x) = 0.09088 0.43079
# Poissons Ratio (y) = 0.05352 0.76428
# Poissons Ratio (z) = 0.15928 0.47989
#
# Static dielectric constant tensor:
#      x y z
#    x 1.726530 0.000000 0.000000 
#    y 0.000000 1.682170 0.000000 
#    z 0.000000 0.000000 1.688070 
# 
# From -- ./inp_files/4143.got.cif
#   From: 2010.05.17/outbox.cif.g08.bks.cpg/sg30_3_cif.got.tgz:4143.got - 2010.06.03 17:03:02.
