data_PCOD9342164
_publ_section_title
;
Structure prediction by ZEFSAII (Michael W. Deem and Ramdas Pophale) SiO2 
 PCOD9342164
Probable space group: P N C 2
;
_chemical_formula_sum "Si O2"
_cell_formula_units_Z 28
_cell_length_a 20.972665
_cell_length_b 5.343054
_cell_length_c 10.522884
_cell_angle_alpha 90.000000
_cell_angle_beta 90.000000
_cell_angle_gamma 90.000000
_cell_volume 1179.174194
_symmetry_space_group_name_H-M "P N C 2"
_symmetry_group_IT_number 30
_symmetry_cell_setting 'orthorhombic'
loop_
_space_group_symop_operation_xyz
x,y,z
-x,-y,z
-x,1/2+y,1/2+z
x,1/2-y,1/2+z
loop_
_atom_site_type_symbol
_atom_site_label
_atom_site_fract_x
_atom_site_fract_y
_atom_site_fract_z
Si Si1 0.171120 0.243787 0.743270
Si Si2 0.612684 0.999501 0.267871
Si Si3 0.728293 0.959148 0.439964
Si Si4 0.693346 0.036864 0.029311
Si Si5 0.431433 0.508269 0.349643
Si Si6 0.929541 0.075646 0.870798
Si Si7 0.125544 0.748032 0.124823
O O1 0.229776 0.342066 0.827359
O O2 0.151802 0.478261 0.657557
O O3 0.115736 0.164540 0.844626
O O4 0.172353 0.983352 0.662756
O O5 0.654959 0.979554 0.394689
O O6 0.581628 0.726668 0.256220
O O7 0.564963 0.227748 0.278227
O O8 0.663672 0.090397 0.164797
O O9 0.726198 0.733390 0.539661
O O10 0.740376 0.245632 0.479827
O O11 0.631074 0.018595 0.938442
O O12 0.500000 0.500000 0.418551
O O13 0.929518 0.205890 0.731861
O O14 0.898414 0.245919 0.980670
O O15 0.000000 0.000000 0.910047
#
# Coordination Sequence:
#
# PCOD9342164 Si02
#       7
#     4   4   4   4   4   4   4
#     4  10  24  43  66 101 134 171 229 278 340 410
#     4  10  21  38  58  89 119 166 208 262 324 388
#     4  10  21  41  62  90 125 161 211 265 327 383
#     4  10  21  38  63  87 121 164 211 256 328 386
#     4  10  21  36  56  85 124 159 209 265 313 389
#     4  10  26  45  73  98 144 180 232 283 350 416
#     4  10  25  44  68 101 132 179 224 281 342 408
#
# _framework density 23.745431
#
# number of rings (size 3 to 8) (size 9 to 14) (size 15 to 20)
#    0.857    1.143    0.000    2.143    4.000    2.286 
#    0.000    0.000    0.000    0.000    0.000    0.000 
#    0.000    0.000    0.000    0.000    0.000    0.000 
#
# Total GULP energy -156113.537329 kJ/mol
# GULP energy per Si atom -5575.483476 kJ/mol
# Density = 2.369139 g / cm^3
# Si number density = 23.745431 Si / 1000 Ang^3
#
#
#
# Elastic Constant Matrix: (Units=GPa)
#
#
# Indices 1 2 3 4 5 6 
#
# 1 71.1347 30.2219 12.3972 0.0000 0.0000 0.0000
# 2 30.2219 174.7479 40.6855 0.0000 0.0000 0.0000
# 3 12.3972 40.6855 54.5061 0.0000 0.0000 0.0000
# 4 0.0000 0.0000 0.0000 -0.8242 0.0000 0.0000
# 5 0.0000 0.0000 0.0000 0.0000 18.3616 0.0000
# 6 0.0000 0.0000 0.0000 0.0000 0.0000 9.7379
#
#
#
# Elastic Compliance Matrix: (Units=1/GPa)
#
#
# Indices 1 2 3 4 5 6 
#
# 1 0.015321 -0.002225 -0.001824 0.000000 0.000000 0.000000
# 2 -0.002225 0.007249 -0.004905 0.000000 0.000000 0.000000
# 3 -0.001824 -0.004905 0.022423 0.000000 0.000000 0.000000
# 4 0.000000 0.000000 0.000000 -1.213351 0.000000 0.000000
# 5 0.000000 0.000000 0.000000 0.000000 0.054461 0.000000
# 6 0.000000 0.000000 0.000000 0.000000 0.000000 0.102692
#
#
# Mechanical properties :
#
#
# Convention : Reuss Voigt Hill
#
# Bulk Modulus (GPa) = 36.92067 51.88867 44.40467
# Shear Modulus (GPa) = -5.07992 19.92734 7.42371
#
# Velocity S-wave (km/s) = -1.46423 2.90005 1.77007
# Velocity P-wave (km/s) = 3.56702 5.75441 4.78732
#
# Compressibility (1/GPa) = 0.02708510
#
# Stress axis : x y z
#
# Youngs Moduli (GPa) = 65.26975 137.94284 44.59751
#
# Poissons Ratio (x) = 0.30693 0.08134
# Poissons Ratio (y) = 0.14523 0.21876
# Poissons Ratio (z) = 0.11904 0.67663
#
# Static dielectric constant tensor:
#      x y z
#    x 1.926640 0.000000 0.000000 
#    y 0.000000 1.962390 0.000000 
#    z 0.000000 0.000000 1.970800 
# 
# From -- ./inp_files/4457.got.cif
#   From: 2010.05.17/outbox.cif.g08.bks.cpg/sg30_3_cif.got.tgz:4457.got - 2010.06.03 17:03:02.
