data_PCOD9342361
_publ_section_title
;
Structure prediction by ZEFSAII (Michael W. Deem and Ramdas Pophale) SiO2 
 PCOD9342361
Probable space group: P N C 2
;
_chemical_formula_sum "Si O2"
_cell_formula_units_Z 22
_cell_length_a 8.807512
_cell_length_b 7.636736
_cell_length_c 15.864180
_cell_angle_alpha 90.000000
_cell_angle_beta 90.000000
_cell_angle_gamma 90.000000
_cell_volume 1067.034963
_symmetry_space_group_name_H-M "P N C 2"
_symmetry_group_IT_number 30
_symmetry_cell_setting 'orthorhombic'
loop_
_space_group_symop_operation_xyz
x,y,z
-x,-y,z
-x,1/2+y,1/2+z
x,1/2-y,1/2+z
loop_
_atom_site_type_symbol
_atom_site_label
_atom_site_fract_x
_atom_site_fract_y
_atom_site_fract_z
Si Si1 0.000000 0.000000 0.441200
Si Si2 0.831539 0.679774 0.515868
Si Si3 0.500796 0.798173 0.565374
Si Si4 0.778653 0.381117 0.799002
Si Si5 0.000000 0.000000 0.165624
Si Si6 0.500000 0.500000 0.704438
Si Si7 0.340888 0.897210 0.917408
O O1 0.954710 0.825313 0.491115
O O2 0.140982 0.962827 0.380103
O O3 0.667839 0.766123 0.528093
O O4 0.793637 0.525790 0.448949
O O5 0.883333 0.594690 0.603486
O O6 0.481626 0.666783 0.643527
O O7 0.380403 0.738857 0.493622
O O8 0.500000 0.000000 0.589412
O O9 0.647232 0.504866 0.763028
O O10 0.706038 0.202661 0.832940
O O11 0.906325 0.370441 0.726596
O O12 0.500000 0.000000 0.905979
#
# Coordination Sequence:
#
# PCOD9342361 Si02
#       7
#     2   4   4   4   2   2   4
#     4  11  26  42  68  99 134 190 234 277 358 420
#     4  11  22  45  70  98 136 191 240 283 337 444
#     4  11  22  43  74 103 133 186 240 286 342 418
#     4  11  25  42  64 102 141 183 215 301 352 395
#     4  11  22  44  70  95 150 172 220 295 360 404
#     4  12  24  46  66 106 146 174 238 294 348 404
#     4  10  22  42  72 103 134 184 243 288 339 410
#
# _framework density 20.617882000000002
#
# number of rings (size 3 to 8) (size 9 to 14) (size 15 to 20)
#    0.000    1.091    4.545    2.182    6.364    2.182 
#    0.000    5.455    0.000    0.000    0.000    0.000 
#    0.000    0.000    0.000    0.000    0.000    0.000 
#
# Total GULP energy -122918.267889 kJ/mol
# GULP energy per Si atom -5587.193995 kJ/mol
# Density = 2.057095 g / cm^3
# Si number density = 20.617882 Si / 1000 Ang^3
#
#
#
# Elastic Constant Matrix: (Units=GPa)
#
#
# Indices 1 2 3 4 5 6 
#
# 1 81.1506 30.8122 41.2480 0.0000 0.0000 0.0000
# 2 30.8122 124.5355 53.7524 0.0000 0.0000 0.0000
# 3 41.2480 53.7524 104.5731 0.0000 0.0000 0.0000
# 4 0.0000 0.0000 0.0000 31.4641 0.0000 0.0000
# 5 0.0000 0.0000 0.0000 0.0000 41.2274 0.0000
# 6 0.0000 0.0000 0.0000 0.0000 0.0000 29.1540
#
#
#
# Elastic Compliance Matrix: (Units=1/GPa)
#
#
# Indices 1 2 3 4 5 6 
#
# 1 0.015643 -0.001551 -0.005373 0.000000 0.000000 0.000000
# 2 -0.001551 0.010473 -0.004772 0.000000 0.000000 0.000000
# 3 -0.005373 -0.004772 0.014135 0.000000 0.000000 0.000000
# 4 0.000000 0.000000 0.000000 0.031782 0.000000 0.000000
# 5 0.000000 0.000000 0.000000 0.000000 0.024256 0.000000
# 6 0.000000 0.000000 0.000000 0.000000 0.000000 0.034301
#
#
# Mechanical properties :
#
#
# Convention : Reuss Voigt Hill
#
# Bulk Modulus (GPa) = 59.31424 62.43162 60.87293
# Shear Modulus (GPa) = 31.32837 32.66554 31.99695
#
# Velocity S-wave (km/s) = 3.90227 3.98468 3.94369
# Velocity P-wave (km/s) = 7.00960 7.17749 7.09404
#
# Compressibility (1/GPa) = 0.01685936
#
# Stress axis : x y z
#
# Youngs Moduli (GPa) = 63.92765 95.48236 70.74851
#
# Poissons Ratio (x) = 0.14812 0.38011
# Poissons Ratio (y) = 0.09917 0.33758
# Poissons Ratio (z) = 0.34347 0.45559
#
# Static dielectric constant tensor:
#      x y z
#    x 1.737120 0.000000 0.000000 
#    y 0.000000 1.704990 0.000000 
#    z 0.000000 0.000000 1.709290 
# 
# From -- ./inp_files/4978.got.cif
#   From: 2010.05.17/outbox.cif.g08.bks.cpg/sg30_3_cif.got.tgz:4978.got - 2010.06.03 17:03:02.
