data_PCOD9342483
_publ_section_title
;
Structure prediction by ZEFSAII (Michael W. Deem and Ramdas Pophale) SiO2 
 PCOD9342483
Probable space group: P N C 2
;
_chemical_formula_sum "Si O2"
_cell_formula_units_Z 14
_cell_length_a 13.341579
_cell_length_b 4.919563
_cell_length_c 9.078215
_cell_angle_alpha 90.000000
_cell_angle_beta 90.000000
_cell_angle_gamma 90.000000
_cell_volume 595.846267
_symmetry_space_group_name_H-M "P N C 2"
_symmetry_group_IT_number 30
_symmetry_cell_setting 'orthorhombic'
loop_
_space_group_symop_operation_xyz
x,y,z
-x,-y,z
-x,1/2+y,1/2+z
x,1/2-y,1/2+z
loop_
_atom_site_type_symbol
_atom_site_label
_atom_site_fract_x
_atom_site_fract_y
_atom_site_fract_z
Si Si1 0.413927 0.809119 0.496530
Si Si2 0.805106 0.554343 0.017763
Si Si3 0.117460 0.553847 0.688412
Si Si4 0.500000 0.000000 0.779581
O O1 0.309602 0.960034 0.507653
O O2 0.459798 0.783646 0.659138
O O3 0.410589 0.536716 0.399658
O O4 0.500000 0.000000 0.423273
O O5 0.852643 0.507770 0.856780
O O6 0.820864 0.856328 0.079036
O O7 0.857468 0.358080 0.137728
O O8 0.000000 0.500000 0.668433
#
# Coordination Sequence:
#
# PCOD9342483 Si02
#       4
#     4   4   4   2
#     4  10  26  41  70  99 143 182 230 288 342 432
#     4  12  27  45  77 106 144 190 242 291 370 424
#     4  12  26  47  72 105 143 188 244 304 357 423
#     4  10  24  40  66  94 146 180 234 278 350 402
#
# _framework density 23.495992000000001
#
# number of rings (size 3 to 8) (size 9 to 14) (size 15 to 20)
#    0.857    0.000    0.000    6.000   10.000    0.000 
#    0.000    0.000    0.000    0.000    0.000    0.000 
#    0.000    0.000    0.000    0.000    0.000    0.000 
#
# Total GULP energy -78047.582358 kJ/mol
# GULP energy per Si atom -5574.827311 kJ/mol
# Density = 2.344251 g / cm^3
# Si number density = 23.495992 Si / 1000 Ang^3
#
#
#
# Elastic Constant Matrix: (Units=GPa)
#
#
# Indices 1 2 3 4 5 6 
#
# 1 111.4902 18.2103 10.1281 0.0000 0.0000 0.0000
# 2 18.2103 55.0086 2.1266 0.0000 0.0000 0.0000
# 3 10.1281 2.1266 157.0827 0.0000 0.0000 0.0000
# 4 0.0000 0.0000 0.0000 35.3098 0.0000 0.0000
# 5 0.0000 0.0000 0.0000 0.0000 6.8326 0.0000
# 6 0.0000 0.0000 0.0000 0.0000 0.0000 35.6330
#
#
#
# Elastic Compliance Matrix: (Units=1/GPa)
#
#
# Indices 1 2 3 4 5 6 
#
# 1 0.009533 -0.003134 -0.000572 0.000000 0.000000 0.000000
# 2 -0.003134 0.019219 -0.000058 0.000000 0.000000 0.000000
# 3 -0.000572 -0.000058 0.006404 0.000000 0.000000 0.000000
# 4 0.000000 0.000000 0.000000 0.028321 0.000000 0.000000
# 5 0.000000 0.000000 0.000000 0.000000 0.146357 0.000000
# 6 0.000000 0.000000 0.000000 0.000000 0.000000 0.028064
#
#
# Mechanical properties :
#
#
# Convention : Reuss Voigt Hill
#
# Bulk Modulus (GPa) = 36.19609 42.72351 39.45980
# Shear Modulus (GPa) = 19.63597 35.09618 27.36607
#
# Velocity S-wave (km/s) = 2.89401 3.86905 3.41649
# Velocity P-wave (km/s) = 5.15807 6.17917 5.69157
#
# Compressibility (1/GPa) = 0.02762729
#
# Stress axis : x y z
#
# Youngs Moduli (GPa) = 104.89615 52.03282 156.15832
#
# Poissons Ratio (x) = 0.16306 0.08936
# Poissons Ratio (y) = 0.32872 0.00908
# Poissons Ratio (z) = 0.06003 0.00302
#
# Static dielectric constant tensor:
#      x y z
#    x 1.880380 0.000000 0.000000 
#    y 0.000000 1.788550 0.000000 
#    z 0.000000 0.000000 1.849000 
# 
# From -- ./inp_files/2203.got.cif
#   From: 2010.05.17/outbox.cif.g08.bks.cpg/sg30_2_cif.got.tgz:2203.got - 2010.06.03 17:03:02.
