data_PCOD9342629
_publ_section_title
;
Structure prediction by ZEFSAII (Michael W. Deem and Ramdas Pophale) SiO2 
 PCOD9342629
Probable space group: P N C 2
;
_chemical_formula_sum "Si O2"
_cell_formula_units_Z 16
_cell_length_a 7.791348
_cell_length_b 16.229896
_cell_length_c 5.002934
_cell_angle_alpha 90.000000
_cell_angle_beta 90.000000
_cell_angle_gamma 90.000000
_cell_volume 632.634851
_symmetry_space_group_name_H-M "P N C 2"
_symmetry_group_IT_number 30
_symmetry_cell_setting 'orthorhombic'
loop_
_space_group_symop_operation_xyz
x,y,z
-x,-y,z
-x,1/2+y,1/2+z
x,1/2-y,1/2+z
loop_
_atom_site_type_symbol
_atom_site_label
_atom_site_fract_x
_atom_site_fract_y
_atom_site_fract_z
Si Si1 0.551849 0.185571 0.364740
Si Si2 0.015612 0.305148 0.383478
Si Si3 0.277973 0.573122 0.484497
Si Si4 0.345238 0.104816 0.759054
O O1 0.563511 0.249912 0.615306
O O2 0.381015 0.131176 0.447764
O O3 0.687237 0.111762 0.284128
O O4 0.973968 0.251476 0.636553
O O5 0.892146 0.383035 0.383767
O O6 0.215206 0.327673 0.368548
O O7 0.459754 0.599269 0.357363
O O8 0.267445 0.479342 0.381442
#
# Coordination Sequence:
#
# PCOD9342629 Si02
#       4
#     4   4   4   4
#     4  12  24  47  77 116 156 208 262 330 405 492
#     4  12  29  50  77 116 156 216 272 340 409 502
#     4  11  27  51  81 116 165 209 275 336 420 482
#     4  11  27  51  81 116 165 209 275 336 420 482
#
# _framework density 25.291051
#
# number of rings (size 3 to 8) (size 9 to 14) (size 15 to 20)
#    0.000    0.500    2.500    3.750    7.000    4.000 
#    0.000    2.500    0.000    0.000    0.000    0.000 
#    0.000    0.000    0.000    0.000    0.000    0.000 
#
# Total GULP energy -89149.135040 kJ/mol
# GULP energy per Si atom -5571.820940 kJ/mol
# Density = 2.523349 g / cm^3
# Si number density = 25.291051 Si / 1000 Ang^3
#
#
#
# Elastic Constant Matrix: (Units=GPa)
#
#
# Indices 1 2 3 4 5 6 
#
# 1 114.6603 7.3789 26.7763 0.0000 0.0000 0.0000
# 2 7.3789 159.5319 57.3609 0.0000 0.0000 0.0000
# 3 26.7763 57.3609 177.8882 0.0000 0.0000 0.0000
# 4 0.0000 0.0000 0.0000 38.7501 0.0000 0.0000
# 5 0.0000 0.0000 0.0000 0.0000 40.1344 0.0000
# 6 0.0000 0.0000 0.0000 0.0000 0.0000 51.6172
#
#
#
# Elastic Compliance Matrix: (Units=1/GPa)
#
#
# Indices 1 2 3 4 5 6 
#
# 1 0.009040 0.000080 -0.001387 0.000000 0.000000 0.000000
# 2 0.000080 0.007091 -0.002299 0.000000 0.000000 0.000000
# 3 -0.001387 -0.002299 0.006571 0.000000 0.000000 0.000000
# 4 0.000000 0.000000 0.000000 0.025806 0.000000 0.000000
# 5 0.000000 0.000000 0.000000 0.000000 0.024916 0.000000
# 6 0.000000 0.000000 0.000000 0.000000 0.000000 0.019373
#
#
# Mechanical properties :
#
#
# Convention : Reuss Voigt Hill
#
# Bulk Modulus (GPa) = 64.54595 70.56807 67.55701
# Shear Modulus (GPa) = 47.54082 50.13796 48.83939
#
# Velocity S-wave (km/s) = 4.34031 4.45729 4.39919
# Velocity P-wave (km/s) = 7.12000 7.37922 7.25077
#
# Compressibility (1/GPa) = 0.01549284
#
# Stress axis : x y z
#
# Youngs Moduli (GPa) = 110.61868 141.02137 152.17329
#
# Poissons Ratio (x) = -0.01135 0.21102
# Poissons Ratio (y) = -0.00890 0.34980
# Poissons Ratio (z) = 0.15339 0.32416
#
# Static dielectric constant tensor:
#      x y z
#    x 1.967860 0.000000 0.000000 
#    y 0.000000 2.068870 0.000000 
#    z 0.000000 0.000000 2.319260 
# 
# From -- ./inp_files/307.got.cif
#   From: 2010.05.17/outbox.cif.g08.bks.cpg/sg30_1_cif.got.tgz:307.got - 2010.06.03 17:03:02.
