data_PCOD9342311
_publ_section_title
;
Structure prediction by ZEFSAII (Michael W. Deem and Ramdas Pophale) SiO2 
 PCOD9342311
Probable space group: P N C 2
;
_chemical_formula_sum "Si O2"
_cell_formula_units_Z 32
_cell_length_a 14.013379
_cell_length_b 6.787689
_cell_length_c 17.796558
_cell_angle_alpha 90.000000
_cell_angle_beta 90.000000
_cell_angle_gamma 90.000000
_cell_volume 1692.781163
_symmetry_space_group_name_H-M "P N C 2"
_symmetry_group_IT_number 30
_symmetry_cell_setting 'orthorhombic'
loop_
_space_group_symop_operation_xyz
x,y,z
-x,-y,z
-x,1/2+y,1/2+z
x,1/2-y,1/2+z
loop_
_atom_site_type_symbol
_atom_site_label
_atom_site_fract_x
_atom_site_fract_y
_atom_site_fract_z
Si Si1 0.761650 0.364819 0.049190
Si Si2 0.395573 0.942364 0.228263
Si Si3 0.604427 0.442364 0.549283
Si Si4 0.260477 0.271762 0.809376
Si Si5 0.739523 0.771762 0.968171
Si Si6 0.238350 0.635181 0.228357
Si Si7 0.898646 0.399908 0.817858
Si Si8 0.101354 0.899908 0.959689
O O1 0.663885 0.251385 0.024159
O O2 0.758761 0.395445 0.138773
O O3 0.770682 0.566618 0.003857
O O4 0.850285 0.225808 0.026423
O O5 0.326543 0.121060 0.249134
O O6 0.500000 0.000000 0.258309
O O7 0.404023 0.920998 0.138773
O O8 0.336115 0.748616 0.253387
O O9 0.500000 0.500000 0.519238
O O10 0.673457 0.621060 0.528413
O O11 0.314099 0.250000 0.888773
O O12 0.174074 0.418955 0.829709
O O13 0.229318 0.066618 0.773690
O O14 0.825926 0.918955 0.947838
O O15 0.149715 0.774192 0.251124
O O16 0.904501 0.250000 0.888773
O O17 0.000000 0.500000 0.802281
O O18 0.000000 0.000000 0.975266
#
# Coordination Sequence:
#
# PCOD9342311 Si02
#       8
#     4   4   4   4   4   4   4   4
#     4  10  22  40  63  91 123 159 200 251 303 356
#     4   9  20  39  60  86 121 160 202 244 295 359
#     4   9  20  39  60  86 121 160 202 244 295 359
#     4  11  21  38  59  87 121 159 201 251 300 357
#     4  11  21  38  59  87 121 159 201 251 300 357
#     4  10  22  40  63  91 123 159 200 251 303 356
#     4  11  23  39  63  88 119 160 205 247 303 370
#     4  11  23  39  63  88 119 160 205 247 303 370
#
# _framework density 18.903803
#
# number of rings (size 3 to 8) (size 9 to 14) (size 15 to 20)
#    0.000    1.750    2.500    1.500    0.000    2.500 
#    4.500    5.000    0.000    0.000    0.000    0.000 
#    0.000    0.000    0.000    0.000    0.000    0.000 
#
# Total GULP energy -178337.181786 kJ/mol
# GULP energy per Si atom -5573.036931 kJ/mol
# Density = 1.886078 g / cm^3
# Si number density = 18.903803 Si / 1000 Ang^3
#
#
#
# Elastic Constant Matrix: (Units=GPa)
#
#
# Indices 1 2 3 4 5 6 
#
# 1 119.0128 50.9639 12.3364 0.0000 0.0000 0.0000
# 2 50.9639 143.8351 38.1632 0.0000 0.0000 0.0000
# 3 12.3364 38.1632 49.9483 0.0000 0.0000 0.0000
# 4 0.0000 0.0000 0.0000 30.5073 0.0000 0.0000
# 5 0.0000 0.0000 0.0000 0.0000 -135.5112 0.0000
# 6 0.0000 0.0000 0.0000 0.0000 0.0000 0.5693
#
#
#
# Elastic Compliance Matrix: (Units=1/GPa)
#
#
# Indices 1 2 3 4 5 6 
#
# 1 0.009909 -0.003589 0.000295 0.000000 0.000000 0.000000
# 2 -0.003589 0.010020 -0.006770 0.000000 0.000000 0.000000
# 3 0.000295 -0.006770 0.025120 0.000000 0.000000 0.000000
# 4 0.000000 0.000000 0.000000 0.032779 0.000000 0.000000
# 5 0.000000 0.000000 0.000000 0.000000 -0.007379 0.000000
# 6 0.000000 0.000000 0.000000 0.000000 0.000000 1.756655
#
#
# Mechanical properties :
#
#
# Convention : Reuss Voigt Hill
#
# Bulk Modulus (GPa) = 40.12554 57.30259 48.71407
# Shear Modulus (GPa) = 2.69464 -6.79809 -2.05173
#
# Velocity S-wave (km/s) = 1.19522 -1.89841 -1.04293
# Velocity P-wave (km/s) = 4.81425 5.05700 4.93712
#
# Compressibility (1/GPa) = 0.02492178
#
# Stress axis : x y z
#
# Youngs Moduli (GPa) = 100.91989 99.79768 39.80872
#
# Poissons Ratio (x) = 0.35819 -0.01174
# Poissons Ratio (y) = 0.36222 0.26949
# Poissons Ratio (z) = -0.02977 0.67559
#
# Static dielectric constant tensor:
#      x y z
#    x 1.664520 0.000000 0.000000 
#    y 0.000000 1.665170 0.000000 
#    z 0.000000 0.000000 1.665070 
# 
# From -- ./inp_files/6634.got.cif
#   From: 2010.05.17/outbox.cif.g08.bks.cpg/sg30_4_cif.got.tgz:6634.got - 2010.06.03 17:03:02.
