data_PCOD9342515
_publ_section_title
;
Structure prediction by ZEFSAII (Michael W. Deem and Ramdas Pophale) SiO2 
 PCOD9342515
Probable space group: P N C 2
;
_chemical_formula_sum "Si O2"
_cell_formula_units_Z 32
_cell_length_a 10.009304
_cell_length_b 8.653059
_cell_length_c 14.373472
_cell_angle_alpha 90.000000
_cell_angle_beta 90.000000
_cell_angle_gamma 90.000000
_cell_volume 1244.902193
_symmetry_space_group_name_H-M "P N C 2"
_symmetry_group_IT_number 30
_symmetry_cell_setting 'orthorhombic'
loop_
_space_group_symop_operation_xyz
x,y,z
-x,-y,z
-x,1/2+y,1/2+z
x,1/2-y,1/2+z
loop_
_atom_site_type_symbol
_atom_site_label
_atom_site_fract_x
_atom_site_fract_y
_atom_site_fract_z
Si Si1 0.228291 0.520002 0.761820
Si Si2 0.436559 0.758375 0.183300
Si Si3 0.857932 0.070381 0.072663
Si Si4 0.293090 0.426599 0.189289
Si Si5 0.817873 0.259521 0.901699
Si Si6 0.257008 0.245223 0.004742
Si Si7 0.097146 0.213125 0.818604
Si Si8 0.462988 0.826040 0.963480
O O1 0.374063 0.593399 0.737609
O O2 0.151638 0.610947 0.679846
O O3 0.193109 0.567505 0.866387
O O4 0.157742 0.354173 0.756898
O O5 0.351906 0.599196 0.187574
O O6 0.585263 0.697155 0.210346
O O7 0.435376 0.805193 0.073951
O O8 0.754259 0.929431 0.049715
O O9 0.846990 0.217197 0.007126
O O10 0.000000 0.000000 0.051674
O O11 0.242803 0.368060 0.087724
O O12 0.177794 0.420553 0.266288
O O13 0.939886 0.198242 0.838376
O O14 0.663496 0.205529 0.898516
O O15 0.400553 0.270458 0.954760
O O16 0.152267 0.237515 0.922435
O O17 0.500000 0.000000 0.941943
#
# Coordination Sequence:
#
# PCOD9342515 Si02
#       8
#     4   4   4   4   4   4   4   4
#     4  12  27  47  77 113 156 209 267 325 407 487
#     4  10  24  47  76 111 154 200 266 335 409 481
#     4  12  23  48  76 105 155 213 261 328 403 485
#     4  10  25  48  74 113 156 200 266 340 399 482
#     4  12  27  44  74 113 155 195 273 325 394 483
#     4  11  24  44  77 107 151 204 265 324 404 476
#     4  12  27  47  75 111 156 207 265 331 393 490
#     4  11  23  46  76 114 152 203 261 327 410 493
#
# _framework density 25.704830000000001
#
# number of rings (size 3 to 8) (size 9 to 14) (size 15 to 20)
#    0.000    0.750    5.000    1.125    7.000    0.000 
#    0.000    0.000    0.000    0.000    0.000    0.000 
#    0.000    0.000    0.000    0.000    0.000    0.000 
#
# Total GULP energy -178575.515674 kJ/mol
# GULP energy per Si atom -5580.484865 kJ/mol
# Density = 2.564632 g / cm^3
# Si number density = 25.704830 Si / 1000 Ang^3
#
#
#
# Elastic Constant Matrix: (Units=GPa)
#
#
# Indices 1 2 3 4 5 6 
#
# 1 173.2149 46.9739 38.8835 0.0000 0.0000 0.0000
# 2 46.9739 71.2964 39.1891 0.0000 0.0000 0.0000
# 3 38.8835 39.1891 103.9733 0.0000 0.0000 0.0000
# 4 0.0000 0.0000 0.0000 40.6385 0.0000 0.0000
# 5 0.0000 0.0000 0.0000 0.0000 37.7629 0.0000
# 6 0.0000 0.0000 0.0000 0.0000 0.0000 24.7953
#
#
#
# Elastic Compliance Matrix: (Units=1/GPa)
#
#
# Indices 1 2 3 4 5 6 
#
# 1 0.007133 -0.004078 -0.001130 0.000000 0.000000 0.000000
# 2 -0.004078 0.020023 -0.006022 0.000000 0.000000 0.000000
# 3 -0.001130 -0.006022 0.012310 0.000000 0.000000 0.000000
# 4 0.000000 0.000000 0.000000 0.024607 0.000000 0.000000
# 5 0.000000 0.000000 0.000000 0.000000 0.026481 0.000000
# 6 0.000000 0.000000 0.000000 0.000000 0.000000 0.040330
#
#
# Mechanical properties :
#
#
# Convention : Reuss Voigt Hill
#
# Bulk Modulus (GPa) = 58.80516 66.50862 62.65689
# Shear Modulus (GPa) = 31.44382 35.53519 33.48950
#
# Velocity S-wave (km/s) = 3.50131 3.72214 3.61342
# Velocity P-wave (km/s) = 6.26677 6.66353 6.46819
#
# Compressibility (1/GPa) = 0.01700531
#
# Stress axis : x y z
#
# Youngs Moduli (GPa) = 140.19568 49.94292 81.23279
#
# Poissons Ratio (x) = 0.20368 0.09183
# Poissons Ratio (y) = 0.57175 0.48917
# Poissons Ratio (z) = 0.15848 0.30075
#
# Static dielectric constant tensor:
#      x y z
#    x 2.137410 0.000000 0.000000 
#    y 0.000000 2.040800 0.000000 
#    z 0.000000 0.000000 1.986870 
# 
# From -- ./inp_files/5532.got.cif
#   From: 2010.05.17/outbox.cif.g08.bks.cpg/sg30_3_cif.got.tgz:5532.got - 2010.06.03 17:03:02.
