data_PCOD9342370
_publ_section_title
;
Structure prediction by ZEFSAII (Michael W. Deem and Ramdas Pophale) SiO2 
 PCOD9342370
Probable space group: P N C 2
;
_chemical_formula_sum "Si O2"
_cell_formula_units_Z 24
_cell_length_a 8.351558
_cell_length_b 7.968993
_cell_length_c 14.950056
_cell_angle_alpha 90.000000
_cell_angle_beta 90.000000
_cell_angle_gamma 90.000000
_cell_volume 994.978660
_symmetry_space_group_name_H-M "P N C 2"
_symmetry_group_IT_number 30
_symmetry_cell_setting 'orthorhombic'
loop_
_space_group_symop_operation_xyz
x,y,z
-x,-y,z
-x,1/2+y,1/2+z
x,1/2-y,1/2+z
loop_
_atom_site_type_symbol
_atom_site_label
_atom_site_fract_x
_atom_site_fract_y
_atom_site_fract_z
Si Si1 0.185440 0.193931 0.950040
Si Si2 0.066308 0.824437 0.183434
Si Si3 0.764349 0.627567 0.264128
Si Si4 0.163203 0.768987 0.857093
Si Si5 0.597747 0.661485 0.083394
Si Si6 0.700447 0.167493 0.027270
O O1 0.280053 0.218399 0.856914
O O2 0.003869 0.209199 0.913043
O O3 0.232796 0.013799 0.993690
O O4 0.240441 0.320245 0.026306
O O5 0.153300 0.864301 0.277695
O O6 0.922952 0.704700 0.216677
O O7 0.184847 0.762677 0.106164
O O8 0.000000 0.000000 0.148414
O O9 0.634595 0.643431 0.187708
O O10 0.798721 0.439879 0.301214
O O11 0.288723 0.732905 0.934054
O O12 0.500000 0.500000 0.054965
O O13 0.478581 0.815464 0.063374
#
# Coordination Sequence:
#
# PCOD9342370 Si02
#       6
#     4   4   4   4   4   4
#     4  10  22  44  67  89 122 171 218 253 306 385
#     4  11  21  36  64  95 119 152 212 275 311 353
#     4  10  22  43  65  88 123 167 212 256 314 384
#     4  10  22  43  68  89 118 168 217 258 310 382
#     4  12  26  39  59  94 131 163 202 264 323 373
#     4  11  22  39  64  89 123 169 206 248 318 391
#
# _framework density 24.121119
#
# number of rings (size 3 to 8) (size 9 to 14) (size 15 to 20)
#    0.000    1.333    0.000    9.000    0.000    6.667 
#    0.000    5.000    0.000    0.000    0.000    0.000 
#    0.000    0.000    0.000    0.000    0.000    0.000 
#
# Total GULP energy -133981.503786 kJ/mol
# GULP energy per Si atom -5582.562658 kJ/mol
# Density = 2.406622 g / cm^3
# Si number density = 24.121119 Si / 1000 Ang^3
#
#
#
# Elastic Constant Matrix: (Units=GPa)
#
#
# Indices 1 2 3 4 5 6 
#
# 1 70.5714 14.1954 74.7459 0.0000 0.0000 0.0000
# 2 14.1954 43.6361 30.2876 0.0000 0.0000 0.0000
# 3 74.7459 30.2876 207.0015 0.0000 0.0000 0.0000
# 4 0.0000 0.0000 0.0000 30.2629 0.0000 0.0000
# 5 0.0000 0.0000 0.0000 0.0000 51.8450 0.0000
# 6 0.0000 0.0000 0.0000 0.0000 0.0000 27.9900
#
#
#
# Elastic Compliance Matrix: (Units=1/GPa)
#
#
# Indices 1 2 3 4 5 6 
#
# 1 0.023089 -0.001919 -0.008056 0.000000 0.000000 0.000000
# 2 -0.001919 0.025667 -0.003062 0.000000 0.000000 0.000000
# 3 -0.008056 -0.003062 0.008188 0.000000 0.000000 0.000000
# 4 0.000000 0.000000 0.000000 0.033044 0.000000 0.000000
# 5 0.000000 0.000000 0.000000 0.000000 0.019288 0.000000
# 6 0.000000 0.000000 0.000000 0.000000 0.000000 0.035727
#
#
# Mechanical properties :
#
#
# Convention : Reuss Voigt Hill
#
# Bulk Modulus (GPa) = 32.39633 62.18518 47.29076
# Shear Modulus (GPa) = 27.56820 35.48491 31.52656
#
# Velocity S-wave (km/s) = 3.38436 3.83967 3.61918
# Velocity P-wave (km/s) = 5.36020 6.74491 6.09202
#
# Compressibility (1/GPa) = 0.03086769
#
# Stress axis : x y z
#
# Youngs Moduli (GPa) = 43.31060 38.96083 122.12961
#
# Poissons Ratio (x) = 0.07478 0.98392
# Poissons Ratio (y) = 0.08313 0.37401
# Poissons Ratio (z) = 0.34893 0.11931
#
# Static dielectric constant tensor:
#      x y z
#    x 2.010910 0.000000 0.000000 
#    y 0.000000 2.068320 0.000000 
#    z 0.000000 0.000000 1.914260 
# 
# From -- ./inp_files/5021.got.cif
#   From: 2010.05.17/outbox.cif.g08.bks.cpg/sg30_3_cif.got.tgz:5021.got - 2010.06.03 17:03:02.
