data_PCOD9342970
_publ_section_title
;
Structure prediction by ZEFSAII (Michael W. Deem and Ramdas Pophale) SiO2 
 PCOD9342970
Probable space group: P M N 21
;
_chemical_formula_sum "Si O2"
_cell_formula_units_Z 20
_cell_length_a 17.516091
_cell_length_b 6.552458
_cell_length_c 9.148006
_cell_angle_alpha 90.000000
_cell_angle_beta 90.000000
_cell_angle_gamma 90.000000
_cell_volume 1049.948215
_symmetry_space_group_name_H-M "P M N 21"
_symmetry_group_IT_number 31
_symmetry_cell_setting 'orthorhombic'
loop_
_space_group_symop_operation_xyz
x,y,z
1/2-x,-y,1/2+z
-x,y,z
1/2+x,-y,1/2+z
loop_
_atom_site_type_symbol
_atom_site_label
_atom_site_fract_x
_atom_site_fract_y
_atom_site_fract_z
Si Si1 0.804514 0.954805 0.004630
Si Si2 0.410003 0.306348 0.718338
Si Si3 0.310566 0.426507 0.303367
Si Si4 0.189943 0.701554 0.478204
Si Si5 0.912889 0.339223 0.999294
O O1 0.846225 0.832499 0.136164
O O2 0.862425 0.140693 0.980899
O O3 0.797139 0.796098 0.872418
O O4 0.724458 0.075464 0.017529
O O5 0.500000 0.253516 0.691445
O O6 0.388456 0.292708 0.888367
O O7 0.398557 0.532092 0.648145
O O8 0.247227 0.578231 0.370485
O O9 0.389828 0.505921 0.370824
O O10 0.311537 0.418986 0.130101
O O11 0.000000 0.281372 0.994963
#
# Coordination Sequence:
#
# PCOD9342970 Si02
#       5
#     4   4   4   4   4
#     4  10  19  35  58  81 108 146 187 229 278 336
#     4  10  21  37  58  84 115 150 189 236 289 342
#     4  10  21  34  55  80 107 143 184 229 278 335
#     4  11  21  36  56  82 111 145 189 234 282 336
#     4   9  19  36  56  79 109 146 185 228 282 339
#
# _framework density 19.048558
#
# number of rings (size 3 to 8) (size 9 to 14) (size 15 to 20)
#    0.000    2.000    0.000    5.400    0.000    3.200 
#    0.000    0.000    0.000    0.000    0.000    0.000 
#    0.000    0.000    0.000    0.000    0.000    0.000 
#
# Total GULP energy -111454.116124 kJ/mol
# GULP energy per Si atom -5572.705806 kJ/mol
# Density = 1.900520 g / cm^3
# Si number density = 19.048558 Si / 1000 Ang^3
#
#
#
# Elastic Constant Matrix: (Units=GPa)
#
#
# Indices 1 2 3 4 5 6 
#
# 1 53.9432 13.1132 15.1050 0.0000 0.0000 0.0000
# 2 13.1132 74.5845 9.3898 0.0000 0.0000 0.0000
# 3 15.1050 9.3898 117.3339 0.0000 0.0000 0.0000
# 4 0.0000 0.0000 0.0000 12.0313 0.0000 0.0000
# 5 0.0000 0.0000 0.0000 0.0000 24.6557 0.0000
# 6 0.0000 0.0000 0.0000 0.0000 0.0000 21.7174
#
#
#
# Elastic Compliance Matrix: (Units=1/GPa)
#
#
# Indices 1 2 3 4 5 6 
#
# 1 0.019968 -0.003220 -0.002313 0.000000 0.000000 0.000000
# 2 -0.003220 0.014063 -0.000711 0.000000 0.000000 0.000000
# 3 -0.002313 -0.000711 0.008877 0.000000 0.000000 0.000000
# 4 0.000000 0.000000 0.000000 0.083117 0.000000 0.000000
# 5 0.000000 0.000000 0.000000 0.000000 0.040559 0.000000
# 6 0.000000 0.000000 0.000000 0.000000 0.000000 0.046046
#
#
# Mechanical properties :
#
#
# Convention : Reuss Voigt Hill
#
# Bulk Modulus (GPa) = 32.87113 35.67531 34.27322
# Shear Modulus (GPa) = 21.25328 25.56445 23.40886
#
# Velocity S-wave (km/s) = 3.34390 3.66740 3.50938
# Velocity P-wave (km/s) = 5.67475 6.05825 5.86963
#
# Compressibility (1/GPa) = 0.03042183
#
# Stress axis : x y z
#
# Youngs Moduli (GPa) = 50.07928 71.10771 112.64635
#
# Poissons Ratio (x) = 0.22894 0.26055
# Poissons Ratio (y) = 0.16123 0.08009
# Poissons Ratio (z) = 0.11583 0.05055
#
# Static dielectric constant tensor:
#      x y z
#    x 1.690720 0.000000 0.000000 
#    y 0.000000 1.674960 0.000000 
#    z 0.000000 0.000000 1.682300 
# 
# From -- ./inp_files/2681.got.cif
#   From: 2010.05.17/outbox.cif.g08.bks.cpg/sg31_2_cif.got.tgz:2681.got - 2010.06.03 17:08:30.
