data_PCOD9342378
_publ_section_title
;
Structure prediction by ZEFSAII (Michael W. Deem and Ramdas Pophale) SiO2 
 PCOD9342378
Probable space group: P N C 2
;
_chemical_formula_sum "Si O2"
_cell_formula_units_Z 18
_cell_length_a 9.814602
_cell_length_b 8.789583
_cell_length_c 10.708192
_cell_angle_alpha 90.000000
_cell_angle_beta 90.000000
_cell_angle_gamma 90.000000
_cell_volume 923.755663
_symmetry_space_group_name_H-M "P N C 2"
_symmetry_group_IT_number 30
_symmetry_cell_setting 'orthorhombic'
loop_
_space_group_symop_operation_xyz
x,y,z
-x,-y,z
-x,1/2+y,1/2+z
x,1/2-y,1/2+z
loop_
_atom_site_type_symbol
_atom_site_label
_atom_site_fract_x
_atom_site_fract_y
_atom_site_fract_z
Si Si1 0.262981 0.905191 0.153070
Si Si2 0.262981 0.405191 0.418314
Si Si3 0.000000 0.500000 0.535692
Si Si4 0.345429 0.938619 0.666835
Si Si5 0.345429 0.061381 0.404549
O O1 0.333675 0.742916 0.165336
O O2 0.103046 0.897349 0.116465
O O3 0.275362 0.996594 0.281156
O O4 0.323090 0.000000 0.035692
O O5 0.103046 0.397349 0.454918
O O6 0.275362 0.496594 0.290228
O O7 0.333675 0.242916 0.406048
O O8 0.500000 0.000000 0.672864
O O9 0.286902 0.000000 0.535692
O O10 0.500000 0.000000 0.398519
#
# Coordination Sequence:
#
# PCOD9342378 Si02
#       5
#     4   4   2   4   4
#     4  10  22  44  65  96 133 173 218 268 320 390
#     4  10  22  44  65  96 133 173 218 268 320 390
#     4   8  24  44  66  92 136 172 228 250 328 380
#     4  11  23  40  65 100 132 169 218 269 335 381
#     4  11  23  40  65 100 132 169 218 269 335 381
#
# _framework density 19.485671
#
# number of rings (size 3 to 8) (size 9 to 14) (size 15 to 20)
#    1.333    0.444    0.000    4.000    0.000    6.222 
#    0.000    0.000    0.000    0.000    0.000    0.000 
#    0.000    0.000    0.000    0.000    0.000    0.000 
#
# Total GULP energy -100352.309874 kJ/mol
# GULP energy per Si atom -5575.128326 kJ/mol
# Density = 1.944132 g / cm^3
# Si number density = 19.485671 Si / 1000 Ang^3
#
#
#
# Elastic Constant Matrix: (Units=GPa)
#
#
# Indices 1 2 3 4 5 6 
#
# 1 98.8128 44.3070 34.3955 0.0000 0.0000 0.0000
# 2 44.3070 187.9265 77.6985 0.0000 0.0000 0.0000
# 3 34.3955 77.6985 198.3963 0.0000 0.0000 0.0000
# 4 0.0000 0.0000 0.0000 32.5473 0.0000 0.0000
# 5 0.0000 0.0000 0.0000 0.0000********** 0.0000
# 6 0.0000 0.0000 0.0000 0.0000 0.0000 -71.1855
#
#
#
# Elastic Compliance Matrix: (Units=1/GPa)
#
#
# Indices 1 2 3 4 5 6 
#
# 1 0.011519 -0.002255 -0.001114 0.000000 0.000000 0.000000
# 2 -0.002255 0.006791 -0.002269 0.000000 0.000000 0.000000
# 3 -0.001114 -0.002269 0.006122 0.000000 0.000000 0.000000
# 4 0.000000 0.000000 0.000000 0.030725 0.000000 0.000000
# 5 0.000000 0.000000 0.000000 0.000000 -0.000013 0.000000
# 6 0.000000 0.000000 0.000000 0.000000 0.000000 -0.014048
#
#
# Mechanical properties :
#
#
# Convention : Reuss Voigt Hill
#
# Bulk Modulus (GPa) = 76.00719 88.65975 82.33347
# Shear Modulus (GPa) = 88.09617 -14927.42530 -7419.66456
#
# Velocity S-wave (km/s) = 6.73119 -87.62049 -61.77395
# Velocity P-wave (km/s) = 9.97513 100.94983 71.03297
#
# Compressibility (1/GPa) = 0.01315665
#
# Stress axis : x y z
#
# Youngs Moduli (GPa) = 86.81214 147.25593 163.34685
#
# Poissons Ratio (x) = 0.33211 0.18193
# Poissons Ratio (y) = 0.19579 0.37056
# Poissons Ratio (z) = 0.09669 0.33406
#
# Static dielectric constant tensor:
#      x y z
#    x 1.702210 0.000000 0.000000 
#    y 0.000000 1.655530 0.000000 
#    z 0.000000 0.000000 1.696000 
# 
# From -- ./inp_files/4002.got.cif
#   From: 2010.05.17/outbox.cif.g08.bks.cpg/sg30_3_cif.got.tgz:4002.got - 2010.06.03 17:03:02.
