data_PCOD9342776
_publ_section_title
;
Structure prediction by ZEFSAII (Michael W. Deem and Ramdas Pophale) SiO2 
 PCOD9342776
Probable space group: P M N 21
;
_chemical_formula_sum "Si O2"
_cell_formula_units_Z 32
_cell_length_a 8.233699
_cell_length_b 10.933782
_cell_length_c 14.424286
_cell_angle_alpha 90.000000
_cell_angle_beta 90.000000
_cell_angle_gamma 90.000000
_cell_volume 1298.553125
_symmetry_space_group_name_H-M "P M N 21"
_symmetry_group_IT_number 31
_symmetry_cell_setting 'orthorhombic'
loop_
_space_group_symop_operation_xyz
x,y,z
1/2-x,-y,1/2+z
-x,y,z
1/2+x,-y,1/2+z
loop_
_atom_site_type_symbol
_atom_site_label
_atom_site_fract_x
_atom_site_fract_y
_atom_site_fract_z
Si Si1 0.186779 0.709256 0.676510
Si Si2 0.810352 0.082675 0.722967
Si Si3 0.689355 0.538218 0.370623
Si Si4 0.692040 0.050609 0.051137
Si Si5 0.308772 0.450607 0.662625
Si Si6 0.809490 0.791943 0.393037
Si Si7 0.315405 0.856711 0.833977
Si Si8 0.304918 0.301134 0.494370
O O1 0.207267 0.819812 0.605014
O O2 0.226736 0.578368 0.634107
O O3 0.296868 0.740055 0.765429
O O4 0.000000 0.709479 0.708274
O O5 0.738761 0.049422 0.621919
O O6 0.795274 0.956158 0.781896
O O7 0.000000 0.116026 0.717049
O O8 0.716173 0.178765 0.785218
O O9 0.500000 0.524215 0.348784
O O10 0.779800 0.551491 0.272581
O O11 0.718615 0.668458 0.418801
O O12 0.734700 0.423808 0.434498
O O13 0.500000 0.022511 0.044470
O O14 0.752880 0.090040 0.950615
O O15 0.500000 0.459686 0.644272
O O16 0.249634 0.337976 0.598315
O O17 0.000000 0.777120 0.412649
O O18 0.500000 0.902974 0.832253
O O19 0.271592 0.810775 0.936773
O O20 0.500000 0.283347 0.492876
#
# Coordination Sequence:
#
# PCOD9342776 Si02
#       8
#     4   4   4   4   4   4   4   4
#     4  10  18  33  57  84 117 156 194 242 297 352
#     4  10  21  41  64  87 118 157 197 247 306 362
#     4  11  23  40  61  87 123 166 199 241 303 366
#     4   8  18  36  61  88 115 153 199 245 297 354
#     4  11  22  36  56  87 121 158 200 247 296 355
#     4  11  22  40  63  90 121 155 202 256 299 356
#     4  11  21  35  59  87 114 149 196 247 297 351
#     4  10  22  39  59  86 123 160 199 247 301 360
#
# _framework density 24.642811999999999
#
# number of rings (size 3 to 8) (size 9 to 14) (size 15 to 20)
#    0.000    1.750    1.250    4.500    0.000    1.500 
#    2.250    6.875    0.000    0.000    0.000    0.000 
#    0.000    0.000    0.000    0.000    0.000    0.000 
#
# Total GULP energy -178952.866426 kJ/mol
# GULP energy per Si atom -5592.277076 kJ/mol
# Density = 2.458672 g / cm^3
# Si number density = 24.642812 Si / 1000 Ang^3
#
#
#
# Elastic Constant Matrix: (Units=GPa)
#
#
# Indices 1 2 3 4 5 6 
#
# 1 42.0722 -12.4231 3.7377 0.0000 0.0000 0.0000
# 2 -12.4231 69.3974 -1.7513 0.0000 0.0000 0.0000
# 3 3.7377 -1.7513 112.7482 0.0000 0.0000 0.0000
# 4 0.0000 0.0000 0.0000 48.8586 0.0000 0.0000
# 5 0.0000 0.0000 0.0000 0.0000 23.4335 0.0000
# 6 0.0000 0.0000 0.0000 0.0000 0.0000 26.9194
#
#
#
# Elastic Compliance Matrix: (Units=1/GPa)
#
#
# Indices 1 2 3 4 5 6 
#
# 1 0.025161 0.004485 -0.000764 0.000000 0.000000 0.000000
# 2 0.004485 0.015215 0.000088 0.000000 0.000000 0.000000
# 3 -0.000764 0.000088 0.008896 0.000000 0.000000 0.000000
# 4 0.000000 0.000000 0.000000 0.020467 0.000000 0.000000
# 5 0.000000 0.000000 0.000000 0.000000 0.042674 0.000000
# 6 0.000000 0.000000 0.000000 0.000000 0.000000 0.037148
#
#
# Mechanical properties :
#
#
# Convention : Reuss Voigt Hill
#
# Bulk Modulus (GPa) = 17.57845 22.59382 20.08613
# Shear Modulus (GPa) = 31.07379 35.48593 33.27986
#
# Velocity S-wave (km/s) = 3.55486 3.79886 3.67889
# Velocity P-wave (km/s) = 4.89879 5.33200 5.11998
#
# Compressibility (1/GPa) = 0.05688785
#
# Stress axis : x y z
#
# Youngs Moduli (GPa) = 39.74424 65.72539 112.40972
#
# Poissons Ratio (x) = -0.29477 0.08593
# Poissons Ratio (y) = -0.17825 -0.00985
# Poissons Ratio (z) = 0.03038 -0.00576
#
# Static dielectric constant tensor:
#      x y z
#    x 1.824910 0.000000 0.000000 
#    y 0.000000 2.003730 0.000000 
#    z 0.000000 0.000000 2.036690 
# 
# From -- ./inp_files/5080.got.cif
#   From: 2010.05.17/outbox.cif.g08.bks.cpg/sg31_3_cif.got.tgz:5080.got - 2010.06.03 17:08:30.
