data_PCOD9342810
_publ_section_title
;
Structure prediction by ZEFSAII (Michael W. Deem and Ramdas Pophale) SiO2 
 PCOD9342810
Probable space group: P M N 21
;
_chemical_formula_sum "Si O2"
_cell_formula_units_Z 24
_cell_length_a 7.453084
_cell_length_b 14.504785
_cell_length_c 7.916570
_cell_angle_alpha 90.000000
_cell_angle_beta 90.000000
_cell_angle_gamma 90.000000
_cell_volume 855.823816
_symmetry_space_group_name_H-M "P M N 21"
_symmetry_group_IT_number 31
_symmetry_cell_setting 'orthorhombic'
loop_
_space_group_symop_operation_xyz
x,y,z
1/2-x,-y,1/2+z
-x,y,z
1/2+x,-y,1/2+z
loop_
_atom_site_type_symbol
_atom_site_label
_atom_site_fract_x
_atom_site_fract_y
_atom_site_fract_z
Si Si1 0.292733 0.473350 0.383270
Si Si2 0.215528 0.026006 0.272306
Si Si3 0.284860 0.814059 0.993744
Si Si4 0.714163 0.854813 0.458050
Si Si5 0.212480 0.311770 0.157613
Si Si6 0.293025 0.647568 0.200483
O O1 0.500000 0.484263 0.433949
O O2 0.290040 0.408836 0.216062
O O3 0.218230 0.573627 0.333902
O O4 0.201572 0.413706 0.528396
O O5 0.285087 0.086669 0.432014
O O6 0.285665 0.078575 0.107468
O O7 0.000000 0.033911 0.271436
O O8 0.257404 0.918369 0.294587
O O9 0.500000 0.821424 0.022296
O O10 0.212708 0.744934 0.138328
O O11 0.262292 0.754820 0.820265
O O12 0.500000 0.848425 0.476225
O O13 0.778729 0.751602 0.501430
O O14 0.000000 0.326909 0.139861
O O15 0.500000 0.665711 0.248991
#
# Coordination Sequence:
#
# PCOD9342810 Si02
#       6
#     4   4   4   4   4   4
#     4  10  19  30  49  75  96 120 158 197 231 272
#     4   9  17  30  49  70  92 120 155 195 231 268
#     4   7  12  27  48  64  83 119 158 184 219 273
#     4   9  18  32  49  70  95 124 157 190 232 284
#     4   8  15  30  49  65  89 126 159 189 229 278
#     4   9  18  33  50  68  95 127 155 189 234 281
#
# _framework density 28.043156
#
# number of rings (size 3 to 8) (size 9 to 14) (size 15 to 20)
#    0.000    3.333    0.000    3.500    0.000    2.667 
#    0.000    8.333    0.000    6.000    0.000    0.000 
#    0.000    0.000    0.000    0.000    0.000    0.000 
#
# Total GULP energy -134181.085796 kJ/mol
# GULP energy per Si atom -5590.878575 kJ/mol
# Density = 2.797933 g / cm^3
# Si number density = 28.043156 Si / 1000 Ang^3
#
#
#
# Elastic Constant Matrix: (Units=GPa)
#
#
# Indices 1 2 3 4 5 6 
#
# 1 84.6339 0.1385 -12.1401 0.0000 0.0000 0.0000
# 2 0.1385 242.8440 24.8845 0.0000 0.0000 0.0000
# 3 -12.1401 24.8845 105.3617 0.0000 0.0000 0.0000
# 4 0.0000 0.0000 0.0000 66.6876 0.0000 0.0000
# 5 0.0000 0.0000 0.0000 0.0000 10.0785 0.0000
# 6 0.0000 0.0000 0.0000 0.0000 0.0000 122.8098
#
#
#
# Elastic Compliance Matrix: (Units=1/GPa)
#
#
# Indices 1 2 3 4 5 6 
#
# 1 0.012020 -0.000152 0.001421 0.000000 0.000000 0.000000
# 2 -0.000152 0.004222 -0.001015 0.000000 0.000000 0.000000
# 3 0.001421 -0.001015 0.009894 0.000000 0.000000 0.000000
# 4 0.000000 0.000000 0.000000 0.014995 0.000000 0.000000
# 5 0.000000 0.000000 0.000000 0.000000 0.099221 0.000000
# 6 0.000000 0.000000 0.000000 0.000000 0.000000 0.008143
#
#
# Mechanical properties :
#
#
# Convention : Reuss Voigt Hill
#
# Bulk Modulus (GPa) = 37.53237 50.95615 44.24426
# Shear Modulus (GPa) = 31.87374 67.91228 49.89301
#
# Velocity S-wave (km/s) = 3.37500 4.92642 4.22257
# Velocity P-wave (km/s) = 5.34793 7.11123 6.29166
#
# Compressibility (1/GPa) = 0.02664367
#
# Stress axis : x y z
#
# Youngs Moduli (GPa) = 83.19695 236.85818 101.06628
#
# Poissons Ratio (x) = 0.03611 -0.14361
# Poissons Ratio (y) = 0.01268 0.10255
# Poissons Ratio (z) = -0.11822 0.24034
#
# Static dielectric constant tensor:
#      x y z
#    x 2.008970 0.000000 0.000000 
#    y 0.000000 2.180640 0.000000 
#    z 0.000000 0.000000 2.347200 
# 
# From -- ./inp_files/1753.got.cif
#   From: 2010.05.17/outbox.cif.g08.bks.cpg/sg31_1_cif.got.tgz:1753.got - 2010.06.03 17:08:30.
