data_PCOD9342280
_publ_section_title
;
Structure prediction by ZEFSAII (Michael W. Deem and Ramdas Pophale) SiO2 
 PCOD9342280
Probable space group: P N C 2
;
_chemical_formula_sum "Si O2"
_cell_formula_units_Z 30
_cell_length_a 15.880866
_cell_length_b 11.919511
_cell_length_c 7.588536
_cell_angle_alpha 90.000000
_cell_angle_beta 90.000000
_cell_angle_gamma 90.000000
_cell_volume 1436.450348
_symmetry_space_group_name_H-M "P N C 2"
_symmetry_group_IT_number 30
_symmetry_cell_setting 'orthorhombic'
loop_
_space_group_symop_operation_xyz
x,y,z
-x,-y,z
-x,1/2+y,1/2+z
x,1/2-y,1/2+z
loop_
_atom_site_type_symbol
_atom_site_label
_atom_site_fract_x
_atom_site_fract_y
_atom_site_fract_z
Si Si1 0.089543 0.435549 0.011740
Si Si2 0.500000 0.000000 0.274549
Si Si3 0.049394 0.282163 0.704805
Si Si4 0.784667 0.365953 0.553408
Si Si5 0.601428 0.396902 0.474056
Si Si6 0.423300 0.638556 0.072712
Si Si7 0.959311 0.388848 0.388443
Si Si8 0.765784 0.393110 0.969095
O O1 0.092891 0.333946 0.152110
O O2 0.000000 0.500000 0.977261
O O3 0.098869 0.360716 0.835700
O O4 0.163700 0.522945 0.041760
O O5 0.573593 0.016161 0.127248
O O6 0.512087 0.099381 0.419185
O O7 0.023311 0.356512 0.542271
O O8 0.961922 0.227248 0.778619
O O9 0.701568 0.405464 0.451101
O O10 0.868663 0.411853 0.465889
O O11 0.774792 0.395646 0.757764
O O12 0.786443 0.231414 0.536248
O O13 0.561298 0.396260 0.277152
O O14 0.584581 0.273284 0.557431
O O15 0.331786 0.587649 0.019308
O O16 0.000000 0.500000 0.305259
#
# Coordination Sequence:
#
# PCOD9342280 Si02
#       8
#     4   2   4   4   4   4   4   4
#     4  11  22  37  59  83 121 171 214 268 321 372
#     4  12  22  44  70  98 134 172 202 266 340 410
#     4  10  22  36  51  83 118 163 218 259 303 373
#     4  11  20  35  59  94 128 156 211 273 317 374
#     4  11  22  40  68 103 133 167 210 273 330 390
#     4  11  22  41  69  99 135 167 213 271 328 389
#     4  11  21  34  55  82 117 162 206 254 307 358
#     4  11  21  37  62  91 129 162 210 270 324 376
#
# _framework density 20.884815
#
# number of rings (size 3 to 8) (size 9 to 14) (size 15 to 20)
#    0.000    1.067    2.667    7.600    0.000    3.200 
#    0.000    0.000    2.933    0.000    0.000    0.000 
#    0.000    0.000    0.000    0.000    0.000    0.000 
#
# Total GULP energy -167261.908746 kJ/mol
# GULP energy per Si atom -5575.396958 kJ/mol
# Density = 2.083728 g / cm^3
# Si number density = 20.884815 Si / 1000 Ang^3
#
#
#
# Elastic Constant Matrix: (Units=GPa)
#
#
# Indices 1 2 3 4 5 6 
#
# 1 63.6832 43.3068 10.1302 0.0000 0.0000 0.0000
# 2 43.3068 59.4168 12.1737 0.0000 0.0000 0.0000
# 3 10.1302 12.1737 119.9405 0.0000 0.0000 0.0000
# 4 0.0000 0.0000 0.0000 32.5949 0.0000 0.0000
# 5 0.0000 0.0000 0.0000 0.0000 11.4036 0.0000
# 6 0.0000 0.0000 0.0000 0.0000 0.0000 30.6766
#
#
#
# Elastic Compliance Matrix: (Units=1/GPa)
#
#
# Indices 1 2 3 4 5 6 
#
# 1 0.031148 -0.022634 -0.000333 0.000000 0.000000 0.000000
# 2 -0.022634 0.033635 -0.001502 0.000000 0.000000 0.000000
# 3 -0.000333 -0.001502 0.008518 0.000000 0.000000 0.000000
# 4 0.000000 0.000000 0.000000 0.030680 0.000000 0.000000
# 5 0.000000 0.000000 0.000000 0.000000 0.087691 0.000000
# 6 0.000000 0.000000 0.000000 0.000000 0.000000 0.032598
#
#
# Mechanical properties :
#
#
# Convention : Reuss Voigt Hill
#
# Bulk Modulus (GPa) = 41.04838 41.58466 41.31652
# Shear Modulus (GPa) = 17.77271 26.76370 22.26821
#
# Velocity S-wave (km/s) = 2.92033 3.58368 3.26887
# Velocity P-wave (km/s) = 5.57391 6.08920 5.83724
#
# Compressibility (1/GPa) = 0.02436150
#
# Stress axis : x y z
#
# Youngs Moduli (GPa) = 32.10505 29.73074 117.39707
#
# Poissons Ratio (x) = 0.67293 0.03914
# Poissons Ratio (y) = 0.72667 0.17636
# Poissons Ratio (z) = 0.01070 0.04466
#
# Static dielectric constant tensor:
#      x y z
#    x 1.798800 0.000000 0.000000 
#    y 0.000000 1.790630 0.000000 
#    z 0.000000 0.000000 1.865030 
# 
# From -- ./inp_files/2674.got.cif
#   From: 2010.05.17/outbox.cif.g08.bks.cpg/sg30_2_cif.got.tgz:2674.got - 2010.06.03 17:03:02.
