data_PCOD9342981
_publ_section_title
;
Structure prediction by ZEFSAII (Michael W. Deem and Ramdas Pophale) SiO2 
 PCOD9342981
Probable space group: P M N 21
;
_chemical_formula_sum "Si O2"
_cell_formula_units_Z 32
_cell_length_a 15.127835
_cell_length_b 11.346401
_cell_length_c 9.091169
_cell_angle_alpha 90.000000
_cell_angle_beta 90.000000
_cell_angle_gamma 90.000000
_cell_volume 1560.467178
_symmetry_space_group_name_H-M "P M N 21"
_symmetry_group_IT_number 31
_symmetry_cell_setting 'orthorhombic'
loop_
_space_group_symop_operation_xyz
x,y,z
1/2-x,-y,1/2+z
-x,y,z
1/2+x,-y,1/2+z
loop_
_atom_site_type_symbol
_atom_site_label
_atom_site_fract_x
_atom_site_fract_y
_atom_site_fract_z
Si Si1 0.401530 0.188831 0.420850
Si Si2 0.596469 0.708052 0.948358
Si Si3 0.268910 0.854663 0.752986
Si Si4 0.896465 0.928283 0.231649
Si Si5 0.321545 0.474792 0.992463
Si Si6 0.645985 0.454796 0.340102
Si Si7 0.281433 0.222323 0.934661
Si Si8 0.403497 0.721773 0.300332
O O1 0.500000 0.147469 0.377978
O O2 0.321782 0.120607 0.340398
O O3 0.390765 0.161473 0.593964
O O4 0.396035 0.328461 0.380800
O O5 0.500000 0.747130 0.896631
O O6 0.672419 0.771868 0.857916
O O7 0.606359 0.567257 0.937747
O O8 0.603062 0.729783 0.123345
O O9 0.237302 0.791854 0.605800
O O10 0.332680 0.960709 0.705350
O O11 0.851567 0.869401 0.373476
O O12 0.000000 0.957848 0.251859
O O13 0.228869 0.533684 0.949024
O O14 0.322010 0.351325 0.909836
O O15 0.328903 0.454031 0.166927
O O16 0.598977 0.583275 0.349528
O O17 0.184749 0.217830 0.860633
O O18 0.500000 0.769890 0.345421
#
# Coordination Sequence:
#
# PCOD9342981 Si02
#       8
#     4   4   4   4   4   4   4   4
#     4  11  23  42  68  93 124 170 220 267 326 387
#     4  10  20  36  63  93 127 172 208 254 324 391
#     4  12  23  45  66  94 127 168 218 276 324 380
#     4  11  27  46  65  90 125 173 225 277 328 383
#     4  10  19  35  59  96 131 166 206 260 321 397
#     4  10  19  35  61  93 131 171 206 259 317 387
#     4  11  23  39  65  92 129 166 212 273 327 379
#     4   9  20  36  59  95 132 168 207 252 319 392
#
# _framework density 20.506678000000001
#
# number of rings (size 3 to 8) (size 9 to 14) (size 15 to 20)
#    0.000    1.500    2.500    2.250    3.500    2.500 
#    0.000    0.625    0.000    0.000    0.000    0.000 
#    0.000    0.000    0.000    0.000    0.000    0.000 
#
# Total GULP energy -178502.915907 kJ/mol
# GULP energy per Si atom -5578.216122 kJ/mol
# Density = 2.046000 g / cm^3
# Si number density = 20.506678 Si / 1000 Ang^3
#
#
#
# Elastic Constant Matrix: (Units=GPa)
#
#
# Indices 1 2 3 4 5 6 
#
# 1 121.8273 14.0394 36.4638 0.0000 0.0000 0.0000
# 2 14.0394 45.8810 10.5019 0.0000 0.0000 0.0000
# 3 36.4638 10.5019 45.9368 0.0000 0.0000 0.0000
# 4 0.0000 0.0000 0.0000 23.8438 0.0000 0.0000
# 5 0.0000 0.0000 0.0000 0.0000 17.7883 0.0000
# 6 0.0000 0.0000 0.0000 0.0000 0.0000 17.2192
#
#
#
# Elastic Compliance Matrix: (Units=1/GPa)
#
#
# Indices 1 2 3 4 5 6 
#
# 1 0.010854 -0.001424 -0.008290 0.000000 0.000000 0.000000
# 2 -0.001424 0.023186 -0.004171 0.000000 0.000000 0.000000
# 3 -0.008290 -0.004171 0.029303 0.000000 0.000000 0.000000
# 4 0.000000 0.000000 0.000000 0.041940 0.000000 0.000000
# 5 0.000000 0.000000 0.000000 0.000000 0.056217 0.000000
# 6 0.000000 0.000000 0.000000 0.000000 0.000000 0.058075
#
#
# Mechanical properties :
#
#
# Convention : Reuss Voigt Hill
#
# Bulk Modulus (GPa) = 28.11044 37.29501 32.70273
# Shear Modulus (GPa) = 19.29014 21.94626 20.61820
#
# Velocity S-wave (km/s) = 3.07037 3.27494 3.17430
# Velocity P-wave (km/s) = 5.12906 5.70321 5.42374
#
# Compressibility (1/GPa) = 0.03557397
#
# Stress axis : x y z
#
# Youngs Moduli (GPa) = 92.13495 43.12986 34.12632
#
# Poissons Ratio (x) = 0.06140 0.28291
# Poissons Ratio (y) = 0.13117 0.14233
# Poissons Ratio (z) = 0.76379 0.17988
#
# Static dielectric constant tensor:
#      x y z
#    x 1.738780 0.000000 0.000000 
#    y 0.000000 1.775660 0.000000 
#    z 0.000000 0.000000 1.700330 
# 
# From -- ./inp_files/2576.got.cif
#   From: 2010.05.17/outbox.cif.g08.bks.cpg/sg31_2_cif.got.tgz:2576.got - 2010.06.03 17:08:30.
