data_PCOD9342688
_publ_section_title
;
Structure prediction by ZEFSAII (Michael W. Deem and Ramdas Pophale) SiO2 
 PCOD9342688
Probable space group: P M N 21
;
_chemical_formula_sum "Si O2"
_cell_formula_units_Z 32
_cell_length_a 8.900728
_cell_length_b 21.894596
_cell_length_c 9.237406
_cell_angle_alpha 90.000000
_cell_angle_beta 90.000000
_cell_angle_gamma 90.000000
_cell_volume 1800.165762
_symmetry_space_group_name_H-M "P M N 21"
_symmetry_group_IT_number 31
_symmetry_cell_setting 'orthorhombic'
loop_
_space_group_symop_operation_xyz
x,y,z
1/2-x,-y,1/2+z
-x,y,z
1/2+x,-y,1/2+z
loop_
_atom_site_type_symbol
_atom_site_label
_atom_site_fract_x
_atom_site_fract_y
_atom_site_fract_z
Si Si1 0.320780 0.440512 0.197840
Si Si2 0.678820 0.184257 0.518068
Si Si3 0.674821 0.683547 0.679233
Si Si4 0.820829 0.939406 0.696813
Si Si5 0.824688 0.307883 0.531795
Si Si6 0.181194 0.183266 0.194342
Si Si7 0.181643 0.441282 0.515827
Si Si8 0.320893 0.938579 0.015356
O O1 0.500000 0.440199 0.208199
O O2 0.266811 0.375707 0.133382
O O3 0.250614 0.445591 0.356856
O O4 0.273571 0.499643 0.106721
O O5 0.500000 0.180596 0.514105
O O6 0.732131 0.249069 0.581622
O O7 0.746193 0.184106 0.354749
O O8 0.748774 0.122588 0.583918
O O9 0.500000 0.673860 0.644224
O O10 0.685394 0.687736 0.855489
O O11 0.720680 0.751018 0.625315
O O12 0.745237 0.878935 0.627584
O O13 0.751050 0.946548 0.856634
O O14 0.000000 0.929994 0.707908
O O15 0.792297 0.000701 0.607173
O O16 0.775096 0.375215 0.582555
O O17 0.000000 0.298273 0.566787
O O18 0.000000 0.180896 0.206554
O O19 0.000000 0.439951 0.503546
O O20 0.500000 0.929762 0.001335
#
# Coordination Sequence:
#
# PCOD9342688 Si02
#       8
#     4   4   4   4   4   4   4   4
#     4  10  19  30  48  72  94 122 158 192 230 275
#     4  10  17  25  42  68  93 116 151 195 231 268
#     4   8  15  27  43  65  92 121 151 187 231 274
#     4  10  20  32  49  73  96 122 158 194 229 273
#     4   8  14  27  44  61  88 121 150 186 232 275
#     4   9  16  27  44  65  91 122 153 187 231 275
#     4   9  19  33  47  68  97 125 154 190 233 279
#     4  10  20  33  49  70  97 127 155 187 233 281
#
# _framework density 17.776142
#
# number of rings (size 3 to 8) (size 9 to 14) (size 15 to 20)
#    0.000    2.750    0.000    5.625    0.000    8.000 
#    0.000    0.000    0.000    1.500    0.000    1.750 
#    0.000    0.000    0.000    0.000    0.000    0.000 
#
# Total GULP energy -178209.551770 kJ/mol
# GULP energy per Si atom -5569.048493 kJ/mol
# Density = 1.773568 g / cm^3
# Si number density = 17.776142 Si / 1000 Ang^3
#
#
#
# Elastic Constant Matrix: (Units=GPa)
#
#
# Indices 1 2 3 4 5 6 
#
# 1 73.5206 81.9044 18.0060 0.0000 0.0000 0.0000
# 2 81.9044 221.2664 39.6295 0.0000 0.0000 0.0000
# 3 18.0060 39.6295 16.5852 0.0000 0.0000 0.0000
# 4 0.0000 0.0000 0.0000 21.8198 0.0000 0.0000
# 5 0.0000 0.0000 0.0000 0.0000 13.6580 0.0000
# 6 0.0000 0.0000 0.0000 0.0000 0.0000 38.5195
#
#
#
# Elastic Compliance Matrix: (Units=1/GPa)
#
#
# Indices 1 2 3 4 5 6 
#
# 1 0.023793 -0.007309 -0.008368 0.000000 0.000000 0.000000
# 2 -0.007309 0.010146 -0.016308 0.000000 0.000000 0.000000
# 3 -0.008368 -0.016308 0.108346 0.000000 0.000000 0.000000
# 4 0.000000 0.000000 0.000000 0.045830 0.000000 0.000000
# 5 0.000000 0.000000 0.000000 0.000000 0.073217 0.000000
# 6 0.000000 0.000000 0.000000 0.000000 0.000000 0.025961
#
#
# Mechanical properties :
#
#
# Convention : Reuss Voigt Hill
#
# Bulk Modulus (GPa) = 12.76872 65.60576 39.18724
# Shear Modulus (GPa) = 13.24974 26.25496 19.75235
#
# Velocity S-wave (km/s) = 2.73310 3.84732 3.33704
# Velocity P-wave (km/s) = 4.14228 7.53144 6.07787
#
# Compressibility (1/GPa) = 0.07831639
#
# Stress axis : x y z
#
# Youngs Moduli (GPa) = 42.02928 98.56563 9.22970
#
# Poissons Ratio (x) = 0.72037 0.07723
# Poissons Ratio (y) = 0.30717 0.15051
# Poissons Ratio (z) = 0.35169 1.60737
#
# Static dielectric constant tensor:
#      x y z
#    x 1.592420 0.000000 0.000000 
#    y 0.000000 1.688740 0.000000 
#    z 0.000000 0.000000 1.594010 
# 
# From -- ./inp_files/3807.got.cif
#   From: 2010.05.17/outbox.cif.g08.bks.cpg/sg31_2_cif.got.tgz:3807.got - 2010.06.03 17:08:30.
