data_PCOD9342385
_publ_section_title
;
Structure prediction by ZEFSAII (Michael W. Deem and Ramdas Pophale) SiO2 
 PCOD9342385
Probable space group: P N C 2
;
_chemical_formula_sum "Si O2"
_cell_formula_units_Z 32
_cell_length_a 8.578692
_cell_length_b 12.229922
_cell_length_c 14.241178
_cell_angle_alpha 90.000000
_cell_angle_beta 90.000000
_cell_angle_gamma 90.000000
_cell_volume 1494.137884
_symmetry_space_group_name_H-M "P N C 2"
_symmetry_group_IT_number 30
_symmetry_cell_setting 'orthorhombic'
loop_
_space_group_symop_operation_xyz
x,y,z
-x,-y,z
-x,1/2+y,1/2+z
x,1/2-y,1/2+z
loop_
_atom_site_type_symbol
_atom_site_label
_atom_site_fract_x
_atom_site_fract_y
_atom_site_fract_z
Si Si1 0.155434 0.258026 0.000000
Si Si2 0.577519 0.617019 0.931883
Si Si3 0.607954 0.204061 0.600328
Si Si4 0.674347 0.958699 0.071913
Si Si5 0.125668 0.153373 0.706677
Si Si6 0.793470 0.405227 0.262082
Si Si7 0.605419 0.827263 0.234156
Si Si8 0.175977 0.655278 0.471687
O O1 0.240418 0.348090 0.934928
O O2 0.000618 0.198268 0.962648
O O3 0.272727 0.156382 0.023891
O O4 0.117304 0.324526 0.095169
O O5 0.500000 0.500000 0.920762
O O6 0.526363 0.672538 0.835143
O O7 0.520800 0.650987 0.034387
O O8 0.673156 0.126690 0.681054
O O9 0.526166 0.299158 0.658422
O O10 0.732682 0.249532 0.526671
O O11 0.676690 0.935779 0.184759
O O12 0.500000 0.000000 0.044023
O O13 0.797342 0.049178 0.037247
O O14 0.258108 0.237690 0.737985
O O15 0.949712 0.165268 0.742475
O O16 0.172436 0.032974 0.742969
O O17 0.755214 0.379032 0.370173
#
# Coordination Sequence:
#
# PCOD9342385 Si02
#       8
#     4   4   4   4   4   4   4   4
#     4  11  23  45  69 100 138 185 232 295 358 428
#     4  12  25  43  72 103 136 194 237 294 367 432
#     4  12  24  44  65  97 147 175 241 293 349 422
#     4  11  22  42  67 101 138 181 228 297 351 428
#     4  10  22  44  68  94 140 177 231 296 349 424
#     4  11  25  41  69 101 133 186 234 291 357 430
#     4  11  24  43  70  99 142 182 230 296 359 424
#     4  12  25  43  71 102 142 187 236 295 365 432
#
# _framework density 21.417031999999999
#
# number of rings (size 3 to 8) (size 9 to 14) (size 15 to 20)
#    0.000    0.750    5.000    3.000    5.250    0.000 
#    0.000    0.000    0.000    0.000    0.000    0.000 
#    0.000    0.000    0.000    0.000    0.000    0.000 
#
# Total GULP energy -178390.249033 kJ/mol
# GULP energy per Si atom -5574.695282 kJ/mol
# Density = 2.136829 g / cm^3
# Si number density = 21.417032 Si / 1000 Ang^3
#
#
#
# Elastic Constant Matrix: (Units=GPa)
#
#
# Indices 1 2 3 4 5 6 
#
# 1 82.3285 30.7620 21.9646 0.0000 0.0000 0.0000
# 2 30.7620 48.3914 14.2205 0.0000 0.0000 0.0000
# 3 21.9646 14.2205 136.3593 0.0000 0.0000 0.0000
# 4 0.0000 0.0000 0.0000 12.8667 0.0000 0.0000
# 5 0.0000 0.0000 0.0000 0.0000 13.2080 0.0000
# 6 0.0000 0.0000 0.0000 0.0000 0.0000 31.2411
#
#
#
# Elastic Compliance Matrix: (Units=1/GPa)
#
#
# Indices 1 2 3 4 5 6 
#
# 1 0.016258 -0.009868 -0.001590 0.000000 0.000000 0.000000
# 2 -0.009868 0.027307 -0.001258 0.000000 0.000000 0.000000
# 3 -0.001590 -0.001258 0.007721 0.000000 0.000000 0.000000
# 4 0.000000 0.000000 0.000000 0.077720 0.000000 0.000000
# 5 0.000000 0.000000 0.000000 0.000000 0.075711 0.000000
# 6 0.000000 0.000000 0.000000 0.000000 0.000000 0.032009
#
#
# Mechanical properties :
#
#
# Convention : Reuss Voigt Hill
#
# Bulk Modulus (GPa) = 38.67802 44.55262 41.61532
# Shear Modulus (GPa) = 18.46546 24.80530 21.63538
#
# Velocity S-wave (km/s) = 2.93949 3.40693 3.18180
# Velocity P-wave (km/s) = 5.44237 6.02693 5.74209
#
# Compressibility (1/GPa) = 0.02585448
#
# Stress axis : x y z
#
# Youngs Moduli (GPa) = 61.50953 36.62009 129.51925
#
# Poissons Ratio (x) = 0.36136 0.20590
# Poissons Ratio (y) = 0.60696 0.16298
# Poissons Ratio (z) = 0.09778 0.04608
#
# Static dielectric constant tensor:
#      x y z
#    x 1.903970 0.000000 0.000000 
#    y 0.000000 1.859650 0.000000 
#    z 0.000000 0.000000 1.802260 
# 
# From -- ./inp_files/5199.got.cif
#   From: 2010.05.17/outbox.cif.g08.bks.cpg/sg30_3_cif.got.tgz:5199.got - 2010.06.03 17:03:02.
