data_PCOD9342056
_publ_section_title
;
Structure prediction by ZEFSAII (Michael W. Deem and Ramdas Pophale) SiO2 
 PCOD9342056
Probable space group: P N C 2
;
_chemical_formula_sum "Si O2"
_cell_formula_units_Z 24
_cell_length_a 7.520965
_cell_length_b 21.692632
_cell_length_c 5.213314
_cell_angle_alpha 90.000000
_cell_angle_beta 90.000000
_cell_angle_gamma 90.000000
_cell_volume 850.549708
_symmetry_space_group_name_H-M "P N C 2"
_symmetry_group_IT_number 30
_symmetry_cell_setting 'orthorhombic'
loop_
_space_group_symop_operation_xyz
x,y,z
-x,-y,z
-x,1/2+y,1/2+z
x,1/2-y,1/2+z
loop_
_atom_site_type_symbol
_atom_site_label
_atom_site_fract_x
_atom_site_fract_y
_atom_site_fract_z
Si Si1 0.329635 0.969132 0.022370
Si Si2 0.590479 0.788488 0.250773
Si Si3 0.791243 0.268037 0.195393
Si Si4 0.513727 0.122782 0.641451
Si Si5 0.151939 0.404573 0.391224
Si Si6 0.043680 0.926165 0.380236
O O1 0.234438 0.927337 0.236439
O O2 0.500000 0.000000 0.153208
O O3 0.400332 0.938273 0.761678
O O4 0.200062 0.023135 0.928343
O O5 0.655506 0.752481 0.996031
O O6 0.377132 0.778669 0.206096
O O7 0.576681 0.857939 0.370985
O O8 0.897843 0.251508 0.447101
O O9 0.678758 0.330721 0.186884
O O10 0.337915 0.127341 0.823433
O O11 0.068472 0.389279 0.664702
O O12 0.013524 0.399454 0.155781
O O13 0.000000 0.000000 0.396796
#
# Coordination Sequence:
#
# PCOD9342056 Si02
#       6
#     4   4   4   4   4   4
#     4   9  19  37  58  84 108 142 190 234 266 318
#     4   8  15  28  46  74 104 134 167 220 273 312
#     4   8  15  28  46  74 104 134 167 220 273 312
#     4   9  17  32  54  84 106 132 185 235 261 312
#     4  10  21  35  53  75 108 145 175 215 276 326
#     4  10  20  38  52  69 108 149 175 212 273 328
#
# _framework density 28.217044999999999
#
# number of rings (size 3 to 8) (size 9 to 14) (size 15 to 20)
#    0.000    3.333    0.000    1.500    0.000    5.333 
#    0.000   50.833    0.000    0.000    0.000   63.000 
#    0.000    0.000    0.000    0.000    0.000    0.000 
#
# Total GULP energy -133800.732318 kJ/mol
# GULP energy per Si atom -5575.030513 kJ/mol
# Density = 2.815282 g / cm^3
# Si number density = 28.217045 Si / 1000 Ang^3
#
#
#
# Elastic Constant Matrix: (Units=GPa)
#
#
# Indices 1 2 3 4 5 6 
#
# 1 131.8242 20.1079 41.6326 0.0000 0.0000 0.0000
# 2 20.1079 77.2015 24.9149 0.0000 0.0000 0.0000
# 3 41.6326 24.9149 238.7981 0.0000 0.0000 0.0000
# 4 0.0000 0.0000 0.0000 41.0100 0.0000 0.0000
# 5 0.0000 0.0000 0.0000 0.0000 9.7089 0.0000
# 6 0.0000 0.0000 0.0000 0.0000 0.0000 -9.2016
#
#
#
# Elastic Compliance Matrix: (Units=1/GPa)
#
#
# Indices 1 2 3 4 5 6 
#
# 1 0.008248 -0.001743 -0.001256 0.000000 0.000000 0.000000
# 2 -0.001743 0.013773 -0.001133 0.000000 0.000000 0.000000
# 3 -0.001256 -0.001133 0.004525 0.000000 0.000000 0.000000
# 4 0.000000 0.000000 0.000000 0.024384 0.000000 0.000000
# 5 0.000000 0.000000 0.000000 0.000000 0.102998 0.000000
# 6 0.000000 0.000000 0.000000 0.000000 0.000000 -0.108677
#
#
# Mechanical properties :
#
#
# Convention : Reuss Voigt Hill
#
# Bulk Modulus (GPa) = 54.70003 69.01496 61.85750
# Shear Modulus (GPa) = 83.87791 32.38135 58.12963
#
# Velocity S-wave (km/s) = 5.45807 3.39127 4.54374
# Velocity P-wave (km/s) = 7.69079 6.31237 7.03542
#
# Compressibility (1/GPa) = 0.01828153
#
# Stress axis : x y z
#
# Youngs Moduli (GPa) = 121.23477 72.60706 221.00090
#
# Poissons Ratio (x) = 0.12655 0.27762
# Poissons Ratio (y) = 0.21131 0.25042
# Poissons Ratio (z) = 0.15230 0.08227
#
# Static dielectric constant tensor:
#      x y z
#    x 2.248950 0.000000 0.000000 
#    y 0.000000 2.223790 0.000000 
#    z 0.000000 0.000000 2.438980 
# 
# From -- ./inp_files/428.got.cif
#   From: 2010.05.17/outbox.cif.g08.bks.cpg/sg30_1_cif.got.tgz:428.got - 2010.06.03 17:03:02.
