data_PCOD9342628
_publ_section_title
;
Structure prediction by ZEFSAII (Michael W. Deem and Ramdas Pophale) SiO2 
 PCOD9342628
Probable space group: P N C 2
;
_chemical_formula_sum "Si O2"
_cell_formula_units_Z 16
_cell_length_a 5.180802
_cell_length_b 5.307384
_cell_length_c 22.960709
_cell_angle_alpha 90.000000
_cell_angle_beta 90.000000
_cell_angle_gamma 90.000000
_cell_volume 631.339265
_symmetry_space_group_name_H-M "P N C 2"
_symmetry_group_IT_number 30
_symmetry_cell_setting 'orthorhombic'
loop_
_space_group_symop_operation_xyz
x,y,z
-x,-y,z
-x,1/2+y,1/2+z
x,1/2-y,1/2+z
loop_
_atom_site_type_symbol
_atom_site_label
_atom_site_fract_x
_atom_site_fract_y
_atom_site_fract_z
Si Si1 0.000000 0.500000 0.244340
Si Si2 0.246710 0.325530 0.653726
Si Si3 0.749586 0.326667 0.457591
Si Si4 0.000000 0.000000 0.553700
Si Si5 0.342533 0.735873 0.828840
O O1 0.224192 0.389600 0.203047
O O2 0.103457 0.712512 0.287452
O O3 0.500000 0.500000 0.651615
O O4 0.000000 0.500000 0.665819
O O5 0.171734 0.183727 0.593884
O O6 0.500000 0.500000 0.466315
O O7 0.806490 0.150163 0.511973
O O8 0.726304 0.183999 0.396079
O O9 0.000000 0.500000 0.451337
O O10 0.500000 0.500000 0.805865
O O11 0.500000 0.000000 0.829500
#
# Coordination Sequence:
#
# PCOD9342628 Si02
#       5
#     2   4   4   2   4
#     4  11  28  50  86 116 166 223 278 356 424 503
#     4  11  29  54  81 119 162 218 289 350 421 496
#     4  11  27  50  79 123 170 218 274 344 422 513
#     4  11  28  52  86 114 168 221 278 350 424 501
#     4  11  28  50  81 126 173 221 281 344 428 513
#
# _framework density 25.342949999999998
#
# number of rings (size 3 to 8) (size 9 to 14) (size 15 to 20)
#    0.000    1.000    1.250    0.750   14.000    9.000 
#    0.000    3.750    0.000    0.000    0.000    0.000 
#    0.000    0.000    0.000    0.000    0.000    0.000 
#
# Total GULP energy -89832.849794 kJ/mol
# GULP energy per Si atom -5614.553112 kJ/mol
# Density = 2.528527 g / cm^3
# Si number density = 25.342950 Si / 1000 Ang^3
#
#
#
# Elastic Constant Matrix: (Units=GPa)
#
#
# Indices 1 2 3 4 5 6 
#
# 1 192.9427 74.7282 64.4521 0.0000 0.0000 0.0000
# 2 74.7282 120.2315 59.0602 0.0000 0.0000 0.0000
# 3 64.4521 59.0602 194.4850 0.0000 0.0000 0.0000
# 4 0.0000 0.0000 0.0000 74.3394 0.0000 0.0000
# 5 0.0000 0.0000 0.0000 0.0000 20.3629 0.0000
# 6 0.0000 0.0000 0.0000 0.0000 0.0000 63.0336
#
#
#
# Elastic Compliance Matrix: (Units=1/GPa)
#
#
# Indices 1 2 3 4 5 6 
#
# 1 0.007050 -0.003801 -0.001182 0.000000 0.000000 0.000000
# 2 -0.003801 0.011825 -0.002331 0.000000 0.000000 0.000000
# 3 -0.001182 -0.002331 0.006241 0.000000 0.000000 0.000000
# 4 0.000000 0.000000 0.000000 0.013452 0.000000 0.000000
# 5 0.000000 0.000000 0.000000 0.000000 0.049109 0.000000
# 6 0.000000 0.000000 0.000000 0.000000 0.000000 0.015865
#
#
# Mechanical properties :
#
#
# Convention : Reuss Voigt Hill
#
# Bulk Modulus (GPa) = 95.35145 100.46002 97.90573
# Shear Modulus (GPa) = 41.09592 52.17507 46.63550
#
# Velocity S-wave (km/s) = 4.03127 4.54228 4.29438
# Velocity P-wave (km/s) = 7.70547 8.19976 7.95645
#
# Compressibility (1/GPa) = 0.01048752
#
# Stress axis : x y z
#
# Youngs Moduli (GPa) = 141.84472 84.56651 160.21908
#
# Poissons Ratio (x) = 0.32145 0.18938
# Poissons Ratio (y) = 0.53918 0.37351
# Poissons Ratio (z) = 0.16766 0.19715
#
# Static dielectric constant tensor:
#      x y z
#    x 1.966740 0.000000 0.000000 
#    y 0.000000 1.932620 0.000000 
#    z 0.000000 0.000000 1.990940 
# 
# From -- ./inp_files/6693.got.cif
#   From: 2010.05.17/outbox.cif.g08.bks.cpg/sg30_4_cif.got.tgz:6693.got - 2010.06.03 17:03:02.
