data_PCOD9342961
_publ_section_title
;
Structure prediction by ZEFSAII (Michael W. Deem and Ramdas Pophale) SiO2 
 PCOD9342961
Probable space group: P M N 21
;
_chemical_formula_sum "Si O2"
_cell_formula_units_Z 32
_cell_length_a 7.589357
_cell_length_b 13.567026
_cell_length_c 13.245288
_cell_angle_alpha 90.000000
_cell_angle_beta 90.000000
_cell_angle_gamma 90.000000
_cell_volume 1363.801128
_symmetry_space_group_name_H-M "P M N 21"
_symmetry_group_IT_number 31
_symmetry_cell_setting 'orthorhombic'
loop_
_space_group_symop_operation_xyz
x,y,z
1/2-x,-y,1/2+z
-x,y,z
1/2+x,-y,1/2+z
loop_
_atom_site_type_symbol
_atom_site_label
_atom_site_fract_x
_atom_site_fract_y
_atom_site_fract_z
Si Si1 0.209809 0.180948 0.814620
Si Si2 0.287582 0.104395 0.603652
Si Si3 0.300270 0.770879 0.729073
Si Si4 0.789579 0.507033 0.941745
Si Si5 0.209842 0.388707 0.740329
Si Si6 0.716265 0.890136 0.534025
Si Si7 0.293362 0.271041 0.453173
Si Si8 0.296524 0.430781 0.136569
O O1 0.235906 0.106803 0.721272
O O2 0.284961 0.283761 0.770813
O O3 0.000000 0.194642 0.828339
O O4 0.276904 0.149560 0.924810
O O5 0.500000 0.106975 0.600085
O O6 0.220210 0.198728 0.539672
O O7 0.232016 0.003369 0.550532
O O8 0.500000 0.805627 0.741369
O O9 0.222742 0.829625 0.633121
O O10 0.219283 0.774899 0.840649
O O11 0.297455 0.657238 0.692781
O O12 0.712468 0.425118 0.016740
O O13 0.000000 0.507426 0.955941
O O14 0.761983 0.464478 0.831135
O O15 0.717064 0.618305 0.949248
O O16 0.276961 0.457742 0.650604
O O17 0.000000 0.373540 0.722928
O O18 0.500000 0.884715 0.533733
O O19 0.500000 0.282287 0.475123
O O20 0.500000 0.426847 0.170430
#
# Coordination Sequence:
#
# PCOD9342961 Si02
#       8
#     4   4   4   4   4   4   4   4
#     4  10  20  38  62  86 113 153 200 238 285 359
#     4  10  22  40  61  87 119 153 190 247 307 349
#     4  11  22  38  61  87 119 160 202 243 291 357
#     4  10  19  35  56  81 115 157 192 227 285 349
#     4   9  18  34  55  78 114 153 184 224 282 340
#     4   9  21  40  61  85 116 156 196 240 302 358
#     4  10  21  38  61  88 123 158 193 244 303 352
#     4  11  21  35  55  84 119 154 193 241 287 336
#
# _framework density 23.463830999999999
#
# number of rings (size 3 to 8) (size 9 to 14) (size 15 to 20)
#    0.000    2.000    1.250    2.250    1.750    3.000 
#    0.000    5.000    0.000    0.000    0.000    0.000 
#    0.000    0.000    0.000    0.000    0.000    0.000 
#
# Total GULP energy -178638.563231 kJ/mol
# GULP energy per Si atom -5582.455101 kJ/mol
# Density = 2.341043 g / cm^3
# Si number density = 23.463831 Si / 1000 Ang^3
#
#
#
# Elastic Constant Matrix: (Units=GPa)
#
#
# Indices 1 2 3 4 5 6 
#
# 1 41.1989 1.7843 -3.4588 0.0000 0.0000 0.0000
# 2 1.7843 71.5952 18.3261 0.0000 0.0000 0.0000
# 3 -3.4588 18.3261 114.9015 0.0000 0.0000 0.0000
# 4 0.0000 0.0000 0.0000 30.2099 0.0000 0.0000
# 5 0.0000 0.0000 0.0000 0.0000 22.8031 0.0000
# 6 0.0000 0.0000 0.0000 0.0000 0.0000 10.3026
#
#
#
# Elastic Compliance Matrix: (Units=1/GPa)
#
#
# Indices 1 2 3 4 5 6 
#
# 1 0.024381 -0.000829 0.000866 0.000000 0.000000 0.000000
# 2 -0.000829 0.014590 -0.002352 0.000000 0.000000 0.000000
# 3 0.000866 -0.002352 0.009104 0.000000 0.000000 0.000000
# 4 0.000000 0.000000 0.000000 0.033102 0.000000 0.000000
# 5 0.000000 0.000000 0.000000 0.000000 0.043854 0.000000
# 6 0.000000 0.000000 0.000000 0.000000 0.000000 0.097063
#
#
# Mechanical properties :
#
#
# Convention : Reuss Voigt Hill
#
# Bulk Modulus (GPa) = 23.01748 28.99987 26.00867
# Shear Modulus (GPa) = 20.72917 26.73270 23.73094
#
# Velocity S-wave (km/s) = 2.97552 3.37904 3.18368
# Velocity P-wave (km/s) = 4.65145 5.25453 4.96216
#
# Compressibility (1/GPa) = 0.04344525
#
# Stress axis : x y z
#
# Youngs Moduli (GPa) = 41.01534 68.53949 109.83800
#
# Poissons Ratio (x) = 0.05684 -0.09514
# Poissons Ratio (y) = 0.03402 0.25834
# Poissons Ratio (z) = -0.03553 0.16121
#
# Static dielectric constant tensor:
#      x y z
#    x 1.884620 0.000000 0.000000 
#    y 0.000000 1.906650 0.000000 
#    z 0.000000 0.000000 1.870230 
# 
# From -- ./inp_files/3742.got.cif
#   From: 2010.05.17/outbox.cif.g08.bks.cpg/sg31_2_cif.got.tgz:3742.got - 2010.06.03 17:08:30.
