data_PCOD9342540
_publ_section_title
;
Structure prediction by ZEFSAII (Michael W. Deem and Ramdas Pophale) SiO2 
 PCOD9342540
Probable space group: P N C 2
;
_chemical_formula_sum "Si O2"
_cell_formula_units_Z 18
_cell_length_a 9.531778
_cell_length_b 13.273343
_cell_length_c 5.346883
_cell_angle_alpha 90.000000
_cell_angle_beta 90.000000
_cell_angle_gamma 90.000000
_cell_volume 676.479931
_symmetry_space_group_name_H-M "P N C 2"
_symmetry_group_IT_number 30
_symmetry_cell_setting 'orthorhombic'
loop_
_space_group_symop_operation_xyz
x,y,z
-x,-y,z
-x,1/2+y,1/2+z
x,1/2-y,1/2+z
loop_
_atom_site_type_symbol
_atom_site_label
_atom_site_fract_x
_atom_site_fract_y
_atom_site_fract_z
Si Si1 0.000000 0.000000 0.536330
Si Si2 0.353831 0.144739 0.840429
Si Si3 0.309584 0.019187 0.341791
Si Si4 0.371316 0.787152 0.338093
Si Si5 0.965906 0.799751 0.837732
O O1 0.859017 0.987176 0.375582
O O2 0.015286 0.904347 0.718935
O O3 0.360499 0.075321 0.593881
O O4 0.482565 0.222937 0.848058
O O5 0.348305 0.077434 0.089215
O O6 0.204380 0.300646 0.330803
O O7 0.370363 0.906798 0.325368
O O8 0.298509 0.756299 0.593856
O O9 0.004574 0.717663 0.625850
#
# Coordination Sequence:
#
# PCOD9342540 Si02
#       5
#     2   4   4   4   4
#     4  10  26  48  74 106 146 194 250 300 368 444
#     4  11  24  46  72 106 144 190 244 302 373 442
#     4  11  26  46  74 107 146 195 244 305 370 443
#     4  12  26  44  71 106 146 189 243 303 371 443
#     4  11  23  42  72 103 139 186 238 296 358 429
#
# _framework density 26.608329999999999
#
# number of rings (size 3 to 8) (size 9 to 14) (size 15 to 20)
#    0.000    0.889    0.000    6.667    0.000   15.111 
#    0.000    0.000    0.000    0.000    0.000    0.000 
#    0.000    0.000    0.000    0.000    0.000    0.000 
#
# Total GULP energy -101068.347581 kJ/mol
# GULP energy per Si atom -5614.908199 kJ/mol
# Density = 2.654777 g / cm^3
# Si number density = 26.608330 Si / 1000 Ang^3
#
#
#
# Elastic Constant Matrix: (Units=GPa)
#
#
# Indices 1 2 3 4 5 6 
#
# 1 182.4513 59.5013 38.1705 0.0000 0.0000 0.0000
# 2 59.5013 197.7058 103.0053 0.0000 0.0000 0.0000
# 3 38.1705 103.0053 265.6876 0.0000 0.0000 0.0000
# 4 0.0000 0.0000 0.0000 69.0034 0.0000 0.0000
# 5 0.0000 0.0000 0.0000 0.0000 -173.3478 0.0000
# 6 0.0000 0.0000 0.0000 0.0000 0.0000 41.5726
#
#
#
# Elastic Compliance Matrix: (Units=1/GPa)
#
#
# Indices 1 2 3 4 5 6 
#
# 1 0.006086 -0.001725 -0.000206 0.000000 0.000000 0.000000
# 2 -0.001725 0.006827 -0.002399 0.000000 0.000000 0.000000
# 3 -0.000206 -0.002399 0.004723 0.000000 0.000000 0.000000
# 4 0.000000 0.000000 0.000000 0.014492 0.000000 0.000000
# 5 0.000000 0.000000 0.000000 0.000000 -0.005769 0.000000
# 6 0.000000 0.000000 0.000000 0.000000 0.000000 0.024054
#
#
# Mechanical properties :
#
#
# Convention : Reuss Voigt Hill
#
# Bulk Modulus (GPa) = 111.38236 116.35545 113.86890
# Shear Modulus (GPa) = 80.55977 17.12348 48.84163
#
# Velocity S-wave (km/s) = 5.50835 2.53956 4.28901
# Velocity P-wave (km/s) = 9.07781 7.24037 8.21065
#
# Compressibility (1/GPa) = 0.00897808
#
# Stress axis : x y z
#
# Youngs Moduli (GPa) = 164.30143 146.47919 211.70905
#
# Poissons Ratio (x) = 0.25260 0.04358
# Poissons Ratio (y) = 0.28334 0.50789
# Poissons Ratio (z) = 0.03382 0.35140
#
# Static dielectric constant tensor:
#      x y z
#    x 2.108700 0.000000 0.000000 
#    y 0.000000 2.041110 0.000000 
#    z 0.000000 0.000000 2.083020 
# 
# From -- ./inp_files/625.got.cif
#   From: 2010.05.17/outbox.cif.g08.bks.cpg/sg30_1_cif.got.tgz:625.got - 2010.06.03 17:03:02.
