data_PCOD9342112
_publ_section_title
;
Structure prediction by ZEFSAII (Michael W. Deem and Ramdas Pophale) SiO2 
 PCOD9342112
Probable space group: P N C 2
;
_chemical_formula_sum "Si O2"
_cell_formula_units_Z 20
_cell_length_a 10.071491
_cell_length_b 7.612030
_cell_length_c 14.288052
_cell_angle_alpha 90.000000
_cell_angle_beta 90.000000
_cell_angle_gamma 90.000000
_cell_volume 1095.386243
_symmetry_space_group_name_H-M "P N C 2"
_symmetry_group_IT_number 30
_symmetry_cell_setting 'orthorhombic'
loop_
_space_group_symop_operation_xyz
x,y,z
-x,-y,z
-x,1/2+y,1/2+z
x,1/2-y,1/2+z
loop_
_atom_site_type_symbol
_atom_site_label
_atom_site_fract_x
_atom_site_fract_y
_atom_site_fract_z
Si Si1 0.500000 0.000000 0.239460
Si Si2 0.724336 0.157903 0.346096
Si Si3 0.000000 0.500000 0.562840
Si Si4 0.116935 0.640686 0.022609
Si Si5 0.846168 0.027172 0.735264
Si Si6 0.773312 0.869701 0.203372
O O1 0.574254 0.135521 0.309002
O O2 0.380081 0.082957 0.180267
O O3 0.758347 0.127222 0.453722
O O4 0.778103 0.341351 0.307204
O O5 0.799224 0.999578 0.290801
O O6 0.057250 0.665556 0.508270
O O7 0.118959 0.420861 0.626087
O O8 0.000000 0.500000 0.003147
O O9 0.155783 0.614501 0.131374
O O10 0.784414 0.833823 0.728428
O O11 0.000000 0.000000 0.759719
#
# Coordination Sequence:
#
# PCOD9342112 Si02
#       6
#     2   4   2   4   4   4
#     4   8  22  42  62  86 128 172 198 252 312 368
#     4  10  23  39  60  88 126 167 200 253 306 371
#     4  12  20  40  62  96 126 152 220 260 306 368
#     4  11  23  35  61  95 124 158 204 262 309 361
#     4  11  21  38  64  97 118 159 207 256 322 355
#     4  10  20  41  64  86 127 162 201 260 303 370
#
# _framework density 18.258400999999999
#
# number of rings (size 3 to 8) (size 9 to 14) (size 15 to 20)
#    1.200    0.400    6.000    0.000    5.600    0.800 
#    0.000    4.000    0.000    0.000    0.000    0.000 
#    0.000    0.000    0.000    0.000    0.000    0.000 
#
# Total GULP energy -111367.917355 kJ/mol
# GULP energy per Si atom -5568.395868 kJ/mol
# Density = 1.821684 g / cm^3
# Si number density = 18.258401 Si / 1000 Ang^3
#
#
#
# Elastic Constant Matrix: (Units=GPa)
#
#
# Indices 1 2 3 4 5 6 
#
# 1 97.7812 11.2054 18.5341 0.0000 0.0000 0.0000
# 2 11.2054 115.8171 4.0949 0.0000 0.0000 0.0000
# 3 18.5341 4.0949 25.5535 0.0000 0.0000 0.0000
# 4 0.0000 0.0000 0.0000 866.4450 0.0000 0.0000
# 5 0.0000 0.0000 0.0000 0.0000 37.2513 0.0000
# 6 0.0000 0.0000 0.0000 0.0000 0.0000 29.2704
#
#
#
# Elastic Compliance Matrix: (Units=1/GPa)
#
#
# Indices 1 2 3 4 5 6 
#
# 1 0.011940 -0.000854 -0.008524 0.000000 0.000000 0.000000
# 2 -0.000854 0.008745 -0.000782 0.000000 0.000000 0.000000
# 3 -0.008524 -0.000782 0.045441 0.000000 0.000000 0.000000
# 4 0.000000 0.000000 0.000000 0.001154 0.000000 0.000000
# 5 0.000000 0.000000 0.000000 0.000000 0.026845 0.000000
# 6 0.000000 0.000000 0.000000 0.000000 0.000000 0.034164
#
#
# Mechanical properties :
#
#
# Convention : Reuss Voigt Hill
#
# Bulk Modulus (GPa) = 21.83067 34.09118 27.96093
# Shear Modulus (GPa) = 30.51070 200.28118 115.39594
#
# Velocity S-wave (km/s) = 4.09228 10.48479 7.95857
# Velocity P-wave (km/s) = 5.85760 12.85637 9.98994
#
# Compressibility (1/GPa) = 0.04580710
#
# Stress axis : x y z
#
# Youngs Moduli (GPa) = 83.74935 114.35671 22.00654
#
# Poissons Ratio (x) = 0.09765 0.18758
# Poissons Ratio (y) = 0.07151 0.01721
# Poissons Ratio (z) = 0.71385 0.08942
#
# Static dielectric constant tensor:
#      x y z
#    x 1.634420 0.000000 0.000000 
#    y 0.000000 0.286020 0.000000 
#    z 0.000000 0.000000 1.619660 
# 
# From -- ./inp_files/4952.got.cif
#   From: 2010.05.17/outbox.cif.g08.bks.cpg/sg30_3_cif.got.tgz:4952.got - 2010.06.03 17:03:02.
