data_PCOD9342308
_publ_section_title
;
Structure prediction by ZEFSAII (Michael W. Deem and Ramdas Pophale) SiO2 
 PCOD9342308
Probable space group: P N C 2
;
_chemical_formula_sum "Si O2"
_cell_formula_units_Z 28
_cell_length_a 12.822549
_cell_length_b 5.283093
_cell_length_c 20.048450
_cell_angle_alpha 90.000000
_cell_angle_beta 90.000000
_cell_angle_gamma 90.000000
_cell_volume 1358.136512
_symmetry_space_group_name_H-M "P N C 2"
_symmetry_group_IT_number 30
_symmetry_cell_setting 'orthorhombic'
loop_
_space_group_symop_operation_xyz
x,y,z
-x,-y,z
-x,1/2+y,1/2+z
x,1/2-y,1/2+z
loop_
_atom_site_type_symbol
_atom_site_label
_atom_site_fract_x
_atom_site_fract_y
_atom_site_fract_z
Si Si1 0.589663 0.334819 0.323200
Si Si2 0.912332 0.817283 0.424407
Si Si3 0.000000 0.500000 0.543713
Si Si4 0.192808 0.455964 0.312414
Si Si5 0.283143 0.091483 0.506033
Si Si6 0.775474 0.095581 0.087440
Si Si7 0.246591 0.943488 0.242323
Si Si8 0.500000 0.000000 0.437902
O O1 0.500000 0.500000 0.288474
O O2 0.689834 0.505642 0.340662
O O3 0.642166 0.117131 0.277766
O O4 0.540086 0.218680 0.388828
O O5 0.960366 0.715378 0.493156
O O6 0.883629 0.595410 0.373315
O O7 0.801297 0.939833 0.445558
O O8 0.000000 0.000000 0.394927
O O9 0.901427 0.408117 0.585123
O O10 0.176419 0.708877 0.269362
O O11 0.199260 0.206510 0.267099
O O12 0.261171 0.357457 0.542777
O O13 0.400626 0.084200 0.480181
O O14 0.263398 0.856410 0.555287
O O15 0.741291 0.065590 0.163481
#
# Coordination Sequence:
#
# PCOD9342308 Si02
#       8
#     4   4   2   4   4   4   4   2
#     4  10  22  39  69  97 133 181 223 280 355 401
#     4  11  22  41  69 101 140 169 232 279 357 406
#     4  10  24  40  70 100 130 192 212 284 348 404
#     4  10  24  40  68  99 131 179 216 293 337 403
#     4  11  26  42  70 102 134 184 228 280 343 402
#     4  11  24  48  69  97 141 183 233 278 332 426
#     4  10  23  45  67  94 139 179 229 279 337 407
#     4  12  26  44  68 106 142 178 230 294 350 416
#
# _framework density 20.616485000000001
#
# number of rings (size 3 to 8) (size 9 to 14) (size 15 to 20)
#    0.857    0.571    1.429    3.429    8.000    0.000 
#    2.571    1.429    0.000    0.000    0.000    0.000 
#    0.000    0.000    0.000    0.000    0.000    0.000 
#
# Total GULP energy -156399.696154 kJ/mol
# GULP energy per Si atom -5585.703434 kJ/mol
# Density = 2.056956 g / cm^3
# Si number density = 20.616485 Si / 1000 Ang^3
#
#
#
# Elastic Constant Matrix: (Units=GPa)
#
#
# Indices 1 2 3 4 5 6 
#
# 1 120.0527 13.0776 32.5760 0.0000 0.0000 0.0000
# 2 13.0776 94.7349 11.3911 0.0000 0.0000 0.0000
# 3 32.5760 11.3911 61.4757 0.0000 0.0000 0.0000
# 4 0.0000 0.0000 0.0000 -518.7863 0.0000 0.0000
# 5 0.0000 0.0000 0.0000 0.0000 21.2714 0.0000
# 6 0.0000 0.0000 0.0000 0.0000 0.0000 25.9378
#
#
#
# Elastic Compliance Matrix: (Units=1/GPa)
#
#
# Indices 1 2 3 4 5 6 
#
# 1 0.009779 -0.000743 -0.005044 0.000000 0.000000 0.000000
# 2 -0.000743 0.010853 -0.001617 0.000000 0.000000 0.000000
# 3 -0.005044 -0.001617 0.019239 0.000000 0.000000 0.000000
# 4 0.000000 0.000000 0.000000 -0.001928 0.000000 0.000000
# 5 0.000000 0.000000 0.000000 0.000000 0.047011 0.000000
# 6 0.000000 0.000000 0.000000 0.000000 0.000000 0.038554
#
#
# Mechanical properties :
#
#
# Convention : Reuss Voigt Hill
#
# Bulk Modulus (GPa) = 39.90131 43.37252 41.63691
# Shear Modulus (GPa) = 34.08948 -79.70084 -22.80568
#
# Velocity S-wave (km/s) = 4.07074 -6.22436 -3.32955
# Velocity P-wave (km/s) = 6.44133 5.52933 2.33637
#
# Compressibility (1/GPa) = 0.02506183
#
# Stress axis : x y z
#
# Youngs Moduli (GPa) = 102.25539 92.14188 51.97714
#
# Poissons Ratio (x) = 0.06850 0.26219
# Poissons Ratio (y) = 0.07602 0.08405
# Poissons Ratio (z) = 0.51581 0.14899
#
# Static dielectric constant tensor:
#      x y z
#    x 1.753820 0.000000 0.000000 
#    y 0.000000 1.784480 0.000000 
#    z 0.000000 0.000000 1.690730 
# 
# From -- ./inp_files/7046.got.cif
#   From: 2010.05.17/outbox.cif.g08.bks.cpg/sg30_4_cif.got.tgz:7046.got - 2010.06.03 17:03:02.
