data_PCOD9342135
_publ_section_title
;
Structure prediction by ZEFSAII (Michael W. Deem and Ramdas Pophale) SiO2 
 PCOD9342135
Probable space group: P N C 2
;
_chemical_formula_sum "Si O2"
_cell_formula_units_Z 26
_cell_length_a 8.620143
_cell_length_b 14.195158
_cell_length_c 9.414327
_cell_angle_alpha 90.000000
_cell_angle_beta 90.000000
_cell_angle_gamma 90.000000
_cell_volume 1151.977457
_symmetry_space_group_name_H-M "P N C 2"
_symmetry_group_IT_number 30
_symmetry_cell_setting 'orthorhombic'
loop_
_space_group_symop_operation_xyz
x,y,z
-x,-y,z
-x,1/2+y,1/2+z
x,1/2-y,1/2+z
loop_
_atom_site_type_symbol
_atom_site_label
_atom_site_fract_x
_atom_site_fract_y
_atom_site_fract_z
Si Si1 0.783343 0.902148 0.070570
Si Si2 0.403268 0.858794 0.716740
Si Si3 0.500000 0.500000 0.712939
Si Si4 0.976701 0.164322 0.268479
Si Si5 0.255270 0.052543 0.757314
Si Si6 0.640811 0.332863 0.884076
Si Si7 0.882226 0.704389 0.066094
O O1 0.926516 0.910713 0.177994
O O2 0.643778 0.968957 0.115766
O O3 0.821009 0.922656 0.907727
O O4 0.753965 0.788277 0.082915
O O5 0.572359 0.902282 0.750285
O O6 0.382512 0.769633 0.817390
O O7 0.278633 0.941530 0.742967
O O8 0.387581 0.832215 0.551497
O O9 0.531503 0.410369 0.811963
O O10 0.813310 0.137400 0.333903
O O11 0.079326 0.195424 0.402171
O O12 0.974208 0.251321 0.155989
O O13 0.165195 0.105565 0.632206
#
# Coordination Sequence:
#
# PCOD9342135 Si02
#       7
#     4   4   2   4   4   4   4
#     4  10  23  43  75 104 140 189 235 301 354 446
#     4  11  28  42  73 102 151 189 237 316 355 450
#     4  12  26  44  76 106 132 192 242 298 374 428
#     4  10  23  44  71 102 149 190 237 302 360 446
#     4  11  23  46  71 111 140 186 251 292 371 430
#     4  12  28  49  68 106 146 190 246 305 377 432
#     4  10  20  42  73 102 141 192 232 291 371 428
#
# _framework density 22.569887000000001
#
# number of rings (size 3 to 8) (size 9 to 14) (size 15 to 20)
#    0.923    0.308    1.538    3.692   10.769    0.615 
#    0.000    2.308    0.000    0.000    0.000    0.000 
#    0.000    0.000    0.000    0.000    0.000    0.000 
#
# Total GULP energy -145328.438214 kJ/mol
# GULP energy per Si atom -5589.555316 kJ/mol
# Density = 2.251852 g / cm^3
# Si number density = 22.569887 Si / 1000 Ang^3
#
#
#
# Elastic Constant Matrix: (Units=GPa)
#
#
# Indices 1 2 3 4 5 6 
#
# 1 36.4329 3.2174 9.5891 0.0000 0.0000 0.0000
# 2 3.2174 136.5508 48.4904 0.0000 0.0000 0.0000
# 3 9.5891 48.4904 164.8666 0.0000 0.0000 0.0000
# 4 0.0000 0.0000 0.0000 4.9131 0.0000 0.0000
# 5 0.0000 0.0000 0.0000 0.0000 17.8361 0.0000
# 6 0.0000 0.0000 0.0000 0.0000 0.0000 28.8779
#
#
#
# Elastic Compliance Matrix: (Units=1/GPa)
#
#
# Indices 1 2 3 4 5 6 
#
# 1 0.027875 -0.000090 -0.001595 0.000000 0.000000 0.000000
# 2 -0.000090 0.008178 -0.002400 0.000000 0.000000 0.000000
# 3 -0.001595 -0.002400 0.006864 0.000000 0.000000 0.000000
# 4 0.000000 0.000000 0.000000 0.203536 0.000000 0.000000
# 5 0.000000 0.000000 0.000000 0.000000 0.056066 0.000000
# 6 0.000000 0.000000 0.000000 0.000000 0.000000 0.034629
#
#
# Mechanical properties :
#
#
# Convention : Reuss Voigt Hill
#
# Bulk Modulus (GPa) = 28.77953 51.16046 39.96999
# Shear Modulus (GPa) = 14.00950 28.76230 21.38590
#
# Velocity S-wave (km/s) = 2.49412 3.57370 3.08156
# Velocity P-wave (km/s) = 4.59055 6.30438 5.51445
#
# Compressibility (1/GPa) = 0.03474692
#
# Stress axis : x y z
#
# Youngs Moduli (GPa) = 35.87391 122.28439 145.68480
#
# Poissons Ratio (x) = 0.01107 0.23232
# Poissons Ratio (y) = 0.00325 0.34964
# Poissons Ratio (z) = 0.05721 0.29348
#
# Static dielectric constant tensor:
#      x y z
#    x 1.869940 0.000000 0.000000 
#    y 0.000000 1.855100 0.000000 
#    z 0.000000 0.000000 1.772030 
# 
# From -- ./inp_files/1960.got.cif
#   From: 2010.05.17/outbox.cif.g08.bks.cpg/sg30_1_cif.got.tgz:1960.got - 2010.06.03 17:03:02.
