data_PCOD9342775
_publ_section_title
;
Structure prediction by ZEFSAII (Michael W. Deem and Ramdas Pophale) SiO2 
 PCOD9342775
Probable space group: P M N 21
;
_chemical_formula_sum "Si O2"
_cell_formula_units_Z 32
_cell_length_a 7.463625
_cell_length_b 12.302654
_cell_length_c 15.816015
_cell_angle_alpha 90.000000
_cell_angle_beta 90.000000
_cell_angle_gamma 90.000000
_cell_volume 1452.264392
_symmetry_space_group_name_H-M "P M N 21"
_symmetry_group_IT_number 31
_symmetry_cell_setting 'orthorhombic'
loop_
_space_group_symop_operation_xyz
x,y,z
1/2-x,-y,1/2+z
-x,y,z
1/2+x,-y,1/2+z
loop_
_atom_site_type_symbol
_atom_site_label
_atom_site_fract_x
_atom_site_fract_y
_atom_site_fract_z
Si Si1 0.284271 0.785692 0.587970
Si Si2 0.211937 0.761656 0.776482
Si Si3 0.280708 0.644900 0.428007
Si Si4 0.718069 0.001458 0.327769
Si Si5 0.219075 0.227617 0.759442
Si Si6 0.706622 0.740634 0.074349
Si Si7 0.293892 0.400843 0.415415
Si Si8 0.716516 0.014195 0.524175
O O1 0.500000 0.789107 0.583762
O O2 0.234282 0.736918 0.678189
O O3 0.220644 0.714923 0.508605
O O4 0.221871 0.910748 0.578577
O O5 0.283891 0.882734 0.794105
O O6 0.287755 0.672267 0.840618
O O7 0.000000 0.768619 0.795319
O O8 0.500000 0.647375 0.431014
O O9 0.228203 0.701539 0.340232
O O10 0.217824 0.520493 0.430452
O O11 0.500000 0.000489 0.324227
O O12 0.765890 0.992144 0.426549
O O13 0.778142 0.896419 0.275787
O O14 0.281064 0.271316 0.668937
O O15 0.000000 0.226839 0.756641
O O16 0.500000 0.706457 0.074990
O O17 0.715540 0.868734 0.052755
O O18 0.793397 0.671222 0.000010
O O19 0.500000 0.421253 0.390355
O O20 0.500000 0.019864 0.527696
#
# Coordination Sequence:
#
# PCOD9342775 Si02
#       8
#     4   4   4   4   4   4   4   4
#     4  10  20  34  57  85 110 139 177 227 274 314
#     4  10  20  34  54  78 107 145 183 220 267 327
#     4   9  18  35  57  79 104 140 188 228 261 316
#     4   9  15  29  53  77 103 138 177 213 255 315
#     4   9  17  31  53  80 106 136 177 221 266 317
#     4  11  22  34  55  85 114 140 173 227 278 316
#     4  10  21  38  58  77 103 146 191 224 261 319
#     4  10  18  33  57  81 109 144 180 214 262 330
#
# _framework density 22.034557
#
# number of rings (size 3 to 8) (size 9 to 14) (size 15 to 20)
#    0.000    2.250    2.500    1.125    0.000    3.000 
#    0.000    1.875    0.000    3.750    0.000    0.000 
#    0.000    0.000    0.000    0.000    0.000    0.000 
#
# Total GULP energy -178806.338873 kJ/mol
# GULP energy per Si atom -5587.698090 kJ/mol
# Density = 2.198441 g / cm^3
# Si number density = 22.034557 Si / 1000 Ang^3
#
#
#
# Elastic Constant Matrix: (Units=GPa)
#
#
# Indices 1 2 3 4 5 6 
#
# 1 61.9193 -4.5912 -13.3463 0.0000 0.0000 0.0000
# 2 -4.5912 136.1540 35.1461 0.0000 0.0000 0.0000
# 3 -13.3463 35.1461 103.4350 0.0000 0.0000 0.0000
# 4 0.0000 0.0000 0.0000 2.4419 0.0000 0.0000
# 5 0.0000 0.0000 0.0000 0.0000 -8.1415 0.0000
# 6 0.0000 0.0000 0.0000 0.0000 0.0000 -14.2667
#
#
#
# Elastic Compliance Matrix: (Units=1/GPa)
#
#
# Indices 1 2 3 4 5 6 
#
# 1 0.016612 0.000008 0.002141 0.000000 0.000000 0.000000
# 2 0.000008 0.008051 -0.002735 0.000000 0.000000 0.000000
# 3 0.002141 -0.002735 0.010873 0.000000 0.000000 0.000000
# 4 0.000000 0.000000 0.000000 0.409523 0.000000 0.000000
# 5 0.000000 0.000000 0.000000 0.000000 -0.122828 0.000000
# 6 0.000000 0.000000 0.000000 0.000000 0.000000 -0.070093
#
#
# Mechanical properties :
#
#
# Convention : Reuss Voigt Hill
#
# Bulk Modulus (GPa) = 29.10032 37.32504 33.21268
# Shear Modulus (GPa) = 18.88469 14.96007 16.92238
#
# Velocity S-wave (km/s) = 2.93072 2.60847 2.77427
# Velocity P-wave (km/s) = 4.96865 5.10375 5.03665
#
# Compressibility (1/GPa) = 0.03436388
#
# Stress axis : x y z
#
# Youngs Moduli (GPa) = 60.19719 124.21171 91.96808
#
# Poissons Ratio (x) = -0.00093 -0.19690
# Poissons Ratio (y) = -0.00045 0.25150
# Poissons Ratio (z) = -0.12888 0.33967
#
# Static dielectric constant tensor:
#      x y z
#    x 1.843350 0.000000 0.000000 
#    y 0.000000 1.778410 0.000000 
#    z 0.000000 0.000000 1.776430 
# 
# From -- ./inp_files/4988.got.cif
#   From: 2010.05.17/outbox.cif.g08.bks.cpg/sg31_3_cif.got.tgz:4988.got - 2010.06.03 17:08:30.
