data_PCOD9342445
_publ_section_title
;
Structure prediction by ZEFSAII (Michael W. Deem and Ramdas Pophale) SiO2 
 PCOD9342445
Probable space group: P N C 2
;
_chemical_formula_sum "Si O2"
_cell_formula_units_Z 24
_cell_length_a 13.774697
_cell_length_b 9.561629
_cell_length_c 8.463072
_cell_angle_alpha 90.000000
_cell_angle_beta 90.000000
_cell_angle_gamma 90.000000
_cell_volume 1114.658877
_symmetry_space_group_name_H-M "P N C 2"
_symmetry_group_IT_number 30
_symmetry_cell_setting 'orthorhombic'
loop_
_space_group_symop_operation_xyz
x,y,z
-x,-y,z
-x,1/2+y,1/2+z
x,1/2-y,1/2+z
loop_
_atom_site_type_symbol
_atom_site_label
_atom_site_fract_x
_atom_site_fract_y
_atom_site_fract_z
Si Si1 0.609593 0.828603 0.400710
Si Si2 0.689761 0.574384 0.230597
Si Si3 0.890779 0.449512 0.185375
Si Si4 0.806864 0.226551 0.967140
Si Si5 0.318046 0.602942 0.728380
Si Si6 0.567985 0.137140 0.923440
O O1 0.675461 0.693858 0.361368
O O2 0.626849 0.881746 0.578475
O O3 0.500224 0.769270 0.381406
O O4 0.643989 0.952639 0.285228
O O5 0.801801 0.559803 0.181356
O O6 0.649031 0.428654 0.302845
O O7 0.865253 0.360463 0.340210
O O8 0.000000 0.500000 0.188595
O O9 0.872746 0.346964 0.039609
O O10 0.716950 0.312472 0.884165
O O11 0.773478 0.122921 0.108729
O O12 0.396173 0.658413 0.602216
O O13 0.500000 0.000000 0.929662
#
# Coordination Sequence:
#
# PCOD9342445 Si02
#       6
#     4   4   4   4   4   4
#     4  11  24  44  70 102 137 196 244 290 358 429
#     4  11  23  46  69 103 148 183 240 304 357 428
#     4  11  24  48  76 106 143 184 238 298 368 444
#     4  10  24  46  74 105 139 190 228 298 381 417
#     4  11  22  45  73  94 147 190 234 297 358 426
#     4  10  23  43  64 102 143 186 241 286 351 429
#
# _framework density 21.531251000000001
#
# number of rings (size 3 to 8) (size 9 to 14) (size 15 to 20)
#    0.000    1.333    3.333    2.000    0.000    5.333 
#    3.000   10.833    0.000    0.000    0.000    0.000 
#    0.000    0.000    0.000    0.000    0.000    0.000 
#
# Total GULP energy -133950.090834 kJ/mol
# GULP energy per Si atom -5581.253785 kJ/mol
# Density = 2.148224 g / cm^3
# Si number density = 21.531251 Si / 1000 Ang^3
#
#
#
# Elastic Constant Matrix: (Units=GPa)
#
#
# Indices 1 2 3 4 5 6 
#
# 1 142.2530 64.1412 36.4402 0.0000 0.0000 0.0000
# 2 64.1412 131.5948 52.3065 0.0000 0.0000 0.0000
# 3 36.4402 52.3065 92.5518 0.0000 0.0000 0.0000
# 4 0.0000 0.0000 0.0000 40.1059 0.0000 0.0000
# 5 0.0000 0.0000 0.0000 0.0000 23.2323 0.0000
# 6 0.0000 0.0000 0.0000 0.0000 0.0000 40.0715
#
#
#
# Elastic Compliance Matrix: (Units=1/GPa)
#
#
# Indices 1 2 3 4 5 6 
#
# 1 0.009147 -0.003904 -0.001395 0.000000 0.000000 0.000000
# 2 -0.003904 0.011467 -0.004944 0.000000 0.000000 0.000000
# 3 -0.001395 -0.004944 0.014148 0.000000 0.000000 0.000000
# 4 0.000000 0.000000 0.000000 0.024934 0.000000 0.000000
# 5 0.000000 0.000000 0.000000 0.000000 0.043044 0.000000
# 6 0.000000 0.000000 0.000000 0.000000 0.000000 0.024955
#
#
# Mechanical properties :
#
#
# Convention : Reuss Voigt Hill
#
# Bulk Modulus (GPa) = 70.04351 74.68616 72.36483
# Shear Modulus (GPa) = 32.69262 34.91604 33.80433
#
# Velocity S-wave (km/s) = 3.90087 4.03133 3.96664
# Velocity P-wave (km/s) = 7.27260 7.51209 7.39332
#
# Compressibility (1/GPa) = 0.01427684
#
# Stress axis : x y z
#
# Youngs Moduli (GPa) = 109.32022 87.20741 70.68157
#
# Poissons Ratio (x) = 0.34046 0.09862
# Poissons Ratio (y) = 0.42679 0.34941
# Poissons Ratio (z) = 0.15252 0.43111
#
# Static dielectric constant tensor:
#      x y z
#    x 1.850630 0.000000 0.000000 
#    y 0.000000 1.811200 0.000000 
#    z 0.000000 0.000000 1.796790 
# 
# From -- ./inp_files/2632.got.cif
#   From: 2010.05.17/outbox.cif.g08.bks.cpg/sg30_2_cif.got.tgz:2632.got - 2010.06.03 17:03:02.
