data_PCOD9342546
_publ_section_title
;
Structure prediction by ZEFSAII (Michael W. Deem and Ramdas Pophale) SiO2 
 PCOD9342546
Probable space group: P N C 2
;
_chemical_formula_sum "Si O2"
_cell_formula_units_Z 16
_cell_length_a 5.213225
_cell_length_b 5.370369
_cell_length_c 22.996729
_cell_angle_alpha 90.000000
_cell_angle_beta 90.000000
_cell_angle_gamma 90.000000
_cell_volume 643.838086
_symmetry_space_group_name_H-M "P N C 2"
_symmetry_group_IT_number 30
_symmetry_cell_setting 'orthorhombic'
loop_
_space_group_symop_operation_xyz
x,y,z
-x,-y,z
-x,1/2+y,1/2+z
x,1/2-y,1/2+z
loop_
_atom_site_type_symbol
_atom_site_label
_atom_site_fract_x
_atom_site_fract_y
_atom_site_fract_z
Si Si1 0.500000 0.000000 0.462661
Si Si2 0.000000 0.500000 0.270405
Si Si3 0.169722 0.749457 0.552010
Si Si4 0.234302 0.155713 0.881060
Si Si5 0.741029 0.163004 0.183420
O O1 0.389117 0.785635 0.504082
O O2 0.712995 0.893800 0.419521
O O3 0.132967 0.307136 0.315266
O O4 0.208989 0.618645 0.228578
O O5 0.288660 0.749243 0.616772
O O6 0.000000 0.500000 0.546018
O O7 0.000000 0.000000 0.547326
O O8 0.500000 0.000000 0.878588
O O9 0.000000 0.000000 0.908118
O O10 0.500000 0.000000 0.200164
O O11 0.000000 0.000000 0.184391
#
# Coordination Sequence:
#
# PCOD9342546 Si02
#       5
#     2   2   4   4   4
#     4  12  30  50  86 114 180 216 290 344 428 508
#     4  10  26  54  82 114 168 216 286 348 426 506
#     4  11  29  51  83 127 170 224 285 354 435 507
#     4  10  28  50  78 117 161 218 285 335 427 496
#     4  11  27  48  82 121 165 219 280 354 431 503
#
# _framework density 24.850971999999999
#
# number of rings (size 3 to 8) (size 9 to 14) (size 15 to 20)
#    0.750    0.500    1.250    0.000   17.500    2.000 
#    0.000    2.500    0.000    0.000    0.000    0.000 
#    0.000    0.000    0.000    0.000    0.000    0.000 
#
# Total GULP energy -89695.246369 kJ/mol
# GULP energy per Si atom -5605.952898 kJ/mol
# Density = 2.479441 g / cm^3
# Si number density = 24.850972 Si / 1000 Ang^3
#
#
#
# Elastic Constant Matrix: (Units=GPa)
#
#
# Indices 1 2 3 4 5 6 
#
# 1 149.4369 56.5936 54.0190 0.0000 0.0000 0.0000
# 2 56.5936 125.1580 67.8970 0.0000 0.0000 0.0000
# 3 54.0190 67.8970 216.9938 0.0000 0.0000 0.0000
# 4 0.0000 0.0000 0.0000-2558.2195 0.0000 0.0000
# 5 0.0000 0.0000 0.0000 0.0000 -10.5968 0.0000
# 6 0.0000 0.0000 0.0000 0.0000 0.0000 59.4256
#
#
#
# Elastic Compliance Matrix: (Units=1/GPa)
#
#
# Indices 1 2 3 4 5 6 
#
# 1 0.008276 -0.003161 -0.001071 0.000000 0.000000 0.000000
# 2 -0.003161 0.010831 -0.002602 0.000000 0.000000 0.000000
# 3 -0.001071 -0.002602 0.005689 0.000000 0.000000 0.000000
# 4 0.000000 0.000000 0.000000 -0.000391 0.000000 0.000000
# 5 0.000000 0.000000 0.000000 0.000000 -0.094369 0.000000
# 6 0.000000 0.000000 0.000000 0.000000 0.000000 0.016828
#
#
# Mechanical properties :
#
#
# Convention : Reuss Voigt Hill
#
# Bulk Modulus (GPa) = 89.86686 94.28976 92.07831
# Shear Modulus (GPa) = -139.83132 -481.00620 -310.41876
#
# Velocity S-wave (km/s) = -7.50933 -13.92754 -11.18853
# Velocity P-wave (km/s) = 6.24067 14.85297 11.39203
#
# Compressibility (1/GPa) = 0.01112757
#
# Stress axis : x y z
#
# Youngs Moduli (GPa) = 120.82869 92.32850 175.77020
#
# Poissons Ratio (x) = 0.29187 0.18828
# Poissons Ratio (y) = 0.38196 0.45736
# Poissons Ratio (z) = 0.12943 0.24024
#
# Static dielectric constant tensor:
#      x y z
#    x 1.920320 0.000000 0.000000 
#    y 0.000000 4.288210 0.000000 
#    z 0.000000 0.000000 1.937320 
# 
# From -- ./inp_files/6719.got.cif
#   From: 2010.05.17/outbox.cif.g08.bks.cpg/sg30_4_cif.got.tgz:6719.got - 2010.06.03 17:03:02.
