data_PCOD9342550
_publ_section_title
;
Structure prediction by ZEFSAII (Michael W. Deem and Ramdas Pophale) SiO2 
 PCOD9342550
Probable space group: P N C 2
;
_chemical_formula_sum "Si O2"
_cell_formula_units_Z 20
_cell_length_a 10.483785
_cell_length_b 14.945548
_cell_length_c 5.496038
_cell_angle_alpha 90.000000
_cell_angle_beta 90.000000
_cell_angle_gamma 90.000000
_cell_volume 861.151726
_symmetry_space_group_name_H-M "P N C 2"
_symmetry_group_IT_number 30
_symmetry_cell_setting 'orthorhombic'
loop_
_space_group_symop_operation_xyz
x,y,z
-x,-y,z
-x,1/2+y,1/2+z
x,1/2-y,1/2+z
loop_
_atom_site_type_symbol
_atom_site_label
_atom_site_fract_x
_atom_site_fract_y
_atom_site_fract_z
Si Si1 0.427043 0.800774 0.736440
Si Si2 0.913075 0.806183 0.456376
Si Si3 0.641369 0.891726 0.482622
Si Si4 0.500000 0.000000 0.113068
Si Si5 0.263597 0.952461 0.776847
Si Si6 0.000000 0.000000 0.652120
O O1 0.436008 0.743226 0.495395
O O2 0.551731 0.863415 0.705840
O O3 0.291872 0.850738 0.719029
O O4 0.942133 0.754601 0.199712
O O5 0.759223 0.825522 0.445828
O O6 0.974333 0.906496 0.501936
O O7 0.542701 0.914396 0.271451
O O8 0.701077 0.987875 0.543932
O O9 0.629293 0.024884 0.973315
O O10 0.120530 0.979945 0.824706
#
# Coordination Sequence:
#
# PCOD9342550 Si02
#       6
#     4   4   4   2   4   2
#     4  12  24  39  66 105 146 183 238 318 391 457
#     4  11  27  50  78 114 159 212 276 333 396 499
#     4  11  23  42  70 110 147 200 258 323 406 474
#     4  12  20  42  80 104 156 192 272 328 400 486
#     4  11  24  45  70 106 145 208 257 321 389 489
#     4  10  28  52  78 112 162 224 270 334 420 476
#
# _framework density 23.224710999999999
#
# number of rings (size 3 to 8) (size 9 to 14) (size 15 to 20)
#    0.000    0.800    4.000    2.400    5.600    2.400 
#    3.600    0.000    0.000    0.000    0.000    0.000 
#    0.000    0.000    0.000    0.000    0.000    0.000 
#
# Total GULP energy -111572.579931 kJ/mol
# GULP energy per Si atom -5578.628997 kJ/mol
# Density = 2.317185 g / cm^3
# Si number density = 23.224711 Si / 1000 Ang^3
#
#
#
# Elastic Constant Matrix: (Units=GPa)
#
#
# Indices 1 2 3 4 5 6 
#
# 1 143.6481 38.4670 39.5359 0.0000 0.0000 0.0000
# 2 38.4670 103.0245 61.6794 0.0000 0.0000 0.0000
# 3 39.5359 61.6794 129.8357 0.0000 0.0000 0.0000
# 4 0.0000 0.0000 0.0000 37.2385 0.0000 0.0000
# 5 0.0000 0.0000 0.0000 0.0000 12.8261 0.0000
# 6 0.0000 0.0000 0.0000 0.0000 0.0000 45.1757
#
#
#
# Elastic Compliance Matrix: (Units=1/GPa)
#
#
# Indices 1 2 3 4 5 6 
#
# 1 0.007914 -0.002113 -0.001406 0.000000 0.000000 0.000000
# 2 -0.002113 0.014129 -0.006068 0.000000 0.000000 0.000000
# 3 -0.001406 -0.006068 0.011013 0.000000 0.000000 0.000000
# 4 0.000000 0.000000 0.000000 0.026854 0.000000 0.000000
# 5 0.000000 0.000000 0.000000 0.000000 0.077966 0.000000
# 6 0.000000 0.000000 0.000000 0.000000 0.000000 0.022136
#
#
# Mechanical properties :
#
#
# Convention : Reuss Voigt Hill
#
# Bulk Modulus (GPa) = 72.04330 72.87479 72.45904
# Shear Modulus (GPa) = 27.20147 34.83647 31.01897
#
# Velocity S-wave (km/s) = 3.42604 3.87715 3.65855
# Velocity P-wave (km/s) = 6.83650 7.17561 7.00810
#
# Compressibility (1/GPa) = 0.01388054
#
# Stress axis : x y z
#
# Youngs Moduli (GPa) = 126.35288 70.77884 90.80166
#
# Poissons Ratio (x) = 0.14957 0.12767
# Poissons Ratio (y) = 0.26702 0.55102
# Poissons Ratio (z) = 0.17766 0.42951
#
# Static dielectric constant tensor:
#      x y z
#    x 1.947420 0.000000 0.000000 
#    y 0.000000 2.038310 0.000000 
#    z 0.000000 0.000000 1.949010 
# 
# From -- ./inp_files/648.got.cif
#   From: 2010.05.17/outbox.cif.g08.bks.cpg/sg30_1_cif.got.tgz:648.got - 2010.06.03 17:03:02.
