data_PCOD9342635
_publ_section_title
;
Structure prediction by ZEFSAII (Michael W. Deem and Ramdas Pophale) SiO2 
 PCOD9342635
Probable space group: P N C 2
;
_chemical_formula_sum "Si O2"
_cell_formula_units_Z 24
_cell_length_a 5.026255
_cell_length_b 13.899045
_cell_length_c 17.222882
_cell_angle_alpha 90.000000
_cell_angle_beta 90.000000
_cell_angle_gamma 90.000000
_cell_volume 1203.193024
_symmetry_space_group_name_H-M "P N C 2"
_symmetry_group_IT_number 30
_symmetry_cell_setting 'orthorhombic'
loop_
_space_group_symop_operation_xyz
x,y,z
-x,-y,z
-x,1/2+y,1/2+z
x,1/2-y,1/2+z
loop_
_atom_site_type_symbol
_atom_site_label
_atom_site_fract_x
_atom_site_fract_y
_atom_site_fract_z
Si Si1 0.092524 0.291901 0.732100
Si Si2 0.592524 0.291901 0.636191
Si Si3 0.000000 0.500000 0.799025
Si Si4 0.000000 0.000000 0.959096
Si Si5 0.903155 0.293468 0.394124
Si Si6 0.500000 0.000000 0.069266
Si Si7 0.500000 0.500000 0.909195
Si Si8 0.596845 0.706532 0.974166
O O1 0.390121 0.269262 0.705893
O O2 0.069007 0.405806 0.749836
O O3 0.997586 0.237912 0.809194
O O4 0.890121 0.269262 0.662398
O O5 0.569006 0.405806 0.618454
O O6 0.497586 0.237912 0.559097
O O7 0.250622 0.523252 0.853783
O O8 0.072050 0.906777 0.909114
O O9 0.750622 0.976749 0.014507
O O10 0.107483 0.241696 0.453696
O O11 0.607483 0.258304 0.414595
O O12 0.572051 0.593223 0.959176
#
# Coordination Sequence:
#
# PCOD9342635 Si02
#       8
#     4   4   2   2   4   2   2   4
#     4  12  24  40  61  96 133 163 204 262 326 375
#     4  12  24  40  61  96 133 163 204 262 326 375
#     4  12  22  39  66  95 130 158 208 270 320 375
#     4  12  22  41  68  97 118 166 224 258 302 371
#     4  12  23  43  66  91 128 169 214 258 306 381
#     4  12  22  39  66  95 130 158 208 270 320 375
#     4  12  22  41  68  97 118 166 224 258 302 371
#     4  12  23  43  66  91 128 169 214 258 306 381
#
# _framework density 19.946926000000001
#
# number of rings (size 3 to 8) (size 9 to 14) (size 15 to 20)
#    0.000    0.000    6.667    5.000    0.000    0.000 
#    0.000    1.667    0.000    0.000    0.000    0.000 
#    0.000    0.000    0.000    0.000    0.000    0.000 
#
# Total GULP energy -134414.226456 kJ/mol
# GULP energy per Si atom -5600.592769 kJ/mol
# Density = 1.990153 g / cm^3
# Si number density = 19.946926 Si / 1000 Ang^3
#
#
#
# Elastic Constant Matrix: (Units=GPa)
#
#
# Indices 1 2 3 4 5 6 
#
# 1 56.9312 -11.7978 -17.5659 0.0000 0.0000 0.0000
# 2 -11.7978 72.7626 0.4703 0.0000 0.0000 0.0000
# 3 -17.5659 0.4703 62.3083 0.0000 0.0000 0.0000
# 4 0.0000 0.0000 0.0000 -10.0323 0.0000 0.0000
# 5 0.0000 0.0000 0.0000 0.0000 17.7506 0.0000
# 6 0.0000 0.0000 0.0000 0.0000 0.0000 20.4371
#
#
#
# Elastic Compliance Matrix: (Units=1/GPa)
#
#
# Indices 1 2 3 4 5 6 
#
# 1 0.019957 0.003200 0.005602 0.000000 0.000000 0.000000
# 2 0.003200 0.014257 0.000794 0.000000 0.000000 0.000000
# 3 0.005602 0.000794 0.017623 0.000000 0.000000 0.000000
# 4 0.000000 0.000000 0.000000 -0.099678 0.000000 0.000000
# 5 0.000000 0.000000 0.000000 0.000000 0.056336 0.000000
# 6 0.000000 0.000000 0.000000 0.000000 0.000000 0.048931
#
#
# Mechanical properties :
#
#
# Convention : Reuss Voigt Hill
#
# Bulk Modulus (GPa) = 14.07897 14.91283 14.49590
# Shear Modulus (GPa) = 80.76389 20.35744 50.56067
#
# Velocity S-wave (km/s) = 6.37003 3.19812 5.04010
# Velocity P-wave (km/s) = 7.82155 4.59671 6.41507
#
# Compressibility (1/GPa) = 0.07102790
#
# Stress axis : x y z
#
# Youngs Moduli (GPa) = 50.10885 70.14116 56.74557
#
# Poissons Ratio (x) = -0.22442 -0.31789
# Poissons Ratio (y) = -0.16033 -0.04508
# Poissons Ratio (z) = -0.28071 -0.05572
#
# Static dielectric constant tensor:
#      x y z
#    x 1.668790 0.000000 0.000000 
#    y 0.000000 1.691100 0.000000 
#    z 0.000000 0.000000 1.692350 
# 
# From -- ./inp_files/4675.got.cif
#   From: 2010.05.17/outbox.cif.g08.bks.cpg/sg30_3_cif.got.tgz:4675.got - 2010.06.03 17:03:02.
