data_PCOD9342653
_publ_section_title
;
Structure prediction by ZEFSAII (Michael W. Deem and Ramdas Pophale) SiO2 
 PCOD9342653
Probable space group: P N C 2
;
_chemical_formula_sum "Si O2"
_cell_formula_units_Z 22
_cell_length_a 13.807722
_cell_length_b 4.913507
_cell_length_c 13.744598
_cell_angle_alpha 90.000000
_cell_angle_beta 90.000000
_cell_angle_gamma 90.000000
_cell_volume 932.493162
_symmetry_space_group_name_H-M "P N C 2"
_symmetry_group_IT_number 30
_symmetry_cell_setting 'orthorhombic'
loop_
_space_group_symop_operation_xyz
x,y,z
-x,-y,z
-x,1/2+y,1/2+z
x,1/2-y,1/2+z
loop_
_atom_site_type_symbol
_atom_site_label
_atom_site_fract_x
_atom_site_fract_y
_atom_site_fract_z
Si Si1 0.000000 0.000000 0.888931
Si Si2 0.692177 0.125082 0.447512
Si Si3 0.857324 0.069520 0.725012
Si Si4 0.897266 0.883701 0.511301
Si Si5 0.605931 0.628360 0.547536
Si Si6 0.274735 0.433816 0.739051
O O1 0.064559 0.844043 0.806017
O O2 0.085544 0.090863 0.963420
O O3 0.672485 0.429373 0.481989
O O4 0.798774 0.339198 0.697324
O O5 0.800013 0.021238 0.473535
O O6 0.618799 0.928794 0.505326
O O7 0.896179 0.925619 0.626960
O O8 0.784915 0.837818 0.766009
O O9 0.679429 0.070865 0.333699
O O10 0.000000 0.000000 0.473733
O O11 0.500000 0.500000 0.545372
O O12 0.648633 0.632149 0.655985
#
# Coordination Sequence:
#
# PCOD9342653 Si02
#       6
#     2   4   4   4   4   4
#     4  12  28  44  68 110 150 192 258 296 352 440
#     4  12  26  48  76 108 148 194 243 304 376 439
#     4  12  26  44  71 104 145 196 246 294 358 433
#     4  12  26  43  73 105 148 200 240 291 356 436
#     4  12  27  48  76 109 143 187 251 314 374 447
#     4  12  25  48  73 101 144 193 238 304 373 434
#
# _framework density 23.592665
#
# number of rings (size 3 to 8) (size 9 to 14) (size 15 to 20)
#    0.000    0.000    6.364    2.727    5.091    1.455 
#    0.000    0.000    0.000    0.000    0.000    0.000 
#    0.000    0.000    0.000    0.000    0.000    0.000 
#
# Total GULP energy -122987.917003 kJ/mol
# GULP energy per Si atom -5590.359864 kJ/mol
# Density = 2.353897 g / cm^3
# Si number density = 23.592665 Si / 1000 Ang^3
#
#
#
# Elastic Constant Matrix: (Units=GPa)
#
#
# Indices 1 2 3 4 5 6 
#
# 1 100.6091 3.2240 15.1847 0.0000 0.0000 0.0000
# 2 3.2240 72.0108 0.4443 0.0000 0.0000 0.0000
# 3 15.1847 0.4443 165.9700 0.0000 0.0000 0.0000
# 4 0.0000 0.0000 0.0000 23.8193 0.0000 0.0000
# 5 0.0000 0.0000 0.0000 0.0000 4.1867 0.0000
# 6 0.0000 0.0000 0.0000 0.0000 0.0000 22.0166
#
#
#
# Elastic Compliance Matrix: (Units=1/GPa)
#
#
# Indices 1 2 3 4 5 6 
#
# 1 0.010093 -0.000446 -0.000922 0.000000 0.000000 0.000000
# 2 -0.000446 0.013907 0.000004 0.000000 0.000000 0.000000
# 3 -0.000922 0.000004 0.006110 0.000000 0.000000 0.000000
# 4 0.000000 0.000000 0.000000 0.041983 0.000000 0.000000
# 5 0.000000 0.000000 0.000000 0.000000 0.238849 0.000000
# 6 0.000000 0.000000 0.000000 0.000000 0.000000 0.045420
#
#
# Mechanical properties :
#
#
# Convention : Reuss Voigt Hill
#
# Bulk Modulus (GPa) = 36.52347 41.81064 39.16705
# Shear Modulus (GPa) = 13.57893 31.32032 22.44963
#
# Velocity S-wave (km/s) = 2.40168 3.64750 3.08807
# Velocity P-wave (km/s) = 4.81718 5.95814 5.41778
#
# Compressibility (1/GPa) = 0.02737966
#
# Stress axis : x y z
#
# Youngs Moduli (GPa) = 99.07917 71.90746 163.67818
#
# Poissons Ratio (x) = 0.03208 0.15095
# Poissons Ratio (y) = 0.04421 -0.00059
# Poissons Ratio (z) = 0.09137 -0.00026
#
# Static dielectric constant tensor:
#      x y z
#    x 1.908320 0.000000 0.000000 
#    y 0.000000 3.643040 0.000000 
#    z 0.000000 0.000000 1.852720 
# 
# From -- ./inp_files/5557.got.cif
#   From: 2010.05.17/outbox.cif.g08.bks.cpg/sg30_3_cif.got.tgz:5557.got - 2010.06.03 17:03:02.
