data_PCOD9342521
_publ_section_title
;
Structure prediction by ZEFSAII (Michael W. Deem and Ramdas Pophale) SiO2 
 PCOD9342521
Probable space group: P N C 2
;
_chemical_formula_sum "Si O2"
_cell_formula_units_Z 20
_cell_length_a 18.041187
_cell_length_b 5.159277
_cell_length_c 8.854963
_cell_angle_alpha 90.000000
_cell_angle_beta 90.000000
_cell_angle_gamma 90.000000
_cell_volume 824.215362
_symmetry_space_group_name_H-M "P N C 2"
_symmetry_group_IT_number 30
_symmetry_cell_setting 'orthorhombic'
loop_
_space_group_symop_operation_xyz
x,y,z
-x,-y,z
-x,1/2+y,1/2+z
x,1/2-y,1/2+z
loop_
_atom_site_type_symbol
_atom_site_label
_atom_site_fract_x
_atom_site_fract_y
_atom_site_fract_z
Si Si1 0.288720 0.422306 0.366640
Si Si2 0.336715 0.709240 0.627577
Si Si3 0.415852 0.038250 0.374954
Si Si4 0.917341 0.444411 0.935115
Si Si5 0.132437 0.085844 0.761720
O O1 0.290359 0.494460 0.541001
O O2 0.288282 0.669704 0.257862
O O3 0.371140 0.302906 0.344361
O O4 0.212281 0.301377 0.318568
O O5 0.408018 0.600327 0.713603
O O6 0.364904 0.908056 0.502768
O O7 0.500000 0.000000 0.423504
O O8 0.868239 0.506291 0.085421
O O9 0.000000 0.500000 0.998102
O O10 0.915576 0.662339 0.802948
O O11 0.894173 0.164835 0.862665
#
# Coordination Sequence:
#
# PCOD9342521 Si02
#       5
#     4   4   4   4   4
#     4  11  25  45  69 103 139 182 242 293 359 435
#     4  10  25  42  68  97 139 172 238 286 364 423
#     4  11  26  42  71  97 140 182 234 297 366 433
#     4  12  26  49  75 114 153 198 249 305 377 453
#     4  12  28  45  82 107 155 199 250 308 374 441
#
# _framework density 24.265502000000001
#
# number of rings (size 3 to 8) (size 9 to 14) (size 15 to 20)
#    0.000    0.800    0.000    5.400   16.800    1.600 
#    0.000    0.000    0.000    0.000    0.000    0.000 
#    0.000    0.000    0.000    0.000    0.000    0.000 
#
# Total GULP energy -111507.514808 kJ/mol
# GULP energy per Si atom -5575.375740 kJ/mol
# Density = 2.421027 g / cm^3
# Si number density = 24.265502 Si / 1000 Ang^3
#
#
#
# Elastic Constant Matrix: (Units=GPa)
#
#
# Indices 1 2 3 4 5 6 
#
# 1 70.3165 0.2032 -5.6659 0.0000 0.0000 0.0000
# 2 0.2032 88.1725 26.2883 0.0000 0.0000 0.0000
# 3 -5.6659 26.2883 106.4834 0.0000 0.0000 0.0000
# 4 0.0000 0.0000 0.0000 38.3482 0.0000 0.0000
# 5 0.0000 0.0000 0.0000 0.0000 33.7785 0.0000
# 6 0.0000 0.0000 0.0000 0.0000 0.0000 26.3616
#
#
#
# Elastic Compliance Matrix: (Units=1/GPa)
#
#
# Indices 1 2 3 4 5 6 
#
# 1 0.014289 -0.000280 0.000829 0.000000 0.000000 0.000000
# 2 -0.000280 0.012248 -0.003039 0.000000 0.000000 0.000000
# 3 0.000829 -0.003039 0.010185 0.000000 0.000000 0.000000
# 4 0.000000 0.000000 0.000000 0.026077 0.000000 0.000000
# 5 0.000000 0.000000 0.000000 0.000000 0.029605 0.000000
# 6 0.000000 0.000000 0.000000 0.000000 0.000000 0.037934
#
#
# Mechanical properties :
#
#
# Convention : Reuss Voigt Hill
#
# Bulk Modulus (GPa) = 31.50231 34.06928 32.78580
# Shear Modulus (GPa) = 34.27051 35.97411 35.12231
#
# Velocity S-wave (km/s) = 3.76215 3.85453 3.80862
# Velocity P-wave (km/s) = 5.64644 5.82070 5.73423
#
# Compressibility (1/GPa) = 0.03174370
#
# Stress axis : x y z
#
# Youngs Moduli (GPa) = 69.98365 81.64591 98.17929
#
# Poissons Ratio (x) = 0.02288 -0.08144
# Poissons Ratio (y) = 0.01961 0.29833
# Poissons Ratio (z) = -0.05805 0.24809
#
# Static dielectric constant tensor:
#      x y z
#    x 2.238100 0.000000 0.000000 
#    y 0.000000 2.030810 0.000000 
#    z 0.000000 0.000000 1.872330 
# 
# From -- ./inp_files/2739.got.cif
#   From: 2010.05.17/outbox.cif.g08.bks.cpg/sg30_2_cif.got.tgz:2739.got - 2010.06.03 17:03:02.
