data_PCOD9342940
_publ_section_title
;
Structure prediction by ZEFSAII (Michael W. Deem and Ramdas Pophale) SiO2 
 PCOD9342940
Probable space group: P M N 21
;
_chemical_formula_sum "Si O2"
_cell_formula_units_Z 32
_cell_length_a 7.971179
_cell_length_b 11.767468
_cell_length_c 16.883771
_cell_angle_alpha 90.000000
_cell_angle_beta 90.000000
_cell_angle_gamma 90.000000
_cell_volume 1583.707745
_symmetry_space_group_name_H-M "P M N 21"
_symmetry_group_IT_number 31
_symmetry_cell_setting 'orthorhombic'
loop_
_space_group_symop_operation_xyz
x,y,z
1/2-x,-y,1/2+z
-x,y,z
1/2+x,-y,1/2+z
loop_
_atom_site_type_symbol
_atom_site_label
_atom_site_fract_x
_atom_site_fract_y
_atom_site_fract_z
Si Si1 0.299594 0.812594 0.686280
Si Si2 0.296857 0.064498 0.738182
Si Si3 0.202960 0.727400 0.852080
Si Si4 0.196643 0.323389 0.033356
Si Si5 0.303713 0.786864 0.095983
Si Si6 0.192078 0.936545 0.957204
Si Si7 0.809739 0.843859 0.406809
Si Si8 0.703290 0.424666 0.500189
O O1 0.500000 0.825797 0.676194
O O2 0.266937 0.732143 0.762514
O O3 0.232913 0.751420 0.606619
O O4 0.235261 0.940511 0.707309
O O5 0.500000 0.058422 0.739835
O O6 0.239826 0.166484 0.681747
O O7 0.240816 0.101687 0.825856
O O8 0.254183 0.848223 0.890909
O O9 0.258226 0.631486 0.915737
O O10 0.000000 0.725317 0.850517
O O11 0.000000 0.338629 0.051437
O O12 0.213588 0.254462 0.951773
O O13 0.267325 0.449241 0.018659
O O14 0.500000 0.803038 0.080309
O O15 0.198701 0.866057 0.037248
O O16 0.256698 0.659858 0.070518
O O17 0.000000 0.969629 0.941496
O O18 0.302816 0.047300 0.964007
O O19 0.000000 0.806030 0.393299
O O20 0.500000 0.426120 0.496859
#
# Coordination Sequence:
#
# PCOD9342940 Si02
#       8
#     4   4   4   4   4   4   4   4
#     4  10  20  36  59  86 114 148 190 238 290 348
#     4  10  21  37  56  84 123 154 186 234 297 360
#     4   9  18  33  57  84 110 146 186 237 288 339
#     4  10  22  40  61  83 115 161 201 239 292 355
#     4  11  22  35  58  88 113 146 194 244 289 339
#     4  10  19  34  57  83 115 152 188 229 293 355
#     4  11  22  36  57  86 119 153 191 243 292 342
#     4   9  20  41  61  80 113 156 200 238 291 354
#
# _framework density 20.205749999999998
#
# number of rings (size 3 to 8) (size 9 to 14) (size 15 to 20)
#    0.000    2.000    1.250    3.375    0.000    5.500 
#    2.250    0.000    0.000    0.000    0.000    0.000 
#    0.000    0.000    0.000    0.000    0.000    0.000 
#
# Total GULP energy -178463.188709 kJ/mol
# GULP energy per Si atom -5576.974647 kJ/mol
# Density = 2.015976 g / cm^3
# Si number density = 20.205750 Si / 1000 Ang^3
#
#
#
# Elastic Constant Matrix: (Units=GPa)
#
#
# Indices 1 2 3 4 5 6 
#
# 1 21.5293 6.9051 5.8644 0.0000 0.0000 0.0000
# 2 6.9051 147.2848 75.8796 0.0000 0.0000 0.0000
# 3 5.8644 75.8796 91.0916 0.0000 0.0000 0.0000
# 4 0.0000 0.0000 0.0000 18.8446 0.0000 0.0000
# 5 0.0000 0.0000 0.0000 0.0000 23.8036 0.0000
# 6 0.0000 0.0000 0.0000 0.0000 0.0000 16.2237
#
#
#
# Elastic Compliance Matrix: (Units=1/GPa)
#
#
# Indices 1 2 3 4 5 6 
#
# 1 0.047386 -0.001139 -0.002102 0.000000 0.000000 0.000000
# 2 -0.001139 0.011921 -0.009857 0.000000 0.000000 0.000000
# 3 -0.002102 -0.009857 0.019324 0.000000 0.000000 0.000000
# 4 0.000000 0.000000 0.000000 0.053065 0.000000 0.000000
# 5 0.000000 0.000000 0.000000 0.000000 0.042011 0.000000
# 6 0.000000 0.000000 0.000000 0.000000 0.000000 0.061638
#
#
# Mechanical properties :
#
#
# Convention : Reuss Voigt Hill
#
# Bulk Modulus (GPa) = 19.07096 48.57822 33.82459
# Shear Modulus (GPa) = 17.91985 23.19149 20.55567
#
# Velocity S-wave (km/s) = 2.98127 3.39155 3.19300
# Velocity P-wave (km/s) = 4.61622 6.27939 5.51091
#
# Compressibility (1/GPa) = 0.05243575
#
# Stress axis : x y z
#
# Youngs Moduli (GPa) = 21.10327 83.88385 51.74820
#
# Poissons Ratio (x) = 0.09550 0.10879
# Poissons Ratio (y) = 0.02403 0.51009
# Poissons Ratio (z) = 0.04436 0.82686
#
# Static dielectric constant tensor:
#      x y z
#    x 1.720670 0.000000 0.000000 
#    y 0.000000 1.729960 0.000000 
#    z 0.000000 0.000000 1.776630 
# 
# From -- ./inp_files/5035.got.cif
#   From: 2010.05.17/outbox.cif.g08.bks.cpg/sg31_3_cif.got.tgz:5035.got - 2010.06.03 17:08:30.
