data_PCOD9342446
_publ_section_title
;
Structure prediction by ZEFSAII (Michael W. Deem and Ramdas Pophale) SiO2 
 PCOD9342446
Probable space group: P N C 2
;
_chemical_formula_sum "Si O2"
_cell_formula_units_Z 32
_cell_length_a 10.667518
_cell_length_b 16.093796
_cell_length_c 9.812154
_cell_angle_alpha 90.000000
_cell_angle_beta 90.000000
_cell_angle_gamma 90.000000
_cell_volume 1684.559023
_symmetry_space_group_name_H-M "P N C 2"
_symmetry_group_IT_number 30
_symmetry_cell_setting 'orthorhombic'
loop_
_space_group_symop_operation_xyz
x,y,z
-x,-y,z
-x,1/2+y,1/2+z
x,1/2-y,1/2+z
loop_
_atom_site_type_symbol
_atom_site_label
_atom_site_fract_x
_atom_site_fract_y
_atom_site_fract_z
Si Si1 0.763172 0.808582 0.277020
Si Si2 0.238074 0.152116 0.588528
Si Si3 0.646470 0.389241 0.295945
Si Si4 0.542298 0.203709 0.287150
Si Si5 0.391111 0.937495 0.095468
Si Si6 0.144758 0.011392 0.784045
Si Si7 0.514284 0.409925 0.024417
Si Si8 0.857884 0.536593 0.596403
O O1 0.804099 0.822429 0.434903
O O2 0.795723 0.724447 0.195775
O O3 0.609898 0.802969 0.280444
O O4 0.821218 0.883914 0.187977
O O5 0.192330 0.067722 0.660037
O O6 0.386535 0.135328 0.569503
O O7 0.603459 0.293954 0.292480
O O8 0.594129 0.428270 0.433795
O O9 0.789132 0.421159 0.293717
O O10 0.590210 0.427436 0.160004
O O11 0.589924 0.152611 0.158487
O O12 0.580681 0.152242 0.421057
O O13 0.500000 0.000000 0.143586
O O14 0.252748 0.970907 0.129263
O O15 0.161508 0.053606 0.933907
O O16 0.000000 0.000000 0.763736
O O17 0.500000 0.500000 0.955712
O O18 0.000000 0.500000 0.614828
#
# Coordination Sequence:
#
# PCOD9342446 Si02
#       8
#     4   4   4   4   4   4   4   4
#     4  11  23  38  64  96 128 164 211 270 326 387
#     4  11  23  38  64  92 128 164 210 267 324 384
#     4  11  22  37  61  93 123 164 208 268 327 384
#     4  11  23  36  58  94 133 156 204 273 329 385
#     4  11  22  37  65  90 121 167 209 264 321 382
#     4  10  23  44  66  86 125 175 223 262 318 396
#     4  11  21  35  58  90 127 164 203 266 334 392
#     4  10  23  43  64  89 128 172 222 263 321 392
#
# _framework density 18.996068999999999
#
# number of rings (size 3 to 8) (size 9 to 14) (size 15 to 20)
#    0.000    1.250    3.750    2.250    5.250    0.500 
#    2.250    0.000    0.000    0.000    0.000    0.000 
#    0.000    0.000    0.000    0.000    0.000    0.000 
#
# Total GULP energy -178321.290239 kJ/mol
# GULP energy per Si atom -5572.540320 kJ/mol
# Density = 1.895283 g / cm^3
# Si number density = 18.996069 Si / 1000 Ang^3
#
#
#
# Elastic Constant Matrix: (Units=GPa)
#
#
# Indices 1 2 3 4 5 6 
#
# 1 86.5513 48.0652 44.6240 0.0000 0.0000 0.0000
# 2 48.0652 124.9320 34.3544 0.0000 0.0000 0.0000
# 3 44.6240 34.3544 98.5961 0.0000 0.0000 0.0000
# 4 0.0000 0.0000 0.0000 42.2259 0.0000 0.0000
# 5 0.0000 0.0000 0.0000 0.0000 54.6559 0.0000
# 6 0.0000 0.0000 0.0000 0.0000 0.0000 19.3034
#
#
#
# Elastic Compliance Matrix: (Units=1/GPa)
#
#
# Indices 1 2 3 4 5 6 
#
# 1 0.017545 -0.005051 -0.006181 0.000000 0.000000 0.000000
# 2 -0.005051 0.010306 -0.001305 0.000000 0.000000 0.000000
# 3 -0.006181 -0.001305 0.013395 0.000000 0.000000 0.000000
# 4 0.000000 0.000000 0.000000 0.023682 0.000000 0.000000
# 5 0.000000 0.000000 0.000000 0.000000 0.018296 0.000000
# 6 0.000000 0.000000 0.000000 0.000000 0.000000 0.051804
#
#
# Mechanical properties :
#
#
# Convention : Reuss Voigt Hill
#
# Bulk Modulus (GPa) = 61.83292 62.68520 62.25906
# Shear Modulus (GPa) = 30.21253 35.43943 32.82598
#
# Velocity S-wave (km/s) = 3.99239 4.32397 4.16148
# Velocity P-wave (km/s) = 7.33984 7.61575 7.47907
#
# Compressibility (1/GPa) = 0.01617262
#
# Stress axis : x y z
#
# Youngs Moduli (GPa) = 56.99473 97.02723 74.65609
#
# Poissons Ratio (x) = 0.49004 0.46146
# Poissons Ratio (y) = 0.28786 0.09745
# Poissons Ratio (z) = 0.35229 0.12665
#
# Static dielectric constant tensor:
#      x y z
#    x 1.659950 0.000000 0.000000 
#    y 0.000000 1.592970 0.000000 
#    z 0.000000 0.000000 1.696000 
# 
# From -- ./inp_files/2490.got.cif
#   From: 2010.05.17/outbox.cif.g08.bks.cpg/sg30_2_cif.got.tgz:2490.got - 2010.06.03 17:03:02.
