data_PCOD9342541
_publ_section_title
;
Structure prediction by ZEFSAII (Michael W. Deem and Ramdas Pophale) SiO2 
 PCOD9342541
Probable space group: P N C 2
;
_chemical_formula_sum "Si O2"
_cell_formula_units_Z 22
_cell_length_a 11.376836
_cell_length_b 7.304941
_cell_length_c 12.666187
_cell_angle_alpha 90.000000
_cell_angle_beta 90.000000
_cell_angle_gamma 90.000000
_cell_volume 1052.650269
_symmetry_space_group_name_H-M "P N C 2"
_symmetry_group_IT_number 30
_symmetry_cell_setting 'orthorhombic'
loop_
_space_group_symop_operation_xyz
x,y,z
-x,-y,z
-x,1/2+y,1/2+z
x,1/2-y,1/2+z
loop_
_atom_site_type_symbol
_atom_site_label
_atom_site_fract_x
_atom_site_fract_y
_atom_site_fract_z
Si Si1 0.500000 0.500000 0.861390
Si Si2 0.804151 0.967565 0.635724
Si Si3 0.422983 0.687403 0.197373
Si Si4 0.000000 0.000000 0.457975
Si Si5 0.920928 0.840153 0.847419
Si Si6 0.685304 0.747931 0.470875
Si Si7 0.500000 0.000000 0.034851
O O1 0.551206 0.328424 0.793664
O O2 0.393461 0.414852 0.928388
O O3 0.886396 0.894425 0.729080
O O4 0.726550 0.801129 0.588391
O O5 0.888107 0.020198 0.536955
O O6 0.711460 0.119357 0.677700
O O7 0.500000 0.500000 0.204285
O O8 0.463158 0.820526 0.101360
O O9 0.996768 0.834096 0.376567
O O10 0.798333 0.794479 0.902371
O O11 0.000000 0.000000 0.894946
O O12 0.608704 0.566179 0.467570
#
# Coordination Sequence:
#
# PCOD9342541 Si02
#       7
#     2   4   4   2   4   4   2
#     4  11  26  44  69 114 146 190 237 298 369 448
#     4  11  23  48  70 101 143 186 244 298 351 443
#     4  11  23  43  71 103 148 190 235 291 372 444
#     4  10  26  50  70 102 144 186 246 308 360 424
#     4  11  26  48  72 103 140 193 247 301 364 434
#     4  11  25  44  72 107 143 184 245 298 370 444
#     4  11  24  42  69 106 142 188 229 302 373 442
#
# _framework density 20.899629000000001
#
# number of rings (size 3 to 8) (size 9 to 14) (size 15 to 20)
#    0.000    1.091    2.727    2.182    8.909    2.909 
#    6.545    0.000    0.000    0.000    0.000    0.000 
#    0.000    0.000    0.000    0.000    0.000    0.000 
#
# Total GULP energy -122734.262010 kJ/mol
# GULP energy per Si atom -5578.830091 kJ/mol
# Density = 2.085206 g / cm^3
# Si number density = 20.899629 Si / 1000 Ang^3
#
#
#
# Elastic Constant Matrix: (Units=GPa)
#
#
# Indices 1 2 3 4 5 6 
#
# 1 83.3206 45.0842 18.9528 0.0000 0.0000 0.0000
# 2 45.0842 158.5469 31.4373 0.0000 0.0000 0.0000
# 3 18.9528 31.4373 47.7291 0.0000 0.0000 0.0000
# 4 0.0000 0.0000 0.0000 42.2492 0.0000 0.0000
# 5 0.0000 0.0000 0.0000 0.0000 97.3487 0.0000
# 6 0.0000 0.0000 0.0000 0.0000 0.0000 42.3180
#
#
#
# Elastic Compliance Matrix: (Units=1/GPa)
#
#
# Indices 1 2 3 4 5 6 
#
# 1 0.014688 -0.003474 -0.003544 0.000000 0.000000 0.000000
# 2 -0.003474 0.008076 -0.003940 0.000000 0.000000 0.000000
# 3 -0.003544 -0.003940 0.024954 0.000000 0.000000 0.000000
# 4 0.000000 0.000000 0.000000 0.023669 0.000000 0.000000
# 5 0.000000 0.000000 0.000000 0.000000 0.010272 0.000000
# 6 0.000000 0.000000 0.000000 0.000000 0.000000 0.023631
#
#
# Mechanical properties :
#
#
# Convention : Reuss Voigt Hill
#
# Bulk Modulus (GPa) = 38.75704 53.39391 46.07548
# Shear Modulus (GPa) = 36.81681 49.32465 43.07073
#
# Velocity S-wave (km/s) = 4.20170 4.86333 4.54457
# Velocity P-wave (km/s) = 6.49027 7.55905 7.04496
#
# Compressibility (1/GPa) = 0.02580176
#
# Stress axis : x y z
#
# Youngs Moduli (GPa) = 68.08422 123.81813 40.07331
#
# Poissons Ratio (x) = 0.43012 0.14203
# Poissons Ratio (y) = 0.23651 0.15790
# Poissons Ratio (z) = 0.24131 0.48787
#
# Static dielectric constant tensor:
#      x y z
#    x 1.681710 0.000000 0.000000 
#    y 0.000000 1.659310 0.000000 
#    z 0.000000 0.000000 1.795650 
# 
# From -- ./inp_files/5406.got.cif
#   From: 2010.05.17/outbox.cif.g08.bks.cpg/sg30_3_cif.got.tgz:5406.got - 2010.06.03 17:03:02.
