data_PCOD9342294
_publ_section_title
;
Structure prediction by ZEFSAII (Michael W. Deem and Ramdas Pophale) SiO2 
 PCOD9342294
Probable space group: P N C 2
;
_chemical_formula_sum "Si O2"
_cell_formula_units_Z 24
_cell_length_a 5.393419
_cell_length_b 9.663525
_cell_length_c 20.405788
_cell_angle_alpha 90.000000
_cell_angle_beta 90.000000
_cell_angle_gamma 90.000000
_cell_volume 1063.538230
_symmetry_space_group_name_H-M "P N C 2"
_symmetry_group_IT_number 30
_symmetry_cell_setting 'orthorhombic'
loop_
_space_group_symop_operation_xyz
x,y,z
-x,-y,z
-x,1/2+y,1/2+z
x,1/2-y,1/2+z
loop_
_atom_site_type_symbol
_atom_site_label
_atom_site_fract_x
_atom_site_fract_y
_atom_site_fract_z
Si Si1 0.441843 0.147035 0.364940
Si Si2 0.000000 0.000000 0.872426
Si Si3 0.614016 0.370703 0.273340
Si Si4 0.959869 0.286708 0.937919
Si Si5 0.104928 0.639515 0.694949
Si Si6 0.894591 0.841840 0.061518
Si Si7 0.500000 0.000000 0.098698
O O1 0.424989 0.266721 0.310326
O O2 0.188304 0.129505 0.405928
O O3 0.686336 0.182030 0.409530
O O4 0.500000 0.000000 0.332123
O O5 0.227347 0.952845 0.827526
O O6 0.957317 0.867885 0.916993
O O7 0.500000 0.500000 0.233389
O O8 0.798502 0.264426 0.237923
O O9 0.984543 0.272911 0.016116
O O10 0.321803 0.580640 0.648588
O O11 0.000000 0.500000 0.729504
O O12 0.915201 0.691184 0.638938
O O13 0.607290 0.879065 0.052191
O O14 0.000000 0.000000 0.052671
#
# Coordination Sequence:
#
# PCOD9342294 Si02
#       7
#     4   2   4   4   4   4   2
#     4  11  26  43  65  97 132 180 217 277 351 408
#     4  10  22  38  60 100 120 166 210 284 342 380
#     4  11  23  40  65  93 133 168 230 278 345 409
#     4  11  22  40  70  95 134 163 230 275 337 405
#     4   9  21  38  59  95 127 177 221 274 341 411
#     4   9  19  35  62  94 126 170 220 277 334 394
#     4   8  18  34  60  92 120 164 228 266 322 402
#
# _framework density 22.566185999999998
#
# number of rings (size 3 to 8) (size 9 to 14) (size 15 to 20)
#    0.000    2.333    2.500    0.500    5.833    5.333 
#    0.000    0.833    7.333    0.000    0.000    0.000 
#    0.000    0.000    0.000    0.000    0.000    0.000 
#
# Total GULP energy -133626.965698 kJ/mol
# GULP energy per Si atom -5567.790237 kJ/mol
# Density = 2.251482 g / cm^3
# Si number density = 22.566186 Si / 1000 Ang^3
#
#
#
# Elastic Constant Matrix: (Units=GPa)
#
#
# Indices 1 2 3 4 5 6 
#
# 1 73.1440 9.7427 4.7501 0.0000 0.0000 0.0000
# 2 9.7427 126.2125 24.7538 0.0000 0.0000 0.0000
# 3 4.7501 24.7538 46.0223 0.0000 0.0000 0.0000
# 4 0.0000 0.0000 0.0000 -5.8331 0.0000 0.0000
# 5 0.0000 0.0000 0.0000 0.0000 13.5797 0.0000
# 6 0.0000 0.0000 0.0000 0.0000 0.0000 30.9827
#
#
#
# Elastic Compliance Matrix: (Units=1/GPa)
#
#
# Indices 1 2 3 4 5 6 
#
# 1 0.013851 -0.000882 -0.000955 0.000000 0.000000 0.000000
# 2 -0.000882 0.008914 -0.004703 0.000000 0.000000 0.000000
# 3 -0.000955 -0.004703 0.024357 0.000000 0.000000 0.000000
# 4 0.000000 0.000000 0.000000 -0.171436 0.000000 0.000000
# 5 0.000000 0.000000 0.000000 0.000000 0.073640 0.000000
# 6 0.000000 0.000000 0.000000 0.000000 0.000000 0.032276
#
#
# Mechanical properties :
#
#
# Convention : Reuss Voigt Hill
#
# Bulk Modulus (GPa) = 29.37649 35.98578 32.68113
# Shear Modulus (GPa) = 829.22021 21.48800 425.35410
#
# Velocity S-wave (km/s) = 19.19008 3.08916 13.74413
# Velocity P-wave (km/s) = 22.45124 5.35773 16.32121
#
# Compressibility (1/GPa) = 0.03404083
#
# Stress axis : x y z
#
# Youngs Moduli (GPa) = 72.19614 112.18711 41.05599
#
# Poissons Ratio (x) = 0.09893 0.03922
# Poissons Ratio (y) = 0.06367 0.19310
# Poissons Ratio (z) = 0.06897 0.52766
#
# Static dielectric constant tensor:
#      x y z
#    x 2.212750 0.000000 0.000000 
#    y 0.000000 1.858220 0.000000 
#    z 0.000000 0.000000 1.890200 
# 
# From -- ./inp_files/7204.got.cif
#   From: 2010.05.17/outbox.cif.g08.bks.cpg/sg30_4_cif.got.tgz:7204.got - 2010.06.03 17:03:02.
