data_PCOD9342595
_publ_section_title
;
Structure prediction by ZEFSAII (Michael W. Deem and Ramdas Pophale) SiO2 
 PCOD9342595
Probable space group: P N C 2
;
_chemical_formula_sum "Si O2"
_cell_formula_units_Z 24
_cell_length_a 5.771345
_cell_length_b 17.971984
_cell_length_c 10.404602
_cell_angle_alpha 90.000000
_cell_angle_beta 90.000000
_cell_angle_gamma 90.000000
_cell_volume 1079.191539
_symmetry_space_group_name_H-M "P N C 2"
_symmetry_group_IT_number 30
_symmetry_cell_setting 'orthorhombic'
loop_
_space_group_symop_operation_xyz
x,y,z
-x,-y,z
-x,1/2+y,1/2+z
x,1/2-y,1/2+z
loop_
_atom_site_type_symbol
_atom_site_label
_atom_site_fract_x
_atom_site_fract_y
_atom_site_fract_z
Si Si1 0.485671 0.088615 0.021690
Si Si2 0.842733 0.794923 0.447340
Si Si3 0.742483 0.540192 0.034139
Si Si4 0.581519 0.778929 0.186414
Si Si5 0.795905 0.193039 0.845390
Si Si6 0.137115 0.424307 0.303482
O O1 0.478854 0.136140 0.150775
O O2 0.500000 0.000000 0.039144
O O3 0.677941 0.129632 0.934411
O O4 0.257641 0.099045 0.934783
O O5 0.801965 0.882264 0.465719
O O6 0.758053 0.778228 0.303571
O O7 0.687903 0.755926 0.557058
O O8 0.093723 0.755249 0.440191
O O9 0.500000 0.500000 0.989357
O O10 0.695313 0.559689 0.184521
O O11 0.000000 0.500000 0.032062
O O12 0.370131 0.732816 0.244755
O O13 0.975401 0.143652 0.764301
O O14 0.000000 0.500000 0.326179
#
# Coordination Sequence:
#
# PCOD9342595 Si02
#       6
#     4   4   4   4   4   4
#     4  12  25  46  74 113 149 203 261 331 402 488
#     4  12  28  49  74 111 152 207 264 331 401 493
#     4  11  28  47  77 113 156 207 262 328 408 486
#     4  12  28  47  76 109 153 203 268 327 405 485
#     4  12  25  46  77 107 156 205 264 329 404 481
#     4  11  23  43  75 109 152 201 263 327 393 488
#
# _framework density 22.238866999999999
#
# number of rings (size 3 to 8) (size 9 to 14) (size 15 to 20)
#    0.000    0.333    5.000    2.500   14.000    0.667 
#    0.000    0.000    0.000    0.000    0.000    0.000 
#    0.000    0.000    0.000    0.000    0.000    0.000 
#
# Total GULP energy -134007.006011 kJ/mol
# GULP energy per Si atom -5583.625250 kJ/mol
# Density = 2.218825 g / cm^3
# Si number density = 22.238867 Si / 1000 Ang^3
#
#
#
# Elastic Constant Matrix: (Units=GPa)
#
#
# Indices 1 2 3 4 5 6 
#
# 1 69.5727 69.5445 18.0791 0.0000 0.0000 0.0000
# 2 69.5445 194.5422 61.1574 0.0000 0.0000 0.0000
# 3 18.0791 61.1574 70.8332 0.0000 0.0000 0.0000
# 4 0.0000 0.0000 0.0000 30.8811 0.0000 0.0000
# 5 0.0000 0.0000 0.0000 0.0000 12.7029 0.0000
# 6 0.0000 0.0000 0.0000 0.0000 0.0000 39.6984
#
#
#
# Elastic Compliance Matrix: (Units=1/GPa)
#
#
# Indices 1 2 3 4 5 6 
#
# 1 0.022505 -0.008564 0.001650 0.000000 0.000000 0.000000
# 2 -0.008564 0.010314 -0.006719 0.000000 0.000000 0.000000
# 3 0.001650 -0.006719 0.019498 0.000000 0.000000 0.000000
# 4 0.000000 0.000000 0.000000 0.032382 0.000000 0.000000
# 5 0.000000 0.000000 0.000000 0.000000 0.078722 0.000000
# 6 0.000000 0.000000 0.000000 0.000000 0.000000 0.025190
#
#
# Mechanical properties :
#
#
# Convention : Reuss Voigt Hill
#
# Bulk Modulus (GPa) = 39.91923 70.27890 55.09907
# Shear Modulus (GPa) = 22.29879 29.06763 25.68321
#
# Velocity S-wave (km/s) = 3.16997 3.61926 3.40204
# Velocity P-wave (km/s) = 5.60245 7.00969 6.34521
#
# Compressibility (1/GPa) = 0.02505058
#
# Stress axis : x y z
#
# Youngs Moduli (GPa) = 44.43476 96.95663 51.28733
#
# Poissons Ratio (x) = 0.83030 -0.08461
# Poissons Ratio (y) = 0.38052 0.34461
# Poissons Ratio (z) = -0.07331 0.65148
#
# Static dielectric constant tensor:
#      x y z
#    x 1.995000 0.000000 0.000000 
#    y 0.000000 1.942410 0.000000 
#    z 0.000000 0.000000 1.797650 
# 
# From -- ./inp_files/3157.got.cif
#   From: 2010.05.17/outbox.cif.g08.bks.cpg/sg30_2_cif.got.tgz:3157.got - 2010.06.03 17:03:02.
