data_PCOD9342025
_publ_section_title
;
Structure prediction by ZEFSAII (Michael W. Deem and Ramdas Pophale) SiO2 
 PCOD9342025
Probable space group: P N C 2
;
_chemical_formula_sum "Si O2"
_cell_formula_units_Z 30
_cell_length_a 14.867234
_cell_length_b 9.201377
_cell_length_c 9.219425
_cell_angle_alpha 90.000000
_cell_angle_beta 90.000000
_cell_angle_gamma 90.000000
_cell_volume 1261.208351
_symmetry_space_group_name_H-M "P N C 2"
_symmetry_group_IT_number 30
_symmetry_cell_setting 'orthorhombic'
loop_
_space_group_symop_operation_xyz
x,y,z
-x,-y,z
-x,1/2+y,1/2+z
x,1/2-y,1/2+z
loop_
_atom_site_type_symbol
_atom_site_label
_atom_site_fract_x
_atom_site_fract_y
_atom_site_fract_z
Si Si1 0.349280 0.667968 0.525290
Si Si2 0.893972 0.968780 0.801609
Si Si3 0.068084 0.258335 0.554817
Si Si4 0.529046 0.757438 0.634107
Si Si5 0.070252 0.699610 0.804106
Si Si6 0.500000 0.500000 0.342737
Si Si7 0.256547 0.601657 0.818112
Si Si8 0.587829 0.909366 0.385921
O O1 0.421810 0.760719 0.618453
O O2 0.422135 0.572156 0.439047
O O3 0.284337 0.606551 0.648761
O O4 0.294597 0.761005 0.408832
O O5 0.880879 0.861297 0.660077
O O6 0.872488 0.143555 0.791026
O O7 0.000000 0.000000 0.806300
O O8 0.876943 0.875394 0.951932
O O9 0.994005 0.324725 0.666228
O O10 0.999247 0.191441 0.436853
O O11 0.579382 0.769556 0.484405
O O12 0.563967 0.621155 0.721090
O O13 0.551349 0.892513 0.734195
O O14 0.150392 0.586840 0.826257
O O15 0.315134 0.476347 0.892546
O O16 0.500000 0.000000 0.437108
#
# Coordination Sequence:
#
# PCOD9342025 Si02
#       8
#     4   4   4   4   4   2   4   4
#     4  12  21  36  58  88 112 166 206 266 315 355
#     4   8  16  32  60  97 127 158 211 256 293 386
#     4   8  15  34  61  93 124 161 202 254 305 372
#     4  12  21  36  58  89 117 158 227 272 301 352
#     4  10  20  36  57 100 130 160 206 259 319 376
#     4  12  20  34  60  86 112 154 230 264 296 362
#     4  12  24  37  57  92 131 162 205 273 323 373
#     4  12  22  37  59  89 124 162 229 261 313 380
#
# _framework density 23.786711
#
# number of rings (size 3 to 8) (size 9 to 14) (size 15 to 20)
#    0.000    1.600    6.000    1.600    0.000    0.000 
#    0.000   24.000    0.000    0.000   31.200    7.467 
#    0.000    0.000    0.000    0.000    0.000    0.000 
#
# Total GULP energy -167010.195446 kJ/mol
# GULP energy per Si atom -5567.006515 kJ/mol
# Density = 2.373257 g / cm^3
# Si number density = 23.786711 Si / 1000 Ang^3
#
#
#
# Elastic Constant Matrix: (Units=GPa)
#
#
# Indices 1 2 3 4 5 6 
#
# 1 50.6942 -5.1485 14.2014 0.0000 0.0000 0.0000
# 2 -5.1485 54.1331 14.5055 0.0000 0.0000 0.0000
# 3 14.2014 14.5055 126.7595 0.0000 0.0000 0.0000
# 4 0.0000 0.0000 0.0000 30.5577 0.0000 0.0000
# 5 0.0000 0.0000 0.0000 0.0000 6.4344 0.0000
# 6 0.0000 0.0000 0.0000 0.0000 0.0000 18.0464
#
#
#
# Elastic Compliance Matrix: (Units=1/GPa)
#
#
# Indices 1 2 3 4 5 6 
#
# 1 0.020735 0.002677 -0.002629 0.000000 0.000000 0.000000
# 2 0.002677 0.019403 -0.002520 0.000000 0.000000 0.000000
# 3 -0.002629 -0.002520 0.008472 0.000000 0.000000 0.000000
# 4 0.000000 0.000000 0.000000 0.032725 0.000000 0.000000
# 5 0.000000 0.000000 0.000000 0.000000 0.155414 0.000000
# 6 0.000000 0.000000 0.000000 0.000000 0.000000 0.055413
#
#
# Mechanical properties :
#
#
# Convention : Reuss Voigt Hill
#
# Bulk Modulus (GPa) = 22.90242 30.96705 26.93474
# Shear Modulus (GPa) = 16.04304 24.87626 20.45965
#
# Velocity S-wave (km/s) = 2.59984 3.23740 2.93598
# Velocity P-wave (km/s) = 4.31988 5.19820 4.77926
#
# Compressibility (1/GPa) = 0.04366351
#
# Stress axis : x y z
#
# Youngs Moduli (GPa) = 48.22875 51.53878 118.03703
#
# Poissons Ratio (x) = -0.13795 0.31035
# Poissons Ratio (y) = -0.12909 0.29748
# Poissons Ratio (z) = 0.12681 0.12989
#
# Static dielectric constant tensor:
#      x y z
#    x 1.857570 0.000000 0.000000 
#    y 0.000000 2.161030 0.000000 
#    z 0.000000 0.000000 1.941650 
# 
# From -- ./inp_files/2671.got.cif
#   From: 2010.05.17/outbox.cif.g08.bks.cpg/sg30_2_cif.got.tgz:2671.got - 2010.06.03 17:03:02.
