data_PCOD9342531
_publ_section_title
;
Structure prediction by ZEFSAII (Michael W. Deem and Ramdas Pophale) SiO2 
 PCOD9342531
Probable space group: P N C 2
;
_chemical_formula_sum "Si O2"
_cell_formula_units_Z 30
_cell_length_a 21.155512
_cell_length_b 5.082868
_cell_length_c 10.263804
_cell_angle_alpha 90.000000
_cell_angle_beta 90.000000
_cell_angle_gamma 90.000000
_cell_volume 1103.673772
_symmetry_space_group_name_H-M "P N C 2"
_symmetry_group_IT_number 30
_symmetry_cell_setting 'orthorhombic'
loop_
_space_group_symop_operation_xyz
x,y,z
-x,-y,z
-x,1/2+y,1/2+z
x,1/2-y,1/2+z
loop_
_atom_site_type_symbol
_atom_site_label
_atom_site_fract_x
_atom_site_fract_y
_atom_site_fract_z
Si Si1 0.595631 0.055468 0.126310
Si Si2 0.124325 0.356967 0.114702
Si Si3 0.285097 0.523761 0.745757
Si Si4 0.822843 0.137119 0.838391
Si Si5 0.250994 0.256717 0.998113
Si Si6 0.500000 0.500000 0.061343
Si Si7 0.433138 0.340511 0.362421
Si Si8 0.063700 0.657984 0.509501
O O1 0.655511 0.190723 0.196493
O O2 0.585804 0.798425 0.224461
O O3 0.607670 0.006143 0.970833
O O4 0.463992 0.747292 0.128052
O O5 0.184786 0.408440 0.021445
O O6 0.099680 0.067752 0.089557
O O7 0.069428 0.571501 0.090122
O O8 0.154380 0.386151 0.255434
O O9 0.218882 0.676022 0.748586
O O10 0.281612 0.296918 0.636563
O O11 0.226616 0.976633 0.942807
O O12 0.890829 0.228343 0.889328
O O13 0.291250 0.400920 0.888744
O O14 0.551986 0.603821 0.960460
O O15 0.500000 0.500000 0.351259
O O16 0.000000 0.500000 0.472942
#
# Coordination Sequence:
#
# PCOD9342531 Si02
#       8
#     4   4   4   4   4   2   4   4
#     4  11  26  49  78 117 156 204 267 330 403 486
#     4  11  23  45  70 104 151 205 256 324 399 469
#     4  12  25  45  78 115 157 205 262 327 399 491
#     4  11  24  44  73 103 156 205 254 321 400 471
#     4  11  24  44  73 113 153 205 256 322 399 476
#     4  10  26  46  76 108 156 204 254 334 404 466
#     4  10  25  48  79 108 153 205 259 321 402 477
#     4  11  25  43  71 111 152 205 272 333 398 477
#
# _framework density 27.181944999999999
#
# number of rings (size 3 to 8) (size 9 to 14) (size 15 to 20)
#    0.000    1.067    2.667    2.800    3.733    4.267 
#    0.000    0.000    0.000    1.600    0.000    0.000 
#    0.000    0.000    0.000    0.000    0.000    0.000 
#
# Total GULP energy -167549.378990 kJ/mol
# GULP energy per Si atom -5584.979300 kJ/mol
# Density = 2.712008 g / cm^3
# Si number density = 27.181945 Si / 1000 Ang^3
#
#
#
# Elastic Constant Matrix: (Units=GPa)
#
#
# Indices 1 2 3 4 5 6 
#
# 1 136.5902 33.9313 50.3134 0.0000 0.0000 0.0000
# 2 33.9313 109.9537 29.6906 0.0000 0.0000 0.0000
# 3 50.3134 29.6906 146.6121 0.0000 0.0000 0.0000
# 4 0.0000 0.0000 0.0000 42.6261 0.0000 0.0000
# 5 0.0000 0.0000 0.0000 0.0000 26.3828 0.0000
# 6 0.0000 0.0000 0.0000 0.0000 0.0000 38.8466
#
#
#
# Elastic Compliance Matrix: (Units=1/GPa)
#
#
# Indices 1 2 3 4 5 6 
#
# 1 0.008780 -0.002005 -0.002607 0.000000 0.000000 0.000000
# 2 -0.002005 0.010079 -0.001353 0.000000 0.000000 0.000000
# 3 -0.002607 -0.001353 0.007989 0.000000 0.000000 0.000000
# 4 0.000000 0.000000 0.000000 0.023460 0.000000 0.000000
# 5 0.000000 0.000000 0.000000 0.000000 0.037904 0.000000
# 6 0.000000 0.000000 0.000000 0.000000 0.000000 0.025742
#
#
# Mechanical properties :
#
#
# Convention : Reuss Voigt Hill
#
# Bulk Modulus (GPa) = 67.03515 69.00296 68.01906
# Shear Modulus (GPa) = 38.20990 40.18580 39.19785
#
# Velocity S-wave (km/s) = 3.75335 3.84917 3.80156
# Velocity P-wave (km/s) = 6.59535 6.72276 6.65936
#
# Compressibility (1/GPa) = 0.01491755
#
# Stress axis : x y z
#
# Youngs Moduli (GPa) = 113.90074 99.21690 125.16778
#
# Poissons Ratio (x) = 0.19897 0.32629
# Poissons Ratio (y) = 0.22842 0.16934
# Poissons Ratio (z) = 0.29692 0.13423
#
# Static dielectric constant tensor:
#      x y z
#    x 2.253270 0.000000 0.000000 
#    y 0.000000 2.219550 0.000000 
#    z 0.000000 0.000000 2.169410 
# 
# From -- ./inp_files/5684.got.cif
#   From: 2010.05.17/outbox.cif.g08.bks.cpg/sg30_3_cif.got.tgz:5684.got - 2010.06.03 17:03:02.
