data_PCOD9342526
_publ_section_title
;
Structure prediction by ZEFSAII (Michael W. Deem and Ramdas Pophale) SiO2 
 PCOD9342526
Probable space group: P N C 2
;
_chemical_formula_sum "Si O2"
_cell_formula_units_Z 12
_cell_length_a 5.029191
_cell_length_b 5.640004
_cell_length_c 17.623611
_cell_angle_alpha 90.000000
_cell_angle_beta 90.000000
_cell_angle_gamma 90.000000
_cell_volume 499.887687
_symmetry_space_group_name_H-M "P N C 2"
_symmetry_group_IT_number 30
_symmetry_cell_setting 'orthorhombic'
loop_
_space_group_symop_operation_xyz
x,y,z
-x,-y,z
-x,1/2+y,1/2+z
x,1/2-y,1/2+z
loop_
_atom_site_type_symbol
_atom_site_label
_atom_site_fract_x
_atom_site_fract_y
_atom_site_fract_z
Si Si1 0.755189 0.672959 0.513100
Si Si2 0.000000 0.500000 0.131729
Si Si3 0.000000 0.000000 0.384304
Si Si4 0.239168 0.843285 0.777046
O O1 0.500000 0.500000 0.507255
O O2 0.000000 0.500000 0.526816
O O3 0.782983 0.864036 0.581059
O O4 0.834063 0.824495 0.438922
O O5 0.149653 0.680737 0.189284
O O6 0.783187 0.114157 0.327915
O O7 0.500000 0.000000 0.780810
O O8 0.000000 0.000000 0.810528
#
# Coordination Sequence:
#
# PCOD9342526 Si02
#       4
#     4   2   2   4
#     4  11  27  46  74 105 150 195 248 303 369 444
#     4   9  26  44  76 107 146 192 252 303 372 432
#     4  11  26  48  72 109 152 198 246 313 374 442
#     4  10  25  43  73 109 145 190 247 303 373 434
#
# _framework density 24.005393999999999
#
# number of rings (size 3 to 8) (size 9 to 14) (size 15 to 20)
#    1.000    0.667    0.000    1.000    7.000   13.333 
#    0.000    0.000    0.000    0.000    0.000    0.000 
#    0.000    0.000    0.000    0.000    0.000    0.000 
#
# Total GULP energy -67014.002983 kJ/mol
# GULP energy per Si atom -5584.500249 kJ/mol
# Density = 2.395076 g / cm^3
# Si number density = 24.005394 Si / 1000 Ang^3
#
#
#
# Elastic Constant Matrix: (Units=GPa)
#
#
# Indices 1 2 3 4 5 6 
#
# 1 187.6387 58.8593 59.0058 0.0000 0.0000 0.0000
# 2 58.8593 100.0128 93.0449 0.0000 0.0000 0.0000
# 3 59.0058 93.0449 206.5478 0.0000 0.0000 0.0000
# 4 0.0000 0.0000 0.0000 -4.1921 0.0000 0.0000
# 5 0.0000 0.0000 0.0000 0.0000 -2.5207 0.0000
# 6 0.0000 0.0000 0.0000 0.0000 0.0000 57.6515
#
#
#
# Elastic Compliance Matrix: (Units=1/GPa)
#
#
# Indices 1 2 3 4 5 6 
#
# 1 0.006542 -0.003635 -0.000232 0.000000 0.000000 0.000000
# 2 -0.003635 0.019232 -0.007625 0.000000 0.000000 0.000000
# 3 -0.000232 -0.007625 0.008343 0.000000 0.000000 0.000000
# 4 0.000000 0.000000 0.000000 -0.238546 0.000000 0.000000
# 5 0.000000 0.000000 0.000000 0.000000 -0.396721 0.000000
# 6 0.000000 0.000000 0.000000 0.000000 0.000000 0.017346
#
#
# Mechanical properties :
#
#
# Convention : Reuss Voigt Hill
#
# Bulk Modulus (GPa) = 89.81753 101.77994 95.79874
# Shear Modulus (GPa) = -8.97488 29.07371 10.04942
#
# Velocity S-wave (km/s) = -1.93567 3.48391 2.04827
# Velocity P-wave (km/s) = 5.70097 7.65992 6.75186
#
# Compressibility (1/GPa) = 0.01113368
#
# Stress axis : x y z
#
# Youngs Moduli (GPa) = 152.84868 51.99748 119.86743
#
# Poissons Ratio (x) = 0.18900 0.02776
# Poissons Ratio (y) = 0.55559 0.91399
# Poissons Ratio (z) = 0.03540 0.39648
#
# Static dielectric constant tensor:
#      x y z
#    x 1.876300 0.000000 0.000000 
#    y 0.000000 1.645380 0.000000 
#    z 0.000000 0.000000 1.936540 
# 
# From -- ./inp_files/5732.got.cif
#   From: 2010.05.17/outbox.cif.g08.bks.cpg/sg30_3_cif.got.tgz:5732.got - 2010.06.03 17:03:02.
