data_PCOD9342663
_publ_section_title
;
Structure prediction by ZEFSAII (Michael W. Deem and Ramdas Pophale) SiO2 
 PCOD9342663
Probable space group: P N C 2
;
_chemical_formula_sum "Si O2"
_cell_formula_units_Z 16
_cell_length_a 4.845666
_cell_length_b 13.054950
_cell_length_c 10.835125
_cell_angle_alpha 90.000000
_cell_angle_beta 90.000000
_cell_angle_gamma 90.000000
_cell_volume 685.429220
_symmetry_space_group_name_H-M "P N C 2"
_symmetry_group_IT_number 30
_symmetry_cell_setting 'orthorhombic'
loop_
_space_group_symop_operation_xyz
x,y,z
-x,-y,z
-x,1/2+y,1/2+z
x,1/2-y,1/2+z
loop_
_atom_site_type_symbol
_atom_site_label
_atom_site_fract_x
_atom_site_fract_y
_atom_site_fract_z
Si Si1 0.500000 0.500000 0.069790
Si Si2 0.085163 0.172825 0.955461
Si Si3 0.000000 0.000000 0.753171
Si Si4 0.765253 0.431373 0.681944
Si Si5 0.594713 0.194119 0.407676
O O1 0.749277 0.485434 0.162165
O O2 0.517550 0.598360 0.983162
O O3 0.902051 0.274462 0.944875
O O4 0.032944 0.097720 0.841130
O O5 0.400063 0.209850 0.942290
O O6 0.957336 0.115890 0.074404
O O7 0.500000 0.500000 0.640868
O O8 0.628462 0.343303 0.766532
O O9 0.000000 0.500000 0.752874
#
# Coordination Sequence:
#
# PCOD9342663 Si02
#       5
#     2   4   2   4   4
#     4  12  28  50  72 108 158 196 248 316 384 454
#     4  12  28  48  77 111 149 201 257 311 384 453
#     4  12  28  50  72 108 158 196 248 316 384 454
#     4  12  26  50  80 108 156 204 260 322 374 452
#     4  12  28  48  77 111 149 201 257 311 384 453
#
# _framework density 23.343036000000001
#
# number of rings (size 3 to 8) (size 9 to 14) (size 15 to 20)
#    0.000    0.000    2.500    6.000   14.000    0.000 
#    0.000    0.000    0.000    0.000    0.000    0.000 
#    0.000    0.000    0.000    0.000    0.000    0.000 
#
# Total GULP energy -89517.725094 kJ/mol
# GULP energy per Si atom -5594.857818 kJ/mol
# Density = 2.328991 g / cm^3
# Si number density = 23.343036 Si / 1000 Ang^3
#
#
#
# Elastic Constant Matrix: (Units=GPa)
#
#
# Indices 1 2 3 4 5 6 
#
# 1 130.8428 11.4509 31.0197 0.0000 0.0000 0.0000
# 2 11.4509 77.4535 23.6594 0.0000 0.0000 0.0000
# 3 31.0197 23.6594 107.6494 0.0000 0.0000 0.0000
# 4 0.0000 0.0000 0.0000 61.3432 0.0000 0.0000
# 5 0.0000 0.0000 0.0000 0.0000 46.2362 0.0000
# 6 0.0000 0.0000 0.0000 0.0000 0.0000 92.5644
#
#
#
# Elastic Compliance Matrix: (Units=1/GPa)
#
#
# Indices 1 2 3 4 5 6 
#
# 1 0.008223 -0.000527 -0.002254 0.000000 0.000000 0.000000
# 2 -0.000527 0.013874 -0.002897 0.000000 0.000000 0.000000
# 3 -0.002254 -0.002897 0.010576 0.000000 0.000000 0.000000
# 4 0.000000 0.000000 0.000000 0.016302 0.000000 0.000000
# 5 0.000000 0.000000 0.000000 0.000000 0.021628 0.000000
# 6 0.000000 0.000000 0.000000 0.000000 0.000000 0.010803
#
#
# Mechanical properties :
#
#
# Convention : Reuss Voigt Hill
#
# Bulk Modulus (GPa) = 46.91267 49.80063 48.35665
# Shear Modulus (GPa) = 50.06619 56.68313 53.37466
#
# Velocity S-wave (km/s) = 4.63622 4.93309 4.78696
# Velocity P-wave (km/s) = 6.98571 7.33674 7.16338
#
# Compressibility (1/GPa) = 0.02131620
#
# Stress axis : x y z
#
# Youngs Moduli (GPa) = 121.60716 72.07746 94.55739
#
# Poissons Ratio (x) = 0.03801 0.21310
# Poissons Ratio (y) = 0.06413 0.27396
# Poissons Ratio (z) = 0.27406 0.20883
#
# Static dielectric constant tensor:
#      x y z
#    x 1.820260 0.000000 0.000000 
#    y 0.000000 1.904370 0.000000 
#    z 0.000000 0.000000 1.872910 
# 
# From -- ./inp_files/2970.got.cif
#   From: 2010.05.17/outbox.cif.g08.bks.cpg/sg30_2_cif.got.tgz:2970.got - 2010.06.03 17:03:02.
