data_PCOD9342347
_publ_section_title
;
Structure prediction by ZEFSAII (Michael W. Deem and Ramdas Pophale) SiO2 
 PCOD9342347
Probable space group: P N C 2
;
_chemical_formula_sum "Si O2"
_cell_formula_units_Z 30
_cell_length_a 5.233761
_cell_length_b 11.905781
_cell_length_c 22.260971
_cell_angle_alpha 90.000000
_cell_angle_beta 90.000000
_cell_angle_gamma 90.000000
_cell_volume 1387.125898
_symmetry_space_group_name_H-M "P N C 2"
_symmetry_group_IT_number 30
_symmetry_cell_setting 'orthorhombic'
loop_
_space_group_symop_operation_xyz
x,y,z
-x,-y,z
-x,1/2+y,1/2+z
x,1/2-y,1/2+z
loop_
_atom_site_type_symbol
_atom_site_label
_atom_site_fract_x
_atom_site_fract_y
_atom_site_fract_z
Si Si1 0.066765 0.372838 0.893840
Si Si2 0.623072 0.374076 0.689179
Si Si3 0.868535 0.765231 0.129027
Si Si4 0.379119 0.229721 0.297431
Si Si5 0.000000 0.000000 0.926652
Si Si6 0.653970 0.180667 0.904674
Si Si7 0.261471 0.290450 0.491401
Si Si8 0.764988 0.927254 0.709483
O O1 0.205744 0.364429 0.829037
O O2 0.000000 0.500000 0.905894
O O3 0.827884 0.288628 0.892636
O O4 0.219359 0.320028 0.950374
O O5 0.500000 0.500000 0.689238
O O6 0.405264 0.309597 0.651955
O O7 0.602230 0.327201 0.757592
O O8 0.897291 0.338768 0.659072
O O9 0.843299 0.774391 0.057572
O O10 0.868209 0.634675 0.149021
O O11 0.436906 0.303567 0.355991
O O12 0.260811 0.319972 0.252753
O O13 0.789748 0.065048 0.889653
O O14 0.117660 0.100606 0.965256
O O15 0.554570 0.180479 0.973429
O O16 0.500000 0.000000 0.704596
O O17 0.000000 0.000000 0.732290
#
# Coordination Sequence:
#
# PCOD9342347 Si02
#       8
#     4   4   4   4   2   4   4   4
#     4  10  24  43  68 101 137 189 235 296 363 439
#     4  11  26  43  72 105 139 190 236 298 369 433
#     4  11  26  47  68 104 140 182 249 293 361 443
#     4  10  25  42  65 102 137 179 235 297 350 446
#     4  10  22  42  66 100 130 178 232 284 360 420
#     4  10  23  43  66 100 139 180 236 290 370 425
#     4  10  24  43  67  99 139 181 235 303 353 437
#     4  11  25  46  69 100 137 184 232 294 360 427
#
# _framework density 21.627452999999999
#
# number of rings (size 3 to 8) (size 9 to 14) (size 15 to 20)
#    0.000    1.600    0.000    2.400   13.067    5.333 
#    7.200    0.000    0.000    0.000    0.000    0.000 
#    0.000    0.000    0.000    0.000    0.000    0.000 
#
# Total GULP energy -167072.145990 kJ/mol
# GULP energy per Si atom -5569.071533 kJ/mol
# Density = 2.157823 g / cm^3
# Si number density = 21.627453 Si / 1000 Ang^3
#
#
#
# Elastic Constant Matrix: (Units=GPa)
#
#
# Indices 1 2 3 4 5 6 
#
# 1 87.9206 13.1698 26.8391 0.0000 0.0000 0.0000
# 2 13.1698 111.5189 22.7114 0.0000 0.0000 0.0000
# 3 26.8391 22.7114 106.3190 0.0000 0.0000 0.0000
# 4 0.0000 0.0000 0.0000 1.5886 0.0000 0.0000
# 5 0.0000 0.0000 0.0000 0.0000 77.8738 0.0000
# 6 0.0000 0.0000 0.0000 0.0000 0.0000 25.2998
#
#
#
# Elastic Compliance Matrix: (Units=1/GPa)
#
#
# Indices 1 2 3 4 5 6 
#
# 1 0.012403 -0.000865 -0.002946 0.000000 0.000000 0.000000
# 2 -0.000865 0.009435 -0.001797 0.000000 0.000000 0.000000
# 3 -0.002946 -0.001797 0.010533 0.000000 0.000000 0.000000
# 4 0.000000 0.000000 0.000000 0.629503 0.000000 0.000000
# 5 0.000000 0.000000 0.000000 0.000000 0.012841 0.000000
# 6 0.000000 0.000000 0.000000 0.000000 0.000000 0.039526
#
#
# Mechanical properties :
#
#
# Convention : Reuss Voigt Hill
#
# Bulk Modulus (GPa) = 47.27010 47.91101 47.59056
# Shear Modulus (GPa) = 6.82585 37.15499 21.99042
#
# Velocity S-wave (km/s) = 1.77847 4.14932 3.19216
# Velocity P-wave (km/s) = 5.11090 6.71988 5.96984
#
# Compressibility (1/GPa) = 0.02115502
#
# Stress axis : x y z
#
# Youngs Moduli (GPa) = 80.62693 105.98588 94.93683
#
# Poissons Ratio (x) = 0.09164 0.27971
# Poissons Ratio (y) = 0.06972 0.17062
# Poissons Ratio (z) = 0.23755 0.19048
#
# Static dielectric constant tensor:
#      x y z
#    x -0.713390 0.000000 0.000000 
#    y 0.000000 1.803750 0.000000 
#    z 0.000000 0.000000 1.854490 
# 
# From -- ./inp_files/6856.got.cif
#   From: 2010.05.17/outbox.cif.g08.bks.cpg/sg30_4_cif.got.tgz:6856.got - 2010.06.03 17:03:02.
