data_PCOD9342428
_publ_section_title
;
Structure prediction by ZEFSAII (Michael W. Deem and Ramdas Pophale) SiO2 
 PCOD9342428
Probable space group: P N C 2
;
_chemical_formula_sum "Si O2"
_cell_formula_units_Z 28
_cell_length_a 5.125013
_cell_length_b 26.228032
_cell_length_c 8.632923
_cell_angle_alpha 90.000000
_cell_angle_beta 90.000000
_cell_angle_gamma 90.000000
_cell_volume 1160.428920
_symmetry_space_group_name_H-M "P N C 2"
_symmetry_group_IT_number 30
_symmetry_cell_setting 'orthorhombic'
loop_
_space_group_symop_operation_xyz
x,y,z
-x,-y,z
-x,1/2+y,1/2+z
x,1/2-y,1/2+z
loop_
_atom_site_type_symbol
_atom_site_label
_atom_site_fract_x
_atom_site_fract_y
_atom_site_fract_z
Si Si1 0.650960 0.137331 0.605320
Si Si2 0.000000 0.000000 0.923543
Si Si3 0.857926 0.610604 0.301637
Si Si4 0.529519 0.897513 0.286553
Si Si5 0.156725 0.200946 0.301689
Si Si6 0.500000 0.000000 0.131206
Si Si7 0.461676 0.250837 0.036076
Si Si8 0.194157 0.833691 0.052388
O O1 0.932960 0.129621 0.676842
O O2 0.624136 0.104607 0.448124
O O3 0.606440 0.195642 0.553483
O O4 0.428397 0.121469 0.731505
O O5 0.907536 0.949426 0.831985
O O6 0.252565 0.985159 0.025652
O O7 0.955845 0.641202 0.456390
O O8 0.764853 0.858196 0.318412
O O9 0.600372 0.953893 0.237036
O O10 0.369473 0.875807 0.138525
O O11 0.188725 0.233350 0.454775
O O12 0.378168 0.227043 0.197760
O O13 0.907192 0.199968 0.196364
O O14 0.628041 0.205813 0.956379
#
# Coordination Sequence:
#
# PCOD9342428 Si02
#       8
#     4   2   4   4   4   2   4   4
#     4  11  28  46  70 107 152 186 234 307 369 436
#     4  12  26  46  78 108 140 188 250 302 366 436
#     4  12  27  47  74 106 148 189 245 300 372 432
#     4  10  25  45  69 106 139 184 243 297 364 430
#     4  10  23  40  68  94 142 177 242 292 350 429
#     4  12  24  46  78 106 136 190 242 302 360 434
#     4  10  24  42  64 105 136 192 237 294 364 433
#     4  11  24  44  74 100 140 195 246 292 358 445
#
# _framework density 24.129010999999998
#
# number of rings (size 3 to 8) (size 9 to 14) (size 15 to 20)
#    0.000    1.143    1.429    2.571   12.000    3.429 
#    0.000    0.000    0.000    0.000    0.000    0.000 
#    0.000    0.000    0.000    0.000    0.000    0.000 
#
# Total GULP energy -156656.600994 kJ/mol
# GULP energy per Si atom -5594.878607 kJ/mol
# Density = 2.407409 g / cm^3
# Si number density = 24.129011 Si / 1000 Ang^3
#
#
#
# Elastic Constant Matrix: (Units=GPa)
#
#
# Indices 1 2 3 4 5 6 
#
# 1 79.4711 10.1352 10.6891 0.0000 0.0000 0.0000
# 2 10.1352 129.5972 29.8786 0.0000 0.0000 0.0000
# 3 10.6891 29.8786 75.9819 0.0000 0.0000 0.0000
# 4 0.0000 0.0000 0.0000 12.4638 0.0000 0.0000
# 5 0.0000 0.0000 0.0000 0.0000 42.9530 0.0000
# 6 0.0000 0.0000 0.0000 0.0000 0.0000 21.7544
#
#
#
# Elastic Compliance Matrix: (Units=1/GPa)
#
#
# Indices 1 2 3 4 5 6 
#
# 1 0.012875 -0.000648 -0.001556 0.000000 0.000000 0.000000
# 2 -0.000648 0.008518 -0.003258 0.000000 0.000000 0.000000
# 3 -0.001556 -0.003258 0.014661 0.000000 0.000000 0.000000
# 4 0.000000 0.000000 0.000000 0.080232 0.000000 0.000000
# 5 0.000000 0.000000 0.000000 0.000000 0.023281 0.000000
# 6 0.000000 0.000000 0.000000 0.000000 0.000000 0.045968
#
#
# Mechanical properties :
#
#
# Convention : Reuss Voigt Hill
#
# Bulk Modulus (GPa) = 39.79509 42.93957 41.36733
# Shear Modulus (GPa) = 24.40953 31.05739 27.73346
#
# Velocity S-wave (km/s) = 3.18406 3.59156 3.39393
# Velocity P-wave (km/s) = 5.48143 5.91892 5.70437
#
# Compressibility (1/GPa) = 0.02512873
#
# Stress axis : x y z
#
# Youngs Moduli (GPa) = 77.66881 117.39666 68.20667
#
# Poissons Ratio (x) = 0.07608 0.10616
# Poissons Ratio (y) = 0.05034 0.22225
# Poissons Ratio (z) = 0.12089 0.38253
#
# Static dielectric constant tensor:
#      x y z
#    x 1.926920 0.000000 0.000000 
#    y 0.000000 1.910270 0.000000 
#    z 0.000000 0.000000 1.973730 
# 
# From -- ./inp_files/1459.got.cif
#   From: 2010.05.17/outbox.cif.g08.bks.cpg/sg30_1_cif.got.tgz:1459.got - 2010.06.03 17:03:02.
