data_PCOD9342610
_publ_section_title
;
Structure prediction by ZEFSAII (Michael W. Deem and Ramdas Pophale) SiO2 
 PCOD9342610
Probable space group: P N C 2
;
_chemical_formula_sum "Si O2"
_cell_formula_units_Z 20
_cell_length_a 4.914863
_cell_length_b 5.576842
_cell_length_c 29.375965
_cell_angle_alpha 90.000000
_cell_angle_beta 90.000000
_cell_angle_gamma 90.000000
_cell_volume 805.177998
_symmetry_space_group_name_H-M "P N C 2"
_symmetry_group_IT_number 30
_symmetry_cell_setting 'orthorhombic'
loop_
_space_group_symop_operation_xyz
x,y,z
-x,-y,z
-x,1/2+y,1/2+z
x,1/2-y,1/2+z
loop_
_atom_site_type_symbol
_atom_site_label
_atom_site_fract_x
_atom_site_fract_y
_atom_site_fract_z
Si Si1 0.171001 0.751346 0.519870
Si Si2 0.500000 0.500000 0.848003
Si Si3 0.260560 0.660677 0.215717
Si Si4 0.737349 0.167174 0.919719
Si Si5 0.000000 0.000000 0.289554
Si Si6 0.826877 0.251530 0.617746
O O1 0.322137 0.747822 0.471573
O O2 0.323292 0.748632 0.568601
O O3 0.000000 0.500000 0.519926
O O4 0.000000 0.000000 0.518320
O O5 0.709215 0.372806 0.883115
O O6 0.742333 0.617576 0.816929
O O7 0.500000 0.500000 0.233421
O O8 0.166406 0.834968 0.254838
O O9 0.337397 0.754295 0.165109
O O10 0.000000 0.500000 0.206751
O O11 0.500000 0.000000 0.903547
O O12 0.000000 0.000000 0.919638
O O13 0.000000 0.500000 0.619280
O O14 0.000000 0.000000 0.615874
#
# Coordination Sequence:
#
# PCOD9342610 Si02
#       6
#     4   2   4   4   2   4
#     4   9  20  39  72 106 153 199 246 304 378 458
#     4  12  28  46  78 106 144 198 260 322 396 460
#     4  11  24  45  73 104 147 193 246 316 382 457
#     4  11  26  47  73 107 150 194 247 316 379 457
#     4  12  26  48  74 106 144 196 258 328 394 458
#     4   9  18  40  68 111 150 196 248 304 375 462
#
# _framework density 24.839229
#
# number of rings (size 3 to 8) (size 9 to 14) (size 15 to 20)
#    0.000    1.600    1.000    2.400    7.000    3.200 
#    1.800    6.000    0.000    0.000    0.000    0.000 
#    0.000    0.000    0.000    0.000    0.000    0.000 
#
# Total GULP energy -111447.172520 kJ/mol
# GULP energy per Si atom -5572.358626 kJ/mol
# Density = 2.478269 g / cm^3
# Si number density = 24.839229 Si / 1000 Ang^3
#
#
#
# Elastic Constant Matrix: (Units=GPa)
#
#
# Indices 1 2 3 4 5 6 
#
# 1 97.9379 28.4880 35.6291 0.0000 0.0000 0.0000
# 2 28.4880 123.3327 40.5973 0.0000 0.0000 0.0000
# 3 35.6291 40.5973 183.8629 0.0000 0.0000 0.0000
# 4 0.0000 0.0000 0.0000 572.8257 0.0000 0.0000
# 5 0.0000 0.0000 0.0000 0.0000 -69.7793 0.0000
# 6 0.0000 0.0000 0.0000 0.0000 0.0000 46.9094
#
#
#
# Elastic Compliance Matrix: (Units=1/GPa)
#
#
# Indices 1 2 3 4 5 6 
#
# 1 0.011453 -0.002065 -0.001763 0.000000 0.000000 0.000000
# 2 -0.002065 0.009116 -0.001613 0.000000 0.000000 0.000000
# 3 -0.001763 -0.001613 0.006137 0.000000 0.000000 0.000000
# 4 0.000000 0.000000 0.000000 0.001746 0.000000 0.000000
# 5 0.000000 0.000000 0.000000 0.000000 -0.014331 0.000000
# 6 0.000000 0.000000 0.000000 0.000000 0.000000 0.021318
#
#
# Mechanical properties :
#
#
# Convention : Reuss Voigt Hill
#
# Bulk Modulus (GPa) = 63.19793 68.28468 65.74131
# Shear Modulus (GPa) = 96.90999 130.01908 113.46454
#
# Velocity S-wave (km/s) = 6.25297 7.24278 6.76600
# Velocity P-wave (km/s) = 8.81084 9.87391 9.35748
#
# Compressibility (1/GPa) = 0.01582330
#
# Stress axis : x y z
#
# Youngs Moduli (GPa) = 87.31562 109.69761 162.95603
#
# Poissons Ratio (x) = 0.22652 0.28735
# Poissons Ratio (y) = 0.18030 0.26280
# Poissons Ratio (z) = 0.15397 0.17691
#
# Static dielectric constant tensor:
#      x y z
#    x 2.413170 0.000000 0.000000 
#    y 0.000000 1.980510 0.000000 
#    z 0.000000 0.000000 2.031640 
# 
# From -- ./inp_files/7467.got.cif
#   From: 2010.05.17/outbox.cif.g08.bks.cpg/sg30_4_cif.got.tgz:7467.got - 2010.06.03 17:03:02.
