data_PCOD9342495
_publ_section_title
;
Structure prediction by ZEFSAII (Michael W. Deem and Ramdas Pophale) SiO2 
 PCOD9342495
Probable space group: P N C 2
;
_chemical_formula_sum "Si O2"
_cell_formula_units_Z 18
_cell_length_a 16.101328
_cell_length_b 4.738646
_cell_length_c 8.457224
_cell_angle_alpha 90.000000
_cell_angle_beta 90.000000
_cell_angle_gamma 90.000000
_cell_volume 645.273451
_symmetry_space_group_name_H-M "P N C 2"
_symmetry_group_IT_number 30
_symmetry_cell_setting 'orthorhombic'
loop_
_space_group_symop_operation_xyz
x,y,z
-x,-y,z
-x,1/2+y,1/2+z
x,1/2-y,1/2+z
loop_
_atom_site_type_symbol
_atom_site_label
_atom_site_fract_x
_atom_site_fract_y
_atom_site_fract_z
Si Si1 0.217454 0.964274 0.944260
Si Si2 0.556148 0.232007 0.205231
Si Si3 0.889477 0.624478 0.734765
Si Si4 0.000000 0.500000 0.013091
Si Si5 0.331792 0.022994 0.462820
O O1 0.164863 0.120291 0.808828
O O2 0.164097 0.965115 0.104152
O O3 0.299071 0.161401 0.974205
O O4 0.252556 0.658091 0.908856
O O5 0.500000 0.500000 0.247039
O O6 0.593817 0.040375 0.343513
O O7 0.634167 0.382295 0.121698
O O8 0.500000 0.000000 0.111701
O O9 0.926066 0.454092 0.885048
O O10 0.963199 0.767707 0.630811
#
# Coordination Sequence:
#
# PCOD9342495 Si02
#       5
#     4   4   4   2   4
#     4  11  24  43  69 100 138 184 236 294 355 430
#     4  12  24  41  65  96 134 178 230 288 354 424
#     4  10  24  43  69 104 142 186 240 296 366 432
#     4  10  24  44  68 102 144 188 236 302 362 436
#     4  12  24  43  67  97 136 180 232 290 354 422
#
# _framework density 27.895153000000001
#
# number of rings (size 3 to 8) (size 9 to 14) (size 15 to 20)
#    0.000    0.889    0.000    6.667    0.000   10.667 
#    0.000    0.000    0.000    0.000    0.000    0.000 
#    0.000    0.000    0.000    0.000    0.000    0.000 
#
# Total GULP energy -101013.025158 kJ/mol
# GULP energy per Si atom -5611.834731 kJ/mol
# Density = 2.783166 g / cm^3
# Si number density = 27.895153 Si / 1000 Ang^3
#
#
#
# Elastic Constant Matrix: (Units=GPa)
#
#
# Indices 1 2 3 4 5 6 
#
# 1 141.2671 43.3952 39.2655 0.0000 0.0000 0.0000
# 2 43.3952 133.5379 33.9123 0.0000 0.0000 0.0000
# 3 39.2655 33.9123 137.2167 0.0000 0.0000 0.0000
# 4 0.0000 0.0000 0.0000 37.4091 0.0000 0.0000
# 5 0.0000 0.0000 0.0000 0.0000 38.2265 0.0000
# 6 0.0000 0.0000 0.0000 0.0000 0.0000 47.2830
#
#
#
# Elastic Compliance Matrix: (Units=1/GPa)
#
#
# Indices 1 2 3 4 5 6 
#
# 1 0.008267 -0.002225 -0.001816 0.000000 0.000000 0.000000
# 2 -0.002225 0.008589 -0.001486 0.000000 0.000000 0.000000
# 3 -0.001816 -0.001486 0.008175 0.000000 0.000000 0.000000
# 4 0.000000 0.000000 0.000000 0.026731 0.000000 0.000000
# 5 0.000000 0.000000 0.000000 0.000000 0.026160 0.000000
# 6 0.000000 0.000000 0.000000 0.000000 0.000000 0.021149
#
#
# Mechanical properties :
#
#
# Convention : Reuss Voigt Hill
#
# Bulk Modulus (GPa) = 71.54793 71.68530 71.61662
# Shear Modulus (GPa) = 43.56001 44.28029 43.92015
#
# Velocity S-wave (km/s) = 3.95595 3.98852 3.97227
# Velocity P-wave (km/s) = 6.82426 6.85310 6.83870
#
# Compressibility (1/GPa) = 0.01397664
#
# Stress axis : x y z
#
# Youngs Moduli (GPa) = 120.96176 116.42731 122.33098
#
# Poissons Ratio (x) = 0.25910 0.22211
# Poissons Ratio (y) = 0.26919 0.18177
# Poissons Ratio (z) = 0.21963 0.17300
#
# Static dielectric constant tensor:
#      x y z
#    x 2.260820 0.000000 0.000000 
#    y 0.000000 2.096940 0.000000 
#    z 0.000000 0.000000 2.125310 
# 
# From -- ./inp_files/2731.got.cif
#   From: 2010.05.17/outbox.cif.g08.bks.cpg/sg30_2_cif.got.tgz:2731.got - 2010.06.03 17:03:02.
