data_PCOD9342236
_publ_section_title
;
Structure prediction by ZEFSAII (Michael W. Deem and Ramdas Pophale) SiO2 
 PCOD9342236
Probable space group: P N C 2
;
_chemical_formula_sum "Si O2"
_cell_formula_units_Z 30
_cell_length_a 21.291118
_cell_length_b 4.937022
_cell_length_c 11.733734
_cell_angle_alpha 90.000000
_cell_angle_beta 90.000000
_cell_angle_gamma 90.000000
_cell_volume 1233.388140
_symmetry_space_group_name_H-M "P N C 2"
_symmetry_group_IT_number 30
_symmetry_cell_setting 'orthorhombic'
loop_
_space_group_symop_operation_xyz
x,y,z
-x,-y,z
-x,1/2+y,1/2+z
x,1/2-y,1/2+z
loop_
_atom_site_type_symbol
_atom_site_label
_atom_site_fract_x
_atom_site_fract_y
_atom_site_fract_z
Si Si1 0.701469 0.447594 0.896040
Si Si2 0.500000 0.000000 0.652191
Si Si3 0.199829 0.434435 0.075669
Si Si4 0.800417 0.448703 0.723649
Si Si5 0.577087 0.828765 0.332762
Si Si6 0.066634 0.658367 0.803661
Si Si7 0.419364 0.819478 0.972224
Si Si8 0.069907 0.899527 0.549930
O O1 0.748988 0.318804 0.806591
O O2 0.652324 0.634627 0.827153
O O3 0.654807 0.251761 0.967724
O O4 0.748175 0.600833 0.980015
O O5 0.453651 0.187731 0.726083
O O6 0.545347 0.196531 0.579258
O O7 0.218207 0.240406 0.178093
O O8 0.127179 0.386113 0.041463
O O9 0.195968 0.747025 0.115982
O O10 0.866931 0.493802 0.785806
O O11 0.568195 0.628556 0.441294
O O12 0.443047 0.866534 0.365500
O O13 0.068562 0.818771 0.683834
O O14 0.000000 0.500000 0.799455
O O15 0.074897 0.780786 0.932152
O O16 0.000000 0.000000 0.534943
#
# Coordination Sequence:
#
# PCOD9342236 Si02
#       8
#     4   2   4   4   4   4   4   4
#     4  10  26  46  66 103 140 180 229 295 342 438
#     4  12  24  48  76 100 136 180 222 282 362 414
#     4  11  25  43  70 102 139 192 236 294 355 431
#     4  11  25  42  71  99 141 191 237 291 360 429
#     4  10  26  45  68 101 136 172 221 284 338 426
#     4  10  21  41  65 102 144 195 250 311 367 434
#     4  10  26  43  69 101 134 174 222 281 340 421
#     4  10  21  41  66 102 145 194 251 310 370 431
#
# _framework density 24.323243999999999
#
# number of rings (size 3 to 8) (size 9 to 14) (size 15 to 20)
#    0.800    0.800    1.333    1.600    5.600    2.667 
#    2.400    0.000    0.000    0.000    0.000    0.000 
#    0.000    0.000    0.000    0.000    0.000    0.000 
#
# Total GULP energy -167197.456198 kJ/mol
# GULP energy per Si atom -5573.248540 kJ/mol
# Density = 2.426788 g / cm^3
# Si number density = 24.323244 Si / 1000 Ang^3
#
#
#
# Elastic Constant Matrix: (Units=GPa)
#
#
# Indices 1 2 3 4 5 6 
#
# 1 160.2951 15.8337 31.2759 0.0000 0.0000 0.0000
# 2 15.8337 66.5266 13.8203 0.0000 0.0000 0.0000
# 3 31.2759 13.8203 125.2786 0.0000 0.0000 0.0000
# 4 0.0000 0.0000 0.0000 29.9179 0.0000 0.0000
# 5 0.0000 0.0000 0.0000 0.0000 44.0972 0.0000
# 6 0.0000 0.0000 0.0000 0.0000 0.0000 20.7146
#
#
#
# Elastic Compliance Matrix: (Units=1/GPa)
#
#
# Indices 1 2 3 4 5 6 
#
# 1 0.006661 -0.001269 -0.001523 0.000000 0.000000 0.000000
# 2 -0.001269 0.015626 -0.001407 0.000000 0.000000 0.000000
# 3 -0.001523 -0.001407 0.008518 0.000000 0.000000 0.000000
# 4 0.000000 0.000000 0.000000 0.033425 0.000000 0.000000
# 5 0.000000 0.000000 0.000000 0.000000 0.022677 0.000000
# 6 0.000000 0.000000 0.000000 0.000000 0.000000 0.048275
#
#
# Mechanical properties :
#
#
# Convention : Reuss Voigt Hill
#
# Bulk Modulus (GPa) = 44.62947 52.66221 48.64584
# Shear Modulus (GPa) = 33.10197 38.35730 35.72964
#
# Velocity S-wave (km/s) = 3.69307 3.97543 3.83685
# Velocity P-wave (km/s) = 6.04759 6.53988 6.29855
#
# Compressibility (1/GPa) = 0.02240672
#
# Stress axis : x y z
#
# Youngs Moduli (GPa) = 150.12788 63.99630 117.40361
#
# Poissons Ratio (x) = 0.08121 0.17880
# Poissons Ratio (y) = 0.19051 0.16519
# Poissons Ratio (z) = 0.22863 0.09004
#
# Static dielectric constant tensor:
#      x y z
#    x 1.993980 0.000000 0.000000 
#    y 0.000000 1.937240 0.000000 
#    z 0.000000 0.000000 1.989750 
# 
# From -- ./inp_files/4488.got.cif
#   From: 2010.05.17/outbox.cif.g08.bks.cpg/sg30_3_cif.got.tgz:4488.got - 2010.06.03 17:03:02.
