data_PCOD9342754
_publ_section_title
;
Structure prediction by ZEFSAII (Michael W. Deem and Ramdas Pophale) SiO2 
 PCOD9342754
Probable space group: P M N 21
;
_chemical_formula_sum "Si O2"
_cell_formula_units_Z 24
_cell_length_a 26.326173
_cell_length_b 10.014758
_cell_length_c 5.059014
_cell_angle_alpha 90.000000
_cell_angle_beta 90.000000
_cell_angle_gamma 90.000000
_cell_volume 1333.810314
_symmetry_space_group_name_H-M "P M N 21"
_symmetry_group_IT_number 31
_symmetry_cell_setting 'orthorhombic'
loop_
_space_group_symop_operation_xyz
x,y,z
1/2-x,-y,1/2+z
-x,y,z
1/2+x,-y,1/2+z
loop_
_atom_site_type_symbol
_atom_site_label
_atom_site_fract_x
_atom_site_fract_y
_atom_site_fract_z
Si Si1 0.112079 0.903049 0.392910
Si Si2 0.500000 0.267098 0.499943
Si Si3 0.791967 0.355523 0.609979
Si Si4 0.183628 0.494676 0.107213
Si Si5 0.000000 0.909671 0.502169
Si Si6 0.608694 0.283036 0.392448
Si Si7 0.218973 0.049849 0.445213
O O1 0.056192 0.969122 0.443674
O O2 0.116353 0.781130 0.604597
O O3 0.161700 0.993293 0.427352
O O4 0.112686 0.838805 0.101810
O O5 0.500000 0.218494 0.802599
O O6 0.551750 0.338409 0.425270
O O7 0.500000 0.137160 0.306163
O O8 0.813261 0.371756 0.903558
O O9 0.737730 0.430016 0.613819
O O10 0.783764 0.205126 0.519574
O O11 0.825711 0.436930 0.397993
O O12 0.146366 0.603182 0.985100
O O13 0.250748 0.974408 0.673504
#
# Coordination Sequence:
#
# PCOD9342754 Si02
#       7
#     4   2   4   4   2   4   4
#     4  10  19  32  52  76 102 128 163 206 251 298
#     4   8  16  28  48  76 100 118 158 208 244 288
#     4  10  21  33  47  71  95 128 163 193 237 286
#     4  10  19  33  50  66  97 129 159 194 232 292
#     4   8  16  30  48  72  98 128 160 200 248 292
#     4  10  18  32  53  77  99 128 162 203 253 289
#     4  12  23  35  52  75 104 132 166 212 255 301
#
# _framework density 17.993562000000001
#
# number of rings (size 3 to 8) (size 9 to 14) (size 15 to 20)
#    0.000    2.000    0.000    5.000    0.000    2.667 
#    0.000    0.000    0.000    2.000    0.000    0.000 
#    0.000    0.000    0.000    0.000    0.000    0.000 
#
# Total GULP energy -133786.386644 kJ/mol
# GULP energy per Si atom -5574.432777 kJ/mol
# Density = 1.795261 g / cm^3
# Si number density = 17.993562 Si / 1000 Ang^3
#
#
#
# Elastic Constant Matrix: (Units=GPa)
#
#
# Indices 1 2 3 4 5 6 
#
# 1 80.3126 -1.5447 8.6730 0.0000 0.0000 0.0000
# 2 -1.5447 32.8963 -10.4689 0.0000 0.0000 0.0000
# 3 8.6730 -10.4689 51.8573 0.0000 0.0000 0.0000
# 4 0.0000 0.0000 0.0000 19.7916 0.0000 0.0000
# 5 0.0000 0.0000 0.0000 0.0000 18.2272 0.0000
# 6 0.0000 0.0000 0.0000 0.0000 0.0000 15.3954
#
#
#
# Elastic Compliance Matrix: (Units=1/GPa)
#
#
# Indices 1 2 3 4 5 6 
#
# 1 0.012681 -0.000085 -0.002138 0.000000 0.000000 0.000000
# 2 -0.000085 0.032486 0.006572 0.000000 0.000000 0.000000
# 3 -0.002138 0.006572 0.020968 0.000000 0.000000 0.000000
# 4 0.000000 0.000000 0.000000 0.050527 0.000000 0.000000
# 5 0.000000 0.000000 0.000000 0.000000 0.054863 0.000000
# 6 0.000000 0.000000 0.000000 0.000000 0.000000 0.064954
#
#
# Mechanical properties :
#
#
# Convention : Reuss Voigt Hill
#
# Bulk Modulus (GPa) = 13.36290 17.59834 15.48062
# Shear Modulus (GPa) = 19.78439 21.90995 20.84717
#
# Velocity S-wave (km/s) = 3.31951 3.49328 3.40750
# Velocity P-wave (km/s) = 4.70476 5.10610 4.90953
#
# Compressibility (1/GPa) = 0.07483406
#
# Stress axis : x y z
#
# Youngs Moduli (GPa) = 78.86067 30.78233 47.69151
#
# Poissons Ratio (x) = 0.00261 0.10196
# Poissons Ratio (y) = 0.00670 -0.31345
# Poissons Ratio (z) = 0.16860 -0.20232
#
# Static dielectric constant tensor:
#      x y z
#    x 1.682890 0.000000 0.000000 
#    y 0.000000 1.571980 0.000000 
#    z 0.000000 0.000000 1.635840 
# 
# From -- ./inp_files/1090.got.cif
#   From: 2010.05.17/outbox.cif.g08.bks.cpg/sg31_1_cif.got.tgz:1090.got - 2010.06.03 17:08:30.
