data_PCOD9342641
_publ_section_title
;
Structure prediction by ZEFSAII (Michael W. Deem and Ramdas Pophale) SiO2 
 PCOD9342641
Probable space group: P N C 2
;
_chemical_formula_sum "Si O2"
_cell_formula_units_Z 16
_cell_length_a 5.474191
_cell_length_b 26.168405
_cell_length_c 4.791805
_cell_angle_alpha 90.000000
_cell_angle_beta 90.000000
_cell_angle_gamma 90.000000
_cell_volume 686.430126
_symmetry_space_group_name_H-M "P N C 2"
_symmetry_group_IT_number 30
_symmetry_cell_setting 'orthorhombic'
loop_
_space_group_symop_operation_xyz
x,y,z
-x,-y,z
-x,1/2+y,1/2+z
x,1/2-y,1/2+z
loop_
_atom_site_type_symbol
_atom_site_label
_atom_site_fract_x
_atom_site_fract_y
_atom_site_fract_z
Si Si1 0.250554 1.000000 0.667370
Si Si2 1.000000 0.215776 0.016745
Si Si3 0.500000 0.156560 0.871812
Si Si4 0.500000 0.413806 0.871223
O O1 0.278555 0.950138 0.471724
O O2 0.500000 0.000000 0.843937
O O3 0.278555 0.049862 0.471724
O O4 0.000000 0.000000 0.825949
O O5 1.000000 0.231847 0.338916
O O6 0.250490 0.186516 0.941708
O O7 0.749509 0.186516 0.941709
O O8 0.500000 0.105258 0.058387
O O9 0.500000 0.137636 0.554472
#
# Coordination Sequence:
#
# PCOD9342641 Si02
#       4
#     4   4   4   4
#     4   8  20  36  62  84 138 152 204 240 300 348
#     4  12  26  44  64  91 122 159 200 262 316 358
#     4  12  24  40  70  87 126 155 214 244 302 376
#     4   9  24  39  62  97 120 169 198 249 296 355
#
# _framework density 23.309000999999999
#
# number of rings (size 3 to 8) (size 9 to 14) (size 15 to 20)
#    1.500    0.000    0.000    4.500    7.000    4.000 
#    0.000    2.500    0.000    0.000    0.000    0.000 
#    0.000    0.000    0.000    0.000    0.000    0.000 
#
# Total GULP energy -89278.999706 kJ/mol
# GULP energy per Si atom -5579.937482 kJ/mol
# Density = 2.325595 g / cm^3
# Si number density = 23.309001 Si / 1000 Ang^3
#
#
#
# Elastic Constant Matrix: (Units=GPa)
#
#
# Indices 1 2 3 4 5 6 
#
# 1 222.0448 47.3533 1.5061 0.0000 0.0000 0.0000
# 2 47.3533 87.2109 1.8641 0.0000 0.0000 0.0000
# 3 1.5061 1.8641 58.3403 0.0000 0.0000 0.0000
# 4 0.0000 0.0000 0.0000 46.3541 0.0000 0.0000
# 5 0.0000 0.0000 0.0000 0.0000 15.8153 0.0000
# 6 0.0000 0.0000 0.0000 0.0000 0.0000 -32.0567
#
#
#
# Elastic Compliance Matrix: (Units=1/GPa)
#
#
# Indices 1 2 3 4 5 6 
#
# 1 0.005093 -0.002765 -0.000043 0.000000 0.000000 0.000000
# 2 -0.002765 0.012975 -0.000343 0.000000 0.000000 0.000000
# 3 -0.000043 -0.000343 0.017153 0.000000 0.000000 0.000000
# 4 0.000000 0.000000 0.000000 0.021573 0.000000 0.000000
# 5 0.000000 0.000000 0.000000 0.000000 0.063230 0.000000
# 6 0.000000 0.000000 0.000000 0.000000 0.000000 -0.031195
#
#
# Mechanical properties :
#
#
# Convention : Reuss Voigt Hill
#
# Bulk Modulus (GPa) = 34.57910 52.11589 43.34750
# Shear Modulus (GPa) = 47.72284 27.14736 37.43510
#
# Velocity S-wave (km/s) = 4.52973 3.41643 4.01189
# Velocity P-wave (km/s) = 6.49809 6.16197 6.33226
#
# Compressibility (1/GPa) = 0.02891920
#
# Stress axis : x y z
#
# Youngs Moduli (GPa) = 196.32900 77.07154 58.29924
#
# Poissons Ratio (x) = 0.21308 0.00252
# Poissons Ratio (y) = 0.54279 0.02001
# Poissons Ratio (z) = 0.00847 0.02645
#
# Static dielectric constant tensor:
#      x y z
#    x 1.922820 0.000000 0.000000 
#    y 0.000000 1.877090 0.000000 
#    z 0.000000 0.000000 1.778250 
# 
# From -- ./inp_files/98.got.cif
#   From: 2010.05.17/outbox.cif.g08.bks.cpg/sg30_1_cif.got.tgz:98.got - 2010.06.03 17:03:02.
