data_PCOD9342721
_publ_section_title
;
Structure prediction by ZEFSAII (Michael W. Deem and Ramdas Pophale) SiO2 
 PCOD9342721
Probable space group: P M N 21
;
_chemical_formula_sum "Si O2"
_cell_formula_units_Z 32
_cell_length_a 7.369692
_cell_length_b 13.121984
_cell_length_c 14.293827
_cell_angle_alpha 90.000000
_cell_angle_beta 90.000000
_cell_angle_gamma 90.000000
_cell_volume 1382.284261
_symmetry_space_group_name_H-M "P M N 21"
_symmetry_group_IT_number 31
_symmetry_cell_setting 'orthorhombic'
loop_
_space_group_symop_operation_xyz
x,y,z
1/2-x,-y,1/2+z
-x,y,z
1/2+x,-y,1/2+z
loop_
_atom_site_type_symbol
_atom_site_label
_atom_site_fract_x
_atom_site_fract_y
_atom_site_fract_z
Si Si1 0.214995 0.752242 0.445240
Si Si2 0.281986 0.444818 0.046940
Si Si3 0.721666 0.663270 0.058353
Si Si4 0.216811 0.365208 0.771381
Si Si5 0.777935 0.925489 0.582990
Si Si6 0.218153 0.124766 0.478351
Si Si7 0.216811 0.587388 0.768824
Si Si8 0.714617 0.182215 0.274961
O O1 0.293341 0.650866 0.492566
O O2 0.241652 0.730319 0.336825
O O3 0.281298 0.850976 0.498726
O O4 0.000000 0.753021 0.462213
O O5 0.500000 0.445826 0.035508
O O6 0.216623 0.555823 0.015994
O O7 0.252804 0.426268 0.157132
O O8 0.500000 0.664396 0.055879
O O9 0.778003 0.657732 0.166470
O O10 0.786736 0.764562 0.009245
O O11 0.286258 0.476910 0.806048
O O12 0.000000 0.375469 0.766845
O O13 0.717428 0.875675 0.681525
O O14 0.000000 0.928609 0.587097
O O15 0.718332 0.037172 0.549324
O O16 0.260589 0.115598 0.368349
O O17 0.000000 0.125181 0.484752
O O18 0.287241 0.701541 0.791793
O O19 0.000000 0.589646 0.786424
O O20 0.500000 0.195921 0.258847
#
# Coordination Sequence:
#
# PCOD9342721 Si02
#       8
#     4   4   4   4   4   4   4   4
#     4  10  18  30  51  76 100 133 175 211 248 298
#     4   8  13  25  47  71  94 127 169 205 239 295
#     4   8  16  31  49  70 100 136 168 201 250 308
#     4   9  18  31  49  76 108 139 168 206 258 309
#     4   9  19  36  55  74 102 140 177 208 246 306
#     4  10  21  36  54  78 105 134 171 215 260 300
#     4   8  14  28  50  73 100 134 171 206 246 302
#     4  10  19  35  57  78  99 133 177 214 249 302
#
# _framework density 23.150086999999999
#
# number of rings (size 3 to 8) (size 9 to 14) (size 15 to 20)
#    0.000    3.000    1.250    1.500    1.750    1.000 
#    0.000    3.750    0.000    3.000    0.000    0.000 
#    0.000    0.000    0.000    0.000    0.000    0.000 
#
# Total GULP energy -178516.005327 kJ/mol
# GULP energy per Si atom -5578.625166 kJ/mol
# Density = 2.309740 g / cm^3
# Si number density = 23.150087 Si / 1000 Ang^3
#
#
#
# Elastic Constant Matrix: (Units=GPa)
#
#
# Indices 1 2 3 4 5 6 
#
# 1 83.1581 6.1058 -5.0263 0.0000 0.0000 0.0000
# 2 6.1058 109.1544 35.0449 0.0000 0.0000 0.0000
# 3 -5.0263 35.0449 78.1657 0.0000 0.0000 0.0000
# 4 0.0000 0.0000 0.0000 28.4250 0.0000 0.0000
# 5 0.0000 0.0000 0.0000 0.0000 8.3845 0.0000
# 6 0.0000 0.0000 0.0000 0.0000 0.0000 -4.1229
#
#
#
# Elastic Compliance Matrix: (Units=1/GPa)
#
#
# Indices 1 2 3 4 5 6 
#
# 1 0.012182 -0.001090 0.001272 0.000000 0.000000 0.000000
# 2 -0.001090 0.010799 -0.004912 0.000000 0.000000 0.000000
# 3 0.001272 -0.004912 0.015077 0.000000 0.000000 0.000000
# 4 0.000000 0.000000 0.000000 0.035180 0.000000 0.000000
# 5 0.000000 0.000000 0.000000 0.000000 0.119268 0.000000
# 6 0.000000 0.000000 0.000000 0.000000 0.000000 -0.242547
#
#
# Mechanical properties :
#
#
# Convention : Reuss Voigt Hill
#
# Bulk Modulus (GPa) = 34.96576 38.08077 36.52326
# Shear Modulus (GPa) = -161.04382 22.16090 -69.44146
#
# Velocity S-wave (km/s) = -8.34962 3.09734 -5.48282
# Velocity P-wave (km/s) = 8.82146 5.41078 4.92654
#
# Compressibility (1/GPa) = 0.02859941
#
# Stress axis : x y z
#
# Youngs Moduli (GPa) = 82.08704 92.59877 66.32482
#
# Poissons Ratio (x) = 0.10092 -0.08436
# Poissons Ratio (y) = 0.08946 0.32578
# Poissons Ratio (z) = -0.10441 0.45483
#
# Static dielectric constant tensor:
#      x y z
#    x 1.894690 0.000000 0.000000 
#    y 0.000000 1.878620 0.000000 
#    z 0.000000 0.000000 1.867060 
# 
# From -- ./inp_files/4065.got.cif
#   From: 2010.05.17/outbox.cif.g08.bks.cpg/sg31_3_cif.got.tgz:4065.got - 2010.06.03 17:08:30.
