data_PCOD9342450
_publ_section_title
;
Structure prediction by ZEFSAII (Michael W. Deem and Ramdas Pophale) SiO2 
 PCOD9342450
Probable space group: P N C 2
;
_chemical_formula_sum "Si O2"
_cell_formula_units_Z 26
_cell_length_a 13.755462
_cell_length_b 9.225400
_cell_length_c 10.935595
_cell_angle_alpha 90.000000
_cell_angle_beta 90.000000
_cell_angle_gamma 90.000000
_cell_volume 1387.723059
_symmetry_space_group_name_H-M "P N C 2"
_symmetry_group_IT_number 30
_symmetry_cell_setting 'orthorhombic'
loop_
_space_group_symop_operation_xyz
x,y,z
-x,-y,z
-x,1/2+y,1/2+z
x,1/2-y,1/2+z
loop_
_atom_site_type_symbol
_atom_site_label
_atom_site_fract_x
_atom_site_fract_y
_atom_site_fract_z
Si Si1 0.701023 0.957539 0.995860
Si Si2 0.076697 0.370124 0.780751
Si Si3 0.710037 0.008094 0.274006
Si Si4 0.573587 0.684736 0.935832
Si Si5 0.924564 0.866819 0.995328
Si Si6 0.623785 0.302856 0.325439
Si Si7 0.500000 0.500000 0.153365
O O1 0.670503 0.108268 0.935993
O O2 0.637308 0.829318 0.939492
O O3 0.814827 0.925705 0.979362
O O4 0.679175 0.961367 0.138993
O O5 0.183055 0.442986 0.795289
O O6 0.060564 0.252152 0.888214
O O7 0.069014 0.314061 0.638551
O O8 0.000000 0.500000 0.792620
O O9 0.636815 0.936467 0.369260
O O10 0.698984 0.181608 0.280097
O O11 0.473778 0.721123 0.867790
O O12 0.546643 0.623464 0.068345
O O13 0.000000 0.000000 0.982903
O O14 0.584562 0.422215 0.230317
#
# Coordination Sequence:
#
# PCOD9342450 Si02
#       7
#     4   4   4   4   4   4   2
#     4  11  24  42  64  90 128 168 212 262 322 381
#     4  10  23  45  68  99 131 167 216 268 327 388
#     4  11  24  42  64  90 128 171 211 266 320 383
#     4  12  22  41  62  89 124 171 211 260 316 378
#     4  10  23  43  69  97 131 167 214 268 325 391
#     4  12  24  40  60  94 125 169 212 266 317 377
#     4  12  24  38  62  92 130 164 228 262 314 386
#
# _framework density 18.735726
#
# number of rings (size 3 to 8) (size 9 to 14) (size 15 to 20)
#    0.000    0.923    4.615    1.846    2.154    1.846 
#    0.000    0.000    0.000    0.000    0.000    0.000 
#    0.000    0.000    0.000    0.000    0.000    0.000 
#
# Total GULP energy -145184.482622 kJ/mol
# GULP energy per Si atom -5584.018562 kJ/mol
# Density = 1.869308 g / cm^3
# Si number density = 18.735726 Si / 1000 Ang^3
#
#
#
# Elastic Constant Matrix: (Units=GPa)
#
#
# Indices 1 2 3 4 5 6 
#
# 1 65.2427 24.3295 37.7237 0.0000 0.0000 0.0000
# 2 24.3295 56.7335 10.4476 0.0000 0.0000 0.0000
# 3 37.7237 10.4476 75.5182 0.0000 0.0000 0.0000
# 4 0.0000 0.0000 0.0000 53.6583 0.0000 0.0000
# 5 0.0000 0.0000 0.0000 0.0000 11.7078 0.0000
# 6 0.0000 0.0000 0.0000 0.0000 0.0000 23.4296
#
#
#
# Elastic Compliance Matrix: (Units=1/GPa)
#
#
# Indices 1 2 3 4 5 6 
#
# 1 0.025130 -0.008686 -0.011352 0.000000 0.000000 0.000000
# 2 -0.008686 0.021090 0.001421 0.000000 0.000000 0.000000
# 3 -0.011352 0.001421 0.018716 0.000000 0.000000 0.000000
# 4 0.000000 0.000000 0.000000 0.018636 0.000000 0.000000
# 5 0.000000 0.000000 0.000000 0.000000 0.085413 0.000000
# 6 0.000000 0.000000 0.000000 0.000000 0.000000 0.042681
#
#
# Mechanical properties :
#
#
# Convention : Reuss Voigt Hill
#
# Bulk Modulus (GPa) = 36.09795 38.05513 37.07654
# Shear Modulus (GPa) = 19.36984 26.09204 22.73094
#
# Velocity S-wave (km/s) = 3.21883 3.73585 3.48694
# Velocity P-wave (km/s) = 5.75528 6.24215 6.00365
#
# Compressibility (1/GPa) = 0.02770240
#
# Stress axis : x y z
#
# Youngs Moduli (GPa) = 39.79286 47.41683 53.43119
#
# Poissons Ratio (x) = 0.41188 0.60653
# Poissons Ratio (y) = 0.34565 -0.07595
# Poissons Ratio (z) = 0.45171 -0.06740
#
# Static dielectric constant tensor:
#      x y z
#    x 1.623100 0.000000 0.000000 
#    y 0.000000 1.644280 0.000000 
#    z 0.000000 0.000000 1.657010 
# 
# From -- ./inp_files/4079.got.cif
#   From: 2010.05.17/outbox.cif.g08.bks.cpg/sg30_3_cif.got.tgz:4079.got - 2010.06.03 17:03:02.
