data_PCOD9342285
_publ_section_title
;
Structure prediction by ZEFSAII (Michael W. Deem and Ramdas Pophale) SiO2 
 PCOD9342285
Probable space group: P N C 2
;
_chemical_formula_sum "Si O2"
_cell_formula_units_Z 28
_cell_length_a 8.034311
_cell_length_b 25.257344
_cell_length_c 5.517916
_cell_angle_alpha 90.000000
_cell_angle_beta 90.000000
_cell_angle_gamma 90.000000
_cell_volume 1119.725073
_symmetry_space_group_name_H-M "P N C 2"
_symmetry_group_IT_number 30
_symmetry_cell_setting 'orthorhombic'
loop_
_space_group_symop_operation_xyz
x,y,z
-x,-y,z
-x,1/2+y,1/2+z
x,1/2-y,1/2+z
loop_
_atom_site_type_symbol
_atom_site_label
_atom_site_fract_x
_atom_site_fract_y
_atom_site_fract_z
Si Si1 0.539223 0.670594 0.026720
Si Si2 0.000000 0.000000 0.757293
Si Si3 0.373864 0.386488 0.532390
Si Si4 0.500000 0.500000 0.604273
Si Si5 0.101313 0.219904 0.484106
Si Si6 0.799356 0.341751 0.179401
Si Si7 0.991511 0.105573 0.073137
Si Si8 0.766094 0.051458 0.450708
O O1 0.587762 0.641671 0.279414
O O2 0.701778 0.707160 0.988898
O O3 0.356073 0.694376 0.094211
O O4 0.532290 0.636989 0.772142
O O5 0.000738 0.944999 0.894411
O O6 0.165593 0.997502 0.599530
O O7 0.411367 0.448954 0.487662
O O8 0.180142 0.376150 0.594122
O O9 0.364805 0.529081 0.767508
O O10 0.066787 0.244945 0.223026
O O11 0.966063 0.173363 0.531191
O O12 0.867702 0.351316 0.451894
O O13 0.718575 0.399474 0.118554
O O14 0.917279 0.077231 0.305121
#
# Coordination Sequence:
#
# PCOD9342285 Si02
#       8
#     4   2   4   2   4   4   4   4
#     4  12  27  51  76 116 154 205 245 323 399 459
#     4  10  22  36  60  96 140 194 268 306 358 434
#     4  12  26  44  75 109 161 208 261 318 370 454
#     4  12  24  40  68 110 160 210 276 312 364 446
#     4  12  29  52  84 118 149 191 258 326 399 488
#     4  11  26  47  80 107 152 197 250 312 404 457
#     4  11  23  42  68 100 146 211 255 316 379 450
#     4  11  23  41  63 103 147 203 259 311 367 448
#
# _framework density 25.006138
#
# number of rings (size 3 to 8) (size 9 to 14) (size 15 to 20)
#    0.000    0.571    2.857    4.714    6.000    2.857 
#    0.000    0.000    0.000    0.000    0.000    0.000 
#    0.000    0.000    0.000    0.000    0.000    0.000 
#
# Total GULP energy -156404.604521 kJ/mol
# GULP energy per Si atom -5585.878733 kJ/mol
# Density = 2.494922 g / cm^3
# Si number density = 25.006138 Si / 1000 Ang^3
#
#
#
# Elastic Constant Matrix: (Units=GPa)
#
#
# Indices 1 2 3 4 5 6 
#
# 1 115.9943 7.3882 8.0929 0.0000 0.0000 0.0000
# 2 7.3882 58.7948 34.9200 0.0000 0.0000 0.0000
# 3 8.0929 34.9200 108.0952 0.0000 0.0000 0.0000
# 4 0.0000 0.0000 0.0000 42.3105 0.0000 0.0000
# 5 0.0000 0.0000 0.0000 0.0000 58.7222 0.0000
# 6 0.0000 0.0000 0.0000 0.0000 0.0000 39.1228
#
#
#
# Elastic Compliance Matrix: (Units=1/GPa)
#
#
# Indices 1 2 3 4 5 6 
#
# 1 0.008703 -0.000874 -0.000369 0.000000 0.000000 0.000000
# 2 -0.000874 0.021134 -0.006762 0.000000 0.000000 0.000000
# 3 -0.000369 -0.006762 0.011463 0.000000 0.000000 0.000000
# 4 0.000000 0.000000 0.000000 0.023635 0.000000 0.000000
# 5 0.000000 0.000000 0.000000 0.000000 0.017029 0.000000
# 6 0.000000 0.000000 0.000000 0.000000 0.000000 0.025561
#
#
# Mechanical properties :
#
#
# Convention : Reuss Voigt Hill
#
# Bulk Modulus (GPa) = 39.54247 42.63183 41.08715
# Shear Modulus (GPa) = 37.88877 43.53000 40.70938
#
# Velocity S-wave (km/s) = 3.89675 4.17678 4.03920
# Velocity P-wave (km/s) = 6.00780 6.35187 6.18223
#
# Compressibility (1/GPa) = 0.02528926
#
# Stress axis : x y z
#
# Youngs Moduli (GPa) = 114.90881 47.31642 87.23582
#
# Poissons Ratio (x) = 0.04137 0.03220
# Poissons Ratio (y) = 0.10047 0.58988
# Poissons Ratio (z) = 0.04241 0.31995
#
# Static dielectric constant tensor:
#      x y z
#    x 2.093970 0.000000 0.000000 
#    y 0.000000 2.064600 0.000000 
#    z 0.000000 0.000000 2.015770 
# 
# From -- ./inp_files/539.got.cif
#   From: 2010.05.17/outbox.cif.g08.bks.cpg/sg30_1_cif.got.tgz:539.got - 2010.06.03 17:03:02.
