data_PCOD9342905
_publ_section_title
;
Structure prediction by ZEFSAII (Michael W. Deem and Ramdas Pophale) SiO2 
 PCOD9342905
Probable space group: P M N 21
;
_chemical_formula_sum "Si O2"
_cell_formula_units_Z 32
_cell_length_a 9.540172
_cell_length_b 10.860234
_cell_length_c 13.928046
_cell_angle_alpha 90.000000
_cell_angle_beta 90.000000
_cell_angle_gamma 90.000000
_cell_volume 1443.063958
_symmetry_space_group_name_H-M "P M N 21"
_symmetry_group_IT_number 31
_symmetry_cell_setting 'orthorhombic'
loop_
_space_group_symop_operation_xyz
x,y,z
1/2-x,-y,1/2+z
-x,y,z
1/2+x,-y,1/2+z
loop_
_atom_site_type_symbol
_atom_site_label
_atom_site_fract_x
_atom_site_fract_y
_atom_site_fract_z
Si Si1 0.339085 0.290011 0.668900
Si Si2 0.836930 0.047279 0.423195
Si Si3 0.163724 0.545497 0.001429
Si Si4 0.657388 0.567966 0.309345
Si Si5 0.332803 0.327743 0.095327
Si Si6 0.343134 0.940914 0.154950
Si Si7 0.660773 0.814076 0.440794
Si Si8 0.662366 0.190277 0.280009
O O1 0.500000 0.283678 0.695782
O O2 0.326230 0.326485 0.556803
O O3 0.266993 0.399682 0.728068
O O4 0.265477 0.161495 0.687069
O O5 0.831834 0.052511 0.539213
O O6 0.767164 0.160739 0.366368
O O7 0.000000 0.033287 0.396155
O O8 0.742396 0.929133 0.396916
O O9 0.270998 0.453413 0.053093
O O10 0.000000 0.503434 0.014418
O O11 0.189204 0.536783 0.887997
O O12 0.500000 0.549257 0.270555
O O13 0.657523 0.694012 0.373138
O O14 0.500000 0.316418 0.079114
O O15 0.307486 0.303283 0.207885
O O16 0.247581 0.227051 0.034095
O O17 0.500000 0.894822 0.178301
O O18 0.328679 0.071255 0.208091
O O19 0.500000 0.847826 0.462800
O O20 0.500000 0.199225 0.313024
#
# Coordination Sequence:
#
# PCOD9342905 Si02
#       8
#     4   4   4   4   4   4   4   4
#     4  11  23  39  60  88 118 150 196 246 286 342
#     4  11  22  36  55  84 118 154 196 238 283 345
#     4   9  21  41  60  83 117 151 189 243 297 342
#     4   9  19  37  60  84 112 153 194 234 294 350
#     4  10  19  35  59  84 110 144 191 238 284 343
#     4  10  22  41  59  81 121 160 190 234 291 346
#     4  10  19  33  56  83 115 152 189 236 290 339
#     4  10  21  38  57  83 119 154 189 235 293 351
#
# _framework density 22.175039000000002
#
# number of rings (size 3 to 8) (size 9 to 14) (size 15 to 20)
#    0.000    2.000    1.250    3.000    0.000    9.000 
#    2.250    0.000    0.000    0.000    0.000    0.000 
#    0.000    0.000    0.000    0.000    0.000    0.000 
#
# Total GULP energy -178849.327277 kJ/mol
# GULP energy per Si atom -5589.041477 kJ/mol
# Density = 2.212457 g / cm^3
# Si number density = 22.175039 Si / 1000 Ang^3
#
#
#
# Elastic Constant Matrix: (Units=GPa)
#
#
# Indices 1 2 3 4 5 6 
#
# 1 127.5761 33.2989 56.0267 0.0000 0.0000 0.0000
# 2 33.2989 34.8645 6.7027 0.0000 0.0000 0.0000
# 3 56.0267 6.7027 84.8633 0.0000 0.0000 0.0000
# 4 0.0000 0.0000 0.0000 39.7834 0.0000 0.0000
# 5 0.0000 0.0000 0.0000 0.0000 29.4814 0.0000
# 6 0.0000 0.0000 0.0000 0.0000 0.0000 2.2956
#
#
#
# Elastic Compliance Matrix: (Units=1/GPa)
#
#
# Indices 1 2 3 4 5 6 
#
# 1 0.015082 -0.012683 -0.008955 0.000000 0.000000 0.000000
# 2 -0.012683 0.039790 0.005230 0.000000 0.000000 0.000000
# 3 -0.008955 0.005230 0.017283 0.000000 0.000000 0.000000
# 4 0.000000 0.000000 0.000000 0.025136 0.000000 0.000000
# 5 0.000000 0.000000 0.000000 0.000000 0.033920 0.000000
# 6 0.000000 0.000000 0.000000 0.000000 0.000000 0.435614
#
#
# Mechanical properties :
#
#
# Convention : Reuss Voigt Hill
#
# Bulk Modulus (GPa) = 25.41975 48.81782 37.11879
# Shear Modulus (GPa) = 8.15991 24.39712 16.27851
#
# Velocity S-wave (km/s) = 1.92035 3.32053 2.71235
# Velocity P-wave (km/s) = 4.05032 6.06332 5.15601
#
# Compressibility (1/GPa) = 0.03933949
#
# Stress axis : x y z
#
# Youngs Moduli (GPa) = 66.30626 25.13190 57.86131
#
# Poissons Ratio (x) = 0.31874 0.51815
# Poissons Ratio (y) = 0.84094 -0.30264
# Poissons Ratio (z) = 0.59378 -0.13145
#
# Static dielectric constant tensor:
#      x y z
#    x 1.751910 0.000000 0.000000 
#    y 0.000000 1.847900 0.000000 
#    z 0.000000 0.000000 1.862850 
# 
# From -- ./inp_files/5078.got.cif
#   From: 2010.05.17/outbox.cif.g08.bks.cpg/sg31_3_cif.got.tgz:5078.got - 2010.06.03 17:08:30.
