data_PCOD9342120
_publ_section_title
;
Structure prediction by ZEFSAII (Michael W. Deem and Ramdas Pophale) SiO2 
 PCOD9342120
Probable space group: P N C 2
;
_chemical_formula_sum "Si O2"
_cell_formula_units_Z 22
_cell_length_a 8.863171
_cell_length_b 8.954920
_cell_length_c 13.278520
_cell_angle_alpha 90.000000
_cell_angle_beta 90.000000
_cell_angle_gamma 90.000000
_cell_volume 1053.902685
_symmetry_space_group_name_H-M "P N C 2"
_symmetry_group_IT_number 30
_symmetry_cell_setting 'orthorhombic'
loop_
_space_group_symop_operation_xyz
x,y,z
-x,-y,z
-x,1/2+y,1/2+z
x,1/2-y,1/2+z
loop_
_atom_site_type_symbol
_atom_site_label
_atom_site_fract_x
_atom_site_fract_y
_atom_site_fract_z
Si Si1 0.233086 0.851245 0.052000
Si Si2 0.669988 0.209414 0.837957
Si Si3 0.504386 0.663846 0.140704
Si Si4 0.956812 0.323941 0.194383
Si Si5 0.500000 0.000000 0.326905
Si Si6 0.759161 0.861846 0.182823
O O1 0.387015 0.781471 0.096263
O O2 0.103481 0.732843 0.084660
O O3 0.197778 0.004581 0.108782
O O4 0.271337 0.876700 0.935635
O O5 0.546791 0.149703 0.758159
O O6 0.818618 0.217202 0.768162
O O7 0.591763 0.363334 0.876649
O O8 0.500000 0.500000 0.095508
O O9 0.668975 0.730533 0.127089
O O10 0.000000 0.500000 0.196097
O O11 0.095890 0.219809 0.226905
O O12 0.633614 0.927454 0.258901
#
# Coordination Sequence:
#
# PCOD9342120 Si02
#       6
#     4   4   4   4   2   4
#     4  11  22  40  63  95 125 167 220 262 317 387
#     4  10  23  41  64  94 129 164 223 259 326 378
#     4  10  21  40  64  92 130 169 209 268 322 376
#     4  11  24  43  63  93 136 172 211 269 325 381
#     4  10  20  42  66  96 120 176 210 268 322 378
#     4  11  19  41  70  91 124 172 218 261 320 380
#
# _framework density 20.874793
#
# number of rings (size 3 to 8) (size 9 to 14) (size 15 to 20)
#    0.000    1.455    5.455    2.727    1.273    2.909 
#    3.273    1.818    0.000    0.000    0.000    0.000 
#    0.000    0.000    0.000    0.000    0.000    0.000 
#
# Total GULP energy -122560.326073 kJ/mol
# GULP energy per Si atom -5570.923912 kJ/mol
# Density = 2.082728 g / cm^3
# Si number density = 20.874793 Si / 1000 Ang^3
#
#
#
# Elastic Constant Matrix: (Units=GPa)
#
#
# Indices 1 2 3 4 5 6 
#
# 1 81.8977 46.1371 13.8712 0.0000 0.0000 0.0000
# 2 46.1371 125.3938 18.2753 0.0000 0.0000 0.0000
# 3 13.8712 18.2753 65.3523 0.0000 0.0000 0.0000
# 4 0.0000 0.0000 0.0000 11.6620 0.0000 0.0000
# 5 0.0000 0.0000 0.0000 0.0000 4.1379 0.0000
# 6 0.0000 0.0000 0.0000 0.0000 0.0000 33.3926
#
#
#
# Elastic Compliance Matrix: (Units=1/GPa)
#
#
# Indices 1 2 3 4 5 6 
#
# 1 0.015599 -0.005480 -0.001778 0.000000 0.000000 0.000000
# 2 -0.005480 0.010239 -0.001700 0.000000 0.000000 0.000000
# 3 -0.001778 -0.001700 0.016155 0.000000 0.000000 0.000000
# 4 0.000000 0.000000 0.000000 0.085749 0.000000 0.000000
# 5 0.000000 0.000000 0.000000 0.000000 0.241669 0.000000
# 6 0.000000 0.000000 0.000000 0.000000 0.000000 0.029947
#
#
# Mechanical properties :
#
#
# Convention : Reuss Voigt Hill
#
# Bulk Modulus (GPa) = 41.53678 47.69013 44.61345
# Shear Modulus (GPa) = 11.75642 22.79585 17.27613
#
# Velocity S-wave (km/s) = 2.37573 3.30817 2.87994
# Velocity P-wave (km/s) = 5.24087 6.12269 5.69886
#
# Compressibility (1/GPa) = 0.02407505
#
# Stress axis : x y z
#
# Youngs Moduli (GPa) = 64.10732 97.66546 61.90198
#
# Poissons Ratio (x) = 0.53523 0.11009
# Poissons Ratio (y) = 0.35132 0.10524
# Poissons Ratio (z) = 0.11401 0.16604
#
# Static dielectric constant tensor:
#      x y z
#    x 1.751790 0.000000 0.000000 
#    y 0.000000 1.798690 0.000000 
#    z 0.000000 0.000000 1.796090 
# 
# From -- ./inp_files/4965.got.cif
#   From: 2010.05.17/outbox.cif.g08.bks.cpg/sg30_3_cif.got.tgz:4965.got - 2010.06.03 17:03:02.
