data_PCOD9342086
_publ_section_title
;
Structure prediction by ZEFSAII (Michael W. Deem and Ramdas Pophale) SiO2 
 PCOD9342086
Probable space group: P N C 2
;
_chemical_formula_sum "Si O2"
_cell_formula_units_Z 20
_cell_length_a 11.392846
_cell_length_b 5.206998
_cell_length_c 15.321120
_cell_angle_alpha 90.000000
_cell_angle_beta 90.000000
_cell_angle_gamma 90.000000
_cell_volume 908.887545
_symmetry_space_group_name_H-M "P N C 2"
_symmetry_group_IT_number 30
_symmetry_cell_setting 'orthorhombic'
loop_
_space_group_symop_operation_xyz
x,y,z
-x,-y,z
-x,1/2+y,1/2+z
x,1/2-y,1/2+z
loop_
_atom_site_type_symbol
_atom_site_label
_atom_site_fract_x
_atom_site_fract_y
_atom_site_fract_z
Si Si1 0.102590 0.824378 0.582270
Si Si2 0.136802 0.688448 0.395205
Si Si3 0.755116 0.814772 0.124069
Si Si4 0.632715 0.937287 0.956162
Si Si5 0.787794 0.687439 0.821693
O O1 0.066500 0.755975 0.482615
O O2 0.149214 0.549912 0.617184
O O3 0.202336 0.041959 0.585877
O O4 0.000000 0.000000 0.624941
O O5 0.270834 0.653280 0.432273
O O6 0.122972 0.417333 0.347123
O O7 0.143421 0.923310 0.330114
O O8 0.734421 0.778565 0.226225
O O9 0.650624 0.890125 0.059023
O O10 0.685582 0.713403 0.894395
O O11 0.500000 0.000000 0.935014
#
# Coordination Sequence:
#
# PCOD9342086 Si02
#       5
#     4   4   4   4   4
#     4  11  21  40  66  91 122 167 206 258 322 377
#     4   9  19  39  59  85 123 162 199 264 301 368
#     4  11  22  40  63  92 131 160 208 265 311 371
#     4   9  21  40  61  92 124 167 206 252 315 376
#     4  10  20  39  61  86 127 164 202 259 313 363
#
# _framework density 22.004922000000001
#
# number of rings (size 3 to 8) (size 9 to 14) (size 15 to 20)
#    1.200    0.800    2.000    1.800    0.000    0.800 
#    3.600    4.000    0.000    0.000    0.000    0.000 
#    0.000    0.000    0.000    0.000    0.000    0.000 
#
# Total GULP energy -111355.927420 kJ/mol
# GULP energy per Si atom -5567.796371 kJ/mol
# Density = 2.195484 g / cm^3
# Si number density = 22.004922 Si / 1000 Ang^3
#
#
#
# Elastic Constant Matrix: (Units=GPa)
#
#
# Indices 1 2 3 4 5 6 
#
# 1 38.9450 -17.1197 -9.5644 0.0000 0.0000 0.0000
# 2 -17.1197 133.4748 19.5851 0.0000 0.0000 0.0000
# 3 -9.5644 19.5851 118.9035 0.0000 0.0000 0.0000
# 4 0.0000 0.0000 0.0000 -10.9016 0.0000 0.0000
# 5 0.0000 0.0000 0.0000 0.0000 10.6498 0.0000
# 6 0.0000 0.0000 0.0000 0.0000 0.0000 8.3062
#
#
#
# Elastic Compliance Matrix: (Units=1/GPa)
#
#
# Indices 1 2 3 4 5 6 
#
# 1 0.027533 0.003286 0.001673 0.000000 0.000000 0.000000
# 2 0.003286 0.008070 -0.001065 0.000000 0.000000 0.000000
# 3 0.001673 -0.001065 0.008720 0.000000 0.000000 0.000000
# 4 0.000000 0.000000 0.000000 -0.091730 0.000000 0.000000
# 5 0.000000 0.000000 0.000000 0.000000 0.093899 0.000000
# 6 0.000000 0.000000 0.000000 0.000000 0.000000 0.120392
#
#
# Mechanical properties :
#
#
# Convention : Reuss Voigt Hill
#
# Bulk Modulus (GPa) = 19.18968 30.79170 24.99069
# Shear Modulus (GPa) = 28.33428 21.50571 24.91999
#
# Velocity S-wave (km/s) = 3.59225 3.12959 3.36888
# Velocity P-wave (km/s) = 5.09365 5.20410 5.14917
#
# Compressibility (1/GPa) = 0.05211135
#
# Stress axis : x y z
#
# Youngs Moduli (GPa) = 36.32054 123.91956 114.67638
#
# Poissons Ratio (x) = -0.40718 -0.19191
# Poissons Ratio (y) = -0.11934 0.12212
# Poissons Ratio (z) = -0.06078 0.13196
#
# Static dielectric constant tensor:
#      x y z
#    x 1.881010 0.000000 0.000000 
#    y 0.000000 1.843300 0.000000 
#    z 0.000000 0.000000 1.804500 
# 
# From -- ./inp_files/5309.got.cif
#   From: 2010.05.17/outbox.cif.g08.bks.cpg/sg30_3_cif.got.tgz:5309.got - 2010.06.03 17:03:02.
