data_PCOD9342335
_publ_section_title
;
Structure prediction by ZEFSAII (Michael W. Deem and Ramdas Pophale) SiO2 
 PCOD9342335
Probable space group: P N C 2
;
_chemical_formula_sum "Si O2"
_cell_formula_units_Z 26
_cell_length_a 11.532258
_cell_length_b 11.738597
_cell_length_c 8.771595
_cell_angle_alpha 90.000000
_cell_angle_beta 90.000000
_cell_angle_gamma 90.000000
_cell_volume 1187.433000
_symmetry_space_group_name_H-M "P N C 2"
_symmetry_group_IT_number 30
_symmetry_cell_setting 'orthorhombic'
loop_
_space_group_symop_operation_xyz
x,y,z
-x,-y,z
-x,1/2+y,1/2+z
x,1/2-y,1/2+z
loop_
_atom_site_type_symbol
_atom_site_label
_atom_site_fract_x
_atom_site_fract_y
_atom_site_fract_z
Si Si1 0.590843 0.598219 0.177430
Si Si2 0.508921 0.700939 0.463645
Si Si3 0.952228 0.617553 0.896997
Si Si4 0.084136 0.782369 0.118039
Si Si5 0.246377 0.773096 0.874310
Si Si6 0.500000 0.500000 0.708675
Si Si7 0.725363 0.004983 0.422569
O O1 0.500000 0.500000 0.216356
O O2 0.602372 0.668009 0.334096
O O3 0.538604 0.681843 0.048286
O O4 0.695000 0.532875 0.094878
O O5 0.383044 0.705082 0.381051
O O6 0.502000 0.608209 0.597121
O O7 0.818655 0.588347 0.870310
O O8 0.000000 0.500000 0.965357
O O9 0.013651 0.641986 0.736284
O O10 0.992238 0.715573 0.012943
O O11 0.172348 0.707885 0.222451
O O12 0.177039 0.840541 0.005281
O O13 0.234064 0.636450 0.908477
O O14 0.387889 0.500480 0.816345
#
# Coordination Sequence:
#
# PCOD9342335 Si02
#       7
#     4   4   4   4   4   2   4
#     4  12  24  43  66 106 142 187 235 288 355 428
#     4  12  25  42  69 106 150 183 244 295 355 434
#     4  11  24  45  69  99 138 177 227 299 346 405
#     4  10  22  41  69 103 124 179 241 276 356 407
#     4  11  21  41  74  96 132 188 238 290 329 422
#     4  12  26  42  70 114 138 194 236 294 366 434
#     4  12  23  45  73  97 145 190 228 292 362 414
#
# _framework density 21.895973000000001
#
# number of rings (size 3 to 8) (size 9 to 14) (size 15 to 20)
#    0.000    0.615    6.154    3.692    0.000    2.462 
#    0.000    4.615    0.000    0.000    0.000    0.000 
#    0.000    0.000    0.000    0.000    0.000    0.000 
#
# Total GULP energy -145201.886568 kJ/mol
# GULP energy per Si atom -5584.687945 kJ/mol
# Density = 2.184614 g / cm^3
# Si number density = 21.895973 Si / 1000 Ang^3
#
#
#
# Elastic Constant Matrix: (Units=GPa)
#
#
# Indices 1 2 3 4 5 6 
#
# 1 90.7799 16.9211 29.8418 0.0000 0.0000 0.0000
# 2 16.9211 79.7399 15.9519 0.0000 0.0000 0.0000
# 3 29.8418 15.9519 110.9826 0.0000 0.0000 0.0000
# 4 0.0000 0.0000 0.0000 37.7847 0.0000 0.0000
# 5 0.0000 0.0000 0.0000 0.0000 9.8647 0.0000
# 6 0.0000 0.0000 0.0000 0.0000 0.0000 38.3364
#
#
#
# Elastic Compliance Matrix: (Units=1/GPa)
#
#
# Indices 1 2 3 4 5 6 
#
# 1 0.012392 -0.002021 -0.003042 0.000000 0.000000 0.000000
# 2 -0.002021 0.013242 -0.001360 0.000000 0.000000 0.000000
# 3 -0.003042 -0.001360 0.010024 0.000000 0.000000 0.000000
# 4 0.000000 0.000000 0.000000 0.026466 0.000000 0.000000
# 5 0.000000 0.000000 0.000000 0.000000 0.101372 0.000000
# 6 0.000000 0.000000 0.000000 0.000000 0.000000 0.026085
#
#
# Mechanical properties :
#
#
# Convention : Reuss Voigt Hill
#
# Bulk Modulus (GPa) = 43.83570 45.21467 44.52518
# Shear Modulus (GPa) = 23.80621 31.78300 27.79461
#
# Velocity S-wave (km/s) = 3.30091 3.81405 3.56672
# Velocity P-wave (km/s) = 5.88145 6.33171 6.11073
#
# Compressibility (1/GPa) = 0.02281246
#
# Stress axis : x y z
#
# Youngs Moduli (GPa) = 80.69548 75.51897 99.76340
#
# Poissons Ratio (x) = 0.15264 0.30344
# Poissons Ratio (y) = 0.16310 0.13566
# Poissons Ratio (z) = 0.24544 0.10269
#
# Static dielectric constant tensor:
#      x y z
#    x 1.845850 0.000000 0.000000 
#    y 0.000000 1.810560 0.000000 
#    z 0.000000 0.000000 1.841990 
# 
# From -- ./inp_files/2382.got.cif
#   From: 2010.05.17/outbox.cif.g08.bks.cpg/sg30_2_cif.got.tgz:2382.got - 2010.06.03 17:03:02.
