data_PCOD9342305
_publ_section_title
;
Structure prediction by ZEFSAII (Michael W. Deem and Ramdas Pophale) SiO2 
 PCOD9342305
Probable space group: P N C 2
;
_chemical_formula_sum "Si O2"
_cell_formula_units_Z 20
_cell_length_a 5.061730
_cell_length_b 9.784656
_cell_length_c 16.150749
_cell_angle_alpha 90.000000
_cell_angle_beta 90.000000
_cell_angle_gamma 90.000000
_cell_volume 799.902778
_symmetry_space_group_name_H-M "P N C 2"
_symmetry_group_IT_number 30
_symmetry_cell_setting 'orthorhombic'
loop_
_space_group_symop_operation_xyz
x,y,z
-x,-y,z
-x,1/2+y,1/2+z
x,1/2-y,1/2+z
loop_
_atom_site_type_symbol
_atom_site_label
_atom_site_fract_x
_atom_site_fract_y
_atom_site_fract_z
Si Si1 0.260517 0.721924 0.068800
Si Si2 0.500000 0.000000 0.252079
Si Si3 0.698134 0.165228 0.390093
Si Si4 0.731828 0.777609 0.677770
Si Si5 0.500000 0.500000 0.490967
Si Si6 0.808297 0.833941 0.860881
O O1 0.495106 0.663617 0.123852
O O2 0.996058 0.730108 0.122997
O O3 0.231197 0.634615 0.984610
O O4 0.366224 0.873771 0.040406
O O5 0.282121 0.938083 0.314522
O O6 0.633271 0.876183 0.202320
O O7 0.393132 0.211512 0.385662
O O8 0.892193 0.288021 0.367800
O O9 0.761464 0.859104 0.763866
O O10 0.278095 0.441190 0.429367
#
# Coordination Sequence:
#
# PCOD9342305 Si02
#       6
#     4   2   4   4   2   4
#     4  11  23  39  61  93 123 155 205 268 313 360
#     4  10  23  40  65  88 124 174 214 250 317 394
#     4  10  22  39  59  88 124 163 205 254 315 385
#     4  11  23  39  61  93 123 155 205 268 313 360
#     4  10  23  40  65  88 124 174 214 250 317 394
#     4  10  22  39  59  88 124 163 205 254 315 385
#
# _framework density 25.003038
#
# number of rings (size 3 to 8) (size 9 to 14) (size 15 to 20)
#    0.000    1.600    0.000    5.400    0.000   19.200 
#    0.000    1.000    0.000    2.400    0.000    0.000 
#    0.000    0.000    0.000    0.000    0.000    0.000 
#
# Total GULP energy -111877.756127 kJ/mol
# GULP energy per Si atom -5593.887806 kJ/mol
# Density = 2.494613 g / cm^3
# Si number density = 25.003038 Si / 1000 Ang^3
#
#
#
# Elastic Constant Matrix: (Units=GPa)
#
#
# Indices 1 2 3 4 5 6 
#
# 1 121.4332 28.4712 59.6088 0.0000 0.0000 0.0000
# 2 28.4712 55.6627 10.0432 0.0000 0.0000 0.0000
# 3 59.6088 10.0432 199.0370 0.0000 0.0000 0.0000
# 4 0.0000 0.0000 0.0000 33.0300 0.0000 0.0000
# 5 0.0000 0.0000 0.0000 0.0000 50.9670 0.0000
# 6 0.0000 0.0000 0.0000 0.0000 0.0000 14.8381
#
#
#
# Elastic Compliance Matrix: (Units=1/GPa)
#
#
# Indices 1 2 3 4 5 6 
#
# 1 0.010890 -0.005028 -0.003008 0.000000 0.000000 0.000000
# 2 -0.005028 0.020451 0.000474 0.000000 0.000000 0.000000
# 3 -0.003008 0.000474 0.005901 0.000000 0.000000 0.000000
# 4 0.000000 0.000000 0.000000 0.030275 0.000000 0.000000
# 5 0.000000 0.000000 0.000000 0.000000 0.019621 0.000000
# 6 0.000000 0.000000 0.000000 0.000000 0.000000 0.067394
#
#
# Mechanical properties :
#
#
# Convention : Reuss Voigt Hill
#
# Bulk Modulus (GPa) = 45.20902 63.59771 54.40337
# Shear Modulus (GPa) = 28.24390 38.30100 33.27245
#
# Velocity S-wave (km/s) = 3.36463 3.91814 3.65188
# Velocity P-wave (km/s) = 5.76324 6.77940 6.29187
#
# Compressibility (1/GPa) = 0.02211948
#
# Stress axis : x y z
#
# Youngs Moduli (GPa) = 91.82573 48.89620 169.46066
#
# Poissons Ratio (x) = 0.24583 0.50970
# Poissons Ratio (y) = 0.46166 -0.08028
# Poissons Ratio (z) = 0.27619 -0.02316
#
# Static dielectric constant tensor:
#      x y z
#    x 1.906610 0.000000 0.000000 
#    y 0.000000 2.196040 0.000000 
#    z 0.000000 0.000000 1.994360 
# 
# From -- ./inp_files/4604.got.cif
#   From: 2010.05.17/outbox.cif.g08.bks.cpg/sg30_3_cif.got.tgz:4604.got - 2010.06.03 17:03:02.
