data_PCOD9342200
_publ_section_title
;
Structure prediction by ZEFSAII (Michael W. Deem and Ramdas Pophale) SiO2 
 PCOD9342200
Probable space group: P N C 2
;
_chemical_formula_sum "Si O2"
_cell_formula_units_Z 30
_cell_length_a 6.431419
_cell_length_b 19.143546
_cell_length_c 13.573302
_cell_angle_alpha 90.000000
_cell_angle_beta 90.000000
_cell_angle_gamma 90.000000
_cell_volume 1671.147188
_symmetry_space_group_name_H-M "P N C 2"
_symmetry_group_IT_number 30
_symmetry_cell_setting 'orthorhombic'
loop_
_space_group_symop_operation_xyz
x,y,z
-x,-y,z
-x,1/2+y,1/2+z
x,1/2-y,1/2+z
loop_
_atom_site_type_symbol
_atom_site_label
_atom_site_fract_x
_atom_site_fract_y
_atom_site_fract_z
Si Si1 0.447141 0.295050 0.359680
Si Si2 0.386802 0.570377 0.464939
Si Si3 0.474989 0.421820 0.863993
Si Si4 0.000000 0.000000 0.033985
Si Si5 0.331372 0.096348 0.146641
Si Si6 0.193872 0.310831 0.977932
Si Si7 0.179969 0.688374 0.825046
Si Si8 0.839945 0.751870 0.183230
O O1 0.534836 0.368495 0.394984
O O2 0.316548 0.259047 0.446567
O O3 0.644505 0.246337 0.339831
O O4 0.292897 0.288378 0.266714
O O5 0.500000 0.500000 0.432403
O O6 0.144476 0.552117 0.470853
O O7 0.468630 0.585365 0.576480
O O8 0.500000 0.500000 0.903080
O O9 0.356202 0.426549 0.759550
O O10 0.345358 0.373226 0.940096
O O11 0.690237 0.383670 0.831852
O O12 0.151342 0.049509 0.097498
O O13 0.284522 0.178528 0.151834
O O14 0.987483 0.314293 0.912334
O O15 0.135849 0.300140 0.091487
O O16 0.048546 0.713783 0.730027
#
# Coordination Sequence:
#
# PCOD9342200 Si02
#       8
#     4   4   4   2   4   4   4   4
#     4  10  21  39  59  83 117 153 195 241 291 343
#     4  10  22  38  58  85 119 156 193 239 296 346
#     4  11  23  39  58  87 124 156 195 236 304 361
#     4  10  24  32  54  94 120 158 186 232 302 356
#     4  11  21  35  57  88 124 151 188 243 298 357
#     4  10  22  39  58  85 116 157 195 241 289 350
#     4  10  22  36  58  90 111 158 191 243 298 337
#     4  11  22  38  61  87 118 148 203 242 292 348
#
# _framework density 17.951740999999998
#
# number of rings (size 3 to 8) (size 9 to 14) (size 15 to 20)
#    0.000    1.600    5.333    1.200    5.600    3.733 
#    0.000    0.667    0.000    1.600    0.000    0.000 
#    0.000    0.000    0.000    0.000    0.000    0.000 
#
# Total GULP energy -167224.728994 kJ/mol
# GULP energy per Si atom -5574.157633 kJ/mol
# Density = 1.791088 g / cm^3
# Si number density = 17.951741 Si / 1000 Ang^3
#
#
#
# Elastic Constant Matrix: (Units=GPa)
#
#
# Indices 1 2 3 4 5 6 
#
# 1 98.1157 29.2081 32.8463 0.0000 0.0000 0.0000
# 2 29.2081 98.5871 38.7670 0.0000 0.0000 0.0000
# 3 32.8463 38.7670 87.7528 0.0000 0.0000 0.0000
# 4 0.0000 0.0000 0.0000 21.8046 0.0000 0.0000
# 5 0.0000 0.0000 0.0000 0.0000 -0.4741 0.0000
# 6 0.0000 0.0000 0.0000 0.0000 0.0000 18.0261
#
#
#
# Elastic Compliance Matrix: (Units=1/GPa)
#
#
# Indices 1 2 3 4 5 6 
#
# 1 0.012024 -0.002169 -0.003542 0.000000 0.000000 0.000000
# 2 -0.002169 0.012667 -0.004784 0.000000 0.000000 0.000000
# 3 -0.003542 -0.004784 0.014835 0.000000 0.000000 0.000000
# 4 0.000000 0.000000 0.000000 0.045862 0.000000 0.000000
# 5 0.000000 0.000000 0.000000 0.000000 -2.109102 0.000000
# 6 0.000000 0.000000 0.000000 0.000000 0.000000 0.055475
#
#
# Mechanical properties :
#
#
# Convention : Reuss Voigt Hill
#
# Bulk Modulus (GPa) = 53.95278 54.01094 53.98186
# Shear Modulus (GPa) = -2.57590 20.11359 8.76884
#
# Velocity S-wave (km/s) = -1.19917 3.35091 2.21253
# Velocity P-wave (km/s) = 5.31058 6.71740 6.05499
#
# Compressibility (1/GPa) = 0.01853473
#
# Stress axis : x y z
#
# Youngs Moduli (GPa) = 83.16941 78.94371 67.40822
#
# Poissons Ratio (x) = 0.17126 0.23877
# Poissons Ratio (y) = 0.18042 0.32249
# Poissons Ratio (z) = 0.29460 0.37767
#
# Static dielectric constant tensor:
#      x y z
#    x 1.650320 0.000000 0.000000 
#    y 0.000000 1.631200 0.000000 
#    z 0.000000 0.000000 1.622330 
# 
# From -- ./inp_files/4798.got.cif
#   From: 2010.05.17/outbox.cif.g08.bks.cpg/sg30_3_cif.got.tgz:4798.got - 2010.06.03 17:03:02.
