data_PCOD9342622
_publ_section_title
;
Structure prediction by ZEFSAII (Michael W. Deem and Ramdas Pophale) SiO2 
 PCOD9342622
Probable space group: P N C 2
;
_chemical_formula_sum "Si O2"
_cell_formula_units_Z 32
_cell_length_a 11.076533
_cell_length_b 15.962426
_cell_length_c 6.913969
_cell_angle_alpha 90.000000
_cell_angle_beta 90.000000
_cell_angle_gamma 90.000000
_cell_volume 1222.447370
_symmetry_space_group_name_H-M "P N C 2"
_symmetry_group_IT_number 30
_symmetry_cell_setting 'orthorhombic'
loop_
_space_group_symop_operation_xyz
x,y,z
-x,-y,z
-x,1/2+y,1/2+z
x,1/2-y,1/2+z
loop_
_atom_site_type_symbol
_atom_site_label
_atom_site_fract_x
_atom_site_fract_y
_atom_site_fract_z
Si Si1 0.343228 0.750000 0.645600
Si Si2 0.517147 0.594402 0.167538
Si Si3 0.846113 0.247776 0.895600
Si Si4 0.207274 0.349982 0.649745
Si Si5 0.482853 0.405598 0.623662
Si Si6 0.037441 0.096951 0.895600
Si Si7 0.967623 0.902229 0.395600
Si Si8 0.207274 0.150018 0.641456
O O1 0.422019 0.834250 0.610501
O O2 0.189289 0.750000 0.645600
O O3 0.307600 0.735280 0.395600
O O4 0.422018 0.665749 0.680699
O O5 0.500000 0.500000 0.093567
O O6 0.501539 0.588839 0.395600
O O7 0.653070 0.623194 0.130677
O O8 0.923491 0.334637 0.895600
O O9 0.931055 0.166159 0.895601
O O10 0.346930 0.376806 0.660525
O O11 0.192692 0.250000 0.645600
O O12 0.177328 0.366945 0.895600
O O13 0.186581 0.370530 0.395600
O O14 0.500000 0.500000 0.697633
O O15 0.068224 0.104122 0.144449
O O16 0.000000 0.000000 0.895600
O O17 0.931777 0.895877 0.646751
O O18 0.000000 0.000000 0.395600
#
# Coordination Sequence:
#
# PCOD9342622 Si02
#       8
#     4   4   4   4   4   4   4   4
#     4  12  26  44  72  98 142 182 218 282 352 400
#     4  11  26  46  71 102 134 179 234 283 334 406
#     4  12  26  44  66 102 144 176 224 276 346 412
#     4  12  23  46  71  98 137 179 228 284 334 397
#     4  11  26  46  71 102 134 179 234 283 334 406
#     4  12  26  43  74 100 132 187 237 273 327 404
#     4  12  28  45  66 102 144 177 217 283 347 404
#     4  12  23  46  71  98 137 179 228 284 334 397
#
# _framework density 26.176995000000002
#
# number of rings (size 3 to 8) (size 9 to 14) (size 15 to 20)
#    0.000    0.250    6.250    2.250    7.000    1.000 
#    0.000    1.250    0.000    0.000    0.000    0.000 
#    0.000    0.000    0.000    0.000    0.000    0.000 
#
# Total GULP energy -178874.749194 kJ/mol
# GULP energy per Si atom -5589.835912 kJ/mol
# Density = 2.611742 g / cm^3
# Si number density = 26.176995 Si / 1000 Ang^3
#
#
#
# Elastic Constant Matrix: (Units=GPa)
#
#
# Indices 1 2 3 4 5 6 
#
# 1 215.8627 159.1850 82.4443 0.0000 0.0000 0.0000
# 2 159.1850 262.3405 37.8071 0.0000 0.0000 0.0000
# 3 82.4443 37.8071 257.5109 0.0000 0.0000 0.0000
# 4 0.0000 0.0000 0.0000 61.4355 0.0000 0.0000
# 5 0.0000 0.0000 0.0000 0.0000 73.3606 0.0000
# 6 0.0000 0.0000 0.0000 0.0000 0.0000 31.5704
#
#
#
# Elastic Compliance Matrix: (Units=1/GPa)
#
#
# Indices 1 2 3 4 5 6 
#
# 1 0.009503 -0.005443 -0.002243 0.000000 0.000000 0.000000
# 2 -0.005443 0.007012 0.000713 0.000000 0.000000 0.000000
# 3 -0.002243 0.000713 0.004497 0.000000 0.000000 0.000000
# 4 0.000000 0.000000 0.000000 0.016277 0.000000 0.000000
# 5 0.000000 0.000000 0.000000 0.000000 0.013631 0.000000
# 6 0.000000 0.000000 0.000000 0.000000 0.000000 0.031675
#
#
# Mechanical properties :
#
#
# Convention : Reuss Voigt Hill
#
# Bulk Modulus (GPa) = 141.53628 143.84300 142.68964
# Shear Modulus (GPa) = 50.55699 63.69180 57.12440
#
# Velocity S-wave (km/s) = 4.39948 4.93802 4.67651
# Velocity P-wave (km/s) = 8.94391 9.35850 9.15355
#
# Compressibility (1/GPa) = 0.00706533
#
# Stress axis : x y z
#
# Youngs Moduli (GPa) = 105.22440 142.61315 222.37655
#
# Poissons Ratio (x) = 0.77629 0.49889
# Poissons Ratio (y) = 0.57277 -0.15861
# Poissons Ratio (z) = 0.23607 -0.10172
#
# Static dielectric constant tensor:
#      x y z
#    x 2.108290 0.000000 0.000000 
#    y 0.000000 2.175590 0.000000 
#    z 0.000000 0.000000 2.703080 
# 
# From -- ./inp_files/2485.got.cif
#   From: 2010.05.17/outbox.cif.g08.bks.cpg/sg30_2_cif.got.tgz:2485.got - 2010.06.03 17:03:02.
