data_PCOD9342909
_publ_section_title
;
Structure prediction by ZEFSAII (Michael W. Deem and Ramdas Pophale) SiO2 
 PCOD9342909
Probable space group: P M N 21
;
_chemical_formula_sum "Si O2"
_cell_formula_units_Z 32
_cell_length_a 8.515971
_cell_length_b 11.783450
_cell_length_c 16.481390
_cell_angle_alpha 90.000000
_cell_angle_beta 90.000000
_cell_angle_gamma 90.000000
_cell_volume 1653.866588
_symmetry_space_group_name_H-M "P M N 21"
_symmetry_group_IT_number 31
_symmetry_cell_setting 'orthorhombic'
loop_
_space_group_symop_operation_xyz
x,y,z
1/2-x,-y,1/2+z
-x,y,z
1/2+x,-y,1/2+z
loop_
_atom_site_type_symbol
_atom_site_label
_atom_site_fract_x
_atom_site_fract_y
_atom_site_fract_z
Si Si1 0.812526 0.439221 0.933550
Si Si2 0.320879 0.259319 0.814988
Si Si3 0.189241 0.690186 0.884181
Si Si4 0.182496 0.215661 0.550047
Si Si5 0.688706 0.187809 0.216625
Si Si6 0.187310 0.381780 0.116310
Si Si7 0.189308 0.933997 0.197348
Si Si8 0.678186 0.596822 0.183102
O O1 0.766663 0.326364 0.885049
O O2 0.752544 0.559487 0.896917
O O3 0.000000 0.448527 0.932773
O O4 0.764214 0.417849 0.026004
O O5 0.500000 0.240123 0.839183
O O6 0.256333 0.145414 0.772997
O O7 0.305763 0.347408 0.740823
O O8 0.240805 0.751131 0.800893
O O9 0.000000 0.686163 0.881970
O O10 0.238703 0.762910 0.963261
O O11 0.256268 0.125000 0.613001
O O12 0.190206 0.335251 0.598774
O O13 0.000000 0.186694 0.538551
O O14 0.500000 0.193902 0.212143
O O15 0.765410 0.256621 0.142553
O O16 0.743269 0.058425 0.210374
O O17 0.283425 0.466182 0.173877
O O18 0.000000 0.398403 0.124399
O O19 0.000000 0.934859 0.197969
O O20 0.500000 0.613811 0.214447
#
# Coordination Sequence:
#
# PCOD9342909 Si02
#       8
#     4   4   4   4   4   4   4   4
#     4  10  21  37  59  89 124 157 195 242 299 364
#     4  10  21  36  59  87 114 152 197 246 297 350
#     4  10  21  39  61  88 122 158 198 247 304 363
#     4  10  20  35  61  92 118 152 197 248 298 353
#     4  11  24  41  62  88 120 162 205 253 304 357
#     4  11  22  37  59  86 120 161 198 243 298 358
#     4  10  22  42  63  84 117 158 204 251 297 358
#     4  10  19  33  56  86 119 152 190 240 297 355
#
# _framework density 19.348597000000002
#
# number of rings (size 3 to 8) (size 9 to 14) (size 15 to 20)
#    0.000    1.750    1.250    3.000    0.000    6.000 
#    2.250    0.000    0.000    0.000    0.000    0.000 
#    0.000    0.000    0.000    0.000    0.000    0.000 
#
# Total GULP energy -178536.523548 kJ/mol
# GULP energy per Si atom -5579.266361 kJ/mol
# Density = 1.930456 g / cm^3
# Si number density = 19.348597 Si / 1000 Ang^3
#
#
#
# Elastic Constant Matrix: (Units=GPa)
#
#
# Indices 1 2 3 4 5 6 
#
# 1 25.4251 19.3795 16.0516 0.0000 0.0000 0.0000
# 2 19.3795 136.1991 44.5809 0.0000 0.0000 0.0000
# 3 16.0516 44.5809 67.1754 0.0000 0.0000 0.0000
# 4 0.0000 0.0000 0.0000 24.9150 0.0000 0.0000
# 5 0.0000 0.0000 0.0000 0.0000 29.3773 0.0000
# 6 0.0000 0.0000 0.0000 0.0000 0.0000 26.7921
#
#
#
# Elastic Compliance Matrix: (Units=1/GPa)
#
#
# Indices 1 2 3 4 5 6 
#
# 1 0.047904 -0.003921 -0.008844 0.000000 0.000000 0.000000
# 2 -0.003921 0.009701 -0.005501 0.000000 0.000000 0.000000
# 3 -0.008844 -0.005501 0.020650 0.000000 0.000000 0.000000
# 4 0.000000 0.000000 0.000000 0.040136 0.000000 0.000000
# 5 0.000000 0.000000 0.000000 0.000000 0.034040 0.000000
# 6 0.000000 0.000000 0.000000 0.000000 0.000000 0.037324
#
#
# Mechanical properties :
#
#
# Convention : Reuss Voigt Hill
#
# Bulk Modulus (GPa) = 23.96818 43.20261 33.58540
# Shear Modulus (GPa) = 20.81638 26.13605 23.47622
#
# Velocity S-wave (km/s) = 3.28359 3.67931 3.48707
# Velocity P-wave (km/s) = 5.17594 6.35820 5.79729
#
# Compressibility (1/GPa) = 0.04172198
#
# Stress axis : x y z
#
# Youngs Moduli (GPa) = 20.87527 103.08560 48.42528
#
# Poissons Ratio (x) = 0.40422 0.42829
# Poissons Ratio (y) = 0.08186 0.26638
# Poissons Ratio (z) = 0.18463 0.56706
#
# Static dielectric constant tensor:
#      x y z
#    x 1.660420 0.000000 0.000000 
#    y 0.000000 1.668330 0.000000 
#    z 0.000000 0.000000 1.711140 
# 
# From -- ./inp_files/5068.got.cif
#   From: 2010.05.17/outbox.cif.g08.bks.cpg/sg31_3_cif.got.tgz:5068.got - 2010.06.03 17:08:30.
