data_PCOD9342244
_publ_section_title
;
Structure prediction by ZEFSAII (Michael W. Deem and Ramdas Pophale) SiO2 
 PCOD9342244
Probable space group: P N C 2
;
_chemical_formula_sum "Si O2"
_cell_formula_units_Z 30
_cell_length_a 6.499884
_cell_length_b 20.998239
_cell_length_c 10.676132
_cell_angle_alpha 90.000000
_cell_angle_beta 90.000000
_cell_angle_gamma 90.000000
_cell_volume 1457.143809
_symmetry_space_group_name_H-M "P N C 2"
_symmetry_group_IT_number 30
_symmetry_cell_setting 'orthorhombic'
loop_
_space_group_symop_operation_xyz
x,y,z
-x,-y,z
-x,1/2+y,1/2+z
x,1/2-y,1/2+z
loop_
_atom_site_type_symbol
_atom_site_label
_atom_site_fract_x
_atom_site_fract_y
_atom_site_fract_z
Si Si1 0.686201 0.050326 0.095620
Si Si2 0.811234 0.718200 0.573040
Si Si3 0.094412 0.873273 0.905623
Si Si4 0.000000 0.500000 0.802920
Si Si5 0.478491 0.715859 0.358874
Si Si6 0.514362 0.656050 0.750903
Si Si7 0.811382 0.650046 0.179522
Si Si8 0.351339 0.061093 0.463230
O O1 0.585782 0.116854 0.138547
O O2 0.500000 0.000000 0.079909
O O3 0.824332 0.063356 0.973981
O O4 0.835049 0.031439 0.209400
O O5 0.613345 0.730534 0.482925
O O6 0.730804 0.683024 0.698289
O O7 0.901334 0.787800 0.606066
O O8 0.953882 0.668521 0.499944
O O9 0.292380 0.830521 0.881598
O O10 0.971999 0.880694 0.776198
O O11 0.859737 0.542511 0.892852
O O12 0.399310 0.781298 0.297774
O O13 0.632364 0.681267 0.263282
O O14 0.537657 0.608431 0.866185
O O15 0.712236 0.599068 0.086820
O O16 0.500000 0.000000 0.483196
#
# Coordination Sequence:
#
# PCOD9342244 Si02
#       8
#     4   4   4   2   4   4   4   4
#     4  12  25  43  67  99 135 178 232 291 339 403
#     4  10  21  41  68 101 135 167 220 289 345 401
#     4  11  25  42  68 102 133 179 230 272 348 421
#     4  12  24  42  68 100 124 170 244 280 338 394
#     4  10  22  41  68  99 132 176 213 284 351 401
#     4  11  20  42  69  98 131 170 219 288 348 395
#     4  10  25  43  64 101 142 174 222 279 347 422
#     4  12  24  45  67  95 138 185 224 283 346 412
#
# _framework density 20.588222999999999
#
# number of rings (size 3 to 8) (size 9 to 14) (size 15 to 20)
#    0.000    1.067    5.333    0.800    1.867    2.133 
#    0.000    4.000    0.000    0.000    0.000    0.000 
#    0.000    0.000    0.000    0.000    0.000    0.000 
#
# Total GULP energy -167584.571161 kJ/mol
# GULP energy per Si atom -5586.152372 kJ/mol
# Density = 2.054136 g / cm^3
# Si number density = 20.588223 Si / 1000 Ang^3
#
#
#
# Elastic Constant Matrix: (Units=GPa)
#
#
# Indices 1 2 3 4 5 6 
#
# 1 63.2899 35.1524 31.3570 0.0000 0.0000 0.0000
# 2 35.1524 99.7977 59.6718 0.0000 0.0000 0.0000
# 3 31.3570 59.6718 117.6563 0.0000 0.0000 0.0000
# 4 0.0000 0.0000 0.0000 24.5112 0.0000 0.0000
# 5 0.0000 0.0000 0.0000 0.0000 34.8476 0.0000
# 6 0.0000 0.0000 0.0000 0.0000 0.0000 23.1306
#
#
#
# Elastic Compliance Matrix: (Units=1/GPa)
#
#
# Indices 1 2 3 4 5 6 
#
# 1 0.020160 -0.005581 -0.002542 0.000000 0.000000 0.000000
# 2 -0.005581 0.015926 -0.006590 0.000000 0.000000 0.000000
# 3 -0.002542 -0.006590 0.012519 0.000000 0.000000 0.000000
# 4 0.000000 0.000000 0.000000 0.040798 0.000000 0.000000
# 5 0.000000 0.000000 0.000000 0.000000 0.028696 0.000000
# 6 0.000000 0.000000 0.000000 0.000000 0.000000 0.043233
#
#
# Mechanical properties :
#
#
# Convention : Reuss Voigt Hill
#
# Bulk Modulus (GPa) = 52.14104 59.23404 55.68754
# Shear Modulus (GPa) = 25.36120 26.80204 26.08162
#
# Velocity S-wave (km/s) = 3.51355 3.61198 3.56311
# Velocity P-wave (km/s) = 6.46844 6.79915 6.63586
#
# Compressibility (1/GPa) = 0.01917875
#
# Stress axis : x y z
#
# Youngs Moduli (GPa) = 49.60406 62.78881 79.87734
#
# Poissons Ratio (x) = 0.35041 0.20308
# Poissons Ratio (y) = 0.27683 0.52640
# Poissons Ratio (z) = 0.12611 0.41378
#
# Static dielectric constant tensor:
#      x y z
#    x 1.874210 0.000000 0.000000 
#    y 0.000000 1.753870 0.000000 
#    z 0.000000 0.000000 1.763630 
# 
# From -- ./inp_files/3254.got.cif
#   From: 2010.05.17/outbox.cif.g08.bks.cpg/sg30_2_cif.got.tgz:3254.got - 2010.06.03 17:03:02.
