data_PCOD9342466
_publ_section_title
;
Structure prediction by ZEFSAII (Michael W. Deem and Ramdas Pophale) SiO2 
 PCOD9342466
Probable space group: P N C 2
;
_chemical_formula_sum "Si O2"
_cell_formula_units_Z 18
_cell_length_a 5.014655
_cell_length_b 16.434458
_cell_length_c 9.106723
_cell_angle_alpha 90.000000
_cell_angle_beta 90.000000
_cell_angle_gamma 90.000000
_cell_volume 750.513610
_symmetry_space_group_name_H-M "P N C 2"
_symmetry_group_IT_number 30
_symmetry_cell_setting 'orthorhombic'
loop_
_space_group_symop_operation_xyz
x,y,z
-x,-y,z
-x,1/2+y,1/2+z
x,1/2-y,1/2+z
loop_
_atom_site_type_symbol
_atom_site_label
_atom_site_fract_x
_atom_site_fract_y
_atom_site_fract_z
Si Si1 0.730650 0.608269 0.754810
Si Si2 0.500000 0.500000 0.515857
Si Si3 0.000000 0.000000 0.708047
Si Si4 0.780714 0.292881 0.681343
Si Si5 0.500000 0.500000 0.009042
Si Si6 0.847228 0.361014 0.370579
O O1 0.715336 0.539021 0.629112
O O2 0.519034 0.675244 0.700006
O O3 0.616609 0.569760 0.903225
O O4 0.019360 0.647856 0.770977
O O5 0.630870 0.427596 0.423720
O O6 0.070930 0.078080 0.808016
O O7 0.749230 0.024455 0.609318
O O8 0.885410 0.306340 0.515609
O O9 0.788058 0.202486 0.742576
#
# Coordination Sequence:
#
# PCOD9342466 Si02
#       6
#     4   2   2   4   2   4
#     4  10  23  45  72 105 144 190 238 301 371 432
#     4   9  21  48  74 104 144 200 248 296 366 462
#     4  12  26  44  70 104 148 192 240 298 358 444
#     4  11  26  44  74 105 151 182 243 306 373 428
#     4  11  25  42  76 104 144 188 250 294 354 440
#     4  11  26  47  73 110 145 197 244 306 372 438
#
# _framework density 23.983574999999998
#
# number of rings (size 3 to 8) (size 9 to 14) (size 15 to 20)
#    0.000    1.333    0.000    3.333    6.222   15.111 
#    0.000    0.000    0.000    0.000    0.000    0.000 
#    0.000    0.000    0.000    0.000    0.000    0.000 
#
# Total GULP energy -100702.878052 kJ/mol
# GULP energy per Si atom -5594.604336 kJ/mol
# Density = 2.392899 g / cm^3
# Si number density = 23.983575 Si / 1000 Ang^3
#
#
#
# Elastic Constant Matrix: (Units=GPa)
#
#
# Indices 1 2 3 4 5 6 
#
# 1 93.0877 24.4609 20.7104 0.0000 0.0000 0.0000
# 2 24.4609 161.2629 71.2607 0.0000 0.0000 0.0000
# 3 20.7104 71.2607 143.1229 0.0000 0.0000 0.0000
# 4 0.0000 0.0000 0.0000 49.3684 0.0000 0.0000
# 5 0.0000 0.0000 0.0000 0.0000 26.3170 0.0000
# 6 0.0000 0.0000 0.0000 0.0000 0.0000 29.1097
#
#
#
# Elastic Compliance Matrix: (Units=1/GPa)
#
#
# Indices 1 2 3 4 5 6 
#
# 1 0.011300 -0.001271 -0.001002 0.000000 0.000000 0.000000
# 2 -0.001271 0.008093 -0.003846 0.000000 0.000000 0.000000
# 3 -0.001002 -0.003846 0.009047 0.000000 0.000000 0.000000
# 4 0.000000 0.000000 0.000000 0.020256 0.000000 0.000000
# 5 0.000000 0.000000 0.000000 0.000000 0.037998 0.000000
# 6 0.000000 0.000000 0.000000 0.000000 0.000000 0.034353
#
#
# Mechanical properties :
#
#
# Convention : Reuss Voigt Hill
#
# Bulk Modulus (GPa) = 61.72229 70.03751 65.87990
# Shear Modulus (GPa) = 36.05294 39.69512 37.87403
#
# Velocity S-wave (km/s) = 3.88136 4.07270 3.97818
# Velocity P-wave (km/s) = 6.77331 7.16809 6.97350
#
# Compressibility (1/GPa) = 0.01620160
#
# Stress axis : x y z
#
# Youngs Moduli (GPa) = 88.49916 123.56010 110.53648
#
# Poissons Ratio (x) = 0.15705 0.11078
# Poissons Ratio (y) = 0.11249 0.42509
# Poissons Ratio (z) = 0.08870 0.47517
#
# Static dielectric constant tensor:
#      x y z
#    x 1.922150 0.000000 0.000000 
#    y 0.000000 1.892590 0.000000 
#    z 0.000000 0.000000 1.998120 
# 
# From -- ./inp_files/1266.got.cif
#   From: 2010.05.17/outbox.cif.g08.bks.cpg/sg30_1_cif.got.tgz:1266.got - 2010.06.03 17:03:02.
