data_PCOD9342158
_publ_section_title
;
Structure prediction by ZEFSAII (Michael W. Deem and Ramdas Pophale) SiO2 
 PCOD9342158
Probable space group: P N C 2
;
_chemical_formula_sum "Si O2"
_cell_formula_units_Z 28
_cell_length_a 6.035249
_cell_length_b 17.574483
_cell_length_c 14.263792
_cell_angle_alpha 90.000000
_cell_angle_beta 90.000000
_cell_angle_gamma 90.000000
_cell_volume 1512.908796
_symmetry_space_group_name_H-M "P N C 2"
_symmetry_group_IT_number 30
_symmetry_cell_setting 'orthorhombic'
loop_
_space_group_symop_operation_xyz
x,y,z
-x,-y,z
-x,1/2+y,1/2+z
x,1/2-y,1/2+z
loop_
_atom_site_type_symbol
_atom_site_label
_atom_site_fract_x
_atom_site_fract_y
_atom_site_fract_z
Si Si1 0.826805 0.721106 0.015430
Si Si2 0.553330 0.234927 0.881536
Si Si3 0.205329 0.653342 0.540069
Si Si4 0.798407 0.905136 0.263406
Si Si5 0.149475 0.616339 0.920789
Si Si6 0.460373 0.267449 0.680721
Si Si7 0.500000 0.000000 0.400252
Si Si8 0.000000 0.500000 0.604869
O O1 0.654008 0.716824 0.100696
O O2 0.998680 0.788625 0.037296
O O3 0.687771 0.745344 0.923662
O O4 0.962259 0.644805 0.992877
O O5 0.701669 0.309403 0.902471
O O6 0.553480 0.222896 0.770392
O O7 0.654505 0.168647 0.945853
O O8 0.357611 0.680580 0.627504
O O9 0.119610 0.567769 0.549871
O O10 0.721476 0.824062 0.225247
O O11 0.024593 0.903361 0.323574
O O12 0.827377 0.958898 0.174186
O O13 0.615747 0.938380 0.333187
O O14 0.305303 0.546558 0.951245
#
# Coordination Sequence:
#
# PCOD9342158 Si02
#       8
#     4   4   4   4   4   4   2   2
#     4  10  21  36  53  81 119 151 198 244 294 354
#     4  10  21  37  55  80 124 152 200 245 293 356
#     4  10  23  35  55  87 125 154 194 247 304 365
#     4  12  21  32  56  85 122 161 183 233 308 372
#     4  11  20  34  51  80 121 149 195 240 297 371
#     4  11  20  36  57  82 119 162 197 245 296 363
#     4  12  20  30  50  82 118 156 194 224 308 376
#     4  12  20  36  52  86 128 154 190 236 312 376
#
# _framework density 18.507393
#
# number of rings (size 3 to 8) (size 9 to 14) (size 15 to 20)
#    0.000    1.143    5.714    1.714    0.000    0.000 
#    0.000    0.000    0.000    0.000    0.000    0.000 
#  192.857    0.000    0.000    0.000    0.000    0.000 
#
# Total GULP energy -156325.711947 kJ/mol
# GULP energy per Si atom -5583.061141 kJ/mol
# Density = 1.846527 g / cm^3
# Si number density = 18.507393 Si / 1000 Ang^3
#
#
#
# Elastic Constant Matrix: (Units=GPa)
#
#
# Indices 1 2 3 4 5 6 
#
# 1 82.1366 36.4189 36.3887 0.0000 0.0000 0.0000
# 2 36.4189 88.6967 52.8772 0.0000 0.0000 0.0000
# 3 36.3887 52.8772 112.4305 0.0000 0.0000 0.0000
# 4 0.0000 0.0000 0.0000 29.7359 0.0000 0.0000
# 5 0.0000 0.0000 0.0000 0.0000 16.6705 0.0000
# 6 0.0000 0.0000 0.0000 0.0000 0.0000 37.7564
#
#
#
# Elastic Compliance Matrix: (Units=1/GPa)
#
#
# Indices 1 2 3 4 5 6 
#
# 1 0.015499 -0.004688 -0.002812 0.000000 0.000000 0.000000
# 2 -0.004688 0.017085 -0.006518 0.000000 0.000000 0.000000
# 3 -0.002812 -0.006518 0.012870 0.000000 0.000000 0.000000
# 4 0.000000 0.000000 0.000000 0.033629 0.000000 0.000000
# 5 0.000000 0.000000 0.000000 0.000000 0.059986 0.000000
# 6 0.000000 0.000000 0.000000 0.000000 0.000000 0.026486
#
#
# Mechanical properties :
#
#
# Convention : Reuss Voigt Hill
#
# Bulk Modulus (GPa) = 57.40845 59.40373 58.40609
# Shear Modulus (GPa) = 25.07575 27.33783 26.20679
#
# Velocity S-wave (km/s) = 3.68490 3.84751 3.76708
# Velocity P-wave (km/s) = 7.01364 7.20450 7.10971
#
# Compressibility (1/GPa) = 0.01741904
#
# Stress axis : x y z
#
# Youngs Moduli (GPa) = 64.52039 58.53119 77.70080
#
# Poissons Ratio (x) = 0.27438 0.21847
# Poissons Ratio (y) = 0.30245 0.50645
# Poissons Ratio (z) = 0.18141 0.38151
#
# Static dielectric constant tensor:
#      x y z
#    x 1.705460 0.000000 0.000000 
#    y 0.000000 1.636670 0.000000 
#    z 0.000000 0.000000 1.646940 
# 
# From -- ./inp_files/4748.got.cif
#   From: 2010.05.17/outbox.cif.g08.bks.cpg/sg30_3_cif.got.tgz:4748.got - 2010.06.03 17:03:02.
