data_PCOD9342258
_publ_section_title
;
Structure prediction by ZEFSAII (Michael W. Deem and Ramdas Pophale) SiO2 
 PCOD9342258
Probable space group: P N C 2
;
_chemical_formula_sum "Si O2"
_cell_formula_units_Z 16
_cell_length_a 10.946929
_cell_length_b 6.964672
_cell_length_c 9.551560
_cell_angle_alpha 90.000000
_cell_angle_beta 90.000000
_cell_angle_gamma 90.000000
_cell_volume 728.227840
_symmetry_space_group_name_H-M "P N C 2"
_symmetry_group_IT_number 30
_symmetry_cell_setting 'orthorhombic'
loop_
_space_group_symop_operation_xyz
x,y,z
-x,-y,z
-x,1/2+y,1/2+z
x,1/2-y,1/2+z
loop_
_atom_site_type_symbol
_atom_site_label
_atom_site_fract_x
_atom_site_fract_y
_atom_site_fract_z
Si Si1 0.256135 0.784451 0.693310
Si Si2 0.317418 0.328509 0.343416
Si Si3 0.518623 0.729496 0.088434
Si Si4 0.144668 0.513936 0.917749
O O1 0.389137 0.705005 0.648981
O O2 0.178629 0.627874 0.775996
O O3 0.197036 0.873785 0.553289
O O4 0.274824 0.959110 0.803340
O O5 0.374378 0.247110 0.200710
O O6 0.431062 0.320953 0.448494
O O7 0.212076 0.191684 0.403956
O O8 0.500000 0.500000 0.064368
O O9 0.000000 0.500000 0.931771
#
# Coordination Sequence:
#
# PCOD9342258 Si02
#       4
#     4   4   4   4
#     4  11  27  48  73 110 141 191 245 304 365 431
#     4  11  23  46  71 107 144 186 232 304 364 427
#     4  10  21  42  71 106 145 175 240 296 366 422
#     4  12  29  48  72 105 148 196 247 291 361 447
#
# _framework density 21.971146999999998
#
# number of rings (size 3 to 8) (size 9 to 14) (size 15 to 20)
#    0.000    1.000    5.000    1.500    7.000    0.000 
#    0.000    0.000    0.000    0.000    0.000    0.000 
#    0.000    0.000    0.000    0.000    0.000    0.000 
#
# Total GULP energy -89583.045450 kJ/mol
# GULP energy per Si atom -5598.940341 kJ/mol
# Density = 2.192114 g / cm^3
# Si number density = 21.971147 Si / 1000 Ang^3
#
#
#
# Elastic Constant Matrix: (Units=GPa)
#
#
# Indices 1 2 3 4 5 6 
#
# 1 132.1495 36.5299 11.6680 0.0000 0.0000 0.0000
# 2 36.5299 82.2745 18.9646 0.0000 0.0000 0.0000
# 3 11.6680 18.9646 81.6651 0.0000 0.0000 0.0000
# 4 0.0000 0.0000 0.0000 33.5107 0.0000 0.0000
# 5 0.0000 0.0000 0.0000 0.0000 -3.2471 0.0000
# 6 0.0000 0.0000 0.0000 0.0000 0.0000 24.3071
#
#
#
# Elastic Compliance Matrix: (Units=1/GPa)
#
#
# Indices 1 2 3 4 5 6 
#
# 1 0.008636 -0.003751 -0.000363 0.000000 0.000000 0.000000
# 2 -0.003751 0.014471 -0.002825 0.000000 0.000000 0.000000
# 3 -0.000363 -0.002825 0.012953 0.000000 0.000000 0.000000
# 4 0.000000 0.000000 0.000000 0.029841 0.000000 0.000000
# 5 0.000000 0.000000 0.000000 0.000000 -0.307966 0.000000
# 6 0.000000 0.000000 0.000000 0.000000 0.000000 0.041140
#
#
# Mechanical properties :
#
#
# Convention : Reuss Voigt Hill
#
# Bulk Modulus (GPa) = 45.07877 47.82377 46.45127
# Shear Modulus (GPa) = -27.83136 26.17590 -0.82773
#
# Velocity S-wave (km/s) = -3.56297 3.45538 -0.61445
# Velocity P-wave (km/s) = 1.90670 6.14275 4.54801
#
# Compressibility (1/GPa) = 0.02218339
#
# Stress axis : x y z
#
# Youngs Moduli (GPa) = 115.79373 69.10440 77.20267
#
# Poissons Ratio (x) = 0.25919 0.02801
# Poissons Ratio (y) = 0.43432 0.21807
# Poissons Ratio (z) = 0.04202 0.19519
#
# Static dielectric constant tensor:
#      x y z
#    x 1.764030 0.000000 0.000000 
#    y 0.000000 1.828500 0.000000 
#    z 0.000000 0.000000 1.794310 
# 
# From -- ./inp_files/2210.got.cif
#   From: 2010.05.17/outbox.cif.g08.bks.cpg/sg30_2_cif.got.tgz:2210.got - 2010.06.03 17:03:02.
