data_PCOD9342218
_publ_section_title
;
Structure prediction by ZEFSAII (Michael W. Deem and Ramdas Pophale) SiO2 
 PCOD9342218
Probable space group: P N C 2
;
_chemical_formula_sum "Si O2"
_cell_formula_units_Z 32
_cell_length_a 10.774262
_cell_length_b 14.586276
_cell_length_c 8.521260
_cell_angle_alpha 90.000000
_cell_angle_beta 90.000000
_cell_angle_gamma 90.000000
_cell_volume 1339.170198
_symmetry_space_group_name_H-M "P N C 2"
_symmetry_group_IT_number 30
_symmetry_cell_setting 'orthorhombic'
loop_
_space_group_symop_operation_xyz
x,y,z
-x,-y,z
-x,1/2+y,1/2+z
x,1/2-y,1/2+z
loop_
_atom_site_type_symbol
_atom_site_label
_atom_site_fract_x
_atom_site_fract_y
_atom_site_fract_z
Si Si1 0.936198 0.408432 0.770410
Si Si2 0.446298 0.834620 0.972845
Si Si3 0.605744 0.694968 0.763683
Si Si4 0.089730 0.921011 0.915547
Si Si5 0.338510 0.543479 0.228026
Si Si6 0.263063 0.145523 0.570493
Si Si7 0.012563 0.217796 0.703476
Si Si8 0.759938 0.188367 0.511887
O O1 0.887398 0.434642 0.598475
O O2 0.000000 0.500000 0.839776
O O3 0.032506 0.325182 0.736658
O O4 0.823598 0.364763 0.867907
O O5 0.523178 0.759249 0.875490
O O6 0.433696 0.921005 0.858752
O O7 0.513583 0.854209 0.138906
O O8 0.313147 0.783227 0.989606
O O9 0.684329 0.763417 0.654717
O O10 0.693921 0.642671 0.888404
O O11 0.210373 0.937704 0.816081
O O12 0.014933 0.829124 0.871920
O O13 0.000000 0.000000 0.859635
O O14 0.324858 0.442737 0.155145
O O15 0.338471 0.618797 0.089467
O O16 0.116658 0.160572 0.609210
O O17 0.879076 0.208303 0.620041
#
# Coordination Sequence:
#
# PCOD9342218 Si02
#       8
#     4   4   4   4   4   4   4   4
#     4  11  25  36  60 104 156 188 248 297 365 453
#     4  11  22  49  73 102 141 192 249 317 364 442
#     4  10  26  47  73  98 147 191 249 302 380 445
#     4  10  21  40  61 105 146 193 232 296 371 457
#     4  11  23  41  79 104 144 184 256 308 381 452
#     4  11  26  46  74 107 145 198 239 311 390 463
#     4  11  23  41  68 100 150 195 235 294 388 453
#     4  11  24  41  71 110 139 196 238 316 377 436
#
# _framework density 23.895394
#
# number of rings (size 3 to 8) (size 9 to 14) (size 15 to 20)
#    0.000    1.250    2.500    3.000    7.000    0.500 
#    0.000    1.250    5.500    0.000    0.000    0.000 
#    0.000    0.000    0.000    0.000    0.000    0.000 
#
# Total GULP energy -178777.948029 kJ/mol
# GULP energy per Si atom -5586.810876 kJ/mol
# Density = 2.384101 g / cm^3
# Si number density = 23.895394 Si / 1000 Ang^3
#
#
#
# Elastic Constant Matrix: (Units=GPa)
#
#
# Indices 1 2 3 4 5 6 
#
# 1 88.2043 27.1245 50.4780 0.0000 0.0000 0.0000
# 2 27.1245 125.4284 41.3170 0.0000 0.0000 0.0000
# 3 50.4780 41.3170 133.8865 0.0000 0.0000 0.0000
# 4 0.0000 0.0000 0.0000 32.9325 0.0000 0.0000
# 5 0.0000 0.0000 0.0000 0.0000 25.1431 0.0000
# 6 0.0000 0.0000 0.0000 0.0000 0.0000 22.8719
#
#
#
# Elastic Compliance Matrix: (Units=1/GPa)
#
#
# Indices 1 2 3 4 5 6 
#
# 1 0.014708 -0.001507 -0.005080 0.000000 0.000000 0.000000
# 2 -0.001507 0.009029 -0.002218 0.000000 0.000000 0.000000
# 3 -0.005080 -0.002218 0.010069 0.000000 0.000000 0.000000
# 4 0.000000 0.000000 0.000000 0.030365 0.000000 0.000000
# 5 0.000000 0.000000 0.000000 0.000000 0.039772 0.000000
# 6 0.000000 0.000000 0.000000 0.000000 0.000000 0.043722
#
#
# Mechanical properties :
#
#
# Convention : Reuss Voigt Hill
#
# Bulk Modulus (GPa) = 61.74681 65.03981 63.39331
# Shear Modulus (GPa) = 29.29545 31.42948 30.36246
#
# Velocity S-wave (km/s) = 3.50521 3.63063 3.56847
# Velocity P-wave (km/s) = 6.50220 6.69724 6.60044
#
# Compressibility (1/GPa) = 0.01619517
#
# Stress axis : x y z
#
# Youngs Moduli (GPa) = 67.98970 110.75056 99.31634
#
# Poissons Ratio (x) = 0.16693 0.50454
# Poissons Ratio (y) = 0.10248 0.22030
# Poissons Ratio (z) = 0.34540 0.24566
#
# Static dielectric constant tensor:
#      x y z
#    x 1.985260 0.000000 0.000000 
#    y 0.000000 1.959630 0.000000 
#    z 0.000000 0.000000 1.942180 
# 
# From -- ./inp_files/2484.got.cif
#   From: 2010.05.17/outbox.cif.g08.bks.cpg/sg30_2_cif.got.tgz:2484.got - 2010.06.03 17:03:02.
