data_PCOD9342917
_publ_section_title
;
Structure prediction by ZEFSAII (Michael W. Deem and Ramdas Pophale) SiO2 
 PCOD9342917
Probable space group: P M N 21
;
_chemical_formula_sum "Si O2"
_cell_formula_units_Z 32
_cell_length_a 8.459186
_cell_length_b 16.162665
_cell_length_c 11.396258
_cell_angle_alpha 90.000000
_cell_angle_beta 90.000000
_cell_angle_gamma 90.000000
_cell_volume 1558.130463
_symmetry_space_group_name_H-M "P M N 21"
_symmetry_group_IT_number 31
_symmetry_cell_setting 'orthorhombic'
loop_
_space_group_symop_operation_xyz
x,y,z
1/2-x,-y,1/2+z
-x,y,z
1/2+x,-y,1/2+z
loop_
_atom_site_type_symbol
_atom_site_label
_atom_site_fract_x
_atom_site_fract_y
_atom_site_fract_z
Si Si1 0.308826 0.974275 0.400380
Si Si2 0.684513 0.274893 0.538325
Si Si3 0.809609 0.159707 0.095310
Si Si4 0.317259 0.159896 0.751988
Si Si5 0.184850 0.529872 0.355020
Si Si6 0.316298 0.704388 0.418214
Si Si7 0.686846 0.550453 0.098554
Si Si8 0.189477 0.844669 0.855647
O O1 0.500000 0.973064 0.394511
O O2 0.260226 0.913819 0.506699
O O3 0.240199 0.931549 0.282983
O O4 0.254606 0.068522 0.410923
O O5 0.500000 0.300451 0.529934
O O6 0.689709 0.193996 0.621092
O O7 0.775534 0.351811 0.592941
O O8 0.749687 0.239309 0.416394
O O9 0.732025 0.151586 0.220359
O O10 0.000000 0.155420 0.104634
O O11 0.771326 0.248795 0.037875
O O12 0.500000 0.168529 0.790581
O O13 0.207875 0.222640 0.824426
O O14 0.212574 0.626688 0.382559
O O15 0.251537 0.515173 0.223417
O O16 0.250541 0.485070 0.473290
O O17 0.000000 0.510538 0.348627
O O18 0.500000 0.679210 0.421520
O O19 0.500000 0.536660 0.098790
O O20 0.000000 0.841906 0.870514
#
# Coordination Sequence:
#
# PCOD9342917 Si02
#       8
#     4   4   4   4   4   4   4   4
#     4   9  20  37  56  80 114 154 195 245 300 353
#     4  10  22  39  60  86 119 159 198 249 306 359
#     4   9  20  37  56  81 115 152 193 246 302 361
#     4  10  19  33  59  87 112 147 194 241 288 349
#     4  11  24  42  65  96 128 163 209 261 313 375
#     4  10  20  37  62  87 114 151 192 240 300 358
#     4  11  25  43  66  95 128 166 211 259 316 382
#     4  10  22  38  56  82 118 158 200 249 305 361
#
# _framework density 20.537434999999999
#
# number of rings (size 3 to 8) (size 9 to 14) (size 15 to 20)
#    0.000    2.000    1.250    2.250    1.750    7.000 
#    0.000    5.000    0.000    0.000    0.000    0.000 
#    0.000    0.000    0.000    0.000    0.000    0.000 
#
# Total GULP energy -178460.003266 kJ/mol
# GULP energy per Si atom -5576.875102 kJ/mol
# Density = 2.049069 g / cm^3
# Si number density = 20.537435 Si / 1000 Ang^3
#
#
#
# Elastic Constant Matrix: (Units=GPa)
#
#
# Indices 1 2 3 4 5 6 
#
# 1 15.8571 3.9166 26.0867 0.0000 0.0000 0.0000
# 2 3.9166 42.1383 31.6957 0.0000 0.0000 0.0000
# 3 26.0867 31.6957 118.5126 0.0000 0.0000 0.0000
# 4 0.0000 0.0000 0.0000 25.5824 0.0000 0.0000
# 5 0.0000 0.0000 0.0000 0.0000 39.2876 0.0000
# 6 0.0000 0.0000 0.0000 0.0000 0.0000 24.1923
#
#
#
# Elastic Compliance Matrix: (Units=1/GPa)
#
#
# Indices 1 2 3 4 5 6 
#
# 1 0.101659 0.009242 -0.024849 0.000000 0.000000 0.000000
# 2 0.009242 0.030548 -0.010204 0.000000 0.000000 0.000000
# 3 -0.024849 -0.010204 0.016637 0.000000 0.000000 0.000000
# 4 0.000000 0.000000 0.000000 0.039089 0.000000 0.000000
# 5 0.000000 0.000000 0.000000 0.000000 0.025453 0.000000
# 6 0.000000 0.000000 0.000000 0.000000 0.000000 0.041335
#
#
# Mechanical properties :
#
#
# Convention : Reuss Voigt Hill
#
# Bulk Modulus (GPa) = 10.28577 33.32291 21.80434
# Shear Modulus (GPa) = 14.76010 25.46639 20.11324
#
# Velocity S-wave (km/s) = 2.68375 3.52518 3.13284
# Velocity P-wave (km/s) = 3.82394 5.72974 4.87096
#
# Compressibility (1/GPa) = 0.09722172
#
# Stress axis : x y z
#
# Youngs Moduli (GPa) = 9.83678 32.73560 60.10826
#
# Poissons Ratio (x) = -0.30254 1.49361
# Poissons Ratio (y) = -0.09091 0.61336
# Poissons Ratio (z) = 0.24443 0.33404
#
# Static dielectric constant tensor:
#      x y z
#    x 1.714700 0.000000 0.000000 
#    y 0.000000 1.727690 0.000000 
#    z 0.000000 0.000000 1.782800 
# 
# From -- ./inp_files/3704.got.cif
#   From: 2010.05.17/outbox.cif.g08.bks.cpg/sg31_2_cif.got.tgz:3704.got - 2010.06.03 17:08:30.
