data_PCOD9342109
_publ_section_title
;
Structure prediction by ZEFSAII (Michael W. Deem and Ramdas Pophale) SiO2 
 PCOD9342109
Probable space group: P N C 2
;
_chemical_formula_sum "Si O2"
_cell_formula_units_Z 30
_cell_length_a 5.063027
_cell_length_b 21.872252
_cell_length_c 13.185733
_cell_angle_alpha 90.000000
_cell_angle_beta 90.000000
_cell_angle_gamma 90.000000
_cell_volume 1460.185467
_symmetry_space_group_name_H-M "P N C 2"
_symmetry_group_IT_number 30
_symmetry_cell_setting 'orthorhombic'
loop_
_space_group_symop_operation_xyz
x,y,z
-x,-y,z
-x,1/2+y,1/2+z
x,1/2-y,1/2+z
loop_
_atom_site_type_symbol
_atom_site_label
_atom_site_fract_x
_atom_site_fract_y
_atom_site_fract_z
Si Si1 0.491791 0.143093 0.722600
Si Si2 0.500000 0.500000 0.638933
Si Si3 0.930259 0.863218 0.459169
Si Si4 0.107020 0.085906 0.045223
Si Si5 0.001937 0.071015 0.660140
Si Si6 0.563000 0.211797 0.525233
Si Si7 0.389485 0.651419 0.453174
Si Si8 0.895007 0.430338 0.756145
O O1 0.709157 0.096605 0.677381
O O2 0.478803 0.197717 0.641155
O O3 0.588638 0.161148 0.833088
O O4 0.210668 0.109164 0.726724
O O5 0.743167 0.520749 0.567922
O O6 0.600960 0.445451 0.712642
O O7 0.901580 0.915957 0.544774
O O8 0.161816 0.820950 0.502151
O O9 0.036911 0.892699 0.355741
O O10 0.664321 0.822268 0.458237
O O11 0.030649 0.102535 0.160593
O O12 0.342435 0.122341 0.994044
O O13 0.849152 0.105328 0.981250
O O14 0.000000 0.000000 0.683969
O O15 0.617519 0.282286 0.504286
O O16 0.000000 0.500000 0.771129
#
# Coordination Sequence:
#
# PCOD9342109 Si02
#       8
#     4   2   4   4   4   4   4   4
#     4  10  23  42  63  90 128 160 212 266 314 382
#     4  10  22  46  60  98 140 170 210 284 324 396
#     4  10  22  39  65  94 128 168 214 261 326 382
#     4  11  24  41  65  91 132 163 218 260 326 388
#     4  10  20  41  61  92 126 166 207 263 313 379
#     4  10  24  42  64  94 129 164 217 273 314 377
#     4  12  24  44  66  94 122 177 215 265 327 385
#     4  10  22  39  65  98 134 169 210 267 327 396
#
# _framework density 20.545335000000001
#
# number of rings (size 3 to 8) (size 9 to 14) (size 15 to 20)
#    0.000    1.600    1.333    2.400    3.733    2.133 
#    7.200    0.667    0.000    0.000    0.000    0.000 
#    0.000    0.000    0.000    0.000    0.000    0.000 
#
# Total GULP energy -167245.120978 kJ/mol
# GULP energy per Si atom -5574.837366 kJ/mol
# Density = 2.049857 g / cm^3
# Si number density = 20.545335 Si / 1000 Ang^3
#
#
#
# Elastic Constant Matrix: (Units=GPa)
#
#
# Indices 1 2 3 4 5 6 
#
# 1 87.5310 2.8802 12.4874 0.0000 0.0000 0.0000
# 2 2.8802 58.8497 38.3825 0.0000 0.0000 0.0000
# 3 12.4874 38.3825 113.9472 0.0000 0.0000 0.0000
# 4 0.0000 0.0000 0.0000 4.1125 0.0000 0.0000
# 5 0.0000 0.0000 0.0000 0.0000 163.7163 0.0000
# 6 0.0000 0.0000 0.0000 0.0000 0.0000 13.6230
#
#
#
# Elastic Compliance Matrix: (Units=1/GPa)
#
#
# Indices 1 2 3 4 5 6 
#
# 1 0.011611 0.000335 -0.001385 0.000000 0.000000 0.000000
# 2 0.000335 0.021786 -0.007375 0.000000 0.000000 0.000000
# 3 -0.001385 -0.007375 0.011412 0.000000 0.000000 0.000000
# 4 0.000000 0.000000 0.000000 0.243159 0.000000 0.000000
# 5 0.000000 0.000000 0.000000 0.000000 0.006108 0.000000
# 6 0.000000 0.000000 0.000000 0.000000 0.000000 0.073405
#
#
# Mechanical properties :
#
#
# Convention : Reuss Voigt Hill
#
# Bulk Modulus (GPa) = 35.76700 40.86980 38.31840
# Shear Modulus (GPa) = 12.70155 50.06223 31.38189
#
# Velocity S-wave (km/s) = 2.48910 4.94162 3.91250
# Velocity P-wave (km/s) = 5.07025 7.24535 6.25310
#
# Compressibility (1/GPa) = 0.02795874
#
# Stress axis : x y z
#
# Youngs Moduli (GPa) = 86.12418 45.90033 87.62582
#
# Poissons Ratio (x) = -0.01539 0.12140
# Poissons Ratio (y) = -0.02888 0.64627
# Poissons Ratio (z) = 0.11932 0.33853
#
# Static dielectric constant tensor:
#      x y z
#    x 1.655270 0.000000 0.000000 
#    y 0.000000 1.777730 0.000000 
#    z 0.000000 0.000000 1.732730 
# 
# From -- ./inp_files/3237.got.cif
#   From: 2010.05.17/outbox.cif.g08.bks.cpg/sg30_2_cif.got.tgz:3237.got - 2010.06.03 17:03:02.
