data_PCOD9342481
_publ_section_title
;
Structure prediction by ZEFSAII (Michael W. Deem and Ramdas Pophale) SiO2 
 PCOD9342481
Probable space group: P N C 2
;
_chemical_formula_sum "Si O2"
_cell_formula_units_Z 26
_cell_length_a 12.537894
_cell_length_b 8.961585
_cell_length_c 11.835995
_cell_angle_alpha 90.000000
_cell_angle_beta 90.000000
_cell_angle_gamma 90.000000
_cell_volume 1329.885330
_symmetry_space_group_name_H-M "P N C 2"
_symmetry_group_IT_number 30
_symmetry_cell_setting 'orthorhombic'
loop_
_space_group_symop_operation_xyz
x,y,z
-x,-y,z
-x,1/2+y,1/2+z
x,1/2-y,1/2+z
loop_
_atom_site_type_symbol
_atom_site_label
_atom_site_fract_x
_atom_site_fract_y
_atom_site_fract_z
Si Si1 0.000000 0.000000 0.494611
Si Si2 0.179478 0.571481 0.145337
Si Si3 0.463271 0.344469 0.163112
Si Si4 0.670950 0.332228 0.730129
Si Si5 0.612573 0.560590 0.534516
Si Si6 0.225672 0.043271 0.411117
Si Si7 0.732943 0.626183 0.326139
O O1 0.096137 0.049093 0.414275
O O2 0.933606 0.103145 0.583528
O O3 0.239771 0.719068 0.183887
O O4 0.178254 0.456891 0.250837
O O5 0.244833 0.488514 0.044185
O O6 0.500000 0.500000 0.109021
O O7 0.561185 0.262634 0.228557
O O8 0.414221 0.227619 0.074643
O O9 0.373932 0.385233 0.253194
O O10 0.645309 0.464788 0.642917
O O11 0.716574 0.411155 0.842234
O O12 0.500000 0.500000 0.488577
O O13 0.706377 0.547949 0.444280
O O14 0.255005 0.200671 0.356858
#
# Coordination Sequence:
#
# PCOD9342481 Si02
#       7
#     2   4   4   4   4   4   4
#     4   8  24  48  64 100 124 172 236 298 340 394
#     4  10  24  43  67  97 130 170 232 283 339 402
#     4  11  22  40  60 100 139 179 219 265 327 410
#     4  11  23  40  68  94 138 175 220 270 344 401
#     4  10  24  40  58  97 138 177 220 260 317 412
#     4  10  24  44  67  95 132 171 227 284 339 398
#     4  12  22  40  68  93 134 177 221 267 338 407
#
# _framework density 19.550556
#
# number of rings (size 3 to 8) (size 9 to 14) (size 15 to 20)
#    0.923    0.615    3.077    1.385    2.154    2.462 
#    0.000    0.000    0.000    1.846    0.000    0.000 
#    0.000    0.000    0.000    0.000    0.000    0.000 
#
# Total GULP energy -144740.668806 kJ/mol
# GULP energy per Si atom -5566.948800 kJ/mol
# Density = 1.950606 g / cm^3
# Si number density = 19.550556 Si / 1000 Ang^3
#
#
#
# Elastic Constant Matrix: (Units=GPa)
#
#
# Indices 1 2 3 4 5 6 
#
# 1 48.7386 -5.2191 12.1948 0.0000 0.0000 0.0000
# 2 -5.2191 93.4710 28.6618 0.0000 0.0000 0.0000
# 3 12.1948 28.6618 74.3985 0.0000 0.0000 0.0000
# 4 0.0000 0.0000 0.0000 19.7439 0.0000 0.0000
# 5 0.0000 0.0000 0.0000 0.0000 72.2470 0.0000
# 6 0.0000 0.0000 0.0000 0.0000 0.0000 13.8075
#
#
#
# Elastic Compliance Matrix: (Units=1/GPa)
#
#
# Indices 1 2 3 4 5 6 
#
# 1 0.021956 0.002642 -0.004616 0.000000 0.000000 0.000000
# 2 0.002642 0.012449 -0.005229 0.000000 0.000000 0.000000
# 3 -0.004616 -0.005229 0.016212 0.000000 0.000000 0.000000
# 4 0.000000 0.000000 0.000000 0.050649 0.000000 0.000000
# 5 0.000000 0.000000 0.000000 0.000000 0.013841 0.000000
# 6 0.000000 0.000000 0.000000 0.000000 0.000000 0.072424
#
#
# Mechanical properties :
#
#
# Convention : Reuss Voigt Hill
#
# Bulk Modulus (GPa) = 27.61722 31.98701 29.80211
# Shear Modulus (GPa) = 23.36347 33.22440 28.29393
#
# Velocity S-wave (km/s) = 3.46067 4.12686 3.80836
# Velocity P-wave (km/s) = 5.48863 6.25337 5.88344
#
# Compressibility (1/GPa) = 0.03620930
#
# Stress axis : x y z
#
# Youngs Moduli (GPa) = 45.54657 80.32491 61.68150
#
# Poissons Ratio (x) = -0.21218 0.28475
# Poissons Ratio (y) = -0.12031 0.32254
# Poissons Ratio (z) = 0.21026 0.42003
#
# Static dielectric constant tensor:
#      x y z
#    x 1.727730 0.000000 0.000000 
#    y 0.000000 1.705840 0.000000 
#    z 0.000000 0.000000 1.700060 
# 
# From -- ./inp_files/4334.got.cif
#   From: 2010.05.17/outbox.cif.g08.bks.cpg/sg30_3_cif.got.tgz:4334.got - 2010.06.03 17:03:02.
