data_PCOD9342815
_publ_section_title
;
Structure prediction by ZEFSAII (Michael W. Deem and Ramdas Pophale) SiO2 
 PCOD9342815
Probable space group: P M N 21
;
_chemical_formula_sum "Si O2"
_cell_formula_units_Z 32
_cell_length_a 9.076074
_cell_length_b 11.743983
_cell_length_c 17.973705
_cell_angle_alpha 90.000000
_cell_angle_beta 90.000000
_cell_angle_gamma 90.000000
_cell_volume 1915.803893
_symmetry_space_group_name_H-M "P M N 21"
_symmetry_group_IT_number 31
_symmetry_cell_setting 'orthorhombic'
loop_
_space_group_symop_operation_xyz
x,y,z
1/2-x,-y,1/2+z
-x,y,z
1/2+x,-y,1/2+z
loop_
_atom_site_type_symbol
_atom_site_label
_atom_site_fract_x
_atom_site_fract_y
_atom_site_fract_z
Si Si1 0.676257 0.908732 0.023260
Si Si2 0.174729 0.832643 0.483825
Si Si3 0.673525 0.317190 0.244005
Si Si4 0.675794 0.082082 0.821245
Si Si5 0.676727 0.151022 0.373359
Si Si6 0.322476 0.796657 0.181696
Si Si7 0.673801 0.535037 0.164593
Si Si8 0.674595 0.666770 0.595469
O O1 0.500000 0.899831 0.011178
O O2 0.710902 0.857852 0.103571
O O3 0.757367 0.844913 0.956003
O O4 0.713571 0.042693 0.016928
O O5 0.202747 0.843394 0.395761
O O6 0.262638 0.735219 0.525964
O O7 0.000000 0.815069 0.495393
O O8 0.500000 0.293198 0.231265
O O9 0.715851 0.257302 0.320304
O O10 0.691784 0.454072 0.237548
O O11 0.763684 0.275332 0.171811
O O12 0.500000 0.064877 0.815592
O O13 0.740930 0.142292 0.749142
O O14 0.754976 0.961667 0.835667
O O15 0.500000 0.141663 0.376839
O O16 0.500000 0.802191 0.193116
O O17 0.279252 0.663875 0.175969
O O18 0.500000 0.535340 0.145924
O O19 0.760640 0.461285 0.103222
O O20 0.500000 0.665126 0.595645
#
# Coordination Sequence:
#
# PCOD9342815 Si02
#       8
#     4   4   4   4   4   4   4   4
#     4   9  20  35  53  78 108 138 170 211 261 313
#     4   9  18  35  52  72 107 140 167 205 262 317
#     4   8  17  33  53  74 100 136 173 211 260 310
#     4  10  22  36  53  78 110 140 171 218 263 309
#     4  10  19  34  55  79 106 137 174 214 262 313
#     4  10  20  36  57  77 103 144 180 209 258 320
#     4   8  17  35  53  72 104 141 178 213 255 313
#     4  10  19  30  52  80 102 128 173 223 257 297
#
# _framework density 16.703171000000001
#
# number of rings (size 3 to 8) (size 9 to 14) (size 15 to 20)
#    0.750    2.000    0.000    2.250    1.750    4.500 
#    0.000    1.250    0.000    3.000    0.000    0.000 
#    0.000    0.000    0.000    0.000    0.000    0.000 
#
# Total GULP energy -178152.886445 kJ/mol
# GULP energy per Si atom -5567.277701 kJ/mol
# Density = 1.666515 g / cm^3
# Si number density = 16.703171 Si / 1000 Ang^3
#
#
#
# Elastic Constant Matrix: (Units=GPa)
#
#
# Indices 1 2 3 4 5 6 
#
# 1 46.7557 39.0590 54.9468 0.0000 0.0000 0.0000
# 2 39.0590 75.3464 72.5948 0.0000 0.0000 0.0000
# 3 54.9468 72.5948 119.4577 0.0000 0.0000 0.0000
# 4 0.0000 0.0000 0.0000 -14.3405 0.0000 0.0000
# 5 0.0000 0.0000 0.0000 0.0000 28.8430 0.0000
# 6 0.0000 0.0000 0.0000 0.0000 0.0000 15.3461
#
#
#
# Elastic Compliance Matrix: (Units=1/GPa)
#
#
# Indices 1 2 3 4 5 6 
#
# 1 0.048892 -0.008873 -0.017097 0.000000 0.000000 0.000000
# 2 -0.008873 0.033630 -0.016356 0.000000 0.000000 0.000000
# 3 -0.017097 -0.016356 0.026175 0.000000 0.000000 0.000000
# 4 0.000000 0.000000 0.000000 -0.069733 0.000000 0.000000
# 5 0.000000 0.000000 0.000000 0.000000 0.034671 0.000000
# 6 0.000000 0.000000 0.000000 0.000000 0.000000 0.065163
#
#
# Mechanical properties :
#
#
# Convention : Reuss Voigt Hill
#
# Bulk Modulus (GPa) = 41.58734 63.86234 52.72484
# Shear Modulus (GPa) = 21.60161 10.96699 16.28430
#
# Velocity S-wave (km/s) = 3.60010 2.56516 3.12576
# Velocity P-wave (km/s) = 6.49868 6.86222 6.68292
#
# Compressibility (1/GPa) = 0.02404578
#
# Stress axis : x y z
#
# Youngs Moduli (GPa) = 20.45337 29.73497 38.20483
#
# Poissons Ratio (x) = 0.26383 0.65317
# Poissons Ratio (y) = 0.18148 0.62488
# Poissons Ratio (z) = 0.34968 0.48635
#
# Static dielectric constant tensor:
#      x y z
#    x 1.556720 0.000000 0.000000 
#    y 0.000000 1.560200 0.000000 
#    z 0.000000 0.000000 1.550930 
# 
# From -- ./inp_files/5913.got.cif
#   From: 2010.05.17/outbox.cif.g08.bks.cpg/sg31_3_cif.got.tgz:5913.got - 2010.06.03 17:08:30.
