data_PCOD9342452
_publ_section_title
;
Structure prediction by ZEFSAII (Michael W. Deem and Ramdas Pophale) SiO2 
 PCOD9342452
Probable space group: P N C 2
;
_chemical_formula_sum "Si O2"
_cell_formula_units_Z 26
_cell_length_a 6.210934
_cell_length_b 16.641568
_cell_length_c 10.919649
_cell_angle_alpha 90.000000
_cell_angle_beta 90.000000
_cell_angle_gamma 90.000000
_cell_volume 1128.651432
_symmetry_space_group_name_H-M "P N C 2"
_symmetry_group_IT_number 30
_symmetry_cell_setting 'orthorhombic'
loop_
_space_group_symop_operation_xyz
x,y,z
-x,-y,z
-x,1/2+y,1/2+z
x,1/2-y,1/2+z
loop_
_atom_site_type_symbol
_atom_site_label
_atom_site_fract_x
_atom_site_fract_y
_atom_site_fract_z
Si Si1 0.306085 0.552070 0.302100
Si Si2 0.000000 0.500000 0.099026
Si Si3 0.671610 0.198369 0.686425
Si Si4 0.677836 0.633518 0.987489
Si Si5 0.822588 0.058675 0.060704
Si Si6 0.454420 0.365800 0.717462
Si Si7 0.070273 0.281804 0.569113
O O1 0.500000 0.500000 0.254519
O O2 0.368056 0.644305 0.306366
O O3 0.239175 0.517766 0.432023
O O4 0.133510 0.553368 0.194920
O O5 0.837263 0.561143 0.031041
O O6 0.519554 0.156928 0.580664
O O7 0.586984 0.284339 0.725142
O O8 0.912318 0.221808 0.643510
O O9 0.596019 0.607445 0.854473
O O10 0.807447 0.719035 0.980525
O O11 0.613035 0.076039 0.141645
O O12 0.923217 0.144915 0.022174
O O13 0.000000 0.000000 0.121021
O O14 0.242342 0.333521 0.647556
#
# Coordination Sequence:
#
# PCOD9342452 Si02
#       7
#     4   2   4   4   4   4   4
#     4  12  25  43  73 106 145 184 253 312 372 445
#     4  12  24  46  68 116 138 204 242 320 380 438
#     4  10  23  43  72 105 141 184 245 305 376 439
#     4  11  24  45  75 106 148 187 249 305 379 454
#     4  11  27  46  72 103 150 202 246 305 375 447
#     4  10  26  45  71 109 145 198 242 305 374 454
#     4  10  24  44  70 108 139 193 246 296 377 441
#
# _framework density 23.036342999999999
#
# number of rings (size 3 to 8) (size 9 to 14) (size 15 to 20)
#    0.000    1.231    3.846    0.000   10.769    1.231 
#    1.385    1.538    0.000    0.000    0.000    0.000 
#    0.000    0.000    0.000    0.000    0.000    0.000 
#
# Total GULP energy -144977.781860 kJ/mol
# GULP energy per Si atom -5576.068533 kJ/mol
# Density = 2.298391 g / cm^3
# Si number density = 23.036343 Si / 1000 Ang^3
#
#
#
# Elastic Constant Matrix: (Units=GPa)
#
#
# Indices 1 2 3 4 5 6 
#
# 1 125.0829 46.7291 59.7022 0.0000 0.0000 0.0000
# 2 46.7291 119.6104 30.5347 0.0000 0.0000 0.0000
# 3 59.7022 30.5347 112.0959 0.0000 0.0000 0.0000
# 4 0.0000 0.0000 0.0000 16.5892 0.0000 0.0000
# 5 0.0000 0.0000 0.0000 0.0000 -24.8784 0.0000
# 6 0.0000 0.0000 0.0000 0.0000 0.0000 47.7587
#
#
#
# Elastic Compliance Matrix: (Units=1/GPa)
#
#
# Indices 1 2 3 4 5 6 
#
# 1 0.011772 -0.003223 -0.005392 0.000000 0.000000 0.000000
# 2 -0.003223 0.009868 -0.000972 0.000000 0.000000 0.000000
# 3 -0.005392 -0.000972 0.012057 0.000000 0.000000 0.000000
# 4 0.000000 0.000000 0.000000 0.060280 0.000000 0.000000
# 5 0.000000 0.000000 0.000000 0.000000 -0.040196 0.000000
# 6 0.000000 0.000000 0.000000 0.000000 0.000000 0.020939
#
#
# Mechanical properties :
#
#
# Convention : Reuss Voigt Hill
#
# Bulk Modulus (GPa) = 68.84816 70.08014 69.46415
# Shear Modulus (GPa) = 50.64086 22.54878 36.59482
#
# Velocity S-wave (km/s) = 4.69369 3.13203 3.99001
# Velocity P-wave (km/s) = 7.70234 6.60054 7.17262
#
# Compressibility (1/GPa) = 0.01452472
#
# Stress axis : x y z
#
# Youngs Moduli (GPa) = 84.94539 101.34270 82.93674
#
# Poissons Ratio (x) = 0.32659 0.44720
# Poissons Ratio (y) = 0.27375 0.08057
# Poissons Ratio (z) = 0.45803 0.09846
#
# Static dielectric constant tensor:
#      x y z
#    x 2.181340 0.000000 0.000000 
#    y 0.000000 2.564300 0.000000 
#    z 0.000000 0.000000 1.845370 
# 
# From -- ./inp_files/3176.got.cif
#   From: 2010.05.17/outbox.cif.g08.bks.cpg/sg30_2_cif.got.tgz:3176.got - 2010.06.03 17:03:02.
