data_PCOD9342063
_publ_section_title
;
Structure prediction by ZEFSAII (Michael W. Deem and Ramdas Pophale) SiO2 
 PCOD9342063
Probable space group: P N C 2
;
_chemical_formula_sum "Si O2"
_cell_formula_units_Z 22
_cell_length_a 11.202459
_cell_length_b 14.650783
_cell_length_c 5.363543
_cell_angle_alpha 90.000000
_cell_angle_beta 90.000000
_cell_angle_gamma 90.000000
_cell_volume 880.290400
_symmetry_space_group_name_H-M "P N C 2"
_symmetry_group_IT_number 30
_symmetry_cell_setting 'orthorhombic'
loop_
_space_group_symop_operation_xyz
x,y,z
-x,-y,z
-x,1/2+y,1/2+z
x,1/2-y,1/2+z
loop_
_atom_site_type_symbol
_atom_site_label
_atom_site_fract_x
_atom_site_fract_y
_atom_site_fract_z
Si Si1 0.710693 0.735096 0.480850
Si Si2 0.245473 0.471930 0.473330
Si Si3 0.500000 0.500000 0.725726
Si Si4 0.163908 0.935885 0.461252
Si Si5 0.033005 0.197380 0.478078
Si Si6 0.389896 0.688766 0.880035
O O1 0.640036 0.748673 0.731568
O O2 0.766862 0.636131 0.467120
O O3 0.823009 0.803340 0.477247
O O4 0.382925 0.488493 0.554802
O O5 0.168568 0.508903 0.703538
O O6 0.213510 0.514167 0.207365
O O7 0.472260 0.594761 0.876605
O O8 0.033346 0.896894 0.512889
O O9 0.256058 0.852792 0.408621
O O10 0.997959 0.259985 0.712715
O O11 0.399948 0.742448 0.615902
#
# Coordination Sequence:
#
# PCOD9342063 Si02
#       6
#     4   4   2   4   4   4
#     4  10  22  42  63  91 128 169 218 268 333 412
#     4  11  24  42  65  93 132 174 217 280 343 392
#     4  10  26  44  66 102 138 172 234 290 328 416
#     4  11  22  40  65  95 129 167 221 279 330 405
#     4  10  20  38  62  89 123 164 208 265 322 390
#     4  11  23  40  66  97 130 176 220 271 342 395
#
# _framework density 24.991751000000001
#
# number of rings (size 3 to 8) (size 9 to 14) (size 15 to 20)
#    0.000    1.455    0.000    5.455    0.000    8.000 
#    0.000   21.818    0.000    0.000    0.000    0.000 
#    0.000    0.000    0.000    0.000    0.000    0.000 
#
# Total GULP energy -123148.293980 kJ/mol
# GULP energy per Si atom -5597.649726 kJ/mol
# Density = 2.493487 g / cm^3
# Si number density = 24.991751 Si / 1000 Ang^3
#
#
#
# Elastic Constant Matrix: (Units=GPa)
#
#
# Indices 1 2 3 4 5 6 
#
# 1 68.0437 19.6579 6.0111 0.0000 0.0000 0.0000
# 2 19.6579 120.1080 73.9678 0.0000 0.0000 0.0000
# 3 6.0111 73.9678 237.4860 0.0000 0.0000 0.0000
# 4 0.0000 0.0000 0.0000 59.2644 0.0000 0.0000
# 5 0.0000 0.0000 0.0000 0.0000 -30.0738 0.0000
# 6 0.0000 0.0000 0.0000 0.0000 0.0000 38.6054
#
#
#
# Elastic Compliance Matrix: (Units=1/GPa)
#
#
# Indices 1 2 3 4 5 6 
#
# 1 0.015472 -0.002835 0.000491 0.000000 0.000000 0.000000
# 2 -0.002835 0.010821 -0.003299 0.000000 0.000000 0.000000
# 3 0.000491 -0.003299 0.005226 0.000000 0.000000 0.000000
# 4 0.000000 0.000000 0.000000 0.016874 0.000000 0.000000
# 5 0.000000 0.000000 0.000000 0.000000 -0.033251 0.000000
# 6 0.000000 0.000000 0.000000 0.000000 0.000000 0.025903
#
#
# Mechanical properties :
#
#
# Convention : Reuss Voigt Hill
#
# Bulk Modulus (GPa) = 49.42017 69.43460 59.42739
# Shear Modulus (GPa) = 84.64036 35.29259 59.96648
#
# Velocity S-wave (km/s) = 5.82588 3.76196 4.90373
# Velocity P-wave (km/s) = 8.06672 6.83470 7.47613
#
# Compressibility (1/GPa) = 0.02023465
#
# Stress axis : x y z
#
# Youngs Moduli (GPa) = 64.63280 92.41050 191.36033
#
# Poissons Ratio (x) = 0.26197 -0.09402
# Poissons Ratio (y) = 0.18323 0.63123
# Poissons Ratio (z) = -0.03176 0.30483
#
# Static dielectric constant tensor:
#      x y z
#    x 1.968340 0.000000 0.000000 
#    y 0.000000 2.044030 0.000000 
#    z 0.000000 0.000000 2.002830 
# 
# From -- ./inp_files/666.got.cif
#   From: 2010.05.17/outbox.cif.g08.bks.cpg/sg30_1_cif.got.tgz:666.got - 2010.06.03 17:03:02.
