data_PCOD9342462
_publ_section_title
;
Structure prediction by ZEFSAII (Michael W. Deem and Ramdas Pophale) SiO2 
 PCOD9342462
Probable space group: P N C 2
;
_chemical_formula_sum "Si O2"
_cell_formula_units_Z 16
_cell_length_a 7.703360
_cell_length_b 5.273325
_cell_length_c 17.803342
_cell_angle_alpha 90.000000
_cell_angle_beta 90.000000
_cell_angle_gamma 90.000000
_cell_volume 723.213071
_symmetry_space_group_name_H-M "P N C 2"
_symmetry_group_IT_number 30
_symmetry_cell_setting 'orthorhombic'
loop_
_space_group_symop_operation_xyz
x,y,z
-x,-y,z
-x,1/2+y,1/2+z
x,1/2-y,1/2+z
loop_
_atom_site_type_symbol
_atom_site_label
_atom_site_fract_x
_atom_site_fract_y
_atom_site_fract_z
Si Si1 0.659778 0.681531 0.765380
Si Si2 0.000000 0.000000 0.336575
Si Si3 0.500000 0.500000 0.379715
Si Si4 0.500000 0.000000 0.631926
Si Si5 0.000000 0.500000 0.443486
Si Si6 0.654768 0.330546 0.518118
O O1 0.500000 0.500000 0.783745
O O2 0.603731 0.809469 0.687277
O O3 0.835475 0.532398 0.781154
O O4 0.651924 0.904866 0.826930
O O5 0.003264 0.753342 0.391510
O O6 0.571417 0.284905 0.435766
O O7 0.349440 0.897059 0.575902
O O8 0.831630 0.472112 0.497796
O O9 0.500000 0.500000 0.552773
#
# Coordination Sequence:
#
# PCOD9342462 Si02
#       6
#     4   2   2   2   2   4
#     4  11  24  46  72 106 149 197 256 309 389 452
#     4  12  26  46  79 115 142 194 260 326 372 455
#     4   9  20  40  72 103 134 188 246 319 356 454
#     4  11  26  46  74 103 160 212 246 315 406 472
#     4  12  26  44  79 117 144 188 260 328 382 435
#     4  10  23  44  70 109 143 196 247 315 384 453
#
# _framework density 22.123494000000001
#
# number of rings (size 3 to 8) (size 9 to 14) (size 15 to 20)
#    0.750    0.500    2.500    2.250   12.250    0.000 
#    0.000    7.500    0.000    0.000    0.000    0.000 
#    0.000    0.000    0.000    0.000    0.000    0.000 
#
# Total GULP energy -89092.735929 kJ/mol
# GULP energy per Si atom -5568.295996 kJ/mol
# Density = 2.207314 g / cm^3
# Si number density = 22.123494 Si / 1000 Ang^3
#
#
#
# Elastic Constant Matrix: (Units=GPa)
#
#
# Indices 1 2 3 4 5 6 
#
# 1 191.0991 51.7617 61.2075 0.0000 0.0000 0.0000
# 2 51.7617 108.9913 66.0113 0.0000 0.0000 0.0000
# 3 61.2075 66.0113 163.3464 0.0000 0.0000 0.0000
# 4 0.0000 0.0000 0.0000 29.3871 0.0000 0.0000
# 5 0.0000 0.0000 0.0000 0.0000 16.3729 0.0000
# 6 0.0000 0.0000 0.0000 0.0000 0.0000 31.3002
#
#
#
# Elastic Compliance Matrix: (Units=1/GPa)
#
#
# Indices 1 2 3 4 5 6 
#
# 1 0.006278 -0.002061 -0.001519 0.000000 0.000000 0.000000
# 2 -0.002061 0.012825 -0.004411 0.000000 0.000000 0.000000
# 3 -0.001519 -0.004411 0.008474 0.000000 0.000000 0.000000
# 4 0.000000 0.000000 0.000000 0.034029 0.000000 0.000000
# 5 0.000000 0.000000 0.000000 0.000000 0.061077 0.000000
# 6 0.000000 0.000000 0.000000 0.000000 0.000000 0.031949
#
#
# Mechanical properties :
#
#
# Convention : Reuss Voigt Hill
#
# Bulk Modulus (GPa) = 86.24835 91.26640 88.75738
# Shear Modulus (GPa) = 28.65694 34.37578 31.51636
#
# Velocity S-wave (km/s) = 3.60296 3.94612 3.77844
# Velocity P-wave (km/s) = 7.50853 7.88069 7.69686
#
# Compressibility (1/GPa) = 0.01159442
#
# Stress axis : x y z
#
# Youngs Moduli (GPa) = 159.29032 77.97132 118.01251
#
# Poissons Ratio (x) = 0.16072 0.17931
# Poissons Ratio (y) = 0.32833 0.52050
# Poissons Ratio (z) = 0.24202 0.34390
#
# Static dielectric constant tensor:
#      x y z
#    x 1.813320 0.000000 0.000000 
#    y 0.000000 2.447930 0.000000 
#    z 0.000000 0.000000 1.797270 
# 
# From -- ./inp_files/4866.got.cif
#   From: 2010.05.17/outbox.cif.g08.bks.cpg/sg30_3_cif.got.tgz:4866.got - 2010.06.03 17:03:02.
