data_PCOD9342844
_publ_section_title
;
Structure prediction by ZEFSAII (Michael W. Deem and Ramdas Pophale) SiO2 
 PCOD9342844
Probable space group: P M N 21
;
_chemical_formula_sum "Si O2"
_cell_formula_units_Z 32
_cell_length_a 9.037223
_cell_length_b 11.806416
_cell_length_c 17.815324
_cell_angle_alpha 90.000000
_cell_angle_beta 90.000000
_cell_angle_gamma 90.000000
_cell_volume 1900.845441
_symmetry_space_group_name_H-M "P M N 21"
_symmetry_group_IT_number 31
_symmetry_cell_setting 'orthorhombic'
loop_
_space_group_symop_operation_xyz
x,y,z
1/2-x,-y,1/2+z
-x,y,z
1/2+x,-y,1/2+z
loop_
_atom_site_type_symbol
_atom_site_label
_atom_site_fract_x
_atom_site_fract_y
_atom_site_fract_z
Si Si1 0.169640 0.563013 0.898360
Si Si2 0.320828 0.230964 0.182630
Si Si3 0.322262 0.112305 0.481760
Si Si4 0.668529 0.467049 0.124556
Si Si5 0.332652 0.326765 0.565596
Si Si6 0.176232 0.145583 0.030461
Si Si7 0.170979 0.647014 0.458061
Si Si8 0.176662 0.219044 0.336574
O O1 0.243112 0.439841 0.904311
O O2 0.267128 0.653241 0.853615
O O3 0.000000 0.559949 0.871037
O O4 0.165225 0.612765 0.983537
O O5 0.500000 0.227461 0.182139
O O6 0.272943 0.363495 0.174481
O O7 0.252670 0.183528 0.258814
O O8 0.256349 0.168859 0.109638
O O9 0.500000 0.131328 0.471033
O O10 0.272736 0.201924 0.546094
O O11 0.238429 0.145111 0.405717
O O12 0.299956 0.983171 0.504943
O O13 0.500000 0.487763 0.146450
O O14 0.749801 0.586417 0.119574
O O15 0.669433 0.413453 0.040364
O O16 0.500000 0.314849 0.592498
O O17 0.245226 0.235289 0.971912
O O18 0.000000 0.165845 0.037794
O O19 0.000000 0.662968 0.436091
O O20 0.000000 0.214271 0.332749
#
# Coordination Sequence:
#
# PCOD9342844 Si02
#       8
#     4   4   4   4   4   4   4   4
#     4   9  16  28  46  68  95 125 155 191 241 294
#     4  10  20  34  50  70 100 132 163 207 261 311
#     4   9  19  34  50  71 101 136 172 209 252 302
#     4   8  15  26  42  65  91 119 148 184 233 286
#     4   8  14  25  43  66  91 119 150 188 232 279
#     4  10  19  32  51  74 100 133 175 216 253 299
#     4   9  16  27  44  69  98 124 155 196 241 287
#     4  11  21  32  50  75 100 128 166 211 259 310
#
# _framework density 16.834614999999999
#
# number of rings (size 3 to 8) (size 9 to 14) (size 15 to 20)
#    0.000    2.750    0.000    4.125    0.000    7.500 
#    0.000    0.000    0.000    1.500    0.000    3.500 
#    0.000    0.000    0.000    0.000    0.000    0.000 
#
# Total GULP energy -178235.854249 kJ/mol
# GULP energy per Si atom -5569.870445 kJ/mol
# Density = 1.679630 g / cm^3
# Si number density = 16.834615 Si / 1000 Ang^3
#
#
#
# Elastic Constant Matrix: (Units=GPa)
#
#
# Indices 1 2 3 4 5 6 
#
# 1 100.3620 63.0256 34.4324 0.0000 0.0000 0.0000
# 2 63.0256 122.3453 31.1172 0.0000 0.0000 0.0000
# 3 34.4324 31.1172 47.6885 0.0000 0.0000 0.0000
# 4 0.0000 0.0000 0.0000 11.2340 0.0000 0.0000
# 5 0.0000 0.0000 0.0000 0.0000 10.9801 0.0000
# 6 0.0000 0.0000 0.0000 0.0000 0.0000 24.3812
#
#
#
# Elastic Compliance Matrix: (Units=1/GPa)
#
#
# Indices 1 2 3 4 5 6 
#
# 1 0.016841 -0.006694 -0.007792 0.000000 0.000000 0.000000
# 2 -0.006694 0.012460 -0.003298 0.000000 0.000000 0.000000
# 3 -0.007792 -0.003298 0.028747 0.000000 0.000000 0.000000
# 4 0.000000 0.000000 0.000000 0.089015 0.000000 0.000000
# 5 0.000000 0.000000 0.000000 0.000000 0.091073 0.000000
# 6 0.000000 0.000000 0.000000 0.000000 0.000000 0.041015
#
#
# Mechanical properties :
#
#
# Convention : Reuss Voigt Hill
#
# Bulk Modulus (GPa) = 44.47971 58.61625 51.54798
# Shear Modulus (GPa) = 15.51773 18.77377 17.14575
#
# Velocity S-wave (km/s) = 3.03937 3.34307 3.19483
# Velocity P-wave (km/s) = 6.22864 7.05662 6.65552
#
# Compressibility (1/GPa) = 0.02248216
#
# Stress axis : x y z
#
# Youngs Moduli (GPa) = 59.38023 80.25365 34.78625
#
# Poissons Ratio (x) = 0.53719 0.27105
# Poissons Ratio (y) = 0.39747 0.11471
# Poissons Ratio (z) = 0.46267 0.26465
#
# Static dielectric constant tensor:
#      x y z
#    x 1.572400 0.000000 0.000000 
#    y 0.000000 1.576940 0.000000 
#    z 0.000000 0.000000 1.577410 
# 
# From -- ./inp_files/5019.got.cif
#   From: 2010.05.17/outbox.cif.g08.bks.cpg/sg31_3_cif.got.tgz:5019.got - 2010.06.03 17:08:30.
