data_PCOD9342528
_publ_section_title
;
Structure prediction by ZEFSAII (Michael W. Deem and Ramdas Pophale) SiO2 
 PCOD9342528
Probable space group: P N C 2
;
_chemical_formula_sum "Si O2"
_cell_formula_units_Z 26
_cell_length_a 6.729597
_cell_length_b 14.844617
_cell_length_c 12.159306
_cell_angle_alpha 90.000000
_cell_angle_beta 90.000000
_cell_angle_gamma 90.000000
_cell_volume 1214.693877
_symmetry_space_group_name_H-M "P N C 2"
_symmetry_group_IT_number 30
_symmetry_cell_setting 'orthorhombic'
loop_
_space_group_symop_operation_xyz
x,y,z
-x,-y,z
-x,1/2+y,1/2+z
x,1/2-y,1/2+z
loop_
_atom_site_type_symbol
_atom_site_label
_atom_site_fract_x
_atom_site_fract_y
_atom_site_fract_z
Si Si1 0.369245 0.697040 0.062410
Si Si2 0.500000 0.500000 0.369098
Si Si3 0.000000 0.500000 0.001840
Si Si4 0.500000 0.000000 0.225819
Si Si5 0.032532 0.249532 0.164954
Si Si6 0.209250 0.637193 0.845856
Si Si7 0.360893 0.364645 0.557693
Si Si8 0.703375 0.918273 0.674926
O O1 0.475804 0.790726 0.090379
O O2 0.501775 0.618975 0.117292
O O3 0.149923 0.698560 0.110257
O O4 0.344451 0.694151 0.930639
O O5 0.448009 0.415743 0.449679
O O6 0.325086 0.484535 0.278758
O O7 0.064657 0.580186 0.923044
O O8 0.175679 0.467281 0.079926
O O9 0.362689 0.932318 0.292146
O O10 0.644399 0.942177 0.148562
O O11 0.153038 0.189741 0.073721
O O12 0.181248 0.326482 0.209232
O O13 0.926939 0.190444 0.259343
#
# Coordination Sequence:
#
# PCOD9342528 Si02
#       8
#     4   2   2   2   4   4   4   4
#     4  11  24  46  68 101 139 185 233 290 350 432
#     4  11  26  45  72  98 144 193 220 303 358 400
#     4  12  24  44  64 108 136 180 242 290 340 428
#     4  11  22  45  66 108 134 179 234 295 344 426
#     4  11  25  46  69 103 139 182 234 289 343 438
#     4  12  24  40  77  98 137 187 229 285 364 405
#     4  10  25  46  67 100 143 179 235 286 351 422
#     4  11  26  45  69 100 146 179 239 289 350 417
#
# _framework density 21.404568999999999
#
# number of rings (size 3 to 8) (size 9 to 14) (size 15 to 20)
#    0.000    0.923    3.077    2.769    4.308    0.000 
#    0.000    0.000    0.000    0.000    0.000    0.000 
#    0.000    0.000    0.000    0.000    0.000    0.000 
#
# Total GULP energy -145002.505150 kJ/mol
# GULP energy per Si atom -5577.019429 kJ/mol
# Density = 2.135585 g / cm^3
# Si number density = 21.404569 Si / 1000 Ang^3
#
#
#
# Elastic Constant Matrix: (Units=GPa)
#
#
# Indices 1 2 3 4 5 6 
#
# 1 121.6519 44.5446 41.1252 0.0000 0.0000 0.0000
# 2 44.5446 82.2198 45.9180 0.0000 0.0000 0.0000
# 3 41.1252 45.9180 104.6580 0.0000 0.0000 0.0000
# 4 0.0000 0.0000 0.0000 38.6366 0.0000 0.0000
# 5 0.0000 0.0000 0.0000 0.0000 31.0772 0.0000
# 6 0.0000 0.0000 0.0000 0.0000 0.0000 45.5602
#
#
#
# Elastic Compliance Matrix: (Units=1/GPa)
#
#
# Indices 1 2 3 4 5 6 
#
# 1 0.010618 -0.004533 -0.002183 0.000000 0.000000 0.000000
# 2 -0.004533 0.018045 -0.006136 0.000000 0.000000 0.000000
# 3 -0.002183 -0.006136 0.013105 0.000000 0.000000 0.000000
# 4 0.000000 0.000000 0.000000 0.025882 0.000000 0.000000
# 5 0.000000 0.000000 0.000000 0.000000 0.032178 0.000000
# 6 0.000000 0.000000 0.000000 0.000000 0.000000 0.021949
#
#
# Mechanical properties :
#
#
# Convention : Reuss Voigt Hill
#
# Bulk Modulus (GPa) = 62.25393 63.52278 62.88835
# Shear Modulus (GPa) = 32.71451 34.85093 33.78272
#
# Velocity S-wave (km/s) = 3.91370 4.03947 3.97709
# Velocity P-wave (km/s) = 7.04062 7.17622 7.10874
#
# Compressibility (1/GPa) = 0.01606324
#
# Stress axis : x y z
#
# Youngs Moduli (GPa) = 94.17760 55.41605 76.30667
#
# Poissons Ratio (x) = 0.25122 0.16661
# Poissons Ratio (y) = 0.42693 0.46821
# Poissons Ratio (z) = 0.20563 0.34003
#
# Static dielectric constant tensor:
#      x y z
#    x 1.787280 0.000000 0.000000 
#    y 0.000000 1.789880 0.000000 
#    z 0.000000 0.000000 1.782120 
# 
# From -- ./inp_files/3189.got.cif
#   From: 2010.05.17/outbox.cif.g08.bks.cpg/sg30_2_cif.got.tgz:3189.got - 2010.06.03 17:03:02.
