data_PCOD9342649
_publ_section_title
;
Structure prediction by ZEFSAII (Michael W. Deem and Ramdas Pophale) SiO2 
 PCOD9342649
Probable space group: P N C 2
;
_chemical_formula_sum "Si O2"
_cell_formula_units_Z 14
_cell_length_a 4.947421
_cell_length_b 9.047293
_cell_length_c 11.473670
_cell_angle_alpha 90.000000
_cell_angle_beta 90.000000
_cell_angle_gamma 90.000000
_cell_volume 513.570274
_symmetry_space_group_name_H-M "P N C 2"
_symmetry_group_IT_number 30
_symmetry_cell_setting 'orthorhombic'
loop_
_space_group_symop_operation_xyz
x,y,z
-x,-y,z
-x,1/2+y,1/2+z
x,1/2-y,1/2+z
loop_
_atom_site_type_symbol
_atom_site_label
_atom_site_fract_x
_atom_site_fract_y
_atom_site_fract_z
Si Si1 0.213158 0.285724 0.784110
Si Si2 0.000000 0.500000 0.353429
Si Si3 0.766770 0.258676 0.158217
Si Si4 0.500000 0.000000 0.010023
Si Si5 0.000000 0.000000 0.483087
O O1 0.986670 0.147764 0.777654
O O2 0.513147 0.236531 0.755369
O O3 0.165846 0.390688 0.894879
O O4 0.043789 0.344319 0.674738
O O5 0.744616 0.542150 0.425902
O O6 0.599535 0.141944 0.076719
O O7 0.818091 0.397821 0.067931
#
# Coordination Sequence:
#
# PCOD9342649 Si02
#       5
#     4   2   4   2   2
#     4  12  28  51  80 126 169 231 296 367 448 550
#     4  12  25  49  74 110 166 212 277 357 452 500
#     4  12  28  50  86 125 172 231 305 360 459 544
#     4  12  24  50  76 112 164 222 270 360 442 522
#     4  12  29  55  90 130 188 240 295 395 446 540
#
# _framework density 27.260145000000001
#
# number of rings (size 3 to 8) (size 9 to 14) (size 15 to 20)
#    0.000    0.000    2.857    6.000    0.000    5.714 
#    0.000    0.000    0.000    0.000    0.000    0.000 
#    0.000    0.000    0.000    0.000    0.000    0.000 
#
# Total GULP energy -78081.203721 kJ/mol
# GULP energy per Si atom -5577.228837 kJ/mol
# Density = 2.719810 g / cm^3
# Si number density = 27.260145 Si / 1000 Ang^3
#
#
#
# Elastic Constant Matrix: (Units=GPa)
#
#
# Indices 1 2 3 4 5 6 
#
# 1 259.1413 75.6424 104.3060 0.0000 0.0000 0.0000
# 2 75.6424 202.4359 70.5925 0.0000 0.0000 0.0000
# 3 104.3060 70.5925 162.9905 0.0000 0.0000 0.0000
# 4 0.0000 0.0000 0.0000 116.6557 0.0000 0.0000
# 5 0.0000 0.0000 0.0000 0.0000 119.9534 0.0000
# 6 0.0000 0.0000 0.0000 0.0000 0.0000 45.7685
#
#
#
# Elastic Compliance Matrix: (Units=1/GPa)
#
#
# Indices 1 2 3 4 5 6 
#
# 1 0.005348 -0.000948 -0.003012 0.000000 0.000000 0.000000
# 2 -0.000948 0.005987 -0.001986 0.000000 0.000000 0.000000
# 3 -0.003012 -0.001986 0.008923 0.000000 0.000000 0.000000
# 4 0.000000 0.000000 0.000000 0.008572 0.000000 0.000000
# 5 0.000000 0.000000 0.000000 0.000000 0.008337 0.000000
# 6 0.000000 0.000000 0.000000 0.000000 0.000000 0.021849
#
#
# Mechanical properties :
#
#
# Convention : Reuss Voigt Hill
#
# Bulk Modulus (GPa) = 119.53833 125.07216 122.30524
# Shear Modulus (GPa) = 67.84631 81.41063 74.62847
#
# Velocity S-wave (km/s) = 4.99425 5.47076 5.23792
# Velocity P-wave (km/s) = 8.78651 9.26748 9.03020
#
# Compressibility (1/GPa) = 0.00836552
#
# Stress axis : x y z
#
# Youngs Moduli (GPa) = 186.98957 167.03714 112.07049
#
# Poissons Ratio (x) = 0.15836 0.33753
# Poissons Ratio (y) = 0.17727 0.22259
# Poissons Ratio (z) = 0.56317 0.33177
#
# Static dielectric constant tensor:
#      x y z
#    x 1.971240 0.000000 0.000000 
#    y 0.000000 -0.361220 0.000000 
#    z 0.000000 0.000000 2.516430 
# 
# From -- ./inp_files/2933.got.cif
#   From: 2010.05.17/outbox.cif.g08.bks.cpg/sg30_2_cif.got.tgz:2933.got - 2010.06.03 17:03:02.
