data_PCOD9342026
_publ_section_title
;
Structure prediction by ZEFSAII (Michael W. Deem and Ramdas Pophale) SiO2 
 PCOD9342026
Probable space group: P N C 2
;
_chemical_formula_sum "Si O2"
_cell_formula_units_Z 20
_cell_length_a 8.404577
_cell_length_b 9.079825
_cell_length_c 13.196280
_cell_angle_alpha 90.000000
_cell_angle_beta 90.000000
_cell_angle_gamma 90.000000
_cell_volume 1007.035685
_symmetry_space_group_name_H-M "P N C 2"
_symmetry_group_IT_number 30
_symmetry_cell_setting 'orthorhombic'
loop_
_space_group_symop_operation_xyz
x,y,z
-x,-y,z
-x,1/2+y,1/2+z
x,1/2-y,1/2+z
loop_
_atom_site_type_symbol
_atom_site_label
_atom_site_fract_x
_atom_site_fract_y
_atom_site_fract_z
Si Si1 0.683666 0.976532 0.550830
Si Si2 0.683666 0.523468 0.656713
Si Si3 0.179946 0.180159 0.737888
Si Si4 0.887978 0.250000 0.603772
Si Si5 0.179946 0.180159 0.969655
O O1 0.705114 0.914390 0.665514
O O2 0.761737 0.849516 0.482146
O O3 0.500000 0.000000 0.526396
O O4 0.781098 0.127692 0.549668
O O5 0.500000 0.500000 0.681147
O O6 0.761737 0.650484 0.725397
O O7 0.781098 0.372308 0.657875
O O8 0.705114 0.585610 0.542030
O O9 0.179016 0.134851 0.853772
O O10 0.006582 0.176422 0.685467
O O11 0.006582 0.323578 0.522076
#
# Coordination Sequence:
#
# PCOD9342026 Si02
#       5
#     4   4   4   4   4
#     4  10  21  38  57  80 112 144 178 224 273 320
#     4  10  21  38  57  80 112 144 178 224 273 320
#     4  10  21  37  57  81 109 144 184 222 266 322
#     4  10  20  36  58  80 108 146 182 222 268 318
#     4  10  21  37  57  81 109 144 184 222 266 322
#
# _framework density 19.860268999999999
#
# number of rings (size 3 to 8) (size 9 to 14) (size 15 to 20)
#    0.000    2.400    0.000    7.200    0.000    8.000 
#    0.000    4.000    0.000    0.000    0.000    0.000 
#    0.000    0.000    0.000    0.000    0.000    0.000 
#
# Total GULP energy -111689.574931 kJ/mol
# GULP energy per Si atom -5584.478747 kJ/mol
# Density = 1.981507 g / cm^3
# Si number density = 19.860269 Si / 1000 Ang^3
#
#
#
# Elastic Constant Matrix: (Units=GPa)
#
#
# Indices 1 2 3 4 5 6 
#
# 1 112.3823 17.4498 -23.1959 0.0000 0.0000 0.0000
# 2 17.4498 61.2354 -35.4523 0.0000 0.0000 0.0000
# 3 -23.1959 -35.4523 79.8849 0.0000 0.0000 0.0000
# 4 0.0000 0.0000 0.0000 9.6072 0.0000 0.0000
# 5 0.0000 0.0000 0.0000 0.0000 0.4958 0.0000
# 6 0.0000 0.0000 0.0000 0.0000 0.0000 32.6659
#
#
#
# Elastic Compliance Matrix: (Units=1/GPa)
#
#
# Indices 1 2 3 4 5 6 
#
# 1 0.009567 -0.001505 0.002110 0.000000 0.000000 0.000000
# 2 -0.001505 0.022214 0.009421 0.000000 0.000000 0.000000
# 3 0.002110 0.009421 0.017312 0.000000 0.000000 0.000000
# 4 0.000000 0.000000 0.000000 0.104088 0.000000 0.000000
# 5 0.000000 0.000000 0.000000 0.000000 2.016822 0.000000
# 6 0.000000 0.000000 0.000000 0.000000 0.000000 0.030613
#
#
# Mechanical properties :
#
#
# Convention : Reuss Voigt Hill
#
# Bulk Modulus (GPa) = 14.46187 19.01175 16.73681
# Shear Modulus (GPa) = 2.26900 28.20052 15.23476
#
# Velocity S-wave (km/s) = 1.07003 3.77231 2.77266
# Velocity P-wave (km/s) = 2.97056 5.34484 4.32386
#
# Compressibility (1/GPa) = 0.06914734
#
# Stress axis : x y z
#
# Youngs Moduli (GPa) = 104.52175 45.01726 57.76366
#
# Poissons Ratio (x) = 0.06773 -0.12190
# Poissons Ratio (y) = 0.15726 -0.54421
# Poissons Ratio (z) = -0.22058 -0.42413
#
# Static dielectric constant tensor:
#      x y z
#    x 1.671840 0.000000 0.000000 
#    y 0.000000 1.728680 0.000000 
#    z 0.000000 0.000000 1.683380 
# 
# From -- ./inp_files/4880.got.cif
#   From: 2010.05.17/outbox.cif.g08.bks.cpg/sg30_3_cif.got.tgz:4880.got - 2010.06.03 17:03:02.
