data_PCOD9342304
_publ_section_title
;
Structure prediction by ZEFSAII (Michael W. Deem and Ramdas Pophale) SiO2 
 PCOD9342304
Probable space group: P N C 2
;
_chemical_formula_sum "Si O2"
_cell_formula_units_Z 24
_cell_length_a 5.281255
_cell_length_b 11.057358
_cell_length_c 17.165794
_cell_angle_alpha 90.000000
_cell_angle_beta 90.000000
_cell_angle_gamma 90.000000
_cell_volume 1002.426190
_symmetry_space_group_name_H-M "P N C 2"
_symmetry_group_IT_number 30
_symmetry_cell_setting 'orthorhombic'
loop_
_space_group_symop_operation_xyz
x,y,z
-x,-y,z
-x,1/2+y,1/2+z
x,1/2-y,1/2+z
loop_
_atom_site_type_symbol
_atom_site_label
_atom_site_fract_x
_atom_site_fract_y
_atom_site_fract_z
Si Si1 0.500000 0.500000 0.153950
Si Si2 0.508791 0.642584 0.760151
Si Si3 0.000000 0.500000 0.416659
Si Si4 0.399072 0.362100 0.934953
Si Si5 0.088084 0.753921 0.001536
Si Si6 0.827044 0.144652 0.774952
Si Si7 0.180839 0.202088 0.650465
O O1 0.352676 0.588544 0.210535
O O2 0.675712 0.591651 0.107560
O O3 0.500000 0.500000 0.753710
O O4 0.636675 0.671515 0.843360
O O5 0.246599 0.714255 0.775692
O O6 0.643374 0.691518 0.682124
O O7 0.977272 0.615940 0.472998
O O8 0.814337 0.433554 0.353220
O O9 0.500000 0.500000 0.938734
O O10 0.117592 0.338619 0.966590
O O11 0.627127 0.279554 0.973204
O O12 0.044644 0.744535 0.094665
O O13 0.094608 0.141084 0.731846
#
# Coordination Sequence:
#
# PCOD9342304 Si02
#       7
#     2   4   2   4   4   4   4
#     4  10  22  38  72 104 136 182 258 306 364 448
#     4  10  24  45  72 102 144 195 254 306 373 473
#     4  12  24  48  70 110 150 202 258 324 388 476
#     4  11  26  49  74 106 147 198 253 307 383 465
#     4  12  29  45  74 111 156 194 244 329 399 449
#     4  11  22  42  74 102 138 194 255 307 370 462
#     4  11  25  44  70 109 146 195 246 319 386 460
#
# _framework density 23.941913
#
# number of rings (size 3 to 8) (size 9 to 14) (size 15 to 20)
#    0.000    1.000    3.333    1.500    8.167    4.000 
#    0.000    0.000    0.000    0.000    0.000    0.000 
#    0.000    0.000    0.000    0.000    0.000    0.000 
#
# Total GULP energy -133735.036993 kJ/mol
# GULP energy per Si atom -5572.293208 kJ/mol
# Density = 2.388742 g / cm^3
# Si number density = 23.941913 Si / 1000 Ang^3
#
#
#
# Elastic Constant Matrix: (Units=GPa)
#
#
# Indices 1 2 3 4 5 6 
#
# 1 70.3356 21.3371 10.0419 0.0000 0.0000 0.0000
# 2 21.3371 113.2976 27.4963 0.0000 0.0000 0.0000
# 3 10.0419 27.4963 103.1161 0.0000 0.0000 0.0000
# 4 0.0000 0.0000 0.0000 4.1783 0.0000 0.0000
# 5 0.0000 0.0000 0.0000 0.0000 17.9368 0.0000
# 6 0.0000 0.0000 0.0000 0.0000 0.0000 25.3513
#
#
#
# Elastic Compliance Matrix: (Units=1/GPa)
#
#
# Indices 1 2 3 4 5 6 
#
# 1 0.015135 -0.002665 -0.000763 0.000000 0.000000 0.000000
# 2 -0.002665 0.009906 -0.002382 0.000000 0.000000 0.000000
# 3 -0.000763 -0.002382 0.010407 0.000000 0.000000 0.000000
# 4 0.000000 0.000000 0.000000 0.239333 0.000000 0.000000
# 5 0.000000 0.000000 0.000000 0.000000 0.055751 0.000000
# 6 0.000000 0.000000 0.000000 0.000000 0.000000 0.039446
#
#
# Mechanical properties :
#
#
# Convention : Reuss Voigt Hill
#
# Bulk Modulus (GPa) = 41.96763 44.94442 43.45603
# Shear Modulus (GPa) = 12.83559 24.68489 18.76024
#
# Velocity S-wave (km/s) = 2.31792 3.21445 2.80227
# Velocity P-wave (km/s) = 4.97300 5.70876 5.35353
#
# Compressibility (1/GPa) = 0.02382789
#
# Stress axis : x y z
#
# Youngs Moduli (GPa) = 66.07199 100.94573 96.08629
#
# Poissons Ratio (x) = 0.26903 0.07334
# Poissons Ratio (y) = 0.17609 0.22888
# Poissons Ratio (z) = 0.05043 0.24045
#
# Static dielectric constant tensor:
#      x y z
#    x 2.098420 0.000000 0.000000 
#    y 0.000000 2.455380 0.000000 
#    z 0.000000 0.000000 1.961610 
# 
# From -- ./inp_files/5936.got.cif
#   From: 2010.05.17/outbox.cif.g08.bks.cpg/sg30_3_cif.got.tgz:5936.got - 2010.06.03 17:03:02.
