data_PCOD9342492
_publ_section_title
;
Structure prediction by ZEFSAII (Michael W. Deem and Ramdas Pophale) SiO2 
 PCOD9342492
Probable space group: P N C 2
;
_chemical_formula_sum "Si O2"
_cell_formula_units_Z 28
_cell_length_a 9.736144
_cell_length_b 7.438011
_cell_length_c 18.307255
_cell_angle_alpha 90.000000
_cell_angle_beta 90.000000
_cell_angle_gamma 90.000000
_cell_volume 1325.766484
_symmetry_space_group_name_H-M "P N C 2"
_symmetry_group_IT_number 30
_symmetry_cell_setting 'orthorhombic'
loop_
_space_group_symop_operation_xyz
x,y,z
-x,-y,z
-x,1/2+y,1/2+z
x,1/2-y,1/2+z
loop_
_atom_site_type_symbol
_atom_site_label
_atom_site_fract_x
_atom_site_fract_y
_atom_site_fract_z
Si Si1 0.500000 0.000000 0.767910
Si Si2 0.148708 0.466296 0.786259
Si Si3 0.217485 0.880937 0.053333
Si Si4 0.000000 0.500000 0.164948
Si Si5 0.115164 0.760074 0.414683
Si Si6 0.387446 0.849529 0.190212
Si Si7 0.920214 0.741886 0.546824
Si Si8 0.811125 0.537960 0.299769
O O1 0.462115 0.823874 0.721993
O O2 0.645937 0.971549 0.807724
O O3 0.143113 0.572450 0.863005
O O4 0.268933 0.560404 0.740582
O O5 0.158992 0.251624 0.796402
O O6 0.000000 0.500000 0.750165
O O7 0.200841 0.096462 0.044370
O O8 0.323435 0.816292 0.111626
O O9 0.063849 0.832783 0.080184
O O10 0.228234 0.777835 0.976958
O O11 0.901238 0.600443 0.104713
O O12 0.880116 0.453890 0.225651
O O13 0.976111 0.777220 0.464170
O O14 0.125497 0.584615 0.363609
O O15 0.500000 0.000000 0.182021
#
# Coordination Sequence:
#
# PCOD9342492 Si02
#       8
#     2   4   4   2   4   4   4   4
#     4  12  26  48  72  96 146 190 246 304 356 438
#     4  12  27  40  76 111 143 186 242 309 369 437
#     4   9  22  42  65  94 143 188 228 292 361 433
#     4  12  24  40  72 110 144 190 252 304 366 440
#     4  10  24  43  66 105 157 184 236 302 373 443
#     4  12  25  49  71 104 141 197 250 300 361 443
#     4   9  22  39  65 101 144 184 226 300 368 429
#     4  12  26  44  73 107 142 197 246 307 366 427
#
# _framework density 21.119858000000001
#
# number of rings (size 3 to 8) (size 9 to 14) (size 15 to 20)
#    0.857    0.286    2.857    2.571   11.000    0.000 
#    1.286    0.000    1.571    0.000    0.000    0.000 
#    0.000    0.000    0.000    0.000    0.000    0.000 
#
# Total GULP energy -155870.506967 kJ/mol
# GULP energy per Si atom -5566.803820 kJ/mol
# Density = 2.107179 g / cm^3
# Si number density = 21.119858 Si / 1000 Ang^3
#
#
#
# Elastic Constant Matrix: (Units=GPa)
#
#
# Indices 1 2 3 4 5 6 
#
# 1 82.5066 -3.1060 16.4144 0.0000 0.0000 0.0000
# 2 -3.1060 74.2197 15.3958 0.0000 0.0000 0.0000
# 3 16.4144 15.3958 125.4392 0.0000 0.0000 0.0000
# 4 0.0000 0.0000 0.0000 52.9235 0.0000 0.0000
# 5 0.0000 0.0000 0.0000 0.0000 67.3769 0.0000
# 6 0.0000 0.0000 0.0000 0.0000 0.0000 30.1541
#
#
#
# Elastic Compliance Matrix: (Units=1/GPa)
#
#
# Indices 1 2 3 4 5 6 
#
# 1 0.012501 0.000885 -0.001744 0.000000 0.000000 0.000000
# 2 0.000885 0.013888 -0.001820 0.000000 0.000000 0.000000
# 3 -0.001744 -0.001820 0.008424 0.000000 0.000000 0.000000
# 4 0.000000 0.000000 0.000000 0.018895 0.000000 0.000000
# 5 0.000000 0.000000 0.000000 0.000000 0.014842 0.000000
# 6 0.000000 0.000000 0.000000 0.000000 0.000000 0.033163
#
#
# Mechanical properties :
#
#
# Convention : Reuss Voigt Hill
#
# Bulk Modulus (GPa) = 33.95252 37.73041 35.84147
# Shear Modulus (GPa) = 42.77537 46.98831 44.88184
#
# Velocity S-wave (km/s) = 4.50529 4.72194 4.61488
# Velocity P-wave (km/s) = 6.57073 6.90164 6.73822
#
# Compressibility (1/GPa) = 0.02945289
#
# Stress axis : x y z
#
# Youngs Moduli (GPa) = 79.99615 72.00378 118.71307
#
# Poissons Ratio (x) = -0.06372 0.20708
# Poissons Ratio (y) = -0.07080 0.21610
# Poissons Ratio (z) = 0.13954 0.13107
#
# Static dielectric constant tensor:
#      x y z
#    x 1.757770 0.000000 0.000000 
#    y 0.000000 2.073730 0.000000 
#    z 0.000000 0.000000 1.791610 
# 
# From -- ./inp_files/6393.got.cif
#   From: 2010.05.17/outbox.cif.g08.bks.cpg/sg30_4_cif.got.tgz:6393.got - 2010.06.03 17:03:02.
