data_PCOD9342475
_publ_section_title
;
Structure prediction by ZEFSAII (Michael W. Deem and Ramdas Pophale) SiO2 
 PCOD9342475
Probable space group: P N C 2
;
_chemical_formula_sum "Si O2"
_cell_formula_units_Z 16
_cell_length_a 5.801448
_cell_length_b 5.204784
_cell_length_c 22.241003
_cell_angle_alpha 90.000000
_cell_angle_beta 90.000000
_cell_angle_gamma 90.000000
_cell_volume 671.573396
_symmetry_space_group_name_H-M "P N C 2"
_symmetry_group_IT_number 30
_symmetry_cell_setting 'orthorhombic'
loop_
_space_group_symop_operation_xyz
x,y,z
-x,-y,z
-x,1/2+y,1/2+z
x,1/2-y,1/2+z
loop_
_atom_site_type_symbol
_atom_site_label
_atom_site_fract_x
_atom_site_fract_y
_atom_site_fract_z
Si Si1 0.841498 0.244778 0.893900
Si Si2 0.136939 0.244725 0.221232
Si Si3 0.500000 0.500000 0.986134
Si Si4 0.354977 0.258952 0.100784
Si Si5 0.500000 0.000000 0.796592
O O1 0.684982 0.144608 0.838701
O O2 0.000000 0.500000 0.883370
O O3 0.658993 0.321280 0.945512
O O4 0.000000 0.000000 0.910328
O O5 0.155780 0.228504 0.148854
O O6 0.377911 0.288707 0.254394
O O7 0.000000 0.500000 0.235533
O O8 0.000000 0.000000 0.243097
O O9 0.330280 0.342973 0.031485
O O10 0.500000 0.500000 0.125957
O O11 0.500000 0.000000 0.101803
#
# Coordination Sequence:
#
# PCOD9342475 Si02
#       5
#     4   4   2   4   2
#     4  12  29  50  78 117 148 208 265 305 385 459
#     4  12  28  49  79 115 148 202 256 308 390 462
#     4  10  27  50  80 106 165 196 246 334 370 454
#     4  10  23  48  75 107 150 198 237 314 389 434
#     4  12  29  54  76 110 167 198 250 340 370 452
#
# _framework density 23.824649000000001
#
# number of rings (size 3 to 8) (size 9 to 14) (size 15 to 20)
#    0.750    0.000    1.250    3.750    5.250   11.000 
#    0.000    0.000    0.000    0.000    0.000    0.000 
#    0.000    0.000    0.000    0.000    0.000    0.000 
#
# Total GULP energy -89492.292689 kJ/mol
# GULP energy per Si atom -5593.268293 kJ/mol
# Density = 2.377042 g / cm^3
# Si number density = 23.824649 Si / 1000 Ang^3
#
#
#
# Elastic Constant Matrix: (Units=GPa)
#
#
# Indices 1 2 3 4 5 6 
#
# 1 99.8770 69.0506 72.8042 0.0000 0.0000 0.0000
# 2 69.0506 205.1499 61.5261 0.0000 0.0000 0.0000
# 3 72.8042 61.5261 171.1790 0.0000 0.0000 0.0000
# 4 0.0000 0.0000 0.0000 48.5717 0.0000 0.0000
# 5 0.0000 0.0000 0.0000 0.0000 22.2317 0.0000
# 6 0.0000 0.0000 0.0000 0.0000 0.0000 62.8444
#
#
#
# Elastic Compliance Matrix: (Units=1/GPa)
#
#
# Indices 1 2 3 4 5 6 
#
# 1 0.016988 -0.003980 -0.005795 0.000000 0.000000 0.000000
# 2 -0.003980 0.006396 -0.000606 0.000000 0.000000 0.000000
# 3 -0.005795 -0.000606 0.008524 0.000000 0.000000 0.000000
# 4 0.000000 0.000000 0.000000 0.020588 0.000000 0.000000
# 5 0.000000 0.000000 0.000000 0.000000 0.044981 0.000000
# 6 0.000000 0.000000 0.000000 0.000000 0.000000 0.015912
#
#
# Mechanical properties :
#
#
# Convention : Reuss Voigt Hill
#
# Bulk Modulus (GPa) = 89.71437 98.10751 93.91094
# Shear Modulus (GPa) = 36.26709 44.91788 40.59248
#
# Velocity S-wave (km/s) = 3.90584 4.34678 4.13219
# Velocity P-wave (km/s) = 7.62093 8.15236 7.89112
#
# Compressibility (1/GPa) = 0.01114649
#
# Stress axis : x y z
#
# Youngs Moduli (GPa) = 58.86574 156.35070 117.31340
#
# Poissons Ratio (x) = 0.62228 0.67978
# Poissons Ratio (y) = 0.23429 0.07110
# Poissons Ratio (z) = 0.34110 0.09476
#
# Static dielectric constant tensor:
#      x y z
#    x 1.896580 0.000000 0.000000 
#    y 0.000000 1.838140 0.000000 
#    z 0.000000 0.000000 1.919700 
# 
# From -- ./inp_files/7152.got.cif
#   From: 2010.05.17/outbox.cif.g08.bks.cpg/sg30_4_cif.got.tgz:7152.got - 2010.06.03 17:03:02.
