data_PCOD9342792
_publ_section_title
;
Structure prediction by ZEFSAII (Michael W. Deem and Ramdas Pophale) SiO2 
 PCOD9342792
Probable space group: P M N 21
;
_chemical_formula_sum "Si O2"
_cell_formula_units_Z 32
_cell_length_a 18.112165
_cell_length_b 13.607057
_cell_length_c 6.238016
_cell_angle_alpha 90.000000
_cell_angle_beta 90.000000
_cell_angle_gamma 90.000000
_cell_volume 1537.379389
_symmetry_space_group_name_H-M "P M N 21"
_symmetry_group_IT_number 31
_symmetry_cell_setting 'orthorhombic'
loop_
_space_group_symop_operation_xyz
x,y,z
1/2-x,-y,1/2+z
-x,y,z
1/2+x,-y,1/2+z
loop_
_atom_site_type_symbol
_atom_site_label
_atom_site_fract_x
_atom_site_fract_y
_atom_site_fract_z
Si Si1 0.815691 0.535587 0.687770
Si Si2 0.917414 0.607791 0.073671
Si Si3 0.664102 0.941352 0.477214
Si Si4 0.853559 0.435457 0.301230
Si Si5 0.198555 0.204963 0.604548
Si Si6 0.801325 0.879632 0.740486
Si Si7 0.912532 0.229034 0.249133
Si Si8 0.175448 0.722390 0.383790
O O1 0.846886 0.440890 0.560613
O O2 0.728879 0.530159 0.736644
O O3 0.824350 0.627074 0.529352
O O4 0.862946 0.568859 0.890401
O O5 0.913825 0.515340 0.235029
O O6 0.885067 0.701844 0.200089
O O7 0.000000 0.625519 0.995875
O O8 0.683126 0.885706 0.259043
O O9 0.737584 0.944106 0.623589
O O10 0.610960 0.867111 0.610521
O O11 0.647515 0.051241 0.390438
O O12 0.873272 0.332555 0.188619
O O13 0.254528 0.187650 0.405020
O O14 0.120615 0.221226 0.488881
O O15 0.245795 0.272711 0.763855
O O16 0.834548 0.814349 0.546677
O O17 0.000000 0.239693 0.244192
#
# Coordination Sequence:
#
# PCOD9342792 Si02
#       8
#     4   4   4   4   4   4   4   4
#     4  11  22  39  64  93 123 165 225 275 321 390
#     4  11  24  41  61  90 129 168 212 272 336 391
#     4  10  20  36  63  92 127 160 215 272 327 386
#     4  11  22  40  64  90 126 170 219 267 320 399
#     4  10  20  37  63  90 119 163 216 271 318 382
#     4  10  18  35  63  97 120 156 213 280 326 379
#     4  11  25  39  57  94 140 179 215 263 338 419
#     4  10  22  37  63  92 123 161 217 280 325 388
#
# _framework density 20.814640000000001
#
# number of rings (size 3 to 8) (size 9 to 14) (size 15 to 20)
#    0.000    1.500    2.500    4.125    1.750    4.000 
#    0.000    0.625    0.000    3.750    0.000    0.000 
#    0.000    0.000    0.000    0.000    0.000    0.000 
#
# Total GULP energy -178175.842992 kJ/mol
# GULP energy per Si atom -5567.995094 kJ/mol
# Density = 2.076727 g / cm^3
# Si number density = 20.814640 Si / 1000 Ang^3
#
#
#
# Elastic Constant Matrix: (Units=GPa)
#
#
# Indices 1 2 3 4 5 6 
#
# 1 111.5158 37.3188 36.6971 0.0000 0.0000 0.0000
# 2 37.3188 78.0628 31.2057 0.0000 0.0000 0.0000
# 3 36.6971 31.2057 92.8987 0.0000 0.0000 0.0000
# 4 0.0000 0.0000 0.0000 34.9462 0.0000 0.0000
# 5 0.0000 0.0000 0.0000 0.0000 9.5684 0.0000
# 6 0.0000 0.0000 0.0000 0.0000 0.0000 15.1121
#
#
#
# Elastic Compliance Matrix: (Units=1/GPa)
#
#
# Indices 1 2 3 4 5 6 
#
# 1 0.011392 -0.004213 -0.003085 0.000000 0.000000 0.000000
# 2 -0.004213 0.016355 -0.003830 0.000000 0.000000 0.000000
# 3 -0.003085 -0.003830 0.013270 0.000000 0.000000 0.000000
# 4 0.000000 0.000000 0.000000 0.028615 0.000000 0.000000
# 5 0.000000 0.000000 0.000000 0.000000 0.104511 0.000000
# 6 0.000000 0.000000 0.000000 0.000000 0.000000 0.066172
#
#
# Mechanical properties :
#
#
# Convention : Reuss Voigt Hill
#
# Bulk Modulus (GPa) = 53.30020 54.76893 54.03457
# Shear Modulus (GPa) = 18.59948 23.74239 21.17093
#
# Velocity S-wave (km/s) = 2.99252 3.38103 3.19269
# Velocity P-wave (km/s) = 6.13212 6.45071 6.29343
#
# Compressibility (1/GPa) = 0.01876165
#
# Stress axis : x y z
#
# Youngs Moduli (GPa) = 87.77743 61.14270 75.36076
#
# Poissons Ratio (x) = 0.25760 0.23249
# Poissons Ratio (y) = 0.36981 0.28861
# Poissons Ratio (z) = 0.27080 0.23416
#
# Static dielectric constant tensor:
#      x y z
#    x 1.723230 0.000000 0.000000 
#    y 0.000000 1.855630 0.000000 
#    z 0.000000 0.000000 1.834340 
# 
# From -- ./inp_files/866.got.cif
#   From: 2010.05.17/outbox.cif.g08.bks.cpg/sg31_1_cif.got.tgz:866.got - 2010.06.03 17:08:30.
