data_PCOD9342360
_publ_section_title
;
Structure prediction by ZEFSAII (Michael W. Deem and Ramdas Pophale) SiO2 
 PCOD9342360
Probable space group: P N C 2
;
_chemical_formula_sum "Si O2"
_cell_formula_units_Z 26
_cell_length_a 13.556937
_cell_length_b 6.294946
_cell_length_c 13.684778
_cell_angle_alpha 90.000000
_cell_angle_beta 90.000000
_cell_angle_gamma 90.000000
_cell_volume 1167.861505
_symmetry_space_group_name_H-M "P N C 2"
_symmetry_group_IT_number 30
_symmetry_cell_setting 'orthorhombic'
loop_
_space_group_symop_operation_xyz
x,y,z
-x,-y,z
-x,1/2+y,1/2+z
x,1/2-y,1/2+z
loop_
_atom_site_type_symbol
_atom_site_label
_atom_site_fract_x
_atom_site_fract_y
_atom_site_fract_z
Si Si1 0.676821 0.243725 0.692210
Si Si2 0.063732 0.306399 0.277346
Si Si3 0.162912 0.726724 0.030601
Si Si4 0.593554 0.867668 0.309646
Si Si5 0.263534 0.033730 0.873308
Si Si6 0.000000 0.500000 0.937539
Si Si7 0.000000 0.000000 0.122988
Si Si8 0.500000 0.500000 0.177000
O O1 0.774685 0.209159 0.629418
O O2 0.651804 0.478867 0.732818
O O3 0.685976 0.116171 0.793131
O O4 0.590104 0.129120 0.628901
O O5 0.165694 0.378128 0.321891
O O6 0.001552 0.200653 0.364531
O O7 0.000000 0.500000 0.236535
O O8 0.071938 0.133110 0.192985
O O9 0.064475 0.852188 0.056922
O O10 0.108257 0.514876 0.989167
O O11 0.229182 0.875882 0.959865
O O12 0.664413 0.739669 0.385042
O O13 0.545202 0.686277 0.243086
O O14 0.500000 0.000000 0.351810
#
# Coordination Sequence:
#
# PCOD9342360 Si02
#       8
#     4   4   4   4   4   2   2   2
#     4  10  22  42  71  98 130 180 223 280 346 411
#     4  11  22  44  65  88 132 186 236 278 340 404
#     4  12  25  42  64 101 143 178 232 281 347 404
#     4   9  19  41  74  93 128 172 222 281 351 407
#     4  11  23  40  65  98 134 176 231 283 338 418
#     4  11  26  42  61  90 144 180 225 290 327 404
#     4  11  26  40  63  98 132 188 233 284 339 414
#     4   8  18  42  72  96 126 168 220 280 344 410
#
# _framework density 22.262915
#
# number of rings (size 3 to 8) (size 9 to 14) (size 15 to 20)
#    0.000    1.538    1.538    2.769    7.538    0.000 
#    5.538    0.000   40.615    0.000    0.000    0.000 
#    0.000    0.000    0.000    0.000    0.000    0.000 
#
# Total GULP energy -144935.752625 kJ/mol
# GULP energy per Si atom -5574.452024 kJ/mol
# Density = 2.221224 g / cm^3
# Si number density = 22.262915 Si / 1000 Ang^3
#
#
#
# Elastic Constant Matrix: (Units=GPa)
#
#
# Indices 1 2 3 4 5 6 
#
# 1 71.2999 10.4323 -1.0551 0.0000 0.0000 0.0000
# 2 10.4323 78.8444 11.7578 0.0000 0.0000 0.0000
# 3 -1.0551 11.7578 51.8609 0.0000 0.0000 0.0000
# 4 0.0000 0.0000 0.0000 6.9954 0.0000 0.0000
# 5 0.0000 0.0000 0.0000 0.0000 -24.6272 0.0000
# 6 0.0000 0.0000 0.0000 0.0000 0.0000 53.9861
#
#
#
# Elastic Compliance Matrix: (Units=1/GPa)
#
#
# Indices 1 2 3 4 5 6 
#
# 1 0.014330 -0.002007 0.000747 0.000000 0.000000 0.000000
# 2 -0.002007 0.013408 -0.003081 0.000000 0.000000 0.000000
# 3 0.000747 -0.003081 0.019996 0.000000 0.000000 0.000000
# 4 0.000000 0.000000 0.000000 0.142951 0.000000 0.000000
# 5 0.000000 0.000000 0.000000 0.000000 -0.040606 0.000000
# 6 0.000000 0.000000 0.000000 0.000000 0.000000 0.018523
#
#
# Mechanical properties :
#
#
# Convention : Reuss Voigt Hill
#
# Bulk Modulus (GPa) = 25.60736 27.14170 26.37453
# Shear Modulus (GPa) = 26.27389 19.32887 22.80138
#
# Velocity S-wave (km/s) = 3.43908 2.94974 3.20376
# Velocity P-wave (km/s) = 5.22464 4.88049 5.05550
#
# Compressibility (1/GPa) = 0.03905127
#
# Stress axis : x y z
#
# Youngs Moduli (GPa) = 69.78351 74.58100 50.01002
#
# Poissons Ratio (x) = 0.14972 -0.03734
# Poissons Ratio (y) = 0.14009 0.15407
# Poissons Ratio (z) = -0.05210 0.22976
#
# Static dielectric constant tensor:
#      x y z
#    x 1.919460 0.000000 0.000000 
#    y 0.000000 1.877090 0.000000 
#    z 0.000000 0.000000 1.795860 
# 
# From -- ./inp_files/5617.got.cif
#   From: 2010.05.17/outbox.cif.g08.bks.cpg/sg30_3_cif.got.tgz:5617.got - 2010.06.03 17:03:02.
