data_PCOD9342786
_publ_section_title
;
Structure prediction by ZEFSAII (Michael W. Deem and Ramdas Pophale) SiO2 
 PCOD9342786
Probable space group: P M N 21
;
_chemical_formula_sum "Si O2"
_cell_formula_units_Z 32
_cell_length_a 7.535552
_cell_length_b 12.399784
_cell_length_c 15.627390
_cell_angle_alpha 90.000000
_cell_angle_beta 90.000000
_cell_angle_gamma 90.000000
_cell_volume 1460.211087
_symmetry_space_group_name_H-M "P M N 21"
_symmetry_group_IT_number 31
_symmetry_cell_setting 'orthorhombic'
loop_
_space_group_symop_operation_xyz
x,y,z
1/2-x,-y,1/2+z
-x,y,z
1/2+x,-y,1/2+z
loop_
_atom_site_type_symbol
_atom_site_label
_atom_site_fract_x
_atom_site_fract_y
_atom_site_fract_z
Si Si1 0.210856 0.509525 0.695270
Si Si2 0.207479 0.090817 0.101393
Si Si3 0.217448 0.847574 0.112807
Si Si4 0.714788 0.252156 0.252655
Si Si5 0.204400 0.495941 0.002030
Si Si6 0.793031 0.260318 0.968070
Si Si7 0.788831 0.712316 0.277012
Si Si8 0.282693 0.277373 0.442501
O O1 0.272962 0.627638 0.724516
O O2 0.292647 0.480681 0.603345
O O3 0.247077 0.413667 0.761601
O O4 0.000000 0.515608 0.683088
O O5 0.221909 0.163157 0.186116
O O6 0.000000 0.073189 0.081257
O O7 0.280148 0.971060 0.114465
O O8 0.284651 0.163699 0.024533
O O9 0.277239 0.779134 0.194995
O O10 0.000000 0.845022 0.115095
O O11 0.272670 0.791388 0.024400
O O12 0.500000 0.251669 0.250358
O O13 0.771067 0.233153 0.350314
O O14 0.000000 0.488243 0.972334
O O15 0.286913 0.378266 0.988081
O O16 0.280759 0.599525 0.954420
O O17 0.783588 0.245482 0.866826
O O18 0.000000 0.267175 0.994542
O O19 0.000000 0.723128 0.280904
O O20 0.500000 0.279830 0.443815
#
# Coordination Sequence:
#
# PCOD9342786 Si02
#       8
#     4   4   4   4   4   4   4   4
#     4  11  21  34  55  86 120 146 182 234 284 335
#     4  10  21  38  59  81 110 148 190 237 283 331
#     4   9  19  36  58  82 108 146 195 236 275 333
#     4  10  21  36  58  85 113 147 183 230 283 334
#     4  10  18  34  59  83 109 148 188 225 282 345
#     4  10  21  36  57  85 115 147 187 238 289 336
#     4  11  22  37  59  84 114 155 193 228 281 343
#     4   9  17  33  57  80 107 143 184 224 271 333
#
# _framework density 21.914639000000001
#
# number of rings (size 3 to 8) (size 9 to 14) (size 15 to 20)
#    0.000    2.000    2.500    1.500    0.000    4.500 
#    0.000    3.125    0.000    0.000    0.000    0.000 
#    0.000    0.000    0.000    0.000    0.000    0.000 
#
# Total GULP energy -178814.804957 kJ/mol
# GULP energy per Si atom -5587.962655 kJ/mol
# Density = 2.186476 g / cm^3
# Si number density = 21.914639 Si / 1000 Ang^3
#
#
#
# Elastic Constant Matrix: (Units=GPa)
#
#
# Indices 1 2 3 4 5 6 
#
# 1 53.1637 0.1179 -15.7099 0.0000 0.0000 0.0000
# 2 0.1179 137.5258 33.1729 0.0000 0.0000 0.0000
# 3 -15.7099 33.1729 100.9522 0.0000 0.0000 0.0000
# 4 0.0000 0.0000 0.0000 4.0114 0.0000 0.0000
# 5 0.0000 0.0000 0.0000 0.0000 10.8941 0.0000
# 6 0.0000 0.0000 0.0000 0.0000 0.0000 -0.2632
#
#
#
# Elastic Compliance Matrix: (Units=1/GPa)
#
#
# Indices 1 2 3 4 5 6 
#
# 1 0.019802 -0.000826 0.003353 0.000000 0.000000 0.000000
# 2 -0.000826 0.007932 -0.002735 0.000000 0.000000 0.000000
# 3 0.003353 -0.002735 0.011326 0.000000 0.000000 0.000000
# 4 0.000000 0.000000 0.000000 0.249292 0.000000 0.000000
# 5 0.000000 0.000000 0.000000 0.000000 0.091793 0.000000
# 6 0.000000 0.000000 0.000000 0.000000 0.000000 -3.798712
#
#
# Mechanical properties :
#
#
# Convention : Reuss Voigt Hill
#
# Bulk Modulus (GPa) = 25.87657 36.31149 31.09403
# Shear Modulus (GPa) = -1.46831 21.19916 9.86543
#
# Velocity S-wave (km/s) = -0.81943 3.11360 2.12403
# Velocity P-wave (km/s) = 3.30730 5.43429 4.49832
#
# Compressibility (1/GPa) = 0.03864500
#
# Stress axis : x y z
#
# Youngs Moduli (GPa) = 50.49878 126.07548 88.29136
#
# Poissons Ratio (x) = 0.10411 -0.29604
# Poissons Ratio (y) = 0.04170 0.24147
# Poissons Ratio (z) = -0.16932 0.34480
#
# Static dielectric constant tensor:
#      x y z
#    x 1.865340 0.000000 0.000000 
#    y 0.000000 1.788020 0.000000 
#    z 0.000000 0.000000 1.771890 
# 
# From -- ./inp_files/4957.got.cif
#   From: 2010.05.17/outbox.cif.g08.bks.cpg/sg31_3_cif.got.tgz:4957.got - 2010.06.03 17:08:30.
