data_PCOD9342178
_publ_section_title
;
Structure prediction by ZEFSAII (Michael W. Deem and Ramdas Pophale) SiO2 
 PCOD9342178
Probable space group: P N C 2
;
_chemical_formula_sum "Si O2"
_cell_formula_units_Z 20
_cell_length_a 11.859022
_cell_length_b 7.068373
_cell_length_c 9.034854
_cell_angle_alpha 90.000000
_cell_angle_beta 90.000000
_cell_angle_gamma 90.000000
_cell_volume 757.337520
_symmetry_space_group_name_H-M "P N C 2"
_symmetry_group_IT_number 30
_symmetry_cell_setting 'orthorhombic'
loop_
_space_group_symop_operation_xyz
x,y,z
-x,-y,z
-x,1/2+y,1/2+z
x,1/2-y,1/2+z
loop_
_atom_site_type_symbol
_atom_site_label
_atom_site_fract_x
_atom_site_fract_y
_atom_site_fract_z
Si Si1 0.423145 0.151709 0.701510
Si Si2 0.275856 0.629216 0.740542
Si Si3 0.826693 0.527926 0.271912
Si Si4 0.441925 0.775398 0.482533
Si Si5 0.895704 0.638353 0.600833
O O1 0.303873 0.082977 0.743349
O O2 0.441604 0.300482 0.575982
O O3 0.510066 0.186279 0.829701
O O4 0.500000 0.000000 0.592276
O O5 0.347352 0.696293 0.596995
O O6 0.354620 0.585216 0.882760
O O7 0.206258 0.446479 0.696883
O O8 0.186631 0.800499 0.772815
O O9 0.868075 0.605754 0.428909
O O10 0.898652 0.641822 0.148808
O O11 0.000000 0.500000 0.633770
#
# Coordination Sequence:
#
# PCOD9342178 Si02
#       5
#     4   4   4   4   4
#     4  11  20  39  69 107 150 192 240 288 375 453
#     4  11  23  48  73 108 155 192 250 310 372 452
#     4  12  27  50  79 109 153 199 256 317 382 465
#     4  10  21  37  73 103 151 198 225 299 364 451
#     4  12  31  50  77 112 143 200 266 327 386 440
#
# _framework density 26.408307000000001
#
# number of rings (size 3 to 8) (size 9 to 14) (size 15 to 20)
#    0.000    0.800    6.000    1.200    5.600    1.600 
#    0.000    4.000    0.000    0.000    0.000    0.000 
#    0.000    0.000    0.000    0.000    0.000    0.000 
#
# Total GULP energy -111363.876164 kJ/mol
# GULP energy per Si atom -5568.193808 kJ/mol
# Density = 2.634820 g / cm^3
# Si number density = 26.408307 Si / 1000 Ang^3
#
#
#
# Elastic Constant Matrix: (Units=GPa)
#
#
# Indices 1 2 3 4 5 6 
#
# 1 103.8583 15.5613 24.5998 0.0000 0.0000 0.0000
# 2 15.5613 110.5832 18.6037 0.0000 0.0000 0.0000
# 3 24.5998 18.6037 143.2924 0.0000 0.0000 0.0000
# 4 0.0000 0.0000 0.0000 -19.6831 0.0000 0.0000
# 5 0.0000 0.0000 0.0000 0.0000 44.0384 0.0000
# 6 0.0000 0.0000 0.0000 0.0000 0.0000 48.8365
#
#
#
# Elastic Compliance Matrix: (Units=1/GPa)
#
#
# Indices 1 2 3 4 5 6 
#
# 1 0.010181 -0.001164 -0.001597 0.000000 0.000000 0.000000
# 2 -0.001164 0.009378 -0.001018 0.000000 0.000000 0.000000
# 3 -0.001597 -0.001018 0.007385 0.000000 0.000000 0.000000
# 4 0.000000 0.000000 0.000000 -0.050805 0.000000 0.000000
# 5 0.000000 0.000000 0.000000 0.000000 0.022707 0.000000
# 6 0.000000 0.000000 0.000000 0.000000 0.000000 0.020477
#
#
# Mechanical properties :
#
#
# Convention : Reuss Voigt Hill
#
# Bulk Modulus (GPa) = 51.58069 52.80706 52.19388
# Shear Modulus (GPa) = 149.95909 34.56962 92.26435
#
# Velocity S-wave (km/s) = 7.54375 3.62200 5.91722
# Velocity P-wave (km/s) = 9.76995 6.12630 8.15425
#
# Compressibility (1/GPa) = 0.01938710
#
# Stress axis : x y z
#
# Youngs Moduli (GPa) = 98.22107 106.63275 135.40995
#
# Poissons Ratio (x) = 0.12413 0.21621
# Poissons Ratio (y) = 0.11434 0.13781
# Poissons Ratio (z) = 0.15683 0.10852
#
# Static dielectric constant tensor:
#      x y z
#    x 1.990710 0.000000 0.000000 
#    y 0.000000 2.588680 0.000000 
#    z 0.000000 0.000000 2.083590 
# 
# From -- ./inp_files/2282.got.cif
#   From: 2010.05.17/outbox.cif.g08.bks.cpg/sg30_2_cif.got.tgz:2282.got - 2010.06.03 17:03:02.
