data_PCOD9342443
_publ_section_title
;
Structure prediction by ZEFSAII (Michael W. Deem and Ramdas Pophale) SiO2 
 PCOD9342443
Probable space group: P N C 2
;
_chemical_formula_sum "Si O2"
_cell_formula_units_Z 28
_cell_length_a 5.230878
_cell_length_b 11.919697
_cell_length_c 20.644141
_cell_angle_alpha 90.000000
_cell_angle_beta 90.000000
_cell_angle_gamma 90.000000
_cell_volume 1287.172117
_symmetry_space_group_name_H-M "P N C 2"
_symmetry_group_IT_number 30
_symmetry_cell_setting 'orthorhombic'
loop_
_space_group_symop_operation_xyz
x,y,z
-x,-y,z
-x,1/2+y,1/2+z
x,1/2-y,1/2+z
loop_
_atom_site_type_symbol
_atom_site_label
_atom_site_fract_x
_atom_site_fract_y
_atom_site_fract_z
Si Si1 0.391549 0.258066 0.404720
Si Si2 0.779390 0.182217 0.223310
Si Si3 0.086928 0.696945 0.104524
Si Si4 0.000000 0.500000 0.185178
Si Si5 0.500000 0.500000 0.641142
Si Si6 0.901061 0.127171 0.369620
Si Si7 0.398552 0.200399 0.048553
Si Si8 0.389309 0.374963 0.267314
O O1 0.621255 0.166580 0.394962
O O2 0.417692 0.322211 0.472217
O O3 0.385290 0.336656 0.341515
O O4 0.117116 0.199200 0.404435
O O5 0.962160 0.225591 0.167215
O O6 0.898647 0.158004 0.293042
O O7 0.557184 0.277512 0.232962
O O8 0.670265 0.070636 0.190871
O O9 0.156623 0.575637 0.134131
O O10 0.332705 0.745331 0.068964
O O11 0.831113 0.712115 0.062914
O O12 0.126240 0.406754 0.231573
O O13 0.632202 0.589468 0.592638
O O14 0.000000 0.000000 0.376424
O O15 0.500000 0.500000 0.263816
#
# Coordination Sequence:
#
# PCOD9342443 Si02
#       8
#     4   4   4   2   2   4   4   4
#     4  11  26  48  67 102 141 180 246 277 347 424
#     4  10  23  42  70 108 142 168 240 286 363 416
#     4  11  24  43  68 100 137 180 227 281 343 415
#     4  12  22  42  70 104 136 178 230 286 360 412
#     4  10  24  42  76 102 140 186 218 300 342 422
#     4  11  25  44  74 102 136 185 226 305 350 405
#     4  11  26  47  66  99 138 188 230 281 338 416
#     4  11  24  42  71 104 139 184 220 305 348 414
#
# _framework density 21.753115000000001
#
# number of rings (size 3 to 8) (size 9 to 14) (size 15 to 20)
#    0.000    1.143    1.429    3.857    9.000    2.857 
#    7.714    0.000    0.000    0.000    0.000    0.000 
#    0.000    0.000    0.000    0.000    0.000    0.000 
#
# Total GULP energy -156194.045239 kJ/mol
# GULP energy per Si atom -5578.358759 kJ/mol
# Density = 2.170360 g / cm^3
# Si number density = 21.753115 Si / 1000 Ang^3
#
#
#
# Elastic Constant Matrix: (Units=GPa)
#
#
# Indices 1 2 3 4 5 6 
#
# 1 98.2377 15.6299 44.1854 0.0000 0.0000 0.0000
# 2 15.6299 134.8012 3.6063 0.0000 0.0000 0.0000
# 3 44.1854 3.6063 144.4912 0.0000 0.0000 0.0000
# 4 0.0000 0.0000 0.0000 19.6543 0.0000 0.0000
# 5 0.0000 0.0000 0.0000 0.0000 5.4328 0.0000
# 6 0.0000 0.0000 0.0000 0.0000 0.0000 32.4929
#
#
#
# Elastic Compliance Matrix: (Units=1/GPa)
#
#
# Indices 1 2 3 4 5 6 
#
# 1 0.012025 -0.001297 -0.003645 0.000000 0.000000 0.000000
# 2 -0.001297 0.007563 0.000208 0.000000 0.000000 0.000000
# 3 -0.003645 0.000208 0.008030 0.000000 0.000000 0.000000
# 4 0.000000 0.000000 0.000000 0.050879 0.000000 0.000000
# 5 0.000000 0.000000 0.000000 0.000000 0.184066 0.000000
# 6 0.000000 0.000000 0.000000 0.000000 0.000000 0.030776
#
#
# Mechanical properties :
#
#
# Convention : Reuss Voigt Hill
#
# Bulk Modulus (GPa) = 55.09427 56.04150 55.56788
# Shear Modulus (GPa) = 16.18867 32.45659 24.32263
#
# Velocity S-wave (km/s) = 2.73096 3.86689 3.34746
# Velocity P-wave (km/s) = 5.94359 6.76428 6.36717
#
# Compressibility (1/GPa) = 0.01815071
#
# Stress axis : x y z
#
# Youngs Moduli (GPa) = 83.15924 132.22035 124.52888
#
# Poissons Ratio (x) = 0.17146 0.45390
# Poissons Ratio (y) = 0.10784 -0.02588
# Poissons Ratio (z) = 0.30311 -0.02747
#
# Static dielectric constant tensor:
#      x y z
#    x 2.021510 0.000000 0.000000 
#    y 0.000000 1.958990 0.000000 
#    z 0.000000 0.000000 1.734440 
# 
# From -- ./inp_files/6836.got.cif
#   From: 2010.05.17/outbox.cif.g08.bks.cpg/sg30_4_cif.got.tgz:6836.got - 2010.06.03 17:03:02.
