data_PCOD9342674
_publ_section_title
;
Structure prediction by ZEFSAII (Michael W. Deem and Ramdas Pophale) SiO2 
 PCOD9342674
Probable space group: P N C 2
;
_chemical_formula_sum "Si O2"
_cell_formula_units_Z 24
_cell_length_a 12.000000
_cell_length_b 9.000000
_cell_length_c 12.000000
_cell_angle_alpha 90.000000
_cell_angle_beta 90.000000
_cell_angle_gamma 90.000000
_cell_volume 1296.000000
_symmetry_space_group_name_H-M "P N C 2"
_symmetry_group_IT_number 30
_symmetry_cell_setting 'orthorhombic'
loop_
_space_group_symop_operation_xyz
x,y,z
-x,-y,z
-x,1/2+y,1/2+z
x,1/2-y,1/2+z
loop_
_atom_site_type_symbol
_atom_site_label
_atom_site_fract_x
_atom_site_fract_y
_atom_site_fract_z
Si Si1 0.225554 0.685346 0.754250
Si Si2 0.632673 0.520325 0.924659
Si Si3 0.241954 0.319980 0.371396
Si Si4 0.878234 0.540883 0.570828
Si Si5 0.020644 0.174588 0.282621
Si Si6 0.365958 0.974953 0.690735
O O1 0.289161 0.587476 0.848544
O O2 0.181925 0.581595 0.651163
O O3 0.312266 0.813575 0.719140
O O4 0.102716 0.745801 0.792900
O O5 0.500000 0.500000 0.900752
O O6 0.673240 0.686359 0.896761
O O7 0.649195 0.496795 0.057546
O O8 0.214112 0.415918 0.481062
O O9 0.119860 0.249493 0.349192
O O10 0.294404 0.412832 0.268926
O O11 0.924258 0.665066 0.658495
O O12 0.000000 0.500000 0.518827
O O13 0.000000 0.000000 0.313677
O O14 0.500000 0.000000 0.712961
#
# Coordination Sequence:
#
# PCOD9342674 Si02
#       6
#     4   4   4   4   4   4
#     4  10  22  44  65  93 133 169 207 266 331 374
#     4  11  24  43  66  89 131 172 217 266 315 374
#     4  12  22  41  69  95 128 168 218 266 325 381
#     4   9  21  39  63  95 133 164 207 262 325 393
#     4   9  19  40  62  97 126 162 206 261 319 390
#     4  11  27  43  64  96 129 167 229 261 312 389
#
# _framework density 18.518519000000001
#
# number of rings (size 3 to 8) (size 9 to 14) (size 15 to 20)
#    0.000    2.000    3.333    2.000    4.667    1.333 
#    0.000    0.000    0.000    0.000    0.000    0.000 
#    0.000    0.000    0.000    0.000    0.000    0.000 
#
# Total GULP energy -133672.864434 kJ/mol
# GULP energy per Si atom -5569.702685 kJ/mol
# Density = 1.847637 g / cm^3
# Si number density = 18.518519 Si / 1000 Ang^3
#
#
#
# Elastic Constant Matrix: (Units=GPa)
#
#
# Indices 1 2 3 4 5 6 
#
# 1 174.1288 60.7693 65.5844 0.0000 0.0000 0.0000
# 2 60.7693 85.5651 62.0933 0.0000 0.0000 0.0000
# 3 65.5844 62.0933 98.9701 0.0000 0.0000 0.0000
# 4 0.0000 0.0000 0.0000 30.9497 0.0000 0.0000
# 5 0.0000 0.0000 0.0000 0.0000 40.0102 0.0000
# 6 0.0000 0.0000 0.0000 0.0000 0.0000 42.0310
#
#
#
# Elastic Compliance Matrix: (Units=1/GPa)
#
#
# Indices 1 2 3 4 5 6 
#
# 1 0.008169 -0.003439 -0.003256 0.000000 0.000000 0.000000
# 2 -0.003439 0.022903 -0.012090 0.000000 0.000000 0.000000
# 3 -0.003256 -0.012090 0.019847 0.000000 0.000000 0.000000
# 4 0.000000 0.000000 0.000000 0.032310 0.000000 0.000000
# 5 0.000000 0.000000 0.000000 0.000000 0.024994 0.000000
# 6 0.000000 0.000000 0.000000 0.000000 0.000000 0.023792
#
#
# Mechanical properties :
#
#
# Convention : Reuss Voigt Hill
#
# Bulk Modulus (GPa) = 74.91260 81.72867 78.32063
# Shear Modulus (GPa) = 28.72957 33.94598 31.33778
#
# Velocity S-wave (km/s) = 3.94305 4.28610 4.11815
# Velocity P-wave (km/s) = 7.82757 8.28996 8.06208
#
# Compressibility (1/GPa) = 0.01334889
#
# Stress axis : x y z
#
# Youngs Moduli (GPa) = 122.40723 43.66148 50.38538
#
# Poissons Ratio (x) = 0.15017 0.16405
# Poissons Ratio (y) = 0.42100 0.60918
# Poissons Ratio (z) = 0.39854 0.52788
#
# Static dielectric constant tensor:
#      x y z
#    x 1.633330 0.000000 0.000000 
#    y 0.000000 1.692790 0.000000 
#    z 0.000000 0.000000 1.664480 
# 
# From -- ./inp_files/4051.got.cif
#   From: 2010.05.17/outbox.ucp.g08.bks.cvg/sg30_3_cif.got.tgz:4051.got - 2010.06.11 10:34:04.
