data_PCOD9342119
_publ_section_title
;
Structure prediction by ZEFSAII (Michael W. Deem and Ramdas Pophale) SiO2 
 PCOD9342119
Probable space group: P N C 2
;
_chemical_formula_sum "Si O2"
_cell_formula_units_Z 30
_cell_length_a 12.481356
_cell_length_b 5.166400
_cell_length_c 19.437204
_cell_angle_alpha 90.000000
_cell_angle_beta 90.000000
_cell_angle_gamma 90.000000
_cell_volume 1253.382397
_symmetry_space_group_name_H-M "P N C 2"
_symmetry_group_IT_number 30
_symmetry_cell_setting 'orthorhombic'
loop_
_space_group_symop_operation_xyz
x,y,z
-x,-y,z
-x,1/2+y,1/2+z
x,1/2-y,1/2+z
loop_
_atom_site_type_symbol
_atom_site_label
_atom_site_fract_x
_atom_site_fract_y
_atom_site_fract_z
Si Si1 0.500000 0.500000 0.005240
Si Si2 0.624457 0.786882 0.112481
Si Si3 0.406528 0.200693 0.760792
Si Si4 0.128330 0.011692 0.899991
Si Si5 0.760007 0.260723 0.125305
Si Si6 0.776219 0.308087 0.277830
Si Si7 0.931368 0.254614 0.020319
Si Si8 0.675166 0.926339 0.390254
O O1 0.530460 0.731664 0.058098
O O2 0.393843 0.515758 0.956268
O O3 0.594525 0.867745 0.191169
O O4 0.680242 0.504596 0.119799
O O5 0.707098 0.008238 0.090845
O O6 0.412450 0.289702 0.839694
O O7 0.500000 0.000000 0.748215
O O8 0.293093 0.059579 0.761988
O O9 0.126440 0.905212 0.822848
O O10 0.218327 0.242079 0.903861
O O11 0.156815 0.816485 0.961879
O O12 0.000000 0.000000 0.916015
O O13 0.790501 0.185814 0.203814
O O14 0.866434 0.343065 0.086454
O O15 0.713944 0.141105 0.335145
O O16 0.000000 0.500000 0.995302
O O17 0.000000 0.000000 0.041720
#
# Coordination Sequence:
#
# PCOD9342119 Si02
#       8
#     2   4   4   4   4   4   4   4
#     4  12  26  42  70 114 140 196 252 306 368 450
#     4  11  24  44  68 102 141 196 236 298 364 447
#     4  10  20  42  64  95 140 189 235 288 372 439
#     4  10  25  44  70 101 142 193 243 308 380 443
#     4  11  24  47  71  99 147 185 248 300 371 443
#     4  10  23  40  71 100 132 192 234 308 362 436
#     4  11  25  45  70 103 138 189 238 301 375 435
#     4  11  23  44  68 103 146 182 252 306 374 443
#
# _framework density 23.935234000000001
#
# number of rings (size 3 to 8) (size 9 to 14) (size 15 to 20)
#    0.000    1.333    2.000    2.400    5.600    1.067 
#    9.600    0.000    0.000    0.000    0.000    0.000 
#    0.000    0.000    0.000    0.000    0.000    0.000 
#
# Total GULP energy -167033.215598 kJ/mol
# GULP energy per Si atom -5567.773853 kJ/mol
# Density = 2.388076 g / cm^3
# Si number density = 23.935234 Si / 1000 Ang^3
#
#
#
# Elastic Constant Matrix: (Units=GPa)
#
#
# Indices 1 2 3 4 5 6 
#
# 1 86.7337 20.4019 45.9530 0.0000 0.0000 0.0000
# 2 20.4019 88.2544 25.1738 0.0000 0.0000 0.0000
# 3 45.9530 25.1738 149.0736 0.0000 0.0000 0.0000
# 4 0.0000 0.0000 0.0000 -136.5245 0.0000 0.0000
# 5 0.0000 0.0000 0.0000 0.0000 -83.7294 0.0000
# 6 0.0000 0.0000 0.0000 0.0000 0.0000 33.2116
#
#
#
# Elastic Compliance Matrix: (Units=1/GPa)
#
#
# Indices 1 2 3 4 5 6 
#
# 1 0.014151 -0.002130 -0.004003 0.000000 0.000000 0.000000
# 2 -0.002130 0.012225 -0.001408 0.000000 0.000000 0.000000
# 3 -0.004003 -0.001408 0.008180 0.000000 0.000000 0.000000
# 4 0.000000 0.000000 0.000000 -0.007325 0.000000 0.000000
# 5 0.000000 0.000000 0.000000 0.000000 -0.011943 0.000000
# 6 0.000000 0.000000 0.000000 0.000000 0.000000 0.030110
#
#
# Mechanical properties :
#
#
# Convention : Reuss Voigt Hill
#
# Bulk Modulus (GPa) = 51.34691 56.34656 53.84673
# Shear Modulus (GPa) = 74.66081 -21.90626 26.37727
#
# Velocity S-wave (km/s) = 5.59111 -3.02856 3.32328
# Velocity P-wave (km/s) = 7.94857 3.37088 6.10502
#
# Compressibility (1/GPa) = 0.01947537
#
# Stress axis : x y z
#
# Youngs Moduli (GPa) = 70.66582 81.80100 122.25444
#
# Poissons Ratio (x) = 0.17421 0.48933
# Poissons Ratio (y) = 0.15049 0.17212
# Poissons Ratio (z) = 0.28284 0.11517
#
# Static dielectric constant tensor:
#      x y z
#    x 2.739220 0.000000 0.000000 
#    y 0.000000 2.149330 0.000000 
#    z 0.000000 0.000000 2.014210 
# 
# From -- ./inp_files/7074.got.cif
#   From: 2010.05.17/outbox.cif.g08.bks.cpg/sg30_4_cif.got.tgz:7074.got - 2010.06.03 17:03:02.
