data_PCOD9342359
_publ_section_title
;
Structure prediction by ZEFSAII (Michael W. Deem and Ramdas Pophale) SiO2 
 PCOD9342359
Probable space group: P N C 2
;
_chemical_formula_sum "Si O2"
_cell_formula_units_Z 30
_cell_length_a 12.412283
_cell_length_b 10.711220
_cell_length_c 9.565999
_cell_angle_alpha 90.000000
_cell_angle_beta 90.000000
_cell_angle_gamma 90.000000
_cell_volume 1271.806205
_symmetry_space_group_name_H-M "P N C 2"
_symmetry_group_IT_number 30
_symmetry_cell_setting 'orthorhombic'
loop_
_space_group_symop_operation_xyz
x,y,z
-x,-y,z
-x,1/2+y,1/2+z
x,1/2-y,1/2+z
loop_
_atom_site_type_symbol
_atom_site_label
_atom_site_fract_x
_atom_site_fract_y
_atom_site_fract_z
Si Si1 0.000000 0.000000 0.385270
Si Si2 0.606310 0.876407 0.270614
Si Si3 0.697254 0.470975 0.528637
Si Si4 0.304824 0.778636 0.675965
Si Si5 0.884133 0.790653 0.551701
Si Si6 0.372714 0.885411 0.414450
Si Si7 0.252533 0.151051 0.820931
Si Si8 0.902616 0.343847 0.640411
O O1 0.078448 0.084883 0.474875
O O2 0.935315 0.095663 0.286663
O O3 0.492044 0.876133 0.348893
O O4 0.649461 0.738004 0.276989
O O5 0.672251 0.982633 0.357189
O O6 0.627047 0.926786 0.113899
O O7 0.648793 0.343269 0.590154
O O8 0.705693 0.515451 0.369023
O O9 0.823497 0.446581 0.569952
O O10 0.360194 0.883166 0.581283
O O11 0.316319 0.731128 0.834558
O O12 0.176530 0.775526 0.651054
O O13 0.834588 0.832419 0.699467
O O14 0.798949 0.714734 0.458876
O O15 0.988044 0.700832 0.569462
#
# Coordination Sequence:
#
# PCOD9342359 Si02
#       8
#     2   4   4   4   4   4   4   4
#     4  12  24  44  66 100 138 186 236 284 348 428
#     4  10  22  42  71  90 136 178 214 291 337 416
#     4   9  21  42  66  92 134 181 211 277 344 400
#     4   9  23  41  68  96 130 175 217 288 331 413
#     4  12  26  39  70  96 133 185 226 281 349 405
#     4  10  22  43  68 101 124 174 232 264 365 403
#     4  12  23  44  61 102 132 175 229 274 344 410
#     4  10  23  43  65  93 141 180 220 286 342 406
#
# _framework density 23.5885
#
# number of rings (size 3 to 8) (size 9 to 14) (size 15 to 20)
#    0.800    0.800    2.667    1.600    3.733    1.067 
#    4.800    0.000    0.000    0.000    0.000    0.000 
#    0.000    0.000    0.000    0.000    0.000    0.000 
#
# Total GULP energy -167185.268500 kJ/mol
# GULP energy per Si atom -5572.842283 kJ/mol
# Density = 2.353481 g / cm^3
# Si number density = 23.588500 Si / 1000 Ang^3
#
#
#
# Elastic Constant Matrix: (Units=GPa)
#
#
# Indices 1 2 3 4 5 6 
#
# 1 58.8243 -15.8709 -1.1126 0.0000 0.0000 0.0000
# 2 -15.8709 26.2537 -7.6383 0.0000 0.0000 0.0000
# 3 -1.1126 -7.6383 98.8918 0.0000 0.0000 0.0000
# 4 0.0000 0.0000 0.0000 41.9555 0.0000 0.0000
# 5 0.0000 0.0000 0.0000 0.0000 6.5195 0.0000
# 6 0.0000 0.0000 0.0000 0.0000 0.0000 19.9624
#
#
#
# Elastic Compliance Matrix: (Units=1/GPa)
#
#
# Indices 1 2 3 4 5 6 
#
# 1 0.020454 0.012718 0.001212 0.000000 0.000000 0.000000
# 2 0.012718 0.046873 0.003763 0.000000 0.000000 0.000000
# 3 0.001212 0.003763 0.010416 0.000000 0.000000 0.000000
# 4 0.000000 0.000000 0.000000 0.023835 0.000000 0.000000
# 5 0.000000 0.000000 0.000000 0.000000 0.153386 0.000000
# 6 0.000000 0.000000 0.000000 0.000000 0.000000 0.050094
#
#
# Mechanical properties :
#
#
# Convention : Reuss Voigt Hill
#
# Bulk Modulus (GPa) = 8.83937 14.96958 11.90447
# Shear Modulus (GPa) = 16.26646 27.59357 21.93002
#
# Velocity S-wave (km/s) = 2.62886 3.42393 3.05239
# Velocity P-wave (km/s) = 3.60139 4.68945 4.18097
#
# Compressibility (1/GPa) = 0.11313023
#
# Stress axis : x y z
#
# Youngs Moduli (GPa) = 48.89032 21.33428 96.00251
#
# Poissons Ratio (x) = -0.27132 -0.11639
# Poissons Ratio (y) = -0.62177 -0.36130
# Poissons Ratio (z) = -0.05927 -0.08029
#
# Static dielectric constant tensor:
#      x y z
#    x 1.905710 0.000000 0.000000 
#    y 0.000000 2.017290 0.000000 
#    z 0.000000 0.000000 1.921630 
# 
# From -- ./inp_files/2675.got.cif
#   From: 2010.05.17/outbox.cif.g08.bks.cpg/sg30_2_cif.got.tgz:2675.got - 2010.06.03 17:03:02.
