data_PCOD9342232
_publ_section_title
;
Structure prediction by ZEFSAII (Michael W. Deem and Ramdas Pophale) SiO2 
 PCOD9342232
Probable space group: P N C 2
;
_chemical_formula_sum "Si O2"
_cell_formula_units_Z 24
_cell_length_a 7.968313
_cell_length_b 16.048178
_cell_length_c 8.795835
_cell_angle_alpha 90.000000
_cell_angle_beta 90.000000
_cell_angle_gamma 90.000000
_cell_volume 1124.784160
_symmetry_space_group_name_H-M "P N C 2"
_symmetry_group_IT_number 30
_symmetry_cell_setting 'orthorhombic'
loop_
_space_group_symop_operation_xyz
x,y,z
-x,-y,z
-x,1/2+y,1/2+z
x,1/2-y,1/2+z
loop_
_atom_site_type_symbol
_atom_site_label
_atom_site_fract_x
_atom_site_fract_y
_atom_site_fract_z
Si Si1 0.000000 0.000000 0.300830
Si Si2 0.585534 0.173309 0.749079
Si Si3 0.042691 0.669129 0.347733
Si Si4 0.500000 0.500000 0.321056
Si Si5 0.216016 0.070010 0.045330
Si Si6 0.922535 0.660587 0.001564
Si Si7 0.396247 0.238272 0.025432
O O1 0.157161 0.012869 0.185240
O O2 0.015825 0.080612 0.408344
O O3 0.757688 0.170237 0.839944
O O4 0.567717 0.233330 0.606163
O O5 0.546140 0.077743 0.717416
O O6 0.439081 0.207407 0.857755
O O7 0.948043 0.601172 0.451670
O O8 0.987731 0.657116 0.173577
O O9 0.987694 0.758151 0.412842
O O10 0.654215 0.524715 0.432267
O O11 0.304372 0.157374 0.098361
O O12 0.725127 0.682028 0.018079
#
# Coordination Sequence:
#
# PCOD9342232 Si02
#       7
#     2   4   4   2   4   4   4
#     4  12  24  38  62  94 122 160 210 262 308 358
#     4  11  22  38  62  89 119 158 205 250 304 368
#     4  11  23  42  65  91 124 166 208 251 306 375
#     4  10  22  38  62  90 120 160 202 252 310 358
#     4  10  22  41  64  88 125 165 204 254 311 366
#     4  11  23  40  63  91 123 163 207 254 310 367
#     4  10  21  41  62  85 122 165 202 246 310 378
#
# _framework density 21.337427000000002
#
# number of rings (size 3 to 8) (size 9 to 14) (size 15 to 20)
#    0.000    1.333    0.000    8.000    0.000    6.000 
#    0.000    1.667    0.000    2.000    0.000    0.000 
#    0.000    0.000    0.000    0.000    0.000    0.000 
#
# Total GULP energy -133981.177872 kJ/mol
# GULP energy per Si atom -5582.549078 kJ/mol
# Density = 2.128886 g / cm^3
# Si number density = 21.337427 Si / 1000 Ang^3
#
#
#
# Elastic Constant Matrix: (Units=GPa)
#
#
# Indices 1 2 3 4 5 6 
#
# 1 80.8292 33.9049 7.9538 0.0000 0.0000 0.0000
# 2 33.9049 106.2695 37.9203 0.0000 0.0000 0.0000
# 3 7.9538 37.9203 71.5644 0.0000 0.0000 0.0000
# 4 0.0000 0.0000 0.0000 27.1175 0.0000 0.0000
# 5 0.0000 0.0000 0.0000 0.0000 20.7307 0.0000
# 6 0.0000 0.0000 0.0000 0.0000 0.0000 29.7702
#
#
#
# Elastic Compliance Matrix: (Units=1/GPa)
#
#
# Indices 1 2 3 4 5 6 
#
# 1 0.014344 -0.004942 0.001024 0.000000 0.000000 0.000000
# 2 -0.004942 0.013307 -0.006502 0.000000 0.000000 0.000000
# 3 0.001024 -0.006502 0.017305 0.000000 0.000000 0.000000
# 4 0.000000 0.000000 0.000000 0.036877 0.000000 0.000000
# 5 0.000000 0.000000 0.000000 0.000000 0.048238 0.000000
# 6 0.000000 0.000000 0.000000 0.000000 0.000000 0.033591
#
#
# Mechanical properties :
#
#
# Convention : Reuss Voigt Hill
#
# Bulk Modulus (GPa) = 41.46463 46.46900 43.96682
# Shear Modulus (GPa) = 25.96898 27.44930 26.70914
#
# Velocity S-wave (km/s) = 3.49243 3.59059 3.54185
# Velocity P-wave (km/s) = 5.97810 6.24622 6.11363
#
# Compressibility (1/GPa) = 0.02411694
#
# Stress axis : x y z
#
# Youngs Moduli (GPa) = 69.71593 75.14987 57.78792
#
# Poissons Ratio (x) = 0.37138 -0.05920
# Poissons Ratio (y) = 0.34453 0.37572
# Poissons Ratio (z) = -0.07142 0.48860
#
# Static dielectric constant tensor:
#      x y z
#    x 1.838850 0.000000 0.000000 
#    y 0.000000 1.771380 0.000000 
#    z 0.000000 0.000000 1.754700 
# 
# From -- ./inp_files/1862.got.cif
#   From: 2010.05.17/outbox.cif.g08.bks.cpg/sg30_1_cif.got.tgz:1862.got - 2010.06.03 17:03:02.
