data_PCOD9342439
_publ_section_title
;
Structure prediction by ZEFSAII (Michael W. Deem and Ramdas Pophale) SiO2 
 PCOD9342439
Probable space group: P N C 2
;
_chemical_formula_sum "Si O2"
_cell_formula_units_Z 26
_cell_length_a 11.814769
_cell_length_b 11.258038
_cell_length_c 8.864255
_cell_angle_alpha 90.000000
_cell_angle_beta 90.000000
_cell_angle_gamma 90.000000
_cell_volume 1179.044471
_symmetry_space_group_name_H-M "P N C 2"
_symmetry_group_IT_number 30
_symmetry_cell_setting 'orthorhombic'
loop_
_space_group_symop_operation_xyz
x,y,z
-x,-y,z
-x,1/2+y,1/2+z
x,1/2-y,1/2+z
loop_
_atom_site_type_symbol
_atom_site_label
_atom_site_fract_x
_atom_site_fract_y
_atom_site_fract_z
Si Si1 0.650698 0.899230 0.271630
Si Si2 0.352832 0.578276 0.015960
Si Si3 0.992160 0.804341 0.865271
Si Si4 0.909879 0.103166 0.574569
Si Si5 0.500000 0.000000 0.769501
Si Si6 0.901968 0.597873 0.655879
Si Si7 0.533687 0.781467 0.985143
O O1 0.775915 0.928937 0.209518
O O2 0.629870 0.799753 0.402929
O O3 0.617149 0.019928 0.356137
O O4 0.581263 0.847516 0.131775
O O5 0.218712 0.579844 0.032267
O O6 0.395377 0.498209 0.154751
O O7 0.425648 0.698866 0.024289
O O8 0.928081 0.717012 0.750794
O O9 0.073499 0.876543 0.753573
O O10 0.911422 0.878048 0.976472
O O11 0.059290 0.720833 0.981075
O O12 0.000000 0.000000 0.534152
O O13 0.503254 0.116495 0.869939
O O14 0.000000 0.500000 0.687994
#
# Coordination Sequence:
#
# PCOD9342439 Si02
#       7
#     4   4   4   4   2   4   4
#     4  12  24  46  78 105 157 202 250 319 381 458
#     4  12  26  50  74 107 155 199 255 321 383 456
#     4  10  23  42  66 105 141 189 239 301 371 434
#     4  11  25  45  73 105 147 189 246 307 374 447
#     4  12  28  46  72 108 144 200 258 308 382 442
#     4  11  23  43  70 105 143 191 251 297 374 446
#     4  12  27  47  71 110 148 200 260 315 382 457
#
# _framework density 22.051753999999999
#
# number of rings (size 3 to 8) (size 9 to 14) (size 15 to 20)
#    0.000    0.615    3.077    3.692    4.308    6.154 
#    2.769    0.000    0.000    0.000    0.000    0.000 
#    0.000    0.000    0.000    0.000    0.000    0.000 
#
# Total GULP energy -145279.390743 kJ/mol
# GULP energy per Si atom -5587.668875 kJ/mol
# Density = 2.200156 g / cm^3
# Si number density = 22.051754 Si / 1000 Ang^3
#
#
#
# Elastic Constant Matrix: (Units=GPa)
#
#
# Indices 1 2 3 4 5 6 
#
# 1 161.5126 52.9727 54.3908 0.0000 0.0000 0.0000
# 2 52.9727 72.4569 46.5751 0.0000 0.0000 0.0000
# 3 54.3908 46.5751 164.1221 0.0000 0.0000 0.0000
# 4 0.0000 0.0000 0.0000 50.9273 0.0000 0.0000
# 5 0.0000 0.0000 0.0000 0.0000 25.9041 0.0000
# 6 0.0000 0.0000 0.0000 0.0000 0.0000 26.6016
#
#
#
# Elastic Compliance Matrix: (Units=1/GPa)
#
#
# Indices 1 2 3 4 5 6 
#
# 1 0.008354 -0.005294 -0.001266 0.000000 0.000000 0.000000
# 2 -0.005294 0.020235 -0.003988 0.000000 0.000000 0.000000
# 3 -0.001266 -0.003988 0.007644 0.000000 0.000000 0.000000
# 4 0.000000 0.000000 0.000000 0.019636 0.000000 0.000000
# 5 0.000000 0.000000 0.000000 0.000000 0.038604 0.000000
# 6 0.000000 0.000000 0.000000 0.000000 0.000000 0.037592
#
#
# Mechanical properties :
#
#
# Convention : Reuss Voigt Hill
#
# Bulk Modulus (GPa) = 66.06105 78.44097 72.25101
# Shear Modulus (GPa) = 31.60420 36.96345 34.28383
#
# Velocity S-wave (km/s) = 3.78985 4.09860 3.94724
# Velocity P-wave (km/s) = 7.01234 7.61883 7.32187
#
# Compressibility (1/GPa) = 0.01513751
#
# Stress axis : x y z
#
# Youngs Moduli (GPa) = 119.70148 49.41951 130.81425
#
# Poissons Ratio (x) = 0.26161 0.16566
# Poissons Ratio (y) = 0.63365 0.52169
# Poissons Ratio (z) = 0.15158 0.19709
#
# Static dielectric constant tensor:
#      x y z
#    x 1.886810 0.000000 0.000000 
#    y 0.000000 1.880580 0.000000 
#    z 0.000000 0.000000 1.821540 
# 
# From -- ./inp_files/2369.got.cif
#   From: 2010.05.17/outbox.cif.g08.bks.cpg/sg30_2_cif.got.tgz:2369.got - 2010.06.03 17:03:02.
