data_PCOD9342459
_publ_section_title
;
Structure prediction by ZEFSAII (Michael W. Deem and Ramdas Pophale) SiO2 
 PCOD9342459
Probable space group: P N C 2
;
_chemical_formula_sum "Si O2"
_cell_formula_units_Z 30
_cell_length_a 5.987256
_cell_length_b 19.845225
_cell_length_c 10.788216
_cell_angle_alpha 90.000000
_cell_angle_beta 90.000000
_cell_angle_gamma 90.000000
_cell_volume 1281.839022
_symmetry_space_group_name_H-M "P N C 2"
_symmetry_group_IT_number 30
_symmetry_cell_setting 'orthorhombic'
loop_
_space_group_symop_operation_xyz
x,y,z
-x,-y,z
-x,1/2+y,1/2+z
x,1/2-y,1/2+z
loop_
_atom_site_type_symbol
_atom_site_label
_atom_site_fract_x
_atom_site_fract_y
_atom_site_fract_z
Si Si1 0.316822 0.178458 0.724380
Si Si2 0.705177 0.311145 0.021928
Si Si3 0.134367 0.434424 0.748922
Si Si4 0.672674 0.106235 0.876873
Si Si5 0.170307 0.827435 0.099176
Si Si6 0.939494 0.075759 0.636373
Si Si7 0.500000 0.000000 0.069730
Si Si8 0.567971 0.819320 0.284084
O O1 0.490407 0.183693 0.610455
O O2 0.456188 0.148190 0.838921
O O3 0.268766 0.256154 0.759265
O O4 0.135570 0.123815 0.686259
O O5 0.857155 0.253471 0.086165
O O6 0.829158 0.382453 0.025265
O O7 0.614500 0.297317 0.885651
O O8 0.307428 0.467702 0.652680
O O9 0.294791 0.384921 0.828795
O O10 0.000000 0.500000 0.798849
O O11 0.979377 0.379475 0.677313
O O12 0.769234 0.074597 0.752324
O O13 0.614251 0.051668 0.977770
O O14 0.842601 0.152063 0.954398
O O15 0.419194 0.833975 0.161056
O O16 0.000000 0.000000 0.604841
#
# Coordination Sequence:
#
# PCOD9342459 Si02
#       8
#     4   4   4   4   4   4   2   4
#     4  10  23  44  69 100 131 178 226 285 349 405
#     4  10  24  47  68  98 135 181 235 285 337 416
#     4  12  24  40  63 100 142 181 228 283 352 424
#     4  11  22  39  68 101 137 166 220 287 345 412
#     4  11  23  42  68 102 134 176 234 289 348 417
#     4  11  25  44  69 104 136 181 232 278 353 429
#     4  12  24  42  64 102 142 174 210 284 354 410
#     4  11  23  45  69  96 140 181 233 293 348 413
#
# _framework density 23.403873000000001
#
# number of rings (size 3 to 8) (size 9 to 14) (size 15 to 20)
#    0.000    1.067    4.000    1.600    3.733    2.667 
#    2.400    6.667    0.000    0.000    0.000    0.000 
#    0.000    0.000    0.000    0.000    0.000    0.000 
#
# Total GULP energy -167544.991218 kJ/mol
# GULP energy per Si atom -5584.833041 kJ/mol
# Density = 2.335060 g / cm^3
# Si number density = 23.403873 Si / 1000 Ang^3
#
#
#
# Elastic Constant Matrix: (Units=GPa)
#
#
# Indices 1 2 3 4 5 6 
#
# 1 58.0905 55.6147 6.4976 0.0000 0.0000 0.0000
# 2 55.6147 196.4629 21.7196 0.0000 0.0000 0.0000
# 3 6.4976 21.7196 43.9379 0.0000 0.0000 0.0000
# 4 0.0000 0.0000 0.0000 16.1639 0.0000 0.0000
# 5 0.0000 0.0000 0.0000 0.0000 18.1687 0.0000
# 6 0.0000 0.0000 0.0000 0.0000 0.0000 45.9710
#
#
#
# Elastic Compliance Matrix: (Units=1/GPa)
#
#
# Indices 1 2 3 4 5 6 
#
# 1 0.023616 -0.006663 -0.000199 0.000000 0.000000 0.000000
# 2 -0.006663 0.007264 -0.002606 0.000000 0.000000 0.000000
# 3 -0.000199 -0.002606 0.024077 0.000000 0.000000 0.000000
# 4 0.000000 0.000000 0.000000 0.061866 0.000000 0.000000
# 5 0.000000 0.000000 0.000000 0.000000 0.055040 0.000000
# 6 0.000000 0.000000 0.000000 0.000000 0.000000 0.021753
#
#
# Mechanical properties :
#
#
# Convention : Reuss Voigt Hill
#
# Bulk Modulus (GPa) = 27.76054 51.79501 39.77777
# Shear Modulus (GPa) = 22.26596 30.37136 26.31866
#
# Velocity S-wave (km/s) = 3.08779 3.60628 3.35706
# Velocity P-wave (km/s) = 4.95982 6.28644 5.66212
#
# Compressibility (1/GPa) = 0.03602236
#
# Stress axis : x y z
#
# Youngs Moduli (GPa) = 42.34419 137.65936 41.53381
#
# Poissons Ratio (x) = 0.91726 0.00825
# Poissons Ratio (y) = 0.28215 0.10822
# Poissons Ratio (z) = 0.00841 0.35868
#
# Static dielectric constant tensor:
#      x y z
#    x 2.002590 0.000000 0.000000 
#    y 0.000000 1.998270 0.000000 
#    z 0.000000 0.000000 1.874870 
# 
# From -- ./inp_files/3239.got.cif
#   From: 2010.05.17/outbox.cif.g08.bks.cpg/sg30_2_cif.got.tgz:3239.got - 2010.06.03 17:03:02.
