data_PCOD9342852
_publ_section_title
;
Structure prediction by ZEFSAII (Michael W. Deem and Ramdas Pophale) SiO2 
 PCOD9342852
Probable space group: P M N 21
;
_chemical_formula_sum "Si O2"
_cell_formula_units_Z 32
_cell_length_a 7.531500
_cell_length_b 11.806706
_cell_length_c 16.591515
_cell_angle_alpha 90.000000
_cell_angle_beta 90.000000
_cell_angle_gamma 90.000000
_cell_volume 1475.354119
_symmetry_space_group_name_H-M "P M N 21"
_symmetry_group_IT_number 31
_symmetry_cell_setting 'orthorhombic'
loop_
_space_group_symop_operation_xyz
x,y,z
1/2-x,-y,1/2+z
-x,y,z
1/2+x,-y,1/2+z
loop_
_atom_site_type_symbol
_atom_site_label
_atom_site_fract_x
_atom_site_fract_y
_atom_site_fract_z
Si Si1 0.289470 0.846441 0.812470
Si Si2 0.703210 0.047755 0.144878
Si Si3 0.217226 0.177734 0.709611
Si Si4 0.786847 0.432554 0.677073
Si Si5 0.782316 0.523222 0.501571
Si Si6 0.212831 0.410824 0.333496
Si Si7 0.287939 0.926960 0.381252
Si Si8 0.701144 0.225126 0.027174
O O1 0.500000 0.841223 0.797043
O O2 0.200135 0.903792 0.735107
O O3 0.223623 0.719158 0.826299
O O4 0.258948 0.940131 0.881459
O O5 0.500000 0.035961 0.115277
O O6 0.778708 0.921042 0.148555
O O7 0.792087 0.146755 0.093795
O O8 0.278066 0.305118 0.694975
O O9 0.267981 0.131370 0.797357
O O10 0.000000 0.177441 0.706967
O O11 0.726351 0.470646 0.587768
O O12 0.748127 0.516471 0.752248
O O13 0.000000 0.427754 0.672699
O O14 0.722066 0.466366 0.417548
O O15 0.722280 0.653710 0.504832
O O16 0.000000 0.518992 0.499219
O O17 0.000000 0.405385 0.340286
O O18 0.500000 0.916356 0.388400
O O19 0.199207 0.854992 0.450435
O O20 0.500000 0.250818 0.056242
#
# Coordination Sequence:
#
# PCOD9342852 Si02
#       8
#     4   4   4   4   4   4   4   4
#     4  10  20  34  53  76 101 134 175 214 261 317
#     4   9  18  33  53  77 105 135 169 214 263 312
#     4   8  16  31  51  75 100 129 167 210 258 308
#     4  10  19  34  57  79 102 139 182 217 256 315
#     4   9  19  34  53  79 108 139 177 219 264 319
#     4  10  21  36  53  76 109 143 174 218 272 317
#     4  10  20  34  52  75 104 135 169 216 267 311
#     4  10  19  32  52  77 103 134 173 212 257 313
#
# _framework density 21.689708
#
# number of rings (size 3 to 8) (size 9 to 14) (size 15 to 20)
#    0.000    2.500    0.000    3.000    0.000    3.500 
#    0.000    7.500    0.000    1.500    0.000    0.000 
#    0.000    0.000    0.000    0.000    0.000    0.000 
#
# Total GULP energy -178452.668276 kJ/mol
# GULP energy per Si atom -5576.645884 kJ/mol
# Density = 2.164034 g / cm^3
# Si number density = 21.689708 Si / 1000 Ang^3
#
#
#
# Elastic Constant Matrix: (Units=GPa)
#
#
# Indices 1 2 3 4 5 6 
#
# 1 62.8101 -1.6496 -5.0558 0.0000 0.0000 0.0000
# 2 -1.6496 209.3250 72.2450 0.0000 0.0000 0.0000
# 3 -5.0558 72.2450 105.6099 0.0000 0.0000 0.0000
# 4 0.0000 0.0000 0.0000 37.1366 0.0000 0.0000
# 5 0.0000 0.0000 0.0000 0.0000 11.8825 0.0000
# 6 0.0000 0.0000 0.0000 0.0000 0.0000 5.6374
#
#
#
# Elastic Compliance Matrix: (Units=1/GPa)
#
#
# Indices 1 2 3 4 5 6 
#
# 1 0.015988 -0.000181 0.000889 0.000000 0.000000 0.000000
# 2 -0.000181 0.006256 -0.004288 0.000000 0.000000 0.000000
# 3 0.000889 -0.004288 0.012445 0.000000 0.000000 0.000000
# 4 0.000000 0.000000 0.000000 0.026928 0.000000 0.000000
# 5 0.000000 0.000000 0.000000 0.000000 0.084157 0.000000
# 6 0.000000 0.000000 0.000000 0.000000 0.000000 0.177387
#
#
# Mechanical properties :
#
#
# Convention : Reuss Voigt Hill
#
# Bulk Modulus (GPa) = 36.32577 56.53600 46.43089
# Shear Modulus (GPa) = 14.72771 31.74500 23.23635
#
# Velocity S-wave (km/s) = 2.60862 3.82985 3.27663
# Velocity P-wave (km/s) = 5.08503 6.75865 5.98067
#
# Compressibility (1/GPa) = 0.02752867
#
# Stress axis : x y z
#
# Youngs Moduli (GPa) = 62.54758 159.85182 80.35525
#
# Poissons Ratio (x) = 0.02891 -0.07144
# Poissons Ratio (y) = 0.01131 0.34457
# Poissons Ratio (z) = -0.05561 0.68546
#
# Static dielectric constant tensor:
#      x y z
#    x 1.843550 0.000000 0.000000 
#    y 0.000000 1.794620 0.000000 
#    z 0.000000 0.000000 1.794930 
# 
# From -- ./inp_files/5930.got.cif
#   From: 2010.05.17/outbox.cif.g08.bks.cpg/sg31_3_cif.got.tgz:5930.got - 2010.06.03 17:08:30.
