data_PCOD9342084
_publ_section_title
;
Structure prediction by ZEFSAII (Michael W. Deem and Ramdas Pophale) SiO2 
 PCOD9342084
Probable space group: P N C 2
;
_chemical_formula_sum "Si O2"
_cell_formula_units_Z 32
_cell_length_a 9.791268
_cell_length_b 11.550156
_cell_length_c 13.598518
_cell_angle_alpha 90.000000
_cell_angle_beta 90.000000
_cell_angle_gamma 90.000000
_cell_volume 1537.865550
_symmetry_space_group_name_H-M "P N C 2"
_symmetry_group_IT_number 30
_symmetry_cell_setting 'orthorhombic'
loop_
_space_group_symop_operation_xyz
x,y,z
-x,-y,z
-x,1/2+y,1/2+z
x,1/2-y,1/2+z
loop_
_atom_site_type_symbol
_atom_site_label
_atom_site_fract_x
_atom_site_fract_y
_atom_site_fract_z
Si Si1 0.807206 0.431210 0.939370
Si Si2 0.320020 0.412158 0.639819
Si Si3 0.539463 0.125475 0.517794
Si Si4 0.509423 0.704751 0.231007
Si Si5 0.349405 0.315284 0.421883
Si Si6 0.267118 0.634852 0.731636
Si Si7 0.090206 0.180363 0.461329
Si Si8 0.982323 0.870662 0.121944
O O1 0.739183 0.436382 0.832845
O O2 0.836109 0.557625 0.984760
O O3 0.947627 0.363704 0.918148
O O4 0.702057 0.361766 0.007476
O O5 0.407634 0.321662 0.702275
O O6 0.332189 0.389293 0.522147
O O7 0.343654 0.547684 0.657283
O O8 0.163454 0.387808 0.674044
O O9 0.493441 0.134776 0.630037
O O10 0.457813 0.218345 0.455404
O O11 0.500000 0.000000 0.478987
O O12 0.584732 0.640585 0.320682
O O13 0.355669 0.750527 0.250500
O O14 0.202120 0.255604 0.403388
O O15 0.115668 0.653056 0.687546
O O16 0.044432 0.263580 0.549997
O O17 0.000000 0.000000 0.074008
#
# Coordination Sequence:
#
# PCOD9342084 Si02
#       8
#     4   4   4   4   4   4   4   4
#     4  11  22  34  61  94 123 159 207 264 320 367
#     4   9  21  34  58  90 114 152 204 250 298 360
#     4  11  22  40  58  86 121 160 203 254 318 379
#     4  11  22  36  62  86 120 160 199 249 317 374
#     4  10  20  39  58  87 119 162 200 250 307 371
#     4  11  21  36  60  93 119 156 205 262 309 364
#     4  10  21  35  58  92 121 160 206 256 308 378
#     4   9  20  38  58  85 120 160 202 256 311 362
#
# _framework density 20.808062
#
# number of rings (size 3 to 8) (size 9 to 14) (size 15 to 20)
#    0.000    1.750    2.500    1.875    7.000    0.000 
#    0.000    2.500    5.500    0.000    3.250    0.000 
#    0.000    0.000    0.000    0.000    0.000    0.000 
#
# Total GULP energy -178368.938522 kJ/mol
# GULP energy per Si atom -5574.029329 kJ/mol
# Density = 2.076070 g / cm^3
# Si number density = 20.808062 Si / 1000 Ang^3
#
#
#
# Elastic Constant Matrix: (Units=GPa)
#
#
# Indices 1 2 3 4 5 6 
#
# 1 103.1398 5.0287 12.0429 0.0000 0.0000 0.0000
# 2 5.0287 35.3850 -2.5665 0.0000 0.0000 0.0000
# 3 12.0429 -2.5665 76.3081 0.0000 0.0000 0.0000
# 4 0.0000 0.0000 0.0000 2.5059 0.0000 0.0000
# 5 0.0000 0.0000 0.0000 0.0000 33.3850 0.0000
# 6 0.0000 0.0000 0.0000 0.0000 0.0000 24.6323
#
#
#
# Elastic Compliance Matrix: (Units=1/GPa)
#
#
# Indices 1 2 3 4 5 6 
#
# 1 0.009960 -0.001533 -0.001623 0.000000 0.000000 0.000000
# 2 -0.001533 0.028566 0.001203 0.000000 0.000000 0.000000
# 3 -0.001623 0.001203 0.013401 0.000000 0.000000 0.000000
# 4 0.000000 0.000000 0.000000 0.399055 0.000000 0.000000
# 5 0.000000 0.000000 0.000000 0.000000 0.029954 0.000000
# 6 0.000000 0.000000 0.000000 0.000000 0.000000 0.040597
#
#
# Mechanical properties :
#
#
# Convention : Reuss Voigt Hill
#
# Bulk Modulus (GPa) = 20.82501 27.09368 23.95935
# Shear Modulus (GPa) = 9.23452 25.45982 17.34717
#
# Velocity S-wave (km/s) = 2.10893 3.50173 2.89048
# Velocity P-wave (km/s) = 3.99499 5.42204 4.76227
#
# Compressibility (1/GPa) = 0.04801919
#
# Stress axis : x y z
#
# Youngs Moduli (GPa) = 100.40270 35.00707 74.61887
#
# Poissons Ratio (x) = 0.05367 0.12114
# Poissons Ratio (y) = 0.15394 -0.08975
# Poissons Ratio (z) = 0.16300 -0.04210
#
# Static dielectric constant tensor:
#      x y z
#    x 1.819890 0.000000 0.000000 
#    y 0.000000 1.762060 0.000000 
#    z 0.000000 0.000000 1.742400 
# 
# From -- ./inp_files/5214.got.cif
#   From: 2010.05.17/outbox.cif.g08.bks.cpg/sg30_3_cif.got.tgz:5214.got - 2010.06.03 17:03:02.
