data_PCOD9342313
_publ_section_title
;
Structure prediction by ZEFSAII (Michael W. Deem and Ramdas Pophale) SiO2 
 PCOD9342313
Probable space group: P N C 2
;
_chemical_formula_sum "Si O2"
_cell_formula_units_Z 14
_cell_length_a 10.112076
_cell_length_b 5.172814
_cell_length_c 12.592707
_cell_angle_alpha 90.000000
_cell_angle_beta 90.000000
_cell_angle_gamma 90.000000
_cell_volume 658.697911
_symmetry_space_group_name_H-M "P N C 2"
_symmetry_group_IT_number 30
_symmetry_cell_setting 'orthorhombic'
loop_
_space_group_symop_operation_xyz
x,y,z
-x,-y,z
-x,1/2+y,1/2+z
x,1/2-y,1/2+z
loop_
_atom_site_type_symbol
_atom_site_label
_atom_site_fract_x
_atom_site_fract_y
_atom_site_fract_z
Si Si1 0.500000 0.500000 0.662890
Si Si2 0.721111 0.095923 0.997669
Si Si3 0.848714 0.925005 0.581058
Si Si4 0.645827 0.900559 0.766769
O O1 0.404306 0.635761 0.575316
O O2 0.612875 0.601960 0.744194
O O3 0.814848 0.866833 0.044370
O O4 0.794655 0.369354 0.995044
O O5 0.673810 0.994499 0.883975
O O6 0.763938 0.970555 0.688021
O O7 0.000000 0.000000 0.598908
O O8 0.500000 0.000000 0.731862
#
# Coordination Sequence:
#
# PCOD9342313 Si02
#       4
#     2   4   4   4
#     4  10  22  40  64 104 132 166 216 282 330 388
#     4  11  24  41  70  97 134 172 222 273 332 391
#     4  11  26  45  64  97 139 178 221 270 329 400
#     4  11  23  41  72  99 132 171 227 274 338 384
#
# _framework density 21.254054
#
# number of rings (size 3 to 8) (size 9 to 14) (size 15 to 20)
#    0.000    1.143    4.286    0.857    4.000    2.286 
#    0.000    0.000    0.000    0.000    0.000    0.000 
#    0.000    0.000    0.000    0.000    0.000    0.000 
#
# Total GULP energy -77941.254618 kJ/mol
# GULP energy per Si atom -5567.232473 kJ/mol
# Density = 2.120568 g / cm^3
# Si number density = 21.254054 Si / 1000 Ang^3
#
#
#
# Elastic Constant Matrix: (Units=GPa)
#
#
# Indices 1 2 3 4 5 6 
#
# 1 139.6030 8.4346 33.3552 0.0000 0.0000 0.0000
# 2 8.4346 46.4704 14.2064 0.0000 0.0000 0.0000
# 3 33.3552 14.2064 128.2212 0.0000 0.0000 0.0000
# 4 0.0000 0.0000 0.0000 22.8896 0.0000 0.0000
# 5 0.0000 0.0000 0.0000 0.0000 20.3084 0.0000
# 6 0.0000 0.0000 0.0000 0.0000 0.0000 1.7655
#
#
#
# Elastic Compliance Matrix: (Units=1/GPa)
#
#
# Indices 1 2 3 4 5 6 
#
# 1 0.007667 -0.000809 -0.001905 0.000000 0.000000 0.000000
# 2 -0.000809 0.022359 -0.002267 0.000000 0.000000 0.000000
# 3 -0.001905 -0.002267 0.008546 0.000000 0.000000 0.000000
# 4 0.000000 0.000000 0.000000 0.043688 0.000000 0.000000
# 5 0.000000 0.000000 0.000000 0.000000 0.049241 0.000000
# 6 0.000000 0.000000 0.000000 0.000000 0.000000 0.566412
#
#
# Mechanical properties :
#
#
# Convention : Reuss Voigt Hill
#
# Bulk Modulus (GPa) = 34.95284 47.36526 41.15905
# Shear Modulus (GPa) = 6.96951 26.21259 16.59105
#
# Velocity S-wave (km/s) = 1.81281 3.51564 2.79696
# Velocity P-wave (km/s) = 4.56756 6.23003 5.46242
#
# Compressibility (1/GPa) = 0.02860998
#
# Stress axis : x y z
#
# Youngs Moduli (GPa) = 130.42583 44.72485 117.01796
#
# Poissons Ratio (x) = 0.03620 0.22290
# Poissons Ratio (y) = 0.10555 0.26525
# Poissons Ratio (z) = 0.24844 0.10138
#
# Static dielectric constant tensor:
#      x y z
#    x 1.782370 0.000000 0.000000 
#    y 0.000000 5.235330 0.000000 
#    z 0.000000 0.000000 1.715560 
# 
# From -- ./inp_files/3343.got.cif
#   From: 2010.05.17/outbox.cif.g08.bks.cpg/sg30_2_cif.got.tgz:3343.got - 2010.06.03 17:03:02.
