data_PCOD9342996
_publ_section_title
;
Structure prediction by ZEFSAII (Michael W. Deem and Ramdas Pophale) SiO2 
 PCOD9342996
Probable space group: P M N 21
;
_chemical_formula_sum "Si O2"
_cell_formula_units_Z 28
_cell_length_a 21.893580
_cell_length_b 9.078595
_cell_length_c 7.673681
_cell_angle_alpha 90.000000
_cell_angle_beta 90.000000
_cell_angle_gamma 90.000000
_cell_volume 1525.243442
_symmetry_space_group_name_H-M "P M N 21"
_symmetry_group_IT_number 31
_symmetry_cell_setting 'orthorhombic'
loop_
_space_group_symop_operation_xyz
x,y,z
1/2-x,-y,1/2+z
-x,y,z
1/2+x,-y,1/2+z
loop_
_atom_site_type_symbol
_atom_site_label
_atom_site_fract_x
_atom_site_fract_y
_atom_site_fract_z
Si Si1 0.070799 0.139605 0.108290
Si Si2 0.197077 0.866193 0.602673
Si Si3 0.571423 0.666333 0.275455
Si Si4 0.254613 0.309669 0.556453
Si Si5 0.813291 0.971912 0.003508
Si Si6 0.321314 0.446632 0.238037
Si Si7 0.631933 0.851621 0.974072
O O1 0.091250 0.173841 0.304586
O O2 0.000000 0.095343 0.101777
O O3 0.078711 0.273690 0.972236
O O4 0.118263 0.016384 0.044841
O O5 0.192765 0.922405 0.803365
O O6 0.181154 0.693856 0.608902
O O7 0.266301 0.895290 0.539680
O O8 0.153251 0.979080 0.498623
O O9 0.500000 0.641243 0.242448
O O10 0.613186 0.524183 0.243894
O O11 0.597208 0.791690 0.144669
O O12 0.289161 0.163787 0.621687
O O13 0.300374 0.387616 0.424642
O O14 0.227512 0.428017 0.687159
O O15 0.194641 0.242250 0.460584
#
# Coordination Sequence:
#
# PCOD9342996 Si02
#       7
#     4   4   4   4   4   4   4
#     4  11  22  36  62  86 111 156 199 240 285 345
#     4  10  20  35  61  90 118 153 187 258 299 350
#     4  10  22  40  59  81 116 159 197 236 289 356
#     4   9  21  33  55  87 115 151 184 242 301 348
#     4  10  19  36  55  87 118 145 197 238 296 347
#     4  10  21  35  56  87 119 152 191 235 306 352
#     4  10  20  39  60  88 112 148 201 245 294 342
#
# _framework density 18.357724999999999
#
# number of rings (size 3 to 8) (size 9 to 14) (size 15 to 20)
#    0.000    2.000    1.429    3.000    4.000    1.143 
#    0.000    4.286    0.000    0.000    0.000    0.000 
#    0.000    0.000    0.000    0.000    0.000    0.000 
#
# Total GULP energy -156220.614139 kJ/mol
# GULP energy per Si atom -5579.307648 kJ/mol
# Density = 1.831594 g / cm^3
# Si number density = 18.357725 Si / 1000 Ang^3
#
#
#
# Elastic Constant Matrix: (Units=GPa)
#
#
# Indices 1 2 3 4 5 6 
#
# 1 125.5213 61.3630 22.0461 0.0000 0.0000 0.0000
# 2 61.3630 98.3627 17.0527 0.0000 0.0000 0.0000
# 3 22.0461 17.0527 61.8236 0.0000 0.0000 0.0000
# 4 0.0000 0.0000 0.0000 24.4339 0.0000 0.0000
# 5 0.0000 0.0000 0.0000 0.0000 25.6501 0.0000
# 6 0.0000 0.0000 0.0000 0.0000 0.0000 14.8419
#
#
#
# Elastic Compliance Matrix: (Units=1/GPa)
#
#
# Indices 1 2 3 4 5 6 
#
# 1 0.011761 -0.006942 -0.002279 0.000000 0.000000 0.000000
# 2 -0.006942 0.014774 -0.001600 0.000000 0.000000 0.000000
# 3 -0.002279 -0.001600 0.017429 0.000000 0.000000 0.000000
# 4 0.000000 0.000000 0.000000 0.040927 0.000000 0.000000
# 5 0.000000 0.000000 0.000000 0.000000 0.038986 0.000000
# 6 0.000000 0.000000 0.000000 0.000000 0.000000 0.067377
#
#
# Mechanical properties :
#
#
# Convention : Reuss Voigt Hill
#
# Bulk Modulus (GPa) = 44.79714 54.07014 49.43364
# Shear Modulus (GPa) = 22.69261 25.33488 24.01375
#
# Velocity S-wave (km/s) = 3.51968 3.71895 3.62069
# Velocity P-wave (km/s) = 6.40101 6.92520 6.66826
#
# Compressibility (1/GPa) = 0.02232285
#
# Stress axis : x y z
#
# Youngs Moduli (GPa) = 85.02959 67.68491 57.37551
#
# Poissons Ratio (x) = 0.46985 0.13076
# Poissons Ratio (y) = 0.59025 0.09179
# Poissons Ratio (z) = 0.19379 0.10828
#
# Static dielectric constant tensor:
#      x y z
#    x 1.605390 0.000000 0.000000 
#    y 0.000000 1.658900 0.000000 
#    z 0.000000 0.000000 1.673530 
# 
# From -- ./inp_files/2951.got.cif
#   From: 2010.05.17/outbox.cif.g08.bks.cpg/sg31_2_cif.got.tgz:2951.got - 2010.06.03 17:08:30.
