data_PCOD9342288
_publ_section_title
;
Structure prediction by ZEFSAII (Michael W. Deem and Ramdas Pophale) SiO2 
 PCOD9342288
Probable space group: P N C 2
;
_chemical_formula_sum "Si O2"
_cell_formula_units_Z 26
_cell_length_a 11.939228
_cell_length_b 5.671583
_cell_length_c 18.462851
_cell_angle_alpha 90.000000
_cell_angle_beta 90.000000
_cell_angle_gamma 90.000000
_cell_volume 1250.199448
_symmetry_space_group_name_H-M "P N C 2"
_symmetry_group_IT_number 30
_symmetry_cell_setting 'orthorhombic'
loop_
_space_group_symop_operation_xyz
x,y,z
-x,-y,z
-x,1/2+y,1/2+z
x,1/2-y,1/2+z
loop_
_atom_site_type_symbol
_atom_site_label
_atom_site_fract_x
_atom_site_fract_y
_atom_site_fract_z
Si Si1 0.226899 0.416757 0.736600
Si Si2 0.377502 0.618672 0.019891
Si Si3 0.500000 0.500000 0.454035
Si Si4 0.000000 0.500000 0.821114
Si Si5 0.316342 0.189805 0.389993
Si Si6 0.000000 0.500000 0.074151
Si Si7 0.919742 0.698293 0.447631
Si Si8 0.783596 0.095047 0.654497
O O1 0.106824 0.475963 0.771551
O O2 0.304410 0.383015 0.807188
O O3 0.253048 0.659689 0.693704
O O4 0.221304 0.159892 0.696445
O O5 0.500000 0.500000 0.028986
O O6 0.299824 0.570751 0.087080
O O7 0.406606 0.889107 0.005894
O O8 0.321708 0.527054 0.945805
O O9 0.432104 0.322251 0.404112
O O10 0.007556 0.287659 0.878682
O O11 0.204797 0.333527 0.415741
O O12 0.088629 0.630879 0.126006
O O13 0.081721 0.370623 0.016573
O O14 0.000000 0.500000 0.478598
#
# Coordination Sequence:
#
# PCOD9342288 Si02
#       8
#     4   4   2   2   4   2   4   4
#     4  11  27  44  69 102 145 187 225 287 351 423
#     4  10  24  46  70  98 133 182 239 290 350 409
#     4  10  24  42  78  96 132 182 244 306 336 416
#     4   9  22  42  60 100 139 192 222 280 345 414
#     4  10  23  46  70 103 134 184 243 290 349 415
#     4  11  24  38  66 106 137 190 228 286 341 432
#     4  10  22  36  70 102 139 178 240 292 340 413
#     4  12  27  45  69 104 146 183 228 285 356 420
#
# _framework density 20.796681
#
# number of rings (size 3 to 8) (size 9 to 14) (size 15 to 20)
#    0.000    1.538    1.538    0.923   15.077    0.000 
#    1.385    0.000    0.000    0.000    0.000    0.000 
#    0.000    0.000    0.000    0.000    0.000    0.000 
#
# Total GULP energy -144782.589608 kJ/mol
# GULP energy per Si atom -5568.561139 kJ/mol
# Density = 2.074935 g / cm^3
# Si number density = 20.796681 Si / 1000 Ang^3
#
#
#
# Elastic Constant Matrix: (Units=GPa)
#
#
# Indices 1 2 3 4 5 6 
#
# 1 74.8605 21.4514 40.6559 0.0000 0.0000 0.0000
# 2 21.4514 76.4688 48.8726 0.0000 0.0000 0.0000
# 3 40.6559 48.8726 131.0962 0.0000 0.0000 0.0000
# 4 0.0000 0.0000 0.0000 -20.3368 0.0000 0.0000
# 5 0.0000 0.0000 0.0000 0.0000 324.6352 0.0000
# 6 0.0000 0.0000 0.0000 0.0000 0.0000 22.2368
#
#
#
# Elastic Compliance Matrix: (Units=1/GPa)
#
#
# Indices 1 2 3 4 5 6 
#
# 1 0.016241 -0.001755 -0.004382 0.000000 0.000000 0.000000
# 2 -0.001755 0.017357 -0.005926 0.000000 0.000000 0.000000
# 3 -0.004382 -0.005926 0.011196 0.000000 0.000000 0.000000
# 4 0.000000 0.000000 0.000000 -0.049172 0.000000 0.000000
# 5 0.000000 0.000000 0.000000 0.000000 0.003080 0.000000
# 6 0.000000 0.000000 0.000000 0.000000 0.000000 0.044971
#
#
# Mechanical properties :
#
#
# Convention : Reuss Voigt Hill
#
# Bulk Modulus (GPa) = 48.38678 56.04282 52.21480
# Shear Modulus (GPa) = 66.94236 76.73674 71.83955
#
# Velocity S-wave (km/s) = 5.67969 6.08101 5.88377
# Velocity P-wave (km/s) = 8.14425 8.73564 8.44512
#
# Compressibility (1/GPa) = 0.02066680
#
# Stress axis : x y z
#
# Youngs Moduli (GPa) = 61.57194 57.61252 89.31382
#
# Poissons Ratio (x) = 0.10112 0.39141
# Poissons Ratio (y) = 0.10807 0.52932
# Poissons Ratio (z) = 0.26983 0.34144
#
# Static dielectric constant tensor:
#      x y z
#    x 1.661920 0.000000 0.000000 
#    y 0.000000 2.302160 0.000000 
#    z 0.000000 0.000000 1.723680 
# 
# From -- ./inp_files/6533.got.cif
#   From: 2010.05.17/outbox.cif.g08.bks.cpg/sg30_4_cif.got.tgz:6533.got - 2010.06.03 17:03:02.
