data_PCOD9342906
_publ_section_title
;
Structure prediction by ZEFSAII (Michael W. Deem and Ramdas Pophale) SiO2 
 PCOD9342906
Probable space group: P M N 21
;
_chemical_formula_sum "Si O2"
_cell_formula_units_Z 32
_cell_length_a 8.008723
_cell_length_b 11.245351
_cell_length_c 14.202695
_cell_angle_alpha 90.000000
_cell_angle_beta 90.000000
_cell_angle_gamma 90.000000
_cell_volume 1279.107511
_symmetry_space_group_name_H-M "P M N 21"
_symmetry_group_IT_number 31
_symmetry_cell_setting 'orthorhombic'
loop_
_space_group_symop_operation_xyz
x,y,z
1/2-x,-y,1/2+z
-x,y,z
1/2+x,-y,1/2+z
loop_
_atom_site_type_symbol
_atom_site_label
_atom_site_fract_x
_atom_site_fract_y
_atom_site_fract_z
Si Si1 0.308471 0.936214 0.693120
Si Si2 0.195177 0.536642 0.843294
Si Si3 0.196865 0.446313 0.556396
Si Si4 0.191365 0.691918 0.232481
Si Si5 0.203906 0.938046 0.015809
Si Si6 0.695651 0.211773 0.356344
Si Si7 0.197508 0.179810 0.907937
Si Si8 0.307361 0.292179 0.088223
O O1 0.500000 0.963214 0.716560
O O2 0.238202 0.034126 0.621104
O O3 0.213378 0.898612 0.786256
O O4 0.300209 0.813348 0.632569
O O5 0.288365 0.426427 0.797204
O O6 0.262619 0.666534 0.812835
O O7 0.000000 0.519875 0.817059
O O8 0.209389 0.549846 0.956648
O O9 0.232370 0.343232 0.631759
O O10 0.240585 0.572219 0.606511
O O11 0.000000 0.450054 0.535541
O O12 0.264017 0.795078 0.299299
O O13 0.000000 0.720076 0.215033
O O14 0.000000 0.932536 0.020590
O O15 0.244887 0.052376 0.951064
O O16 0.268166 0.826215 0.957002
O O17 0.500000 0.234383 0.369862
O O18 0.000000 0.196801 0.921470
O O19 0.292465 0.272205 0.975790
O O20 0.500000 0.273972 0.118517
#
# Coordination Sequence:
#
# PCOD9342906 Si02
#       8
#     4   4   4   4   4   4   4   4
#     4  10  20  35  59  89 116 152 200 247 294 348
#     4  11  23  39  61  88 121 161 199 243 300 358
#     4  11  23  38  57  84 120 158 197 242 295 357
#     4  12  24  38  58  86 121 159 199 243 295 358
#     4   8  18  38  61  84 115 152 191 241 300 351
#     4  10  21  40  62  85 119 158 196 242 299 359
#     4  10  19  35  60  84 112 147 190 242 296 347
#     4  10  19  33  56  84 114 149 192 240 289 344
#
# _framework density 25.017441000000002
#
# number of rings (size 3 to 8) (size 9 to 14) (size 15 to 20)
#    0.000    1.750    1.250    4.500    0.000    5.500 
#    2.250    3.750    0.000    0.000    0.000    0.000 
#    0.000    0.000    0.000    0.000    0.000    0.000 
#
# Total GULP energy -178968.621554 kJ/mol
# GULP energy per Si atom -5592.769424 kJ/mol
# Density = 2.496050 g / cm^3
# Si number density = 25.017441 Si / 1000 Ang^3
#
#
#
# Elastic Constant Matrix: (Units=GPa)
#
#
# Indices 1 2 3 4 5 6 
#
# 1 42.2746 3.3829 -10.6803 0.0000 0.0000 0.0000
# 2 3.3829 57.2926 28.2713 0.0000 0.0000 0.0000
# 3 -10.6803 28.2713 117.7633 0.0000 0.0000 0.0000
# 4 0.0000 0.0000 0.0000 56.3595 0.0000 0.0000
# 5 0.0000 0.0000 0.0000 0.0000 40.7382 0.0000
# 6 0.0000 0.0000 0.0000 0.0000 0.0000 41.7959
#
#
#
# Elastic Compliance Matrix: (Units=1/GPa)
#
#
# Indices 1 2 3 4 5 6 
#
# 1 0.024627 -0.002900 0.002930 0.000000 0.000000 0.000000
# 2 -0.002900 0.020141 -0.005098 0.000000 0.000000 0.000000
# 3 0.002930 -0.005098 0.009981 0.000000 0.000000 0.000000
# 4 0.000000 0.000000 0.000000 0.017743 0.000000 0.000000
# 5 0.000000 0.000000 0.000000 0.000000 0.024547 0.000000
# 6 0.000000 0.000000 0.000000 0.000000 0.000000 0.023926
#
#
# Mechanical properties :
#
#
# Convention : Reuss Voigt Hill
#
# Bulk Modulus (GPa) = 22.41511 28.80870 25.61191
# Shear Modulus (GPa) = 34.25284 40.86915 37.56100
#
# Velocity S-wave (km/s) = 3.70423 4.04620 3.87898
# Velocity P-wave (km/s) = 5.22248 5.77663 5.50653
#
# Compressibility (1/GPa) = 0.04461276
#
# Stress axis : x y z
#
# Youngs Moduli (GPa) = 40.60575 49.64934 100.18795
#
# Poissons Ratio (x) = 0.14397 -0.29351
# Poissons Ratio (y) = 0.11775 0.51079
# Poissons Ratio (z) = -0.11896 0.25313
#
# Static dielectric constant tensor:
#      x y z
#    x 1.855250 0.000000 0.000000 
#    y 0.000000 2.036930 0.000000 
#    z 0.000000 0.000000 2.047710 
# 
# From -- ./inp_files/4927.got.cif
#   From: 2010.05.17/outbox.cif.g08.bks.cpg/sg31_3_cif.got.tgz:4927.got - 2010.06.03 17:08:30.
