data_PCOD9342242
_publ_section_title
;
Structure prediction by ZEFSAII (Michael W. Deem and Ramdas Pophale) SiO2 
 PCOD9342242
Probable space group: P N C 2
;
_chemical_formula_sum "Si O2"
_cell_formula_units_Z 20
_cell_length_a 8.516609
_cell_length_b 7.997061
_cell_length_c 14.631936
_cell_angle_alpha 90.000000
_cell_angle_beta 90.000000
_cell_angle_gamma 90.000000
_cell_volume 996.549581
_symmetry_space_group_name_H-M "P N C 2"
_symmetry_group_IT_number 30
_symmetry_cell_setting 'orthorhombic'
loop_
_space_group_symop_operation_xyz
x,y,z
-x,-y,z
-x,1/2+y,1/2+z
x,1/2-y,1/2+z
loop_
_atom_site_type_symbol
_atom_site_label
_atom_site_fract_x
_atom_site_fract_y
_atom_site_fract_z
Si Si1 0.810781 0.311944 0.557590
Si Si2 0.780825 0.790522 0.374983
Si Si3 0.674360 0.578933 0.681290
Si Si4 0.000000 0.500000 0.402449
Si Si5 0.540178 0.803372 0.528011
Si Si6 0.000000 0.000000 0.513224
O O1 0.797452 0.447386 0.638023
O O2 0.629839 0.278445 0.535328
O O3 0.907862 0.140615 0.571423
O O4 0.889550 0.394582 0.469773
O O5 0.731781 0.872975 0.280917
O O6 0.626975 0.750619 0.435047
O O7 0.888768 0.630914 0.352340
O O8 0.877008 0.909813 0.444867
O O9 0.500000 0.500000 0.689204
O O10 0.648394 0.733722 0.610907
O O11 0.500000 0.000000 0.531190
#
# Coordination Sequence:
#
# PCOD9342242 Si02
#       6
#     4   4   4   2   4   2
#     4  10  21  41  67  95 130 174 219 273 334 408
#     4  11  22  43  66  95 135 174 221 277 336 402
#     4  10  23  41  65 100 126 176 233 276 329 398
#     4  10  22  41  67  96 130 174 212 267 355 388
#     4  11  21  42  66  93 131 179 226 270 327 396
#     4  10  22  39  67  98 132 176 214 269 357 400
#
# _framework density 20.069248000000002
#
# number of rings (size 3 to 8) (size 9 to 14) (size 15 to 20)
#    0.000    1.600    4.000    0.600    0.000    0.800 
#    3.600    5.000    0.000    0.000    0.000    0.000 
#    0.000    0.000    0.000    0.000    0.000    0.000 
#
# Total GULP energy -111653.984526 kJ/mol
# GULP energy per Si atom -5582.699226 kJ/mol
# Density = 2.002357 g / cm^3
# Si number density = 20.069248 Si / 1000 Ang^3
#
#
#
# Elastic Constant Matrix: (Units=GPa)
#
#
# Indices 1 2 3 4 5 6 
#
# 1 87.2273 36.6320 41.4870 0.0000 0.0000 0.0000
# 2 36.6320 94.2974 37.3302 0.0000 0.0000 0.0000
# 3 41.4870 37.3302 103.6630 0.0000 0.0000 0.0000
# 4 0.0000 0.0000 0.0000 83.2422 0.0000 0.0000
# 5 0.0000 0.0000 0.0000 0.0000 3.6715 0.0000
# 6 0.0000 0.0000 0.0000 0.0000 0.0000 34.0054
#
#
#
# Elastic Compliance Matrix: (Units=1/GPa)
#
#
# Indices 1 2 3 4 5 6 
#
# 1 0.015431 -0.004140 -0.004685 0.000000 0.000000 0.000000
# 2 -0.004140 0.013479 -0.003197 0.000000 0.000000 0.000000
# 3 -0.004685 -0.003197 0.012673 0.000000 0.000000 0.000000
# 4 0.000000 0.000000 0.000000 0.012013 0.000000 0.000000
# 5 0.000000 0.000000 0.000000 0.000000 0.272365 0.000000
# 6 0.000000 0.000000 0.000000 0.000000 0.000000 0.029407
#
#
# Mechanical properties :
#
#
# Convention : Reuss Voigt Hill
#
# Bulk Modulus (GPa) = 57.01559 57.34289 57.17924
# Shear Modulus (GPa) = 12.97833 35.49974 24.23903
#
# Velocity S-wave (km/s) = 2.54574 4.21035 3.47907
# Velocity P-wave (km/s) = 6.09198 7.22984 6.68516
#
# Compressibility (1/GPa) = 0.01753906
#
# Stress axis : x y z
#
# Youngs Moduli (GPa) = 64.80409 74.19173 78.90899
#
# Poissons Ratio (x) = 0.30715 0.36968
# Poissons Ratio (y) = 0.26828 0.25227
# Poissons Ratio (z) = 0.30360 0.23719
#
# Static dielectric constant tensor:
#      x y z
#    x 1.724630 0.000000 0.000000 
#    y 0.000000 1.749340 0.000000 
#    z 0.000000 0.000000 1.647350 
# 
# From -- ./inp_files/3548.got.cif
#   From: 2010.05.17/outbox.cif.g08.bks.cpg/sg30_2_cif.got.tgz:3548.got - 2010.06.03 17:03:02.
