data_PCOD9342037
_publ_section_title
;
Structure prediction by ZEFSAII (Michael W. Deem and Ramdas Pophale) SiO2 
 PCOD9342037
Probable space group: P N C 2
;
_chemical_formula_sum "Si O2"
_cell_formula_units_Z 30
_cell_length_a 14.232708
_cell_length_b 11.667883
_cell_length_c 8.887157
_cell_angle_alpha 90.000000
_cell_angle_beta 90.000000
_cell_angle_gamma 90.000000
_cell_volume 1475.850808
_symmetry_space_group_name_H-M "P N C 2"
_symmetry_group_IT_number 30
_symmetry_cell_setting 'orthorhombic'
loop_
_space_group_symop_operation_xyz
x,y,z
-x,-y,z
-x,1/2+y,1/2+z
x,1/2-y,1/2+z
loop_
_atom_site_type_symbol
_atom_site_label
_atom_site_fract_x
_atom_site_fract_y
_atom_site_fract_z
Si Si1 0.406919 0.916224 0.861210
Si Si2 0.553103 0.610886 0.949247
Si Si3 0.863211 0.583339 0.630476
Si Si4 0.736524 0.818893 0.350028
Si Si5 0.000000 0.500000 0.867527
Si Si6 0.536800 0.295164 0.654360
Si Si7 0.909318 0.829444 0.569398
Si Si8 0.226069 0.432878 0.319369
O O1 0.414967 0.804117 0.754505
O O2 0.500000 0.000000 0.850193
O O3 0.309668 0.975930 0.812642
O O4 0.405194 0.871952 0.035713
O O5 0.500000 0.500000 0.009068
O O6 0.664200 0.603575 0.939003
O O7 0.517658 0.631677 0.779037
O O8 0.531449 0.722409 0.046670
O O9 0.762290 0.625030 0.692451
O O10 0.911957 0.501708 0.752500
O O11 0.926067 0.700336 0.626623
O O12 0.839269 0.541198 0.464855
O O13 0.832960 0.811731 0.439231
O O14 0.713249 0.686083 0.330620
O O15 0.992501 0.606183 0.983489
O O16 0.851505 0.905595 0.690201
#
# Coordination Sequence:
#
# PCOD9342037 Si02
#       8
#     4   4   4   4   2   4   4   4
#     4  11  23  39  60  81 122 169 200 250 296 340
#     4  11  23  34  57  81 119 163 205 244 295 340
#     4   9  20  37  64  94 117 149 193 253 295 365
#     4   9  20  33  56  93 119 145 205 257 288 337
#     4  10  20  42  64  88 128 146 176 244 336 356
#     4  10  24  38  50  84 116 164 204 250 284 348
#     4   9  20  37  64  94 117 149 193 253 295 365
#     4  10  20  36  63  88 116 155 209 246 293 340
#
# _framework density 20.327256999999999
#
# number of rings (size 3 to 8) (size 9 to 14) (size 15 to 20)
#    0.000    2.133    0.000    3.200   13.067    0.533 
#    0.000    0.000    8.800    0.000    0.000    0.000 
#    0.000    0.000    0.000    0.000    0.000    0.000 
#
# Total GULP energy -167056.289815 kJ/mol
# GULP energy per Si atom -5568.542994 kJ/mol
# Density = 2.028099 g / cm^3
# Si number density = 20.327257 Si / 1000 Ang^3
#
#
#
# Elastic Constant Matrix: (Units=GPa)
#
#
# Indices 1 2 3 4 5 6 
#
# 1 44.5839 31.5340 10.6783 0.0000 0.0000 0.0000
# 2 31.5340 65.1618 16.8566 0.0000 0.0000 0.0000
# 3 10.6783 16.8566 103.0158 0.0000 0.0000 0.0000
# 4 0.0000 0.0000 0.0000 23.4735 0.0000 0.0000
# 5 0.0000 0.0000 0.0000 0.0000 12.9924 0.0000
# 6 0.0000 0.0000 0.0000 0.0000 0.0000 29.1981
#
#
#
# Elastic Compliance Matrix: (Units=1/GPa)
#
#
# Indices 1 2 3 4 5 6 
#
# 1 0.034177 -0.016314 -0.000873 0.000000 0.000000 0.000000
# 2 -0.016314 0.023812 -0.002205 0.000000 0.000000 0.000000
# 3 -0.000873 -0.002205 0.010159 0.000000 0.000000 0.000000
# 4 0.000000 0.000000 0.000000 0.042601 0.000000 0.000000
# 5 0.000000 0.000000 0.000000 0.000000 0.076968 0.000000
# 6 0.000000 0.000000 0.000000 0.000000 0.000000 0.034249
#
#
# Mechanical properties :
#
#
# Convention : Reuss Voigt Hill
#
# Bulk Modulus (GPa) = 34.05636 36.76659 35.41148
# Shear Modulus (GPa) = 18.48170 23.37899 20.93034
#
# Velocity S-wave (km/s) = 3.01858 3.39504 3.21233
# Velocity P-wave (km/s) = 5.37954 5.78748 5.58724
#
# Compressibility (1/GPa) = 0.02936309
#
# Stress axis : x y z
#
# Youngs Moduli (GPa) = 29.25913 41.99631 98.43854
#
# Poissons Ratio (x) = 0.68511 0.08597
# Poissons Ratio (y) = 0.47732 0.21709
# Poissons Ratio (z) = 0.02555 0.09261
#
# Static dielectric constant tensor:
#      x y z
#    x 1.737880 0.000000 0.000000 
#    y 0.000000 1.849950 0.000000 
#    z 0.000000 0.000000 1.785440 
# 
# From -- ./inp_files/2678.got.cif
#   From: 2010.05.17/outbox.cif.g08.bks.cpg/sg30_2_cif.got.tgz:2678.got - 2010.06.03 17:03:02.
