data_PCOD9342474
_publ_section_title
;
Structure prediction by ZEFSAII (Michael W. Deem and Ramdas Pophale) SiO2 
 PCOD9342474
Probable space group: P N C 2
;
_chemical_formula_sum "Si O2"
_cell_formula_units_Z 26
_cell_length_a 8.258679
_cell_length_b 11.506975
_cell_length_c 11.940016
_cell_angle_alpha 90.000000
_cell_angle_beta 90.000000
_cell_angle_gamma 90.000000
_cell_volume 1134.688529
_symmetry_space_group_name_H-M "P N C 2"
_symmetry_group_IT_number 30
_symmetry_cell_setting 'orthorhombic'
loop_
_space_group_symop_operation_xyz
x,y,z
-x,-y,z
-x,1/2+y,1/2+z
x,1/2-y,1/2+z
loop_
_atom_site_type_symbol
_atom_site_label
_atom_site_fract_x
_atom_site_fract_y
_atom_site_fract_z
Si Si1 0.169240 0.130774 0.852080
Si Si2 0.317191 0.373957 0.886763
Si Si3 0.663629 0.440431 0.483605
Si Si4 0.588312 0.163291 0.209912
Si Si5 0.612496 0.606666 0.143807
Si Si6 0.000000 0.500000 0.892205
Si Si7 0.842356 0.234322 0.382648
O O1 0.278609 0.237619 0.894171
O O2 0.233587 0.106086 0.726884
O O3 0.990196 0.180691 0.856071
O O4 0.199487 0.025109 0.936104
O O5 0.472103 0.382549 0.808334
O O6 0.158314 0.439095 0.837014
O O7 0.341365 0.412842 0.014422
O O8 0.500000 0.500000 0.437529
O O9 0.637359 0.427697 0.615159
O O10 0.708408 0.309909 0.447050
O O11 0.487732 0.272995 0.158991
O O12 0.754575 0.200599 0.268168
O O13 0.500000 0.500000 0.178849
O O14 0.085882 0.617656 0.942013
#
# Coordination Sequence:
#
# PCOD9342474 Si02
#       7
#     4   4   4   4   4   2   4
#     4  10  23  48  68 102 151 196 248 318 384 455
#     4  10  24  47  71 103 148 190 255 309 380 467
#     4  12  25  44  74 108 145 199 255 320 386 460
#     4  11  25  43  74 108 142 197 258 317 383 458
#     4  11  23  41  72 103 142 198 252 312 374 461
#     4  10  26  46  72 104 150 194 238 318 382 460
#     4  11  25  47  71 104 150 196 256 313 387 462
#
# _framework density 22.913775999999999
#
# number of rings (size 3 to 8) (size 9 to 14) (size 15 to 20)
#    0.000    1.231    0.000    5.538    6.462    2.462 
#    8.308    0.000    0.000    0.000    0.000    0.000 
#    0.000    0.000    0.000    0.000    0.000    0.000 
#
# Total GULP energy -145191.653021 kJ/mol
# GULP energy per Si atom -5584.294347 kJ/mol
# Density = 2.286162 g / cm^3
# Si number density = 22.913776 Si / 1000 Ang^3
#
#
#
# Elastic Constant Matrix: (Units=GPa)
#
#
# Indices 1 2 3 4 5 6 
#
# 1 125.9151 59.8605 55.0645 0.0000 0.0000 0.0000
# 2 59.8605 133.8137 42.0575 0.0000 0.0000 0.0000
# 3 55.0645 42.0575 137.8062 0.0000 0.0000 0.0000
# 4 0.0000 0.0000 0.0000 22.7961 0.0000 0.0000
# 5 0.0000 0.0000 0.0000 0.0000 -5.8469 0.0000
# 6 0.0000 0.0000 0.0000 0.0000 0.0000 49.0456
#
#
#
# Elastic Compliance Matrix: (Units=1/GPa)
#
#
# Indices 1 2 3 4 5 6 
#
# 1 0.011288 -0.004017 -0.003284 0.000000 0.000000 0.000000
# 2 -0.004017 0.009696 -0.001354 0.000000 0.000000 0.000000
# 3 -0.003284 -0.001354 0.008982 0.000000 0.000000 0.000000
# 4 0.000000 0.000000 0.000000 0.043867 0.000000 0.000000
# 5 0.000000 0.000000 0.000000 0.000000 -0.171031 0.000000
# 6 0.000000 0.000000 0.000000 0.000000 0.000000 0.020389
#
#
# Mechanical properties :
#
#
# Convention : Reuss Voigt Hill
#
# Bulk Modulus (GPa) = 79.02170 79.05557 79.03863
# Shear Modulus (GPa) = -90.44931 29.23579 -30.60676
#
# Velocity S-wave (km/s) = -6.28963 3.57586 -3.65874
# Velocity P-wave (km/s) = 4.26433 7.18507 4.08905
#
# Compressibility (1/GPa) = 0.01265475
#
# Stress axis : x y z
#
# Youngs Moduli (GPa) = 88.58943 103.13851 111.33220
#
# Poissons Ratio (x) = 0.41434 0.36566
# Poissons Ratio (y) = 0.35589 0.15072
# Poissons Ratio (z) = 0.29096 0.13963
#
# Static dielectric constant tensor:
#      x y z
#    x 1.889570 0.000000 0.000000 
#    y 0.000000 1.946710 0.000000 
#    z 0.000000 0.000000 1.846690 
# 
# From -- ./inp_files/3680.got.cif
#   From: 2010.05.17/outbox.cif.g08.bks.cpg/sg30_2_cif.got.tgz:3680.got - 2010.06.03 17:03:02.
