data_PCOD9342715
_publ_section_title
;
Structure prediction by ZEFSAII (Michael W. Deem and Ramdas Pophale) SiO2 
 PCOD9342715
Probable space group: P M N 21
;
_chemical_formula_sum "Si O2"
_cell_formula_units_Z 32
_cell_length_a 7.962183
_cell_length_b 7.805244
_cell_length_c 19.087784
_cell_angle_alpha 90.000000
_cell_angle_beta 90.000000
_cell_angle_gamma 90.000000
_cell_volume 1186.244334
_symmetry_space_group_name_H-M "P M N 21"
_symmetry_group_IT_number 31
_symmetry_cell_setting 'orthorhombic'
loop_
_space_group_symop_operation_xyz
x,y,z
1/2-x,-y,1/2+z
-x,y,z
1/2+x,-y,1/2+z
loop_
_atom_site_type_symbol
_atom_site_label
_atom_site_fract_x
_atom_site_fract_y
_atom_site_fract_z
Si Si1 0.695880 0.422449 0.726490
Si Si2 0.696275 0.331226 0.381613
Si Si3 0.704882 0.225355 0.855990
Si Si4 0.205212 0.006862 0.476565
Si Si5 0.305013 0.903813 0.762264
Si Si6 0.805703 0.186052 0.610763
Si Si7 0.813575 0.725455 0.631169
Si Si8 0.803341 0.502219 0.015077
O O1 0.500000 0.473613 0.727184
O O2 0.759929 0.378878 0.804456
O O3 0.706250 0.250245 0.678607
O O4 0.799193 0.562291 0.683958
O O5 0.500000 0.352047 0.365778
O O6 0.720603 0.166367 0.433288
O O7 0.786331 0.264204 0.311790
O O8 0.758982 0.482937 0.434316
O O9 0.500000 0.233296 0.855765
O O10 0.757320 0.161818 0.933109
O O11 0.759260 0.060222 0.808774
O O12 0.252691 0.035682 0.557662
O O13 0.000000 0.018473 0.473188
O O14 0.500000 0.930235 0.750258
O O15 0.224579 0.874402 0.686742
O O16 0.793198 0.351799 0.558755
O O17 0.000000 0.162657 0.629350
O O18 0.709051 0.663998 0.564245
O O19 0.000000 0.745698 0.603245
O O20 0.000000 0.548414 0.011988
#
# Coordination Sequence:
#
# PCOD9342715 Si02
#       8
#     4   4   4   4   4   4   4   4
#     4  10  18  30  48  69  94 123 154 188 230 279
#     4   9  16  26  43  69  95 117 148 192 235 275
#     4   8  16  30  49  70  90 118 156 191 225 274
#     4   8  14  26  43  63  88 118 152 189 227 268
#     4  10  19  33  51  70  94 125 159 193 235 283
#     4   9  15  24  41  65  91 117 148 189 231 268
#     4  11  21  32  47  70  98 125 158 197 234 274
#     4   9  16  27  44  66  92 121 153 189 231 277
#
# _framework density 26.975891000000001
#
# number of rings (size 3 to 8) (size 9 to 14) (size 15 to 20)
#    0.000    2.750    0.000    5.250    0.000    2.000 
#    0.000    6.250    0.000    1.500    0.000    3.500 
#    0.000    0.000    0.000    0.000    0.000    0.000 
#
# Total GULP energy -178936.812943 kJ/mol
# GULP energy per Si atom -5591.775404 kJ/mol
# Density = 2.691449 g / cm^3
# Si number density = 26.975891 Si / 1000 Ang^3
#
#
#
# Elastic Constant Matrix: (Units=GPa)
#
#
# Indices 1 2 3 4 5 6 
#
# 1 74.4810 4.4023 21.6284 0.0000 0.0000 0.0000
# 2 4.4023 60.6238 -16.0682 0.0000 0.0000 0.0000
# 3 21.6284 -16.0682 194.1404 0.0000 0.0000 0.0000
# 4 0.0000 0.0000 0.0000 58.5629 0.0000 0.0000
# 5 0.0000 0.0000 0.0000 0.0000 31.0021 0.0000
# 6 0.0000 0.0000 0.0000 0.0000 0.0000 20.7423
#
#
#
# Elastic Compliance Matrix: (Units=1/GPa)
#
#
# Indices 1 2 3 4 5 6 
#
# 1 0.014001 -0.001462 -0.001681 0.000000 0.000000 0.000000
# 2 -0.001462 0.017018 0.001571 0.000000 0.000000 0.000000
# 3 -0.001681 0.001571 0.005468 0.000000 0.000000 0.000000
# 4 0.000000 0.000000 0.000000 0.017076 0.000000 0.000000
# 5 0.000000 0.000000 0.000000 0.000000 0.032256 0.000000
# 6 0.000000 0.000000 0.000000 0.000000 0.000000 0.048211
#
#
# Mechanical properties :
#
#
# Convention : Reuss Voigt Hill
#
# Bulk Modulus (GPa) = 29.99070 38.79669 34.39369
# Shear Modulus (GPa) = 33.71846 43.34697 38.53271
#
# Velocity S-wave (km/s) = 3.53930 4.01294 3.78354
# Velocity P-wave (km/s) = 5.27673 5.99039 5.64485
#
# Compressibility (1/GPa) = 0.03334367
#
# Stress axis : x y z
#
# Youngs Moduli (GPa) = 71.42471 58.76188 182.87485
#
# Poissons Ratio (x) = 0.08592 0.30737
# Poissons Ratio (y) = 0.10444 -0.28737
# Poissons Ratio (z) = 0.12005 -0.09234
#
# Static dielectric constant tensor:
#      x y z
#    x 1.901900 0.000000 0.000000 
#    y 0.000000 2.340560 0.000000 
#    z 0.000000 0.000000 2.127000 
# 
# From -- ./inp_files/6273.got.cif
#   From: 2010.05.17/outbox.cif.g08.bks.cpg/sg31_4_cif.got.tgz:6273.got - 2010.06.03 17:08:30.
