data_PCOD9342488
_publ_section_title
;
Structure prediction by ZEFSAII (Michael W. Deem and Ramdas Pophale) SiO2 
 PCOD9342488
Probable space group: P N C 2
;
_chemical_formula_sum "Si O2"
_cell_formula_units_Z 24
_cell_length_a 11.017463
_cell_length_b 8.763952
_cell_length_c 12.479481
_cell_angle_alpha 90.000000
_cell_angle_beta 90.000000
_cell_angle_gamma 90.000000
_cell_volume 1204.975218
_symmetry_space_group_name_H-M "P N C 2"
_symmetry_group_IT_number 30
_symmetry_cell_setting 'orthorhombic'
loop_
_space_group_symop_operation_xyz
x,y,z
-x,-y,z
-x,1/2+y,1/2+z
x,1/2-y,1/2+z
loop_
_atom_site_type_symbol
_atom_site_label
_atom_site_fract_x
_atom_site_fract_y
_atom_site_fract_z
Si Si1 0.735916 0.658065 0.319450
Si Si2 0.141457 0.040531 0.387094
Si Si3 0.144806 0.976588 0.631585
Si Si4 0.258888 0.662435 0.700099
Si Si5 0.478870 0.821306 0.341270
Si Si6 0.369225 0.922973 0.985679
O O1 0.829405 0.781199 0.368305
O O2 0.786041 0.597363 0.206941
O O3 0.607593 0.745206 0.316448
O O4 0.704766 0.514095 0.394819
O O5 0.181791 0.995364 0.507205
O O6 0.206215 0.944364 0.293388
O O7 0.000000 0.000000 0.380018
O O8 0.178108 0.809308 0.675256
O O9 0.000000 0.000000 0.638691
O O10 0.391370 0.710511 0.741496
O O11 0.285373 0.577955 0.589309
O O12 0.409685 0.741572 0.440293
O O13 0.500000 0.000000 0.357521
O O14 0.500000 0.000000 0.007520
#
# Coordination Sequence:
#
# PCOD9342488 Si02
#       6
#     4   4   4   4   4   4
#     4  11  24  44  70  98 139 174 231 278 352 408
#     4  11  26  45  69 100 136 183 237 281 340 409
#     4  11  26  46  70  97 137 182 231 283 339 406
#     4  12  23  44  70  98 140 173 232 277 349 407
#     4  11  22  42  67 101 136 177 223 283 347 412
#     4  10  24  42  65 102 136 177 222 282 349 419
#
# _framework density 19.917421999999998
#
# number of rings (size 3 to 8) (size 9 to 14) (size 15 to 20)
#    0.000    1.000    3.333    2.500    2.333    1.333 
#    0.000    0.000    0.000    0.000    0.000    0.000 
#    0.000    0.000    0.000    0.000    0.000    0.000 
#
# Total GULP energy -134112.719032 kJ/mol
# GULP energy per Si atom -5588.029960 kJ/mol
# Density = 1.987209 g / cm^3
# Si number density = 19.917422 Si / 1000 Ang^3
#
#
#
# Elastic Constant Matrix: (Units=GPa)
#
#
# Indices 1 2 3 4 5 6 
#
# 1 96.4361 42.5862 62.6803 0.0000 0.0000 0.0000
# 2 42.5862 111.1138 78.2879 0.0000 0.0000 0.0000
# 3 62.6803 78.2879 159.3488 0.0000 0.0000 0.0000
# 4 0.0000 0.0000 0.0000 26.5725 0.0000 0.0000
# 5 0.0000 0.0000 0.0000 0.0000 42.0599 0.0000
# 6 0.0000 0.0000 0.0000 0.0000 0.0000 33.5864
#
#
#
# Elastic Compliance Matrix: (Units=1/GPa)
#
#
# Indices 1 2 3 4 5 6 
#
# 1 0.014313 -0.002323 -0.004489 0.000000 0.000000 0.000000
# 2 -0.002323 0.014141 -0.006034 0.000000 0.000000 0.000000
# 3 -0.004489 -0.006034 0.011006 0.000000 0.000000 0.000000
# 4 0.000000 0.000000 0.000000 0.037633 0.000000 0.000000
# 5 0.000000 0.000000 0.000000 0.000000 0.023776 0.000000
# 6 0.000000 0.000000 0.000000 0.000000 0.000000 0.029774
#
#
# Mechanical properties :
#
#
# Convention : Reuss Voigt Hill
#
# Bulk Modulus (GPa) = 72.62848 81.55639 77.09244
# Shear Modulus (GPa) = 31.07068 32.66672 31.86870
#
# Velocity S-wave (km/s) = 3.95394 4.05422 4.00439
# Velocity P-wave (km/s) = 7.57554 7.93421 7.75695
#
# Compressibility (1/GPa) = 0.01376870
#
# Stress axis : x y z
#
# Youngs Moduli (GPa) = 69.86692 70.71409 90.86242
#
# Poissons Ratio (x) = 0.16427 0.40786
# Poissons Ratio (y) = 0.16230 0.54826
# Poissons Ratio (z) = 0.31361 0.42668
#
# Static dielectric constant tensor:
#      x y z
#    x 1.686560 0.000000 0.000000 
#    y 0.000000 1.716110 0.000000 
#    z 0.000000 0.000000 1.694960 
# 
# From -- ./inp_files/4028.got.cif
#   From: 2010.05.17/outbox.cif.g08.bks.cpg/sg30_3_cif.got.tgz:4028.got - 2010.06.03 17:03:02.
