data_PCOD9342392
_publ_section_title
;
Structure prediction by ZEFSAII (Michael W. Deem and Ramdas Pophale) SiO2 
 PCOD9342392
Probable space group: P N C 2
;
_chemical_formula_sum "Si O2"
_cell_formula_units_Z 18
_cell_length_a 11.028240
_cell_length_b 7.260305
_cell_length_c 10.066856
_cell_angle_alpha 90.000000
_cell_angle_beta 90.000000
_cell_angle_gamma 90.000000
_cell_volume 806.036912
_symmetry_space_group_name_H-M "P N C 2"
_symmetry_group_IT_number 30
_symmetry_cell_setting 'orthorhombic'
loop_
_space_group_symop_operation_xyz
x,y,z
-x,-y,z
-x,1/2+y,1/2+z
x,1/2-y,1/2+z
loop_
_atom_site_type_symbol
_atom_site_label
_atom_site_fract_x
_atom_site_fract_y
_atom_site_fract_z
Si Si1 0.500000 0.500000 0.522351
Si Si2 0.141286 0.225944 0.781889
Si Si3 0.868031 0.215423 0.829119
Si Si4 0.720357 0.267790 0.078820
Si Si5 0.702476 0.816322 0.530983
O O1 0.377300 0.626921 0.524046
O O2 0.585948 0.687380 0.527431
O O3 0.199429 0.254834 0.638157
O O4 0.001811 0.283457 0.792967
O O5 0.138237 0.006063 0.811800
O O6 0.229605 0.315606 0.890028
O O7 0.767446 0.285235 0.724768
O O8 0.833959 0.265802 0.978581
O O9 0.671215 0.476318 0.076182
#
# Coordination Sequence:
#
# PCOD9342392 Si02
#       5
#     2   4   4   4   4
#     4  12  26  48  66  96 144 184 226 268 332 414
#     4  10  22  44  71 103 138 172 226 286 337 395
#     4  10  22  44  71 103 138 172 226 286 337 395
#     4  11  25  45  68 102 134 181 226 276 337 398
#     4  11  25  45  68 102 134 181 226 276 337 398
#
# _framework density 22.331482999999999
#
# number of rings (size 3 to 8) (size 9 to 14) (size 15 to 20)
#    0.000    1.333    2.222    2.000    3.111    4.444 
#    0.000    0.000    0.000    0.000    0.000    0.000 
#    0.000    0.000    0.000    0.000    0.000    0.000 
#
# Total GULP energy -100203.104453 kJ/mol
# GULP energy per Si atom -5566.839136 kJ/mol
# Density = 2.228066 g / cm^3
# Si number density = 22.331483 Si / 1000 Ang^3
#
#
#
# Elastic Constant Matrix: (Units=GPa)
#
#
# Indices 1 2 3 4 5 6 
#
# 1 88.2465 9.6519 -0.8668 0.0000 0.0000 0.0000
# 2 9.6519 83.4583 -1.9910 0.0000 0.0000 0.0000
# 3 -0.8668 -1.9910 71.6130 0.0000 0.0000 0.0000
# 4 0.0000 0.0000 0.0000 29.0210 0.0000 0.0000
# 5 0.0000 0.0000 0.0000 0.0000 -34.0450 0.0000
# 6 0.0000 0.0000 0.0000 0.0000 0.0000 37.1645
#
#
#
# Elastic Compliance Matrix: (Units=1/GPa)
#
#
# Indices 1 2 3 4 5 6 
#
# 1 0.011478 -0.001325 0.000102 0.000000 0.000000 0.000000
# 2 -0.001325 0.012143 0.000322 0.000000 0.000000 0.000000
# 3 0.000102 0.000322 0.013974 0.000000 0.000000 0.000000
# 4 0.000000 0.000000 0.000000 0.034458 0.000000 0.000000
# 5 0.000000 0.000000 0.000000 0.000000 -0.029373 0.000000
# 6 0.000000 0.000000 0.000000 0.000000 0.000000 0.026907
#
#
# Mechanical properties :
#
#
# Convention : Reuss Voigt Hill
#
# Bulk Modulus (GPa) = 27.93898 28.54508 28.24203
# Shear Modulus (GPa) = 60.00919 22.19635 41.10277
#
# Velocity S-wave (km/s) = 5.18945 3.15612 4.29485
# Velocity P-wave (km/s) = 6.96027 5.10799 6.10479
#
# Compressibility (1/GPa) = 0.03579228
#
# Stress axis : x y z
#
# Youngs Moduli (GPa) = 87.12456 82.35241 71.56081
#
# Poissons Ratio (x) = 0.10911 -0.00731
# Poissons Ratio (y) = 0.11544 -0.02301
# Poissons Ratio (z) = -0.00890 -0.02648
#
# Static dielectric constant tensor:
#      x y z
#    x 1.763430 0.000000 0.000000 
#    y 0.000000 1.853160 0.000000 
#    z 0.000000 0.000000 1.784310 
# 
# From -- ./inp_files/3487.got.cif
#   From: 2010.05.17/outbox.cif.g08.bks.cpg/sg30_2_cif.got.tgz:3487.got - 2010.06.03 17:03:02.
