data_PCOD9342990
_publ_section_title
;
Structure prediction by ZEFSAII (Michael W. Deem and Ramdas Pophale) SiO2 
 PCOD9342990
Probable space group: P M N 21
;
_chemical_formula_sum "Si O2"
_cell_formula_units_Z 32
_cell_length_a 8.343114
_cell_length_b 14.909421
_cell_length_c 12.432209
_cell_angle_alpha 90.000000
_cell_angle_beta 90.000000
_cell_angle_gamma 90.000000
_cell_volume 1546.454898
_symmetry_space_group_name_H-M "P M N 21"
_symmetry_group_IT_number 31
_symmetry_cell_setting 'orthorhombic'
loop_
_space_group_symop_operation_xyz
x,y,z
1/2-x,-y,1/2+z
-x,y,z
1/2+x,-y,1/2+z
loop_
_atom_site_type_symbol
_atom_site_label
_atom_site_fract_x
_atom_site_fract_y
_atom_site_fract_z
Si Si1 0.812825 0.140919 0.055880
Si Si2 0.814165 0.444237 0.763601
Si Si3 0.684843 0.962730 0.977622
Si Si4 0.189598 0.836456 0.787636
Si Si5 0.311308 0.364532 0.313275
Si Si6 0.694369 0.738643 0.365901
Si Si7 0.314864 0.161360 0.656835
Si Si8 0.320057 0.358315 0.565763
O O1 0.718994 0.129618 0.166993
O O2 0.000000 0.152324 0.081343
O O3 0.757268 0.224361 0.982316
O O4 0.789289 0.052374 0.983987
O O5 0.740115 0.543333 0.767495
O O6 0.747313 0.361702 0.835303
O O7 0.802193 0.407805 0.642835
O O8 0.000000 0.454038 0.796667
O O9 0.500000 0.988053 0.967799
O O10 0.731766 0.898539 0.878503
O O11 0.715380 0.910565 0.089894
O O12 0.255497 0.734048 0.788740
O O13 0.000000 0.833731 0.812392
O O14 0.500000 0.359888 0.280895
O O15 0.302158 0.376681 0.441270
O O16 0.500000 0.738253 0.361549
O O17 0.753914 0.806602 0.273059
O O18 0.500000 0.131760 0.664108
O O19 0.308178 0.252263 0.586053
O O20 0.500000 0.385221 0.600129
#
# Coordination Sequence:
#
# PCOD9342990 Si02
#       8
#     4   4   4   4   4   4   4   4
#     4  11  25  43  62  89 125 165 205 253 310 370
#     4   9  18  34  57  86 117 158 204 249 299 358
#     4  12  25  41  63  90 119 158 203 252 309 368
#     4  11  23  43  65  90 124 162 205 255 307 367
#     4   9  18  35  59  84 118 160 198 243 307 363
#     4   9  20  38  59  86 123 161 203 251 302 359
#     4  10  19  35  61  87 114 150 198 254 304 358
#     4   9  17  33  54  80 112 152 196 245 302 357
#
# _framework density 20.692488999999998
#
# number of rings (size 3 to 8) (size 9 to 14) (size 15 to 20)
#    0.000    2.000    1.250    2.250    1.750    2.500 
#    0.000    3.125    0.000    0.000    0.000    0.000 
#    0.000    0.000    0.000    0.000    0.000    0.000 
#
# Total GULP energy -178566.062332 kJ/mol
# GULP energy per Si atom -5580.189448 kJ/mol
# Density = 2.064539 g / cm^3
# Si number density = 20.692489 Si / 1000 Ang^3
#
#
#
# Elastic Constant Matrix: (Units=GPa)
#
#
# Indices 1 2 3 4 5 6 
#
# 1 23.9408 -4.3953 -0.9728 0.0000 0.0000 0.0000
# 2 -4.3953 88.5224 21.8595 0.0000 0.0000 0.0000
# 3 -0.9728 21.8595 38.0592 0.0000 0.0000 0.0000
# 4 0.0000 0.0000 0.0000 19.0068 0.0000 0.0000
# 5 0.0000 0.0000 0.0000 0.0000 25.0282 0.0000
# 6 0.0000 0.0000 0.0000 0.0000 0.0000 12.8150
#
#
#
# Elastic Compliance Matrix: (Units=1/GPa)
#
#
# Indices 1 2 3 4 5 6 
#
# 1 0.042155 0.002129 -0.000145 0.000000 0.000000 0.000000
# 2 0.002129 0.013271 -0.007568 0.000000 0.000000 0.000000
# 3 -0.000145 -0.007568 0.030618 0.000000 0.000000 0.000000
# 4 0.000000 0.000000 0.000000 0.052613 0.000000 0.000000
# 5 0.000000 0.000000 0.000000 0.000000 0.039955 0.000000
# 6 0.000000 0.000000 0.000000 0.000000 0.000000 0.078034
#
#
# Mechanical properties :
#
#
# Convention : Reuss Voigt Hill
#
# Bulk Modulus (GPa) = 13.35559 20.38947 16.87253
# Shear Modulus (GPa) = 17.07815 20.30539 18.69177
#
# Velocity S-wave (km/s) = 2.87597 3.13596 3.00878
# Velocity P-wave (km/s) = 4.18290 4.79450 4.49910
#
# Compressibility (1/GPa) = 0.07487503
#
# Stress axis : x y z
#
# Youngs Moduli (GPa) = 23.72218 75.35186 32.66075
#
# Poissons Ratio (x) = -0.16042 0.00474
# Poissons Ratio (y) = -0.05050 0.24717
# Poissons Ratio (z) = 0.00345 0.57025
#
# Static dielectric constant tensor:
#      x y z
#    x 1.729090 0.000000 0.000000 
#    y 0.000000 1.772600 0.000000 
#    z 0.000000 0.000000 1.711410 
# 
# From -- ./inp_files/3639.got.cif
#   From: 2010.05.17/outbox.cif.g08.bks.cpg/sg31_2_cif.got.tgz:3639.got - 2010.06.03 17:08:30.
