data_PCOD9342046
_publ_section_title
;
Structure prediction by ZEFSAII (Michael W. Deem and Ramdas Pophale) SiO2 
 PCOD9342046
Probable space group: P N C 2
;
_chemical_formula_sum "Si O2"
_cell_formula_units_Z 32
_cell_length_a 8.287245
_cell_length_b 21.107466
_cell_length_c 9.739673
_cell_angle_alpha 90.000000
_cell_angle_beta 90.000000
_cell_angle_gamma 90.000000
_cell_volume 1703.690308
_symmetry_space_group_name_H-M "P N C 2"
_symmetry_group_IT_number 30
_symmetry_cell_setting 'orthorhombic'
loop_
_space_group_symop_operation_xyz
x,y,z
-x,-y,z
-x,1/2+y,1/2+z
x,1/2-y,1/2+z
loop_
_atom_site_type_symbol
_atom_site_label
_atom_site_fract_x
_atom_site_fract_y
_atom_site_fract_z
Si Si1 0.165455 0.736577 0.938660
Si Si2 0.390454 0.288541 0.271351
Si Si3 0.656146 0.037769 0.814044
Si Si4 0.401578 0.652396 0.496699
Si Si5 0.978543 0.689842 0.202987
Si Si6 0.570156 0.344731 0.802668
Si Si7 0.880070 0.950184 0.667532
Si Si8 0.535878 0.898376 0.574874
O O1 0.295425 0.783909 0.006984
O O2 0.259708 0.679678 0.863766
O O3 0.085766 0.778381 0.819741
O O4 0.043266 0.712130 0.054633
O O5 0.439905 0.327912 0.408342
O O6 0.202845 0.288031 0.236822
O O7 0.462221 0.219059 0.289336
O O8 0.468085 0.328725 0.146231
O O9 0.684738 0.098565 0.907094
O O10 0.593082 0.062339 0.664570
O O11 0.500000 0.000000 0.870402
O O12 0.804520 0.990658 0.793180
O O13 0.426551 0.628482 0.649967
O O14 0.974929 0.613503 0.205925
O O15 0.502432 0.391646 0.916603
O O16 0.716178 0.925798 0.594485
O O17 0.000000 0.000000 0.594839
#
# Coordination Sequence:
#
# PCOD9342046 Si02
#       8
#     4   4   4   4   4   4   4   4
#     4  11  23  38  57  92 125 157 193 248 312 376
#     4   9  20  35  57  86 122 160 195 241 306 377
#     4   9  19  39  62  84 112 156 216 249 283 361
#     4  10  20  37  61  87 120 158 203 254 303 364
#     4  11  24  38  60  91 125 157 198 250 314 363
#     4  11  21  35  58  90 122 159 191 252 308 365
#     4  10  21  38  62  89 111 159 205 253 285 354
#     4   9  20  36  59  86 117 156 205 246 292 356
#
# _framework density 18.782757
#
# number of rings (size 3 to 8) (size 9 to 14) (size 15 to 20)
#    0.000    2.000    1.250    3.000   10.500    0.000 
#    0.000    1.875    0.000    1.500    3.250    0.000 
#    0.000    0.000    0.000    0.000    0.000    0.000 
#
# Total GULP energy -178507.932690 kJ/mol
# GULP energy per Si atom -5578.372897 kJ/mol
# Density = 1.874001 g / cm^3
# Si number density = 18.782757 Si / 1000 Ang^3
#
#
#
# Elastic Constant Matrix: (Units=GPa)
#
#
# Indices 1 2 3 4 5 6 
#
# 1 68.5149 30.3607 39.7434 0.0000 0.0000 0.0000
# 2 30.3607 84.5714 33.4207 0.0000 0.0000 0.0000
# 3 39.7434 33.4207 137.1681 0.0000 0.0000 0.0000
# 4 0.0000 0.0000 0.0000 9.8378 0.0000 0.0000
# 5 0.0000 0.0000 0.0000 0.0000 19.5414 0.0000
# 6 0.0000 0.0000 0.0000 0.0000 0.0000 28.3901
#
#
#
# Elastic Compliance Matrix: (Units=1/GPa)
#
#
# Indices 1 2 3 4 5 6 
#
# 1 0.019453 -0.005263 -0.004354 0.000000 0.000000 0.000000
# 2 -0.005263 0.014508 -0.002010 0.000000 0.000000 0.000000
# 3 -0.004354 -0.002010 0.009042 0.000000 0.000000 0.000000
# 4 0.000000 0.000000 0.000000 0.101649 0.000000 0.000000
# 5 0.000000 0.000000 0.000000 0.000000 0.051173 0.000000
# 6 0.000000 0.000000 0.000000 0.000000 0.000000 0.035223
#
#
# Mechanical properties :
#
#
# Convention : Reuss Voigt Hill
#
# Bulk Modulus (GPa) = 50.63600 55.25600 52.94600
# Shear Modulus (GPa) = 19.16551 24.00252 21.58401
#
# Velocity S-wave (km/s) = 3.19780 3.57865 3.39357
# Velocity P-wave (km/s) = 6.37588 6.82334 6.60340
#
# Compressibility (1/GPa) = 0.01974879
#
# Stress axis : x y z
#
# Youngs Moduli (GPa) = 51.40541 68.92758 110.59981
#
# Poissons Ratio (x) = 0.36276 0.48156
# Poissons Ratio (y) = 0.27054 0.22230
# Poissons Ratio (z) = 0.22382 0.13854
#
# Static dielectric constant tensor:
#      x y z
#    x 1.688200 0.000000 0.000000 
#    y 0.000000 1.671370 0.000000 
#    z 0.000000 0.000000 1.638260 
# 
# From -- ./inp_files/2150.got.cif
#   From: 2010.05.17/outbox.cif.g08.bks.cpg/sg30_2_cif.got.tgz:2150.got - 2010.06.03 17:03:02.
