data_PCOD9342379
_publ_section_title
;
Structure prediction by ZEFSAII (Michael W. Deem and Ramdas Pophale) SiO2 
 PCOD9342379
Probable space group: P N C 2
;
_chemical_formula_sum "Si O2"
_cell_formula_units_Z 26
_cell_length_a 11.336015
_cell_length_b 11.138910
_cell_length_c 8.692212
_cell_angle_alpha 90.000000
_cell_angle_beta 90.000000
_cell_angle_gamma 90.000000
_cell_volume 1097.573005
_symmetry_space_group_name_H-M "P N C 2"
_symmetry_group_IT_number 30
_symmetry_cell_setting 'orthorhombic'
loop_
_space_group_symop_operation_xyz
x,y,z
-x,-y,z
-x,1/2+y,1/2+z
x,1/2-y,1/2+z
loop_
_atom_site_type_symbol
_atom_site_label
_atom_site_fract_x
_atom_site_fract_y
_atom_site_fract_z
Si Si1 0.831146 0.875068 0.707810
Si Si2 0.144993 0.887689 0.911392
Si Si3 0.500000 0.000000 0.822315
Si Si4 0.380599 0.886032 0.063218
Si Si5 0.967068 0.304492 0.715586
Si Si6 0.431492 0.181005 0.587231
Si Si7 0.000000 0.500000 0.960488
Si Si8 0.500000 0.500000 0.832796
O O1 0.699601 0.833870 0.657014
O O2 0.903860 0.753524 0.739532
O O3 0.901711 0.937184 0.566591
O O4 0.843276 0.976232 0.843866
O O5 0.258817 0.835458 0.003480
O O6 0.049226 0.861636 0.046583
O O7 0.116732 0.807225 0.762040
O O8 0.510738 0.113338 0.714216
O O9 0.606279 0.006863 0.939775
O O10 0.494966 0.800460 0.053372
O O11 0.396533 0.942788 0.229493
O O12 0.944231 0.402763 0.845953
O O13 0.440762 0.101768 0.435033
#
# Coordination Sequence:
#
# PCOD9342379 Si02
#       8
#     4   4   2   4   4   4   2   2
#     4  12  26  54  76 112 160 208 268 335 406 479
#     4  12  26  50  81 108 161 206 268 331 403 488
#     4  10  22  44  66 106 140 192 242 304 396 464
#     4  11  25  46  72 110 145 195 257 316 400 467
#     4  12  28  48  79 116 150 215 261 333 400 484
#     4  11  25  45  76 104 149 198 249 325 388 469
#     4  12  28  48  74 114 156 198 270 316 410 472
#     4  10  26  46  68 114 144 192 258 310 396 476
#
# _framework density 23.688627
#
# number of rings (size 3 to 8) (size 9 to 14) (size 15 to 20)
#    0.000    0.615    4.615    0.923    8.615    3.692 
#    2.769    0.000    0.000    0.000    0.000    0.000 
#    0.000    0.000    0.000    0.000    0.000    0.000 
#
# Total GULP energy -145015.279155 kJ/mol
# GULP energy per Si atom -5577.510737 kJ/mol
# Density = 2.363471 g / cm^3
# Si number density = 23.688627 Si / 1000 Ang^3
#
#
#
# Elastic Constant Matrix: (Units=GPa)
#
#
# Indices 1 2 3 4 5 6 
#
# 1 90.5045 31.7278 35.9932 0.0000 0.0000 0.0000
# 2 31.7278 85.7150 33.6113 0.0000 0.0000 0.0000
# 3 35.9932 33.6113 131.6397 0.0000 0.0000 0.0000
# 4 0.0000 0.0000 0.0000 45.8992 0.0000 0.0000
# 5 0.0000 0.0000 0.0000 0.0000 -39.9184 0.0000
# 6 0.0000 0.0000 0.0000 0.0000 0.0000 23.7148
#
#
#
# Elastic Compliance Matrix: (Units=1/GPa)
#
#
# Indices 1 2 3 4 5 6 
#
# 1 0.013499 -0.003944 -0.002684 0.000000 0.000000 0.000000
# 2 -0.003944 0.014117 -0.002526 0.000000 0.000000 0.000000
# 3 -0.002684 -0.002526 0.008975 0.000000 0.000000 0.000000
# 4 0.000000 0.000000 0.000000 0.021787 0.000000 0.000000
# 5 0.000000 0.000000 0.000000 0.000000 -0.025051 0.000000
# 6 0.000000 0.000000 0.000000 0.000000 0.000000 0.042168
#
#
# Mechanical properties :
#
#
# Convention : Reuss Voigt Hill
#
# Bulk Modulus (GPa) = 54.69526 56.72487 55.71007
# Shear Modulus (GPa) = 50.05093 19.70759 34.87926
#
# Velocity S-wave (km/s) = 4.60158 2.88747 3.84136
# Velocity P-wave (km/s) = 7.16743 5.92576 6.57597
#
# Compressibility (1/GPa) = 0.01828312
#
# Stress axis : x y z
#
# Youngs Moduli (GPa) = 74.07785 70.83599 111.41709
#
# Poissons Ratio (x) = 0.27941 0.29903
# Poissons Ratio (y) = 0.29219 0.28144
# Poissons Ratio (z) = 0.19882 0.17893
#
# Static dielectric constant tensor:
#      x y z
#    x 2.358840 0.000000 0.000000 
#    y 0.000000 1.904710 0.000000 
#    z 0.000000 0.000000 1.879120 
# 
# From -- ./inp_files/2401.got.cif
#   From: 2010.05.17/outbox.cif.g08.bks.cpg/sg30_2_cif.got.tgz:2401.got - 2010.06.03 17:03:02.
