data_PCOD9342433
_publ_section_title
;
Structure prediction by ZEFSAII (Michael W. Deem and Ramdas Pophale) SiO2 
 PCOD9342433
Probable space group: P N C 2
;
_chemical_formula_sum "Si O2"
_cell_formula_units_Z 24
_cell_length_a 11.246046
_cell_length_b 9.338851
_cell_length_c 9.115368
_cell_angle_alpha 90.000000
_cell_angle_beta 90.000000
_cell_angle_gamma 90.000000
_cell_volume 957.342873
_symmetry_space_group_name_H-M "P N C 2"
_symmetry_group_IT_number 30
_symmetry_cell_setting 'orthorhombic'
loop_
_space_group_symop_operation_xyz
x,y,z
-x,-y,z
-x,1/2+y,1/2+z
x,1/2-y,1/2+z
loop_
_atom_site_type_symbol
_atom_site_label
_atom_site_fract_x
_atom_site_fract_y
_atom_site_fract_z
Si Si1 0.914483 0.194428 0.727370
Si Si2 0.170759 0.928892 0.037278
Si Si3 0.513450 0.334344 0.006740
Si Si4 0.170435 0.086331 0.615526
Si Si5 0.598131 0.124891 0.223266
Si Si6 0.737996 0.717563 0.396037
O O1 0.879682 0.158164 0.895400
O O2 0.903362 0.357059 0.671111
O O3 0.044794 0.141911 0.679622
O O4 0.827777 0.084024 0.638863
O O5 0.186247 0.092062 0.979301
O O6 0.300320 0.911975 0.109784
O O7 0.500000 0.500000 0.033897
O O8 0.622297 0.332620 0.890005
O O9 0.397511 0.253132 0.941648
O O10 0.540275 0.263223 0.157201
O O11 0.194460 0.138782 0.450633
O O12 0.259366 0.168649 0.727013
O O13 0.500000 0.000000 0.227880
#
# Coordination Sequence:
#
# PCOD9342433 Si02
#       6
#     4   4   4   4   4   4
#     4  10  23  42  64  99 131 171 223 277 331 398
#     4  11  23  42  68  95 133 174 223 272 336 394
#     4  11  25  41  66  95 132 169 223 268 331 398
#     4  10  23  41  66  95 135 172 220 275 337 394
#     4  11  23  43  63  96 133 169 219 274 325 397
#     4  11  23  42  67  94 133 177 217 275 333 397
#
# _framework density 25.069389000000001
#
# number of rings (size 3 to 8) (size 9 to 14) (size 15 to 20)
#    0.000    1.333    1.667    3.000    4.667    4.000 
#    0.000    0.000    0.000    0.000    0.000    0.000 
#    0.000    0.000    0.000    0.000    0.000    0.000 
#
# Total GULP energy -133887.308870 kJ/mol
# GULP energy per Si atom -5578.637870 kJ/mol
# Density = 2.501233 g / cm^3
# Si number density = 25.069389 Si / 1000 Ang^3
#
#
#
# Elastic Constant Matrix: (Units=GPa)
#
#
# Indices 1 2 3 4 5 6 
#
# 1 54.9125 -6.9115 -3.7441 0.0000 0.0000 0.0000
# 2 -6.9115 81.8970 29.3689 0.0000 0.0000 0.0000
# 3 -3.7441 29.3689 68.7022 0.0000 0.0000 0.0000
# 4 0.0000 0.0000 0.0000-1203.6035 0.0000 0.0000
# 5 0.0000 0.0000 0.0000 0.0000 33.2444 0.0000
# 6 0.0000 0.0000 0.0000 0.0000 0.0000 31.5385
#
#
#
# Elastic Compliance Matrix: (Units=1/GPa)
#
#
# Indices 1 2 3 4 5 6 
#
# 1 0.018416 0.001410 0.000401 0.000000 0.000000 0.000000
# 2 0.001410 0.014529 -0.006134 0.000000 0.000000 0.000000
# 3 0.000401 -0.006134 0.017200 0.000000 0.000000 0.000000
# 4 0.000000 0.000000 0.000000 -0.000831 0.000000 0.000000
# 5 0.000000 0.000000 0.000000 0.000000 0.030080 0.000000
# 6 0.000000 0.000000 0.000000 0.000000 0.000000 0.031707
#
#
# Mechanical properties :
#
#
# Convention : Reuss Voigt Hill
#
# Bulk Modulus (GPa) = 24.09725 26.99314 25.54519
# Shear Modulus (GPa) = 37.43077 -215.31088 -88.94006
#
# Velocity S-wave (km/s) = 3.86824 -9.27752 -5.96277
# Velocity P-wave (km/s) = 5.43913 10.19669 6.09870
#
# Compressibility (1/GPa) = 0.04149852
#
# Stress axis : x y z
#
# Youngs Moduli (GPa) = 54.30172 68.82684 58.14086
#
# Poissons Ratio (x) = -0.09708 -0.02329
# Poissons Ratio (y) = -0.07659 0.35664
# Poissons Ratio (z) = -0.02176 0.42219
#
# Static dielectric constant tensor:
#      x y z
#    x 2.130570 0.000000 0.000000 
#    y 0.000000 3.696160 0.000000 
#    z 0.000000 0.000000 1.939690 
# 
# From -- ./inp_files/4047.got.cif
#   From: 2010.05.17/outbox.cif.g08.bks.cpg/sg30_3_cif.got.tgz:4047.got - 2010.06.03 17:03:02.
