data_PCOD9342739
_publ_section_title
;
Structure prediction by ZEFSAII (Michael W. Deem and Ramdas Pophale) SiO2 
 PCOD9342739
Probable space group: P M N 21
;
_chemical_formula_sum "Si O2"
_cell_formula_units_Z 32
_cell_length_a 7.482243
_cell_length_b 11.997444
_cell_length_c 16.416006
_cell_angle_alpha 90.000000
_cell_angle_beta 90.000000
_cell_angle_gamma 90.000000
_cell_volume 1473.628602
_symmetry_space_group_name_H-M "P M N 21"
_symmetry_group_IT_number 31
_symmetry_cell_setting 'orthorhombic'
loop_
_space_group_symop_operation_xyz
x,y,z
1/2-x,-y,1/2+z
-x,y,z
1/2+x,-y,1/2+z
loop_
_atom_site_type_symbol
_atom_site_label
_atom_site_fract_x
_atom_site_fract_y
_atom_site_fract_z
Si Si1 0.280591 0.569916 0.608780
Si Si2 0.719778 0.936141 0.369806
Si Si3 0.791442 0.679064 0.079431
Si Si4 0.285719 0.738892 0.749777
Si Si5 0.697890 0.744783 0.483021
Si Si6 0.284122 0.874271 0.189252
Si Si7 0.710909 0.180080 0.426661
Si Si8 0.705484 0.091286 0.116822
O O1 0.500000 0.573392 0.608560
O O2 0.218831 0.443449 0.598822
O O3 0.227350 0.635325 0.691800
O O4 0.219033 0.639654 0.529177
O O5 0.500000 0.936518 0.373392
O O6 0.782378 0.823997 0.415575
O O7 0.774552 0.917571 0.276855
O O8 0.780682 0.054378 0.407761
O O9 0.777106 0.754993 0.159498
O O10 0.000000 0.661529 0.059641
O O11 0.714340 0.751061 0.003840
O O12 0.500000 0.742774 0.746893
O O13 0.232054 0.747466 0.843894
O O14 0.211932 0.848641 0.704401
O O15 0.500000 0.711332 0.453856
O O16 0.684871 0.831995 0.557360
O O17 0.500000 0.875573 0.189584
O O18 0.225026 0.966889 0.124160
O O19 0.500000 0.165187 0.441486
O O20 0.500000 0.090613 0.089234
#
# Coordination Sequence:
#
# PCOD9342739 Si02
#       8
#     4   4   4   4   4   4   4   4
#     4   8  17  35  54  76 104 137 179 223 259 302
#     4   9  17  32  52  77 109 138 168 215 270 321
#     4  10  21  37  56  77 106 144 184 222 264 318
#     4  10  19  33  56  80 105 141 181 217 260 318
#     4   9  17  32  56  78 101 138 180 213 257 318
#     4  10  20  34  51  75 112 144 168 215 273 316
#     4  10  19  34  55  80 109 139 175 224 276 318
#     4  10  18  31  52  77 110 137 165 215 269 311
#
# _framework density 21.715107
#
# number of rings (size 3 to 8) (size 9 to 14) (size 15 to 20)
#    0.000    2.500    1.250    2.250    0.000    2.500 
#    2.250    4.375    0.000    0.000    0.000    0.000 
#    0.000    0.000    0.000    0.000    0.000    0.000 
#
# Total GULP energy -178454.530500 kJ/mol
# GULP energy per Si atom -5576.704078 kJ/mol
# Density = 2.166568 g / cm^3
# Si number density = 21.715107 Si / 1000 Ang^3
#
#
#
# Elastic Constant Matrix: (Units=GPa)
#
#
# Indices 1 2 3 4 5 6 
#
# 1 64.7339 -0.0619 -6.9825 0.0000 0.0000 0.0000
# 2 -0.0619 182.7998 46.8248 0.0000 0.0000 0.0000
# 3 -6.9825 46.8248 74.9713 0.0000 0.0000 0.0000
# 4 0.0000 0.0000 0.0000 28.0614 0.0000 0.0000
# 5 0.0000 0.0000 0.0000 0.0000 16.3621 0.0000
# 6 0.0000 0.0000 0.0000 0.0000 0.0000 9.4819
#
#
#
# Elastic Compliance Matrix: (Units=1/GPa)
#
#
# Indices 1 2 3 4 5 6 
#
# 1 0.015634 -0.000438 0.001729 0.000000 0.000000 0.000000
# 2 -0.000438 0.006525 -0.004116 0.000000 0.000000 0.000000
# 3 0.001729 -0.004116 0.016070 0.000000 0.000000 0.000000
# 4 0.000000 0.000000 0.000000 0.035636 0.000000 0.000000
# 5 0.000000 0.000000 0.000000 0.000000 0.061117 0.000000
# 6 0.000000 0.000000 0.000000 0.000000 0.000000 0.105464
#
#
# Mechanical properties :
#
#
# Convention : Reuss Voigt Hill
#
# Bulk Modulus (GPa) = 30.69317 44.67400 37.68359
# Shear Modulus (GPa) = 19.45874 29.62940 24.54407
#
# Velocity S-wave (km/s) = 2.99673 3.69787 3.36561
# Velocity P-wave (km/s) = 5.11263 6.23296 5.70038
#
# Compressibility (1/GPa) = 0.03258053
#
# Stress axis : x y z
#
# Youngs Moduli (GPa) = 63.96326 153.26603 62.22722
#
# Poissons Ratio (x) = 0.06709 -0.10762
# Poissons Ratio (y) = 0.02800 0.25612
# Poissons Ratio (z) = -0.11062 0.63082
#
# Static dielectric constant tensor:
#      x y z
#    x 1.843690 0.000000 0.000000 
#    y 0.000000 1.787940 0.000000 
#    z 0.000000 0.000000 1.859270 
# 
# From -- ./inp_files/5897.got.cif
#   From: 2010.05.17/outbox.cif.g08.bks.cpg/sg31_3_cif.got.tgz:5897.got - 2010.06.03 17:08:30.
