data_PCOD9342147
_publ_section_title
;
Structure prediction by ZEFSAII (Michael W. Deem and Ramdas Pophale) SiO2 
 PCOD9342147
Probable space group: P N C 2
;
_chemical_formula_sum "Si O2"
_cell_formula_units_Z 24
_cell_length_a 14.417082
_cell_length_b 12.760456
_cell_length_c 5.331766
_cell_angle_alpha 90.000000
_cell_angle_beta 90.000000
_cell_angle_gamma 90.000000
_cell_volume 980.877209
_symmetry_space_group_name_H-M "P N C 2"
_symmetry_group_IT_number 30
_symmetry_cell_setting 'orthorhombic'
loop_
_space_group_symop_operation_xyz
x,y,z
-x,-y,z
-x,1/2+y,1/2+z
x,1/2-y,1/2+z
loop_
_atom_site_type_symbol
_atom_site_label
_atom_site_fract_x
_atom_site_fract_y
_atom_site_fract_z
Si Si1 0.940817 0.154407 0.945520
Si Si2 0.156108 0.192752 0.019510
Si Si3 0.364841 0.688112 0.352183
Si Si4 0.585220 0.687498 0.300354
Si Si5 0.868152 0.112586 0.441636
Si Si6 0.730721 0.986462 0.756897
O O1 0.934931 0.097836 0.680343
O O2 0.044661 0.188188 0.008489
O O3 0.906066 0.083074 0.171742
O O4 0.874545 0.258620 0.921678
O O5 0.183311 0.278239 0.803974
O O6 0.200920 0.088226 0.909809
O O7 0.342710 0.765866 0.578960
O O8 0.475020 0.667613 0.325327
O O9 0.307291 0.584967 0.409895
O O10 0.607668 0.728128 0.581250
O O11 0.641355 0.586005 0.212702
O O12 0.780814 0.042321 0.521418
#
# Coordination Sequence:
#
# PCOD9342147 Si02
#       6
#     4   4   4   4   4   4
#     4  10  20  45  64  88 135 179 222 287 353 416
#     4  12  24  46  70  96 140 189 235 298 353 426
#     4  10  25  46  72 102 149 193 231 294 373 434
#     4  10  23  48  72 102 149 194 230 293 370 441
#     4  10  22  38  68  91 130 175 228 287 346 410
#     4  12  27  41  74 114 139 183 253 303 354 432
#
# _framework density 24.467894000000001
#
# number of rings (size 3 to 8) (size 9 to 14) (size 15 to 20)
#    0.000    1.333    3.333    1.500    4.667    6.000 
#    0.000    6.667    0.000    0.000    0.000    0.000 
#    0.000    0.000    0.000    0.000    0.000    0.000 
#
# Total GULP energy -134125.994116 kJ/mol
# GULP energy per Si atom -5588.583088 kJ/mol
# Density = 2.441220 g / cm^3
# Si number density = 24.467894 Si / 1000 Ang^3
#
#
#
# Elastic Constant Matrix: (Units=GPa)
#
#
# Indices 1 2 3 4 5 6 
#
# 1 77.7737 59.9053 24.5906 0.0000 0.0000 0.0000
# 2 59.9053 114.3142 11.2905 0.0000 0.0000 0.0000
# 3 24.5906 11.2905 99.7407 0.0000 0.0000 0.0000
# 4 0.0000 0.0000 0.0000 28.8650 0.0000 0.0000
# 5 0.0000 0.0000 0.0000 0.0000 3.0297 0.0000
# 6 0.0000 0.0000 0.0000 0.0000 0.0000 53.9285
#
#
#
# Elastic Compliance Matrix: (Units=1/GPa)
#
#
# Indices 1 2 3 4 5 6 
#
# 1 0.023340 -0.011795 -0.004419 0.000000 0.000000 0.000000
# 2 -0.011795 0.014807 0.001232 0.000000 0.000000 0.000000
# 3 -0.004419 0.001232 0.010976 0.000000 0.000000 0.000000
# 4 0.000000 0.000000 0.000000 0.034644 0.000000 0.000000
# 5 0.000000 0.000000 0.000000 0.000000 0.330065 0.000000
# 6 0.000000 0.000000 0.000000 0.000000 0.000000 0.018543
#
#
# Mechanical properties :
#
#
# Convention : Reuss Voigt Hill
#
# Bulk Modulus (GPa) = 52.19493 53.71125 52.95309
# Shear Modulus (GPa) = 10.66722 30.23412 20.45067
#
# Velocity S-wave (km/s) = 2.09025 3.51902 2.89419
# Velocity P-wave (km/s) = 5.21573 6.20570 5.73213
#
# Compressibility (1/GPa) = 0.01915895
#
# Stress axis : x y z
#
# Youngs Moduli (GPa) = 42.84508 67.53560 91.10705
#
# Poissons Ratio (x) = 0.79655 0.40262
# Poissons Ratio (y) = 0.50534 -0.11222
# Poissons Ratio (z) = 0.18934 -0.08319
#
# Static dielectric constant tensor:
#      x y z
#    x 1.974910 0.000000 0.000000 
#    y 0.000000 1.974160 0.000000 
#    z 0.000000 0.000000 1.944150 
# 
# From -- ./inp_files/913.got.cif
#   From: 2010.05.17/outbox.cif.g08.bks.cpg/sg30_1_cif.got.tgz:913.got - 2010.06.03 17:03:02.
