data_PCOD9342847
_publ_section_title
;
Structure prediction by ZEFSAII (Michael W. Deem and Ramdas Pophale) SiO2 
 PCOD9342847
Probable space group: P M N 21
;
_chemical_formula_sum "Si O2"
_cell_formula_units_Z 28
_cell_length_a 13.268753
_cell_length_b 24.080759
_cell_length_c 5.132089
_cell_angle_alpha 90.000000
_cell_angle_beta 90.000000
_cell_angle_gamma 90.000000
_cell_volume 1639.813510
_symmetry_space_group_name_H-M "P M N 21"
_symmetry_group_IT_number 31
_symmetry_cell_setting 'orthorhombic'
loop_
_space_group_symop_operation_xyz
x,y,z
1/2-x,-y,1/2+z
-x,y,z
1/2+x,-y,1/2+z
loop_
_atom_site_type_symbol
_atom_site_label
_atom_site_fract_x
_atom_site_fract_y
_atom_site_fract_z
Si Si1 0.306039 0.568598 0.383010
Si Si2 0.615735 0.505998 0.883473
Si Si3 0.810121 0.011017 0.496249
Si Si4 0.749434 0.128690 0.400543
Si Si5 0.614319 0.104882 0.900701
Si Si6 0.881033 0.311219 0.985369
Si Si7 0.881113 0.237600 0.484595
O O1 0.366257 0.536156 0.608675
O O2 0.192112 0.545741 0.398740
O O3 0.318356 0.633640 0.428636
O O4 0.351327 0.549116 0.107873
O O5 0.500000 0.490328 0.916100
O O6 0.824293 0.075408 0.428019
O O7 0.717375 0.994852 0.300980
O O8 0.886949 0.962389 0.426842
O O9 0.688168 0.125372 0.130719
O O10 0.811762 0.184670 0.434095
O O11 0.667359 0.120753 0.629972
O O12 0.500000 0.125688 0.921170
O O13 0.862814 0.264804 0.765785
O O14 0.000000 0.326417 0.970889
O O15 0.861658 0.284302 0.265745
O O16 0.000000 0.222852 0.466037
#
# Coordination Sequence:
#
# PCOD9342847 Si02
#       7
#     4   4   4   4   4   4   4
#     4  10  20  32  52  78 104 136 166 201 248 292
#     4  10  19  32  51  78 107 134 166 201 244 295
#     4   8  16  29  46  68  94 122 154 194 243 292
#     4  10  19  34  51  73 103 130 163 209 251 296
#     4  10  19  32  52  75  99 131 166 202 249 302
#     4  10  19  33  51  73 101 131 167 206 246 294
#     4  10  21  34  52  75  98 130 167 207 254 295
#
# _framework density 17.075112000000001
#
# number of rings (size 3 to 8) (size 9 to 14) (size 15 to 20)
#    0.000    2.286    0.000    3.429    0.000    1.714 
#    0.000    0.000    0.000   13.714    0.000    0.000 
#    0.000    0.000    0.000    0.000    0.000    0.000 
#
# Total GULP energy -156112.352614 kJ/mol
# GULP energy per Si atom -5575.441165 kJ/mol
# Density = 1.703625 g / cm^3
# Si number density = 17.075112 Si / 1000 Ang^3
#
#
#
# Elastic Constant Matrix: (Units=GPa)
#
#
# Indices 1 2 3 4 5 6 
#
# 1 71.9289 23.6394 -5.7172 0.0000 0.0000 0.0000
# 2 23.6394 63.7908 -24.2101 0.0000 0.0000 0.0000
# 3 -5.7172 -24.2101 56.2169 0.0000 0.0000 0.0000
# 4 0.0000 0.0000 0.0000 12.1211 0.0000 0.0000
# 5 0.0000 0.0000 0.0000 0.0000 13.1605 0.0000
# 6 0.0000 0.0000 0.0000 0.0000 0.0000 14.6827
#
#
#
# Elastic Compliance Matrix: (Units=1/GPa)
#
#
# Indices 1 2 3 4 5 6 
#
# 1 0.015887 -0.006305 -0.001099 0.000000 0.000000 0.000000
# 2 -0.006305 0.021241 0.008506 0.000000 0.000000 0.000000
# 3 -0.001099 0.008506 0.021340 0.000000 0.000000 0.000000
# 4 0.000000 0.000000 0.000000 0.082501 0.000000 0.000000
# 5 0.000000 0.000000 0.000000 0.000000 0.075985 0.000000
# 6 0.000000 0.000000 0.000000 0.000000 0.000000 0.068107
#
#
# Mechanical properties :
#
#
# Convention : Reuss Voigt Hill
#
# Bulk Modulus (GPa) = 16.48196 19.92898 18.20547
# Shear Modulus (GPa) = 16.49725 21.20783 18.85254
#
# Velocity S-wave (km/s) = 3.11168 3.52807 3.32640
# Velocity P-wave (km/s) = 4.75223 5.31912 5.04365
#
# Compressibility (1/GPa) = 0.06067240
#
# Stress axis : x y z
#
# Youngs Moduli (GPa) = 62.94349 47.07881 46.86091
#
# Poissons Ratio (x) = 0.29682 0.05152
# Poissons Ratio (y) = 0.39684 -0.39862
# Poissons Ratio (z) = 0.06920 -0.40047
#
# Static dielectric constant tensor:
#      x y z
#    x 1.560040 0.000000 0.000000 
#    y 0.000000 1.564410 0.000000 
#    z 0.000000 0.000000 1.578670 
# 
# From -- ./inp_files/407.got.cif
#   From: 2010.05.17/outbox.cif.g08.bks.cpg/sg31_1_cif.got.tgz:407.got - 2010.06.03 17:08:30.
