data_PCOD9342916
_publ_section_title
;
Structure prediction by ZEFSAII (Michael W. Deem and Ramdas Pophale) SiO2 
 PCOD9342916
Probable space group: P M N 21
;
_chemical_formula_sum "Si O2"
_cell_formula_units_Z 32
_cell_length_a 17.611033
_cell_length_b 8.797455
_cell_length_c 11.364781
_cell_angle_alpha 90.000000
_cell_angle_beta 90.000000
_cell_angle_gamma 90.000000
_cell_volume 1760.771322
_symmetry_space_group_name_H-M "P M N 21"
_symmetry_group_IT_number 31
_symmetry_cell_setting 'orthorhombic'
loop_
_space_group_symop_operation_xyz
x,y,z
1/2-x,-y,1/2+z
-x,y,z
1/2+x,-y,1/2+z
loop_
_atom_site_type_symbol
_atom_site_label
_atom_site_fract_x
_atom_site_fract_y
_atom_site_fract_z
Si Si1 0.918683 0.363737 0.741890
Si Si2 0.177414 0.266424 0.938262
Si Si3 0.700056 0.532999 0.915759
Si Si4 0.087914 0.943168 0.478174
Si Si5 0.296621 0.803237 0.082520
Si Si6 0.623437 0.354487 0.113322
Si Si7 0.291892 0.726334 0.702248
Si Si8 0.210412 0.936300 0.294293
O O1 0.899524 0.311826 0.873050
O O2 0.850734 0.291435 0.668979
O O3 0.916192 0.542122 0.711264
O O4 0.000000 0.302849 0.703552
O O5 0.234936 0.406123 0.910505
O O6 0.222036 0.122137 0.881561
O O7 0.167355 0.252154 0.077356
O O8 0.677742 0.594090 0.787648
O O9 0.729511 0.681600 0.985935
O O10 0.634633 0.458113 0.995999
O O11 0.088455 0.802497 0.569133
O O12 0.131353 0.892680 0.357957
O O13 0.000000 0.992316 0.461013
O O14 0.147312 0.068625 0.528754
O O15 0.230543 0.866986 0.166314
O O16 0.706616 0.317951 0.164185
O O17 0.290589 0.884127 0.772000
#
# Coordination Sequence:
#
# PCOD9342916 Si02
#       8
#     4   4   4   4   4   4   4   4
#     4  10  20  36  55  79 113 150 185 233 286 336
#     4  10  21  34  56  85 109 144 194 231 278 342
#     4  10  19  33  59  84 110 139 189 238 273 327
#     4  12  22  35  55  88 120 146 187 243 296 343
#     4  10  21  35  57  83 108 151 193 233 277 343
#     4  10  20  35  55  86 112 147 184 232 290 342
#     4  11  19  34  57  83 108 141 194 235 274 330
#     4  11  20  36  57  80 113 148 190 231 284 341
#
# _framework density 18.173855
#
# number of rings (size 3 to 8) (size 9 to 14) (size 15 to 20)
#    0.000    1.500    6.250    0.750    1.750    0.000 
#    0.000    0.625    0.000    2.250    0.000    0.000 
#    0.000    0.000    0.000    0.000    0.000    0.000 
#
# Total GULP energy -178223.564047 kJ/mol
# GULP energy per Si atom -5569.486376 kJ/mol
# Density = 1.813249 g / cm^3
# Si number density = 18.173855 Si / 1000 Ang^3
#
#
#
# Elastic Constant Matrix: (Units=GPa)
#
#
# Indices 1 2 3 4 5 6 
#
# 1 51.9752 3.4143 10.9358 0.0000 0.0000 0.0000
# 2 3.4143 83.8812 25.1708 0.0000 0.0000 0.0000
# 3 10.9358 25.1708 85.7635 0.0000 0.0000 0.0000
# 4 0.0000 0.0000 0.0000 36.2475 0.0000 0.0000
# 5 0.0000 0.0000 0.0000 0.0000 1.5291 0.0000
# 6 0.0000 0.0000 0.0000 0.0000 0.0000 4.3598
#
#
#
# Elastic Compliance Matrix: (Units=1/GPa)
#
#
# Indices 1 2 3 4 5 6 
#
# 1 0.019771 -0.000053 -0.002505 0.000000 0.000000 0.000000
# 2 -0.000053 0.013073 -0.003830 0.000000 0.000000 0.000000
# 3 -0.002505 -0.003830 0.013104 0.000000 0.000000 0.000000
# 4 0.000000 0.000000 0.000000 0.027588 0.000000 0.000000
# 5 0.000000 0.000000 0.000000 0.000000 0.653991 0.000000
# 6 0.000000 0.000000 0.000000 0.000000 0.000000 0.229371
#
#
# Mechanical properties :
#
#
# Convention : Reuss Voigt Hill
#
# Bulk Modulus (GPa) = 30.14743 33.40685 31.77714
# Shear Modulus (GPa) = 5.09824 20.56721 12.83272
#
# Velocity S-wave (km/s) = 1.67671 3.36771 2.66015
# Velocity P-wave (km/s) = 4.51363 5.79169 5.19214
#
# Compressibility (1/GPa) = 0.03317033
#
# Stress axis : x y z
#
# Youngs Moduli (GPa) = 50.58025 76.49302 76.31531
#
# Poissons Ratio (x) = 0.00405 0.19120
# Poissons Ratio (y) = 0.00268 0.29229
# Poissons Ratio (z) = 0.12673 0.29297
#
# Static dielectric constant tensor:
#      x y z
#    x 1.621630 0.000000 0.000000 
#    y 0.000000 1.665470 0.000000 
#    z 0.000000 0.000000 1.696370 
# 
# From -- ./inp_files/4409.got.cif
#   From: 2010.05.17/outbox.cif.g08.bks.cpg/sg31_3_cif.got.tgz:4409.got - 2010.06.03 17:08:30.
