data_PCOD9342606
_publ_section_title
;
Structure prediction by ZEFSAII (Michael W. Deem and Ramdas Pophale) SiO2 
 PCOD9342606
Probable space group: P N C 2
;
_chemical_formula_sum "Si O2"
_cell_formula_units_Z 30
_cell_length_a 14.108516
_cell_length_b 8.705986
_cell_length_c 11.236178
_cell_angle_alpha 90.000000
_cell_angle_beta 90.000000
_cell_angle_gamma 90.000000
_cell_volume 1380.123370
_symmetry_space_group_name_H-M "P N C 2"
_symmetry_group_IT_number 30
_symmetry_cell_setting 'orthorhombic'
loop_
_space_group_symop_operation_xyz
x,y,z
-x,-y,z
-x,1/2+y,1/2+z
x,1/2-y,1/2+z
loop_
_atom_site_type_symbol
_atom_site_label
_atom_site_fract_x
_atom_site_fract_y
_atom_site_fract_z
Si Si1 0.000000 0.000000 0.032861
Si Si2 0.465817 0.324002 0.936201
Si Si3 0.136602 0.057961 0.555892
Si Si4 0.092159 0.194156 0.209471
Si Si5 0.251655 0.272641 0.387690
Si Si6 0.459610 0.673378 0.194029
Si Si7 0.919048 0.283032 0.883761
Si Si8 0.249040 0.901582 0.765465
O O1 0.915797 0.943248 0.117523
O O2 0.040749 0.861816 0.956530
O O3 0.500000 0.500000 0.935396
O O4 0.507465 0.261955 0.063836
O O5 0.353189 0.296744 0.923788
O O6 0.501039 0.253299 0.812166
O O7 0.064810 0.147099 0.642130
O O8 0.184614 0.202720 0.489600
O O9 0.104642 0.929437 0.464327
O O10 0.206330 0.975662 0.646861
O O11 0.194393 0.210488 0.271207
O O12 0.006964 0.174749 0.300907
O O13 0.259967 0.455581 0.359975
O O14 0.500000 0.500000 0.194865
O O15 0.348004 0.667174 0.221070
O O16 0.825012 0.222299 0.816946
#
# Coordination Sequence:
#
# PCOD9342606 Si02
#       8
#     2   4   4   4   4   4   4   4
#     4  12  24  44  64 104 142 188 234 306 354 442
#     4  11  26  47  74 108 146 191 249 312 372 443
#     4  11  24  44  69 100 138 189 232 302 358 430
#     4  11  25  44  69 100 143 188 244 297 369 445
#     4  11  24  44  73 101 137 194 242 294 376 445
#     4  11  24  49  73 105 146 192 244 308 375 440
#     4  12  26  44  70 107 143 192 244 298 370 447
#     4  11  25  44  71 101 144 190 239 300 373 446
#
# _framework density 21.737186000000001
#
# number of rings (size 3 to 8) (size 9 to 14) (size 15 to 20)
#    0.000    0.800    1.333    6.400    5.600    5.333 
#    0.000    0.000    0.000    0.000    0.000    0.000 
#    0.000    0.000    0.000    0.000    0.000    0.000 
#
# Total GULP energy -167507.631195 kJ/mol
# GULP energy per Si atom -5583.587706 kJ/mol
# Density = 2.168771 g / cm^3
# Si number density = 21.737186 Si / 1000 Ang^3
#
#
#
# Elastic Constant Matrix: (Units=GPa)
#
#
# Indices 1 2 3 4 5 6 
#
# 1 137.2232 44.4443 61.4740 0.0000 0.0000 0.0000
# 2 44.4443 78.4391 65.7830 0.0000 0.0000 0.0000
# 3 61.4740 65.7830 158.0373 0.0000 0.0000 0.0000
# 4 0.0000 0.0000 0.0000 49.2234 0.0000 0.0000
# 5 0.0000 0.0000 0.0000 0.0000 23.8374 0.0000
# 6 0.0000 0.0000 0.0000 0.0000 0.0000 33.9758
#
#
#
# Elastic Compliance Matrix: (Units=1/GPa)
#
#
# Indices 1 2 3 4 5 6 
#
# 1 0.009403 -0.003473 -0.002212 0.000000 0.000000 0.000000
# 2 -0.003473 0.020868 -0.007336 0.000000 0.000000 0.000000
# 3 -0.002212 -0.007336 0.010242 0.000000 0.000000 0.000000
# 4 0.000000 0.000000 0.000000 0.020316 0.000000 0.000000
# 5 0.000000 0.000000 0.000000 0.000000 0.041951 0.000000
# 6 0.000000 0.000000 0.000000 0.000000 0.000000 0.029433
#
#
# Mechanical properties :
#
#
# Convention : Reuss Voigt Hill
#
# Bulk Modulus (GPa) = 69.09821 79.67804 74.38812
# Shear Modulus (GPa) = 30.66027 34.87387 32.76707
#
# Velocity S-wave (km/s) = 3.75973 4.00977 3.88676
# Velocity P-wave (km/s) = 7.12071 7.62708 7.37824
#
# Compressibility (1/GPa) = 0.01447216
#
# Stress axis : x y z
#
# Youngs Moduli (GPa) = 106.34718 47.91922 97.64105
#
# Poissons Ratio (x) = 0.16641 0.21600
# Poissons Ratio (y) = 0.36931 0.71626
# Poissons Ratio (z) = 0.23526 0.35152
#
# Static dielectric constant tensor:
#      x y z
#    x 1.828960 0.000000 0.000000 
#    y 0.000000 1.899420 0.000000 
#    z 0.000000 0.000000 1.866420 
# 
# From -- ./inp_files/4351.got.cif
#   From: 2010.05.17/outbox.cif.g08.bks.cpg/sg30_3_cif.got.tgz:4351.got - 2010.06.03 17:03:02.
