data_PCOD9342749
_publ_section_title
;
Structure prediction by ZEFSAII (Michael W. Deem and Ramdas Pophale) SiO2 
 PCOD9342749
Probable space group: P M N 21
;
_chemical_formula_sum "Si O2"
_cell_formula_units_Z 18
_cell_length_a 8.191103
_cell_length_b 7.322241
_cell_length_c 11.869713
_cell_angle_alpha 90.000000
_cell_angle_beta 90.000000
_cell_angle_gamma 90.000000
_cell_volume 711.912509
_symmetry_space_group_name_H-M "P M N 21"
_symmetry_group_IT_number 31
_symmetry_cell_setting 'orthorhombic'
loop_
_space_group_symop_operation_xyz
x,y,z
1/2-x,-y,1/2+z
-x,y,z
1/2+x,-y,1/2+z
loop_
_atom_site_type_symbol
_atom_site_label
_atom_site_fract_x
_atom_site_fract_y
_atom_site_fract_z
Si Si1 0.500000 0.447931 0.333530
Si Si2 0.000000 0.179186 0.915997
Si Si3 0.328790 0.112039 0.945477
Si Si4 0.186724 0.853142 0.181632
Si Si5 0.500000 0.091800 0.216151
Si Si6 0.186766 0.323553 0.475698
O O1 0.500000 0.664855 0.320705
O O2 0.500000 0.307861 0.230956
O O3 0.332300 0.407938 0.402556
O O4 0.838944 0.191506 0.989881
O O5 0.000000 0.990164 0.846284
O O6 0.500000 0.170104 0.997074
O O7 0.326671 0.176308 0.814981
O O8 0.322625 0.892087 0.942141
O O9 0.000000 0.897553 0.144229
O O10 0.331336 0.004413 0.169730
O O11 0.250867 0.687225 0.104825
O O12 0.000000 0.393716 0.464025
#
# Coordination Sequence:
#
# PCOD9342749 Si02
#       6
#     2   2   4   4   2   4
#     4  12  22  36  62  87 113 149 197 234 288 339
#     4  10  20  36  62  76 113 150 186 236 285 328
#     4   9  19  36  57  82 113 151 191 230 286 336
#     4  10  18  31  59  85 110 152 190 231 284 339
#     4  10  20  40  58  81 114 153 191 232 289 339
#     4  11  20  33  59  88 114 151 193 233 284 339
#
# _framework density 25.284003999999999
#
# number of rings (size 3 to 8) (size 9 to 14) (size 15 to 20)
#    0.000    1.778    6.667    0.000    0.000    0.889 
#    0.000    0.000    9.778    0.000    0.000    0.000 
#    0.000    0.000    0.000    0.000    0.000    0.000 
#
# Total GULP energy -100491.693941 kJ/mol
# GULP energy per Si atom -5582.871886 kJ/mol
# Density = 2.522646 g / cm^3
# Si number density = 25.284004 Si / 1000 Ang^3
#
#
#
# Elastic Constant Matrix: (Units=GPa)
#
#
# Indices 1 2 3 4 5 6 
#
# 1 301.3391 27.9848 20.6063 0.0000 0.0000 0.0000
# 2 27.9848 72.3577 -12.7383 0.0000 0.0000 0.0000
# 3 20.6063 -12.7383 52.1699 0.0000 0.0000 0.0000
# 4 0.0000 0.0000 0.0000 17.1655 0.0000 0.0000
# 5 0.0000 0.0000 0.0000 0.0000 49.8932 0.0000
# 6 0.0000 0.0000 0.0000 0.0000 0.0000 11.4542
#
#
#
# Elastic Compliance Matrix: (Units=1/GPa)
#
#
# Indices 1 2 3 4 5 6 
#
# 1 0.003604 -0.001718 -0.001843 0.000000 0.000000 0.000000
# 2 -0.001718 0.015260 0.004405 0.000000 0.000000 0.000000
# 3 -0.001843 0.004405 0.020972 0.000000 0.000000 0.000000
# 4 0.000000 0.000000 0.000000 0.058256 0.000000 0.000000
# 5 0.000000 0.000000 0.000000 0.000000 0.020043 0.000000
# 6 0.000000 0.000000 0.000000 0.000000 0.000000 0.087304
#
#
# Mechanical properties :
#
#
# Convention : Reuss Voigt Hill
#
# Bulk Modulus (GPa) = 24.08325 55.28580 39.68453
# Shear Modulus (GPa) = 22.97861 41.70351 32.34106
#
# Velocity S-wave (km/s) = 3.01793 4.06569 3.58035
# Velocity P-wave (km/s) = 4.65722 6.62972 5.72900
#
# Compressibility (1/GPa) = 0.04152263
#
# Stress axis : x y z
#
# Youngs Moduli (GPa) = 277.45827 65.52959 47.68338
#
# Poissons Ratio (x) = 0.11261 0.08789
# Poissons Ratio (y) = 0.47679 -0.21004
# Poissons Ratio (z) = 0.51140 -0.28865
#
# Static dielectric constant tensor:
#      x y z
#    x 2.101290 0.000000 0.000000 
#    y 0.000000 1.959840 0.000000 
#    z 0.000000 0.000000 2.103920 
# 
# From -- ./inp_files/3404.got.cif
#   From: 2010.05.17/outbox.cif.g08.bks.cpg/sg31_2_cif.got.tgz:3404.got - 2010.06.03 17:08:30.
