data_PCOD9342272
_publ_section_title
;
Structure prediction by ZEFSAII (Michael W. Deem and Ramdas Pophale) SiO2 
 PCOD9342272
Probable space group: P N C 2
;
_chemical_formula_sum "Si O2"
_cell_formula_units_Z 20
_cell_length_a 5.757545
_cell_length_b 12.232910
_cell_length_c 13.344062
_cell_angle_alpha 90.000000
_cell_angle_beta 90.000000
_cell_angle_gamma 90.000000
_cell_volume 939.842700
_symmetry_space_group_name_H-M "P N C 2"
_symmetry_group_IT_number 30
_symmetry_cell_setting 'orthorhombic'
loop_
_space_group_symop_operation_xyz
x,y,z
-x,-y,z
-x,1/2+y,1/2+z
x,1/2-y,1/2+z
loop_
_atom_site_type_symbol
_atom_site_label
_atom_site_fract_x
_atom_site_fract_y
_atom_site_fract_z
Si Si1 0.638590 0.889500 0.359310
Si Si2 0.052117 0.119957 0.553608
Si Si3 0.743173 0.270026 0.415456
Si Si4 0.002589 0.283210 0.725659
Si Si5 0.745879 0.060813 0.088051
O O1 0.758391 0.897938 0.467782
O O2 0.486677 0.780381 0.367886
O O3 0.823683 0.872112 0.271631
O O4 0.500000 0.000000 0.342379
O O5 0.843246 0.175975 0.490250
O O6 0.110785 0.205725 0.640783
O O7 0.000000 0.000000 0.595731
O O8 0.918099 0.283392 0.322676
O O9 0.715965 0.376025 0.482609
O O10 0.791443 0.348275 0.673727
O O11 0.500000 0.000000 0.104788
O O12 0.000000 0.000000 0.082455
#
# Coordination Sequence:
#
# PCOD9342272 Si02
#       5
#     4   4   4   4   4
#     4  11  23  42  71 101 136 183 234 293 353 417
#     4  10  21  44  66  95 138 180 228 291 353 415
#     4  10  24  44  66  98 139 181 230 288 349 420
#     4  10  26  41  69 105 136 179 244 287 344 429
#     4  11  28  47  72 103 146 190 233 293 359 415
#
# _framework density 21.280158
#
# number of rings (size 3 to 8) (size 9 to 14) (size 15 to 20)
#    0.000    1.600    2.000    0.000   14.000    2.400 
#    0.000    0.000    0.000    0.000    0.000    0.000 
#    0.000    0.000    0.000    0.000    0.000    0.000 
#
# Total GULP energy -111699.810053 kJ/mol
# GULP energy per Si atom -5584.990503 kJ/mol
# Density = 2.123172 g / cm^3
# Si number density = 21.280158 Si / 1000 Ang^3
#
#
#
# Elastic Constant Matrix: (Units=GPa)
#
#
# Indices 1 2 3 4 5 6 
#
# 1 90.5657 37.6681 55.6873 0.0000 0.0000 0.0000
# 2 37.6681 82.1416 75.2264 0.0000 0.0000 0.0000
# 3 55.6873 75.2264 144.3718 0.0000 0.0000 0.0000
# 4 0.0000 0.0000 0.0000 28.1734 0.0000 0.0000
# 5 0.0000 0.0000 0.0000 0.0000 -2.2715 0.0000
# 6 0.0000 0.0000 0.0000 0.0000 0.0000 31.2521
#
#
#
# Elastic Compliance Matrix: (Units=1/GPa)
#
#
# Indices 1 2 3 4 5 6 
#
# 1 0.014849 -0.002992 -0.004169 0.000000 0.000000 0.000000
# 2 -0.002992 0.023889 -0.011294 0.000000 0.000000 0.000000
# 3 -0.004169 -0.011294 0.014419 0.000000 0.000000 0.000000
# 4 0.000000 0.000000 0.000000 0.035495 0.000000 0.000000
# 5 0.000000 0.000000 0.000000 0.000000 -0.440236 0.000000
# 6 0.000000 0.000000 0.000000 0.000000 0.000000 0.031998
#
#
# Mechanical properties :
#
#
# Convention : Reuss Voigt Hill
#
# Bulk Modulus (GPa) = 61.54147 72.69362 67.11754
# Shear Modulus (GPa) = -18.03348 21.33063 1.64857
#
# Velocity S-wave (km/s) = -2.91423 3.16946 0.88113
# Velocity P-wave (km/s) = 4.20224 6.90133 5.71346
#
# Compressibility (1/GPa) = 0.01624921
#
# Stress axis : x y z
#
# Youngs Moduli (GPa) = 67.34300 41.86070 69.35197
#
# Poissons Ratio (x) = 0.12523 0.28912
# Poissons Ratio (y) = 0.20146 0.78323
# Poissons Ratio (z) = 0.28075 0.47276
#
# Static dielectric constant tensor:
#      x y z
#    x 1.840260 0.000000 0.000000 
#    y 0.000000 1.767540 0.000000 
#    z 0.000000 0.000000 1.743590 
# 
# From -- ./inp_files/3055.got.cif
#   From: 2010.05.17/outbox.cif.g08.bks.cpg/sg30_2_cif.got.tgz:3055.got - 2010.06.03 17:03:02.
