data_PCOD9342728
_publ_section_title
;
Structure prediction by ZEFSAII (Michael W. Deem and Ramdas Pophale) SiO2 
 PCOD9342728
Probable space group: P M N 21
;
_chemical_formula_sum "Si O2"
_cell_formula_units_Z 32
_cell_length_a 9.200035
_cell_length_b 11.046496
_cell_length_c 14.340705
_cell_angle_alpha 90.000000
_cell_angle_beta 90.000000
_cell_angle_gamma 90.000000
_cell_volume 1457.419316
_symmetry_space_group_name_H-M "P M N 21"
_symmetry_group_IT_number 31
_symmetry_cell_setting 'orthorhombic'
loop_
_space_group_symop_operation_xyz
x,y,z
1/2-x,-y,1/2+z
-x,y,z
1/2+x,-y,1/2+z
loop_
_atom_site_type_symbol
_atom_site_label
_atom_site_fract_x
_atom_site_fract_y
_atom_site_fract_z
Si Si1 0.672824 0.532003 0.208720
Si Si2 0.678216 0.799118 0.213129
Si Si3 0.831643 0.823283 0.664796
Si Si4 0.668382 0.931933 0.041682
Si Si5 0.334215 0.694639 0.501406
Si Si6 0.671239 0.539656 0.985210
Si Si7 0.166290 0.057319 0.882172
Si Si8 0.326975 0.689415 0.812725
O O1 0.500000 0.511614 0.226158
O O2 0.715453 0.665053 0.245040
O O3 0.690939 0.545908 0.096680
O O4 0.766287 0.427080 0.255658
O O5 0.500000 0.805472 0.212867
O O6 0.731032 0.902541 0.283432
O O7 0.726064 0.826345 0.108030
O O8 0.824437 0.951378 0.611291
O O9 0.761255 0.731108 0.590628
O O10 0.749509 0.802965 0.762239
O O11 0.000000 0.794505 0.679151
O O12 0.500000 0.908981 0.018998
O O13 0.751144 0.965562 0.948491
O O14 0.500000 0.670236 0.529681
O O15 0.266505 0.575742 0.455659
O O16 0.335647 0.813478 0.436767
O O17 0.500000 0.515274 0.969232
O O18 0.706261 0.655575 0.920524
O O19 0.000000 0.017001 0.868831
O O20 0.500000 0.701325 0.802741
#
# Coordination Sequence:
#
# PCOD9342728 Si02
#       8
#     4   4   4   4   4   4   4   4
#     4  10  20  37  59  80 107 147 185 220 270 331
#     4   9  18  36  59  80 107 144 185 222 266 327
#     4  10  19  33  53  75 103 139 180 223 269 317
#     4   9  19  36  57  80 106 140 183 226 268 319
#     4  10  18  30  53  80 106 137 178 224 267 317
#     4  10  21  34  50  77 112 145 176 217 271 325
#     4   9  18  33  55  82 107 138 181 228 273 316
#     4  11  22  35  52  80 114 144 178 224 272 322
#
# _framework density 21.956617000000001
#
# number of rings (size 3 to 8) (size 9 to 14) (size 15 to 20)
#    0.000    2.250    1.250    1.875    0.000    3.000 
#    2.250    1.875    0.000    0.000    0.000    0.000 
#    0.000    0.000    0.000    0.000    0.000    0.000 
#
# Total GULP energy -178718.979448 kJ/mol
# GULP energy per Si atom -5584.968108 kJ/mol
# Density = 2.190664 g / cm^3
# Si number density = 21.956617 Si / 1000 Ang^3
#
#
#
# Elastic Constant Matrix: (Units=GPa)
#
#
# Indices 1 2 3 4 5 6 
#
# 1 56.4481 6.9669 32.6464 0.0000 0.0000 0.0000
# 2 6.9669 47.5454 8.0624 0.0000 0.0000 0.0000
# 3 32.6464 8.0624 100.2366 0.0000 0.0000 0.0000
# 4 0.0000 0.0000 0.0000 42.1856 0.0000 0.0000
# 5 0.0000 0.0000 0.0000 0.0000 21.5172 0.0000
# 6 0.0000 0.0000 0.0000 0.0000 0.0000 -1.9245
#
#
#
# Elastic Compliance Matrix: (Units=1/GPa)
#
#
# Indices 1 2 3 4 5 6 
#
# 1 0.022020 -0.002038 -0.007008 0.000000 0.000000 0.000000
# 2 -0.002038 0.021512 -0.001066 0.000000 0.000000 0.000000
# 3 -0.007008 -0.001066 0.012345 0.000000 0.000000 0.000000
# 4 0.000000 0.000000 0.000000 0.023705 0.000000 0.000000
# 5 0.000000 0.000000 0.000000 0.000000 0.046474 0.000000
# 6 0.000000 0.000000 0.000000 0.000000 0.000000 -0.519616
#
#
# Mechanical properties :
#
#
# Convention : Reuss Voigt Hill
#
# Bulk Modulus (GPa) = 28.04933 33.28684 30.66808
# Shear Modulus (GPa) = -13.83312 22.79261 4.47975
#
# Velocity S-wave (km/s) = -2.51274 3.22541 1.42993
# Velocity P-wave (km/s) = 2.09383 5.39113 4.08952
#
# Compressibility (1/GPa) = 0.03565148
#
# Stress axis : x y z
#
# Youngs Moduli (GPa) = 45.41357 46.48559 81.00731
#
# Poissons Ratio (x) = 0.09475 0.56768
# Poissons Ratio (y) = 0.09256 0.08639
# Poissons Ratio (z) = 0.31825 0.04957
#
# Static dielectric constant tensor:
#      x y z
#    x 1.735760 0.000000 0.000000 
#    y 0.000000 1.848640 0.000000 
#    z 0.000000 0.000000 1.855470 
# 
# From -- ./inp_files/4970.got.cif
#   From: 2010.05.17/outbox.cif.g08.bks.cpg/sg31_3_cif.got.tgz:4970.got - 2010.06.03 17:08:30.
