data_PCOD9342223
_publ_section_title
;
Structure prediction by ZEFSAII (Michael W. Deem and Ramdas Pophale) SiO2 
 PCOD9342223
Probable space group: P N C 2
;
_chemical_formula_sum "Si O2"
_cell_formula_units_Z 32
_cell_length_a 9.200109
_cell_length_b 11.369495
_cell_length_c 12.268073
_cell_angle_alpha 90.000000
_cell_angle_beta 90.000000
_cell_angle_gamma 90.000000
_cell_volume 1283.247714
_symmetry_space_group_name_H-M "P N C 2"
_symmetry_group_IT_number 30
_symmetry_cell_setting 'orthorhombic'
loop_
_space_group_symop_operation_xyz
x,y,z
-x,-y,z
-x,1/2+y,1/2+z
x,1/2-y,1/2+z
loop_
_atom_site_type_symbol
_atom_site_label
_atom_site_fract_x
_atom_site_fract_y
_atom_site_fract_z
Si Si1 0.371712 0.420492 0.752140
Si Si2 0.883636 0.144893 0.733155
Si Si3 0.819915 0.338195 0.464341
Si Si4 0.859626 0.080476 0.207396
Si Si5 0.957782 0.629058 0.027715
Si Si6 0.675678 0.774871 0.051319
Si Si7 0.500326 0.798406 0.875049
Si Si8 0.432190 0.615588 0.141315
O O1 0.500000 0.500000 0.701550
O O2 0.256266 0.517861 0.786224
O O3 0.287371 0.345522 0.659888
O O4 0.442704 0.331222 0.837623
O O5 0.876504 0.096195 0.855213
O O6 0.880923 0.286499 0.745364
O O7 0.740790 0.115695 0.658505
O O8 0.021703 0.119650 0.658881
O O9 0.811358 0.406507 0.579659
O O10 0.660346 0.298306 0.425497
O O11 0.930584 0.229985 0.488129
O O12 0.000000 0.000000 0.208465
O O13 0.797004 0.682148 0.015119
O O14 0.000000 0.500000 0.983403
O O15 0.519120 0.717824 0.080473
O O16 0.626904 0.853145 0.949663
O O17 0.489283 0.869666 0.763903
O O18 0.500000 0.500000 0.090354
#
# Coordination Sequence:
#
# PCOD9342223 Si02
#       8
#     4   4   4   4   4   4   4   4
#     4  11  22  39  63  92 123 162 211 264 324 385
#     4  10  22  42  62  87 126 165 210 263 317 387
#     4  10  22  42  64  89 126 170 214 259 317 388
#     4  11  23  41  64  93 129 173 215 264 328 389
#     4  11  24  40  60  89 123 165 206 257 316 373
#     4  11  23  38  59  91 127 157 204 267 311 371
#     4  10  23  40  61  91 123 160 208 261 318 383
#     4  10  21  40  64  88 116 160 206 257 319 378
#
# _framework density 24.936729
#
# number of rings (size 3 to 8) (size 9 to 14) (size 15 to 20)
#    0.000    1.500    0.000    6.750    0.000    9.000 
#    0.000    0.000    0.000    0.000    0.000    0.000 
#    0.000    0.000    0.000    0.000    0.000    0.000 
#
# Total GULP energy -178740.340129 kJ/mol
# GULP energy per Si atom -5585.635629 kJ/mol
# Density = 2.487997 g / cm^3
# Si number density = 24.936729 Si / 1000 Ang^3
#
#
#
# Elastic Constant Matrix: (Units=GPa)
#
#
# Indices 1 2 3 4 5 6 
#
# 1 87.2629 31.4341 33.5539 0.0000 0.0000 0.0000
# 2 31.4341 67.5535 -24.1742 0.0000 0.0000 0.0000
# 3 33.5539 -24.1742 79.3435 0.0000 0.0000 0.0000
# 4 0.0000 0.0000 0.0000 9.9665 0.0000 0.0000
# 5 0.0000 0.0000 0.0000 0.0000 39.5770 0.0000
# 6 0.0000 0.0000 0.0000 0.0000 0.0000 44.0221
#
#
#
# Elastic Compliance Matrix: (Units=1/GPa)
#
#
# Indices 1 2 3 4 5 6 
#
# 1 0.022603 -0.015644 -0.014325 0.000000 0.000000 0.000000
# 2 -0.015644 0.027442 0.014977 0.000000 0.000000 0.000000
# 3 -0.014325 0.014977 0.023225 0.000000 0.000000 0.000000
# 4 0.000000 0.000000 0.000000 0.100336 0.000000 0.000000
# 5 0.000000 0.000000 0.000000 0.000000 0.025267 0.000000
# 6 0.000000 0.000000 0.000000 0.000000 0.000000 0.022716
#
#
# Mechanical properties :
#
#
# Convention : Reuss Voigt Hill
#
# Bulk Modulus (GPa) = 23.10270 35.08750 29.09510
# Shear Modulus (GPa) = 18.79684 31.60288 25.19986
#
# Velocity S-wave (km/s) = 2.74849 3.56381 3.18237
# Velocity P-wave (km/s) = 4.39964 5.57095 5.01958
#
# Compressibility (1/GPa) = 0.04328498
#
# Stress axis : x y z
#
# Youngs Moduli (GPa) = 44.24145 36.44034 43.05785
#
# Poissons Ratio (x) = 0.57008 0.61681
# Poissons Ratio (y) = 0.69212 -0.64487
# Poissons Ratio (z) = 0.63377 -0.54576
#
# Static dielectric constant tensor:
#      x y z
#    x 1.926900 0.000000 0.000000 
#    y 0.000000 1.818190 0.000000 
#    z 0.000000 0.000000 2.058890 
# 
# From -- ./inp_files/5201.got.cif
#   From: 2010.05.17/outbox.cif.g08.bks.cpg/sg30_3_cif.got.tgz:5201.got - 2010.06.03 17:03:02.
