data_PCOD9342212
_publ_section_title
;
Structure prediction by ZEFSAII (Michael W. Deem and Ramdas Pophale) SiO2 
 PCOD9342212
Probable space group: P N C 2
;
_chemical_formula_sum "Si O2"
_cell_formula_units_Z 24
_cell_length_a 7.842047
_cell_length_b 14.723742
_cell_length_c 8.818622
_cell_angle_alpha 90.000000
_cell_angle_beta 90.000000
_cell_angle_gamma 90.000000
_cell_volume 1018.235811
_symmetry_space_group_name_H-M "P N C 2"
_symmetry_group_IT_number 30
_symmetry_cell_setting 'orthorhombic'
loop_
_space_group_symop_operation_xyz
x,y,z
-x,-y,z
-x,1/2+y,1/2+z
x,1/2-y,1/2+z
loop_
_atom_site_type_symbol
_atom_site_label
_atom_site_fract_x
_atom_site_fract_y
_atom_site_fract_z
Si Si1 0.732885 0.006331 0.550740
Si Si2 0.500000 0.000000 0.805068
Si Si3 0.074869 0.844873 0.992530
Si Si4 0.907435 0.156443 0.340167
Si Si5 0.676985 0.845273 0.349810
Si Si6 0.000000 0.000000 0.777062
Si Si7 0.661694 0.658037 0.504277
O O1 0.825507 0.077671 0.441961
O O2 0.620706 0.050656 0.682672
O O3 0.637276 0.932871 0.449180
O O4 0.870527 0.952739 0.658745
O O5 0.590005 0.925260 0.908146
O O6 0.099585 0.931589 0.885972
O O7 0.868207 0.841755 0.001825
O O8 0.138350 0.753920 0.911115
O O9 0.141948 0.853479 0.163533
O O10 0.114686 0.153115 0.343712
O O11 0.614061 0.754053 0.430187
O O12 0.610017 0.849561 0.179243
#
# Coordination Sequence:
#
# PCOD9342212 Si02
#       7
#     4   2   4   4   4   2   4
#     4  12  24  41  68 102 138 180 228 285 346 411
#     4  12  26  44  64 102 148 190 226 274 356 430
#     4  10  22  38  66  99 135 179 231 297 344 393
#     4  10  21  39  65 101 135 173 239 293 340 399
#     4  10  21  40  70  98 128 180 239 287 337 409
#     4  12  22  38  66  98 132 176 236 280 338 398
#     4  10  22  41  66  96 138 182 233 280 346 419
#
# _framework density 23.570180000000001
#
# number of rings (size 3 to 8) (size 9 to 14) (size 15 to 20)
#    0.000    1.333    3.333    2.000    9.333    0.667 
#    0.000    6.667    0.000    0.000    0.000    0.000 
#    0.000    0.000    0.000    0.000    0.000    0.000 
#
# Total GULP energy -134202.688319 kJ/mol
# GULP energy per Si atom -5591.778680 kJ/mol
# Density = 2.351653 g / cm^3
# Si number density = 23.570180 Si / 1000 Ang^3
#
#
#
# Elastic Constant Matrix: (Units=GPa)
#
#
# Indices 1 2 3 4 5 6 
#
# 1 34.8407 28.5124 50.3038 0.0000 0.0000 0.0000
# 2 28.5124 180.5566 125.5953 0.0000 0.0000 0.0000
# 3 50.3038 125.5953 275.6697 0.0000 0.0000 0.0000
# 4 0.0000 0.0000 0.0000 45.1824 0.0000 0.0000
# 5 0.0000 0.0000 0.0000 0.0000 35.1624 0.0000
# 6 0.0000 0.0000 0.0000 0.0000 0.0000 21.7732
#
#
#
# Elastic Compliance Matrix: (Units=1/GPa)
#
#
# Indices 1 2 3 4 5 6 
#
# 1 0.039358 -0.001785 -0.006369 0.000000 0.000000 0.000000
# 2 -0.001785 0.008189 -0.003405 0.000000 0.000000 0.000000
# 3 -0.006369 -0.003405 0.006341 0.000000 0.000000 0.000000
# 4 0.000000 0.000000 0.000000 0.022133 0.000000 0.000000
# 5 0.000000 0.000000 0.000000 0.000000 0.028439 0.000000
# 6 0.000000 0.000000 0.000000 0.000000 0.000000 0.045928
#
#
# Mechanical properties :
#
#
# Convention : Reuss Voigt Hill
#
# Bulk Modulus (GPa) = 32.49885 99.98776 66.24330
# Shear Modulus (GPa) = 27.20895 39.53398 33.37147
#
# Velocity S-wave (km/s) = 3.40130 4.09991 3.76684
# Velocity P-wave (km/s) = 5.40770 8.05765 6.86181
#
# Compressibility (1/GPa) = 0.03077032
#
# Stress axis : x y z
#
# Youngs Moduli (GPa) = 25.40759 122.11588 157.70210
#
# Poissons Ratio (x) = 0.21799 1.00436
# Poissons Ratio (y) = 0.04536 0.53700
# Poissons Ratio (z) = 0.16181 0.41582
#
# Static dielectric constant tensor:
#      x y z
#    x 2.074830 0.000000 0.000000 
#    y 0.000000 1.829730 0.000000 
#    z 0.000000 0.000000 1.838710 
# 
# From -- ./inp_files/1867.got.cif
#   From: 2010.05.17/outbox.cif.g08.bks.cpg/sg30_1_cif.got.tgz:1867.got - 2010.06.03 17:03:02.
