data_PCOD9342599
_publ_section_title
;
Structure prediction by ZEFSAII (Michael W. Deem and Ramdas Pophale) SiO2 
 PCOD9342599
Probable space group: P N C 2
;
_chemical_formula_sum "Si O2"
_cell_formula_units_Z 20
_cell_length_a 15.040476
_cell_length_b 5.184859
_cell_length_c 10.950121
_cell_angle_alpha 90.000000
_cell_angle_beta 90.000000
_cell_angle_gamma 90.000000
_cell_volume 853.920519
_symmetry_space_group_name_H-M "P N C 2"
_symmetry_group_IT_number 30
_symmetry_cell_setting 'orthorhombic'
loop_
_space_group_symop_operation_xyz
x,y,z
-x,-y,z
-x,1/2+y,1/2+z
x,1/2-y,1/2+z
loop_
_atom_site_type_symbol
_atom_site_label
_atom_site_fract_x
_atom_site_fract_y
_atom_site_fract_z
Si Si1 0.908126 0.642535 0.885050
Si Si2 0.603001 0.063817 0.618177
Si Si3 0.828604 0.369592 0.483609
Si Si4 0.753754 0.829504 0.203503
Si Si5 0.664518 0.286814 0.861615
O O1 0.863249 0.421976 0.971452
O O2 0.850985 0.710304 0.764071
O O3 0.000000 0.500000 0.852141
O O4 0.902038 0.911734 0.958051
O O5 0.685775 0.859810 0.632121
O O6 0.500000 0.000000 0.603512
O O7 0.606278 0.199852 0.749238
O O8 0.621994 0.215166 0.493458
O O9 0.778562 0.440964 0.608226
O O10 0.754329 0.379573 0.376356
O O11 0.697001 0.932616 0.318716
#
# Coordination Sequence:
#
# PCOD9342599 Si02
#       5
#     4   4   4   4   4
#     4  11  25  43  72 113 153 204 264 324 395 481
#     4  12  28  45  77 112 157 211 271 334 392 487
#     4  11  23  45  74 103 152 202 256 319 397 468
#     4  11  24  46  73 103 155 206 255 329 403 467
#     4  11  25  48  70 111 147 207 263 325 403 463
#
# _framework density 23.421382999999999
#
# number of rings (size 3 to 8) (size 9 to 14) (size 15 to 20)
#    0.000    0.800    4.000    3.000    2.800    1.600 
#    0.000    0.000    0.000    0.000    0.000    0.000 
#    0.000    0.000    0.000    0.000    0.000    0.000 
#
# Total GULP energy -111421.612313 kJ/mol
# GULP energy per Si atom -5571.080616 kJ/mol
# Density = 2.336807 g / cm^3
# Si number density = 23.421383 Si / 1000 Ang^3
#
#
#
# Elastic Constant Matrix: (Units=GPa)
#
#
# Indices 1 2 3 4 5 6 
#
# 1 142.0915 32.7892 42.2371 0.0000 0.0000 0.0000
# 2 32.7892 92.8756 21.9680 0.0000 0.0000 0.0000
# 3 42.2371 21.9680 136.1576 0.0000 0.0000 0.0000
# 4 0.0000 0.0000 0.0000 34.7624 0.0000 0.0000
# 5 0.0000 0.0000 0.0000 0.0000 22.7422 0.0000
# 6 0.0000 0.0000 0.0000 0.0000 0.0000 28.8510
#
#
#
# Elastic Compliance Matrix: (Units=1/GPa)
#
#
# Indices 1 2 3 4 5 6 
#
# 1 0.008235 -0.002394 -0.002168 0.000000 0.000000 0.000000
# 2 -0.002394 0.011891 -0.001176 0.000000 0.000000 0.000000
# 3 -0.002168 -0.001176 0.008207 0.000000 0.000000 0.000000
# 4 0.000000 0.000000 0.000000 0.028767 0.000000 0.000000
# 5 0.000000 0.000000 0.000000 0.000000 0.043971 0.000000
# 6 0.000000 0.000000 0.000000 0.000000 0.000000 0.034661
#
#
# Mechanical properties :
#
#
# Convention : Reuss Voigt Hill
#
# Bulk Modulus (GPa) = 59.32791 62.79037 61.05914
# Shear Modulus (GPa) = 32.71702 35.54648 34.13175
#
# Velocity S-wave (km/s) = 3.74155 3.89998 3.82159
# Velocity P-wave (km/s) = 6.63711 6.86637 6.75271
#
# Compressibility (1/GPa) = 0.01685547
#
# Stress axis : x y z
#
# Youngs Moduli (GPa) = 121.43673 84.10074 121.85171
#
# Poissons Ratio (x) = 0.20137 0.26419
# Poissons Ratio (y) = 0.29077 0.14326
# Poissons Ratio (z) = 0.26329 0.09888
#
# Static dielectric constant tensor:
#      x y z
#    x 1.936230 0.000000 0.000000 
#    y 0.000000 2.016190 0.000000 
#    z 0.000000 0.000000 1.852180 
# 
# From -- ./inp_files/4199.got.cif
#   From: 2010.05.17/outbox.cif.g08.bks.cpg/sg30_3_cif.got.tgz:4199.got - 2010.06.03 17:03:02.
