data_PCOD9342707
_publ_section_title
;
Structure prediction by ZEFSAII (Michael W. Deem and Ramdas Pophale) SiO2 
 PCOD9342707
Probable space group: P M N 21
;
_chemical_formula_sum "Si O2"
_cell_formula_units_Z 24
_cell_length_a 13.118133
_cell_length_b 14.943599
_cell_length_c 5.485208
_cell_angle_alpha 90.000000
_cell_angle_beta 90.000000
_cell_angle_gamma 90.000000
_cell_volume 1075.276948
_symmetry_space_group_name_H-M "P M N 21"
_symmetry_group_IT_number 31
_symmetry_cell_setting 'orthorhombic'
loop_
_space_group_symop_operation_xyz
x,y,z
1/2-x,-y,1/2+z
-x,y,z
1/2+x,-y,1/2+z
loop_
_atom_site_type_symbol
_atom_site_label
_atom_site_fract_x
_atom_site_fract_y
_atom_site_fract_z
Si Si1 0.607896 0.145107 0.841060
Si Si2 0.773049 0.386539 0.341060
Si Si3 0.122008 0.454022 0.841060
Si Si4 0.840287 0.161394 0.841060
Si Si5 0.343035 0.052427 0.341060
Si Si6 0.329336 0.804883 0.841060
O O1 0.500000 0.197081 0.841060
O O2 0.719785 0.190456 0.841060
O O3 0.609166 0.086790 0.593353
O O4 0.609166 0.086790 0.088767
O O5 0.834939 0.410005 0.590025
O O6 0.671791 0.446619 0.341060
O O7 0.755153 0.280496 0.341060
O O8 0.834939 0.410005 0.092095
O O9 0.000000 0.453918 0.841060
O O10 0.887241 0.196259 0.593588
O O11 0.840128 0.053893 0.841060
O O12 0.887241 0.196259 0.088532
O O13 0.233455 0.102055 0.341060
#
# Coordination Sequence:
#
# PCOD9342707 Si02
#       6
#     4   4   4   4   4   4
#     4  10  18  29  46  69  95 128 177 225 265 305
#     4  10  21  37  62  90 114 148 187 230 284 339
#     4  10  21  40  63  86 116 148 182 228 289 353
#     4  10  19  33  53  73 102 147 182 212 260 315
#     4  10  19  33  52  71 100 147 183 210 260 316
#     4  10  18  32  55  79 105 136 178 225 259 312
#
# _framework density 22.319834
#
# number of rings (size 3 to 8) (size 9 to 14) (size 15 to 20)
#    0.000    2.000    0.000    7.000    0.000    0.000 
#    0.000    6.667    0.000   34.000    0.000    0.000 
#    0.000    0.000    0.000    0.000    0.000    0.000 
#
# Total GULP energy -133830.410423 kJ/mol
# GULP energy per Si atom -5576.267101 kJ/mol
# Density = 2.226903 g / cm^3
# Si number density = 22.319834 Si / 1000 Ang^3
#
#
#
# Elastic Constant Matrix: (Units=GPa)
#
#
# Indices 1 2 3 4 5 6 
#
# 1 112.9832 -19.3213 20.6572 0.0000 0.0000 0.0000
# 2 -19.3213 71.1063 15.3225 0.0000 0.0000 0.0000
# 3 20.6572 15.3225 244.4037 0.0000 0.0000 0.0000
# 4 0.0000 0.0000 0.0000 17.6426 0.0000 0.0000
# 5 0.0000 0.0000 0.0000 0.0000 24.6245 0.0000
# 6 0.0000 0.0000 0.0000 0.0000 0.0000 -7.0052
#
#
#
# Elastic Compliance Matrix: (Units=1/GPa)
#
#
# Indices 1 2 3 4 5 6 
#
# 1 0.009508 0.002794 -0.000979 0.000000 0.000000 0.000000
# 2 0.002794 0.015077 -0.001181 0.000000 0.000000 0.000000
# 3 -0.000979 -0.001181 0.004248 0.000000 0.000000 0.000000
# 4 0.000000 0.000000 0.000000 0.056681 0.000000 0.000000
# 5 0.000000 0.000000 0.000000 0.000000 0.040610 0.000000
# 6 0.000000 0.000000 0.000000 0.000000 0.000000 -0.142752
#
#
# Mechanical properties :
#
#
# Convention : Reuss Voigt Hill
#
# Bulk Modulus (GPa) = 33.22062 51.31219 42.26640
# Shear Modulus (GPa) = -635.98984 34.50805 -300.74090
#
# Velocity S-wave (km/s) = -16.89859 3.93628 -11.62042
# Velocity P-wave (km/s) = 19.12678 6.61048 12.69124
#
# Compressibility (1/GPa) = 0.03010179
#
# Stress axis : x y z
#
# Youngs Moduli (GPa) = 105.17787 66.32469 235.38348
#
# Poissons Ratio (x) = -0.18534 0.23039
# Poissons Ratio (y) = -0.29391 0.27809
# Poissons Ratio (z) = 0.10295 0.07836
#
# Static dielectric constant tensor:
#      x y z
#    x 1.910880 0.000000 0.000000 
#    y 0.000000 1.789960 0.000000 
#    z 0.000000 0.000000 1.915830 
# 
# From -- ./inp_files/624.got.cif
#   From: 2010.05.17/outbox.cif.g08.bks.cpg/sg31_1_cif.got.tgz:624.got - 2010.06.03 17:08:30.
