data_PCOD9342740
_publ_section_title
;
Structure prediction by ZEFSAII (Michael W. Deem and Ramdas Pophale) SiO2 
 PCOD9342740
Probable space group: P M N 21
;
_chemical_formula_sum "Si O2"
_cell_formula_units_Z 32
_cell_length_a 9.419037
_cell_length_b 10.864998
_cell_length_c 17.391232
_cell_angle_alpha 90.000000
_cell_angle_beta 90.000000
_cell_angle_gamma 90.000000
_cell_volume 1779.780738
_symmetry_space_group_name_H-M "P M N 21"
_symmetry_group_IT_number 31
_symmetry_cell_setting 'orthorhombic'
loop_
_space_group_symop_operation_xyz
x,y,z
1/2-x,-y,1/2+z
-x,y,z
1/2+x,-y,1/2+z
loop_
_atom_site_type_symbol
_atom_site_label
_atom_site_fract_x
_atom_site_fract_y
_atom_site_fract_z
Si Si1 0.173394 0.180140 0.013230
Si Si2 0.662112 0.193428 0.381810
Si Si3 0.661364 0.668404 0.659821
Si Si4 0.330996 0.860407 0.196900
Si Si5 0.672411 0.711759 0.349662
Si Si6 0.340797 0.919584 0.757555
Si Si7 0.834206 0.897448 0.051517
Si Si8 0.667736 0.448401 0.292827
O O1 0.217079 0.279951 0.078106
O O2 0.000000 0.179800 0.014245
O O3 0.213348 0.039328 0.034574
O O4 0.220982 0.222731 0.928312
O O5 0.500000 0.155198 0.360359
O O6 0.776645 0.107567 0.340798
O O7 0.673541 0.177490 0.472378
O O8 0.683597 0.329847 0.348153
O O9 0.500000 0.621895 0.649266
O O10 0.653607 0.791728 0.711686
O O11 0.752877 0.576506 0.712202
O O12 0.500000 0.857084 0.190223
O O13 0.287577 0.781406 0.271293
O O14 0.256481 0.830611 0.116665
O O15 0.270418 0.994916 0.214912
O O16 0.500000 0.714160 0.353603
O O17 0.716661 0.570478 0.337353
O O18 0.500000 0.971280 0.759484
O O19 0.000000 0.904852 0.075360
O O20 0.500000 0.461668 0.276569
#
# Coordination Sequence:
#
# PCOD9342740 Si02
#       8
#     4   4   4   4   4   4   4   4
#     4   9  16  31  54  76 102 136 175 213 261 320
#     4   9  18  32  54  80 103 134 174 216 262 316
#     4   9  17  31  53  79 103 135 171 210 263 316
#     4  11  21  33  51  76 107 143 180 216 263 322
#     4   9  19  35  54  75 104 143 181 218 261 314
#     4  10  18  31  52  78 108 137 168 212 269 317
#     4  10  19  34  53  78 110 138 171 220 275 323
#     4   9  18  35  55  76 103 136 178 219 256 306
#
# _framework density 17.979744
#
# number of rings (size 3 to 8) (size 9 to 14) (size 15 to 20)
#    0.000    2.500    1.250    1.500    0.000    3.000 
#    2.250    1.250    0.000    3.000    0.000    0.000 
#    0.000    0.000    0.000    0.000    0.000    0.000 
#
# Total GULP energy -178245.738783 kJ/mol
# GULP energy per Si atom -5570.179337 kJ/mol
# Density = 1.793882 g / cm^3
# Si number density = 17.979744 Si / 1000 Ang^3
#
#
#
# Elastic Constant Matrix: (Units=GPa)
#
#
# Indices 1 2 3 4 5 6 
#
# 1 37.1456 16.5324 47.0074 0.0000 0.0000 0.0000
# 2 16.5324 30.1689 31.0559 0.0000 0.0000 0.0000
# 3 47.0074 31.0559 137.5343 0.0000 0.0000 0.0000
# 4 0.0000 0.0000 0.0000 21.2385 0.0000 0.0000
# 5 0.0000 0.0000 0.0000 0.0000 30.2173 0.0000
# 6 0.0000 0.0000 0.0000 0.0000 0.0000 14.6771
#
#
#
# Elastic Compliance Matrix: (Units=1/GPa)
#
#
# Indices 1 2 3 4 5 6 
#
# 1 0.051107 -0.013061 -0.014518 0.000000 0.000000 0.000000
# 2 -0.013061 0.046523 -0.006041 0.000000 0.000000 0.000000
# 3 -0.014518 -0.006041 0.013597 0.000000 0.000000 0.000000
# 4 0.000000 0.000000 0.000000 0.047084 0.000000 0.000000
# 5 0.000000 0.000000 0.000000 0.000000 0.033094 0.000000
# 6 0.000000 0.000000 0.000000 0.000000 0.000000 0.068133
#
#
# Mechanical properties :
#
#
# Convention : Reuss Voigt Hill
#
# Bulk Modulus (GPa) = 22.73452 43.78224 33.25838
# Shear Modulus (GPa) = 14.64381 20.57681 17.61031
#
# Velocity S-wave (km/s) = 2.85697 3.38663 3.13302
# Velocity P-wave (km/s) = 4.85335 6.30049 5.62366
#
# Compressibility (1/GPa) = 0.04398597
#
# Stress axis : x y z
#
# Youngs Moduli (GPa) = 19.56676 21.49484 73.54469
#
# Poissons Ratio (x) = 0.28075 1.06775
# Poissons Ratio (y) = 0.25557 0.44428
# Poissons Ratio (z) = 0.28408 0.12985
#
# Static dielectric constant tensor:
#      x y z
#    x 1.616720 0.000000 0.000000 
#    y 0.000000 1.624800 0.000000 
#    z 0.000000 0.000000 1.640280 
# 
# From -- ./inp_files/5007.got.cif
#   From: 2010.05.17/outbox.cif.g08.bks.cpg/sg31_3_cif.got.tgz:5007.got - 2010.06.03 17:08:30.
