data_PCOD9342867
_publ_section_title
;
Structure prediction by ZEFSAII (Michael W. Deem and Ramdas Pophale) SiO2 
 PCOD9342867
Probable space group: P M N 21
;
_chemical_formula_sum "Si O2"
_cell_formula_units_Z 32
_cell_length_a 12.837576
_cell_length_b 23.022569
_cell_length_c 5.188604
_cell_angle_alpha 90.000000
_cell_angle_beta 90.000000
_cell_angle_gamma 90.000000
_cell_volume 1533.512559
_symmetry_space_group_name_H-M "P M N 21"
_symmetry_group_IT_number 31
_symmetry_cell_setting 'orthorhombic'
loop_
_space_group_symop_operation_xyz
x,y,z
1/2-x,-y,1/2+z
-x,y,z
1/2+x,-y,1/2+z
loop_
_atom_site_type_symbol
_atom_site_label
_atom_site_fract_x
_atom_site_fract_y
_atom_site_fract_z
Si Si1 0.884637 0.109035 0.525920
Si Si2 0.889914 0.521408 0.183913
Si Si3 0.250783 0.133569 0.027025
Si Si4 0.246829 0.263075 0.040043
Si Si5 0.616343 0.370874 0.078053
Si Si6 0.794959 0.421435 0.443679
Si Si7 0.687987 0.012038 0.126682
Si Si8 0.376488 0.699355 0.057686
O O1 0.805559 0.127694 0.751071
O O2 0.000000 0.134016 0.557837
O O3 0.889671 0.038963 0.550801
O O4 0.835997 0.124662 0.250286
O O5 0.774761 0.528793 0.072264
O O6 0.000000 0.524599 0.029922
O O7 0.892224 0.577028 0.372929
O O8 0.884454 0.457478 0.304203
O O9 0.292157 0.198456 0.056612
O O10 0.330027 0.079829 0.069567
O O11 0.336245 0.310385 0.978607
O O12 0.164388 0.266856 0.807091
O O13 0.185690 0.278849 0.304213
O O14 0.500000 0.361601 0.185495
O O15 0.704580 0.391885 0.274139
O O16 0.845385 0.368689 0.600391
O O17 0.782758 0.996821 0.926667
O O18 0.500000 0.704459 0.021815
#
# Coordination Sequence:
#
# PCOD9342867 Si02
#       8
#     4   4   4   4   4   4   4   4
#     4  10  19  32  54  83 110 142 183 231 281 335
#     4  11  21  36  59  83 108 141 184 236 290 346
#     4  10  20  34  54  77 111 148 185 228 278 333
#     4  11  23  40  59  85 117 157 201 240 284 345
#     4  10  22  40  59  80 110 149 190 237 288 341
#     4  11  21  39  58  87 112 144 188 241 294 356
#     4   8  16  31  49  73 104 139 173 215 271 320
#     4  11  24  40  59  84 120 158 193 240 294 346
#
# _framework density 20.867125000000001
#
# number of rings (size 3 to 8) (size 9 to 14) (size 15 to 20)
#    0.000    1.750    2.500    2.250    0.000    3.000 
#    0.000    1.875    0.000    0.000    0.000    7.000 
#    0.000    0.000    0.000    0.000    0.000    0.000 
#
# Total GULP energy -178270.582236 kJ/mol
# GULP energy per Si atom -5570.955695 kJ/mol
# Density = 2.081963 g / cm^3
# Si number density = 20.867125 Si / 1000 Ang^3
#
#
#
# Elastic Constant Matrix: (Units=GPa)
#
#
# Indices 1 2 3 4 5 6 
#
# 1 67.3442 22.4563 1.0447 0.0000 0.0000 0.0000
# 2 22.4563 132.0509 0.9650 0.0000 0.0000 0.0000
# 3 1.0447 0.9650 70.9175 0.0000 0.0000 0.0000
# 4 0.0000 0.0000 0.0000 18.2242 0.0000 0.0000
# 5 0.0000 0.0000 0.0000 0.0000 14.1086 0.0000
# 6 0.0000 0.0000 0.0000 0.0000 0.0000 9.6417
#
#
#
# Elastic Compliance Matrix: (Units=1/GPa)
#
#
# Indices 1 2 3 4 5 6 
#
# 1 0.015744 -0.002676 -0.000196 0.000000 0.000000 0.000000
# 2 -0.002676 0.008028 -0.000070 0.000000 0.000000 0.000000
# 3 -0.000196 -0.000070 0.014105 0.000000 0.000000 0.000000
# 4 0.000000 0.000000 0.000000 0.054872 0.000000 0.000000
# 5 0.000000 0.000000 0.000000 0.000000 0.070879 0.000000
# 6 0.000000 0.000000 0.000000 0.000000 0.000000 0.103717
#
#
# Mechanical properties :
#
#
# Convention : Reuss Voigt Hill
#
# Bulk Modulus (GPa) = 31.25505 35.47163 33.36334
# Shear Modulus (GPa) = 17.61229 24.78467 21.19848
#
# Velocity S-wave (km/s) = 2.90836 3.45010 3.19074
# Velocity P-wave (km/s) = 5.12725 5.73643 5.44037
#
# Compressibility (1/GPa) = 0.03199483
#
# Stress axis : x y z
#
# Youngs Moduli (GPa) = 63.51442 124.55742 70.89827
#
# Poissons Ratio (x) = 0.33332 0.01386
# Poissons Ratio (y) = 0.16997 0.00495
# Poissons Ratio (z) = 0.01242 0.00870
#
# Static dielectric constant tensor:
#      x y z
#    x 1.693930 0.000000 0.000000 
#    y 0.000000 1.815260 0.000000 
#    z 0.000000 0.000000 1.832290 
# 
# From -- ./inp_files/471.got.cif
#   From: 2010.05.17/outbox.cif.g08.bks.cpg/sg31_1_cif.got.tgz:471.got - 2010.06.03 17:08:30.
