data_PCOD9342186
_publ_section_title
;
Structure prediction by ZEFSAII (Michael W. Deem and Ramdas Pophale) SiO2 
 PCOD9342186
Probable space group: P N C 2
;
_chemical_formula_sum "Si O2"
_cell_formula_units_Z 30
_cell_length_a 12.170952
_cell_length_b 8.549367
_cell_length_c 13.325340
_cell_angle_alpha 90.000000
_cell_angle_beta 90.000000
_cell_angle_gamma 90.000000
_cell_volume 1386.554067
_symmetry_space_group_name_H-M "P N C 2"
_symmetry_group_IT_number 30
_symmetry_cell_setting 'orthorhombic'
loop_
_space_group_symop_operation_xyz
x,y,z
-x,-y,z
-x,1/2+y,1/2+z
x,1/2-y,1/2+z
loop_
_atom_site_type_symbol
_atom_site_label
_atom_site_fract_x
_atom_site_fract_y
_atom_site_fract_z
Si Si1 0.758170 0.824107 0.920010
Si Si2 0.426734 0.343208 0.262155
Si Si3 0.876228 0.977115 0.101789
Si Si4 0.081429 0.322818 0.235156
Si Si5 0.275308 0.961285 0.429971
Si Si6 0.253871 0.510093 0.147557
Si Si7 0.500000 0.000000 0.308077
Si Si8 0.164468 0.737101 0.762935
O O1 0.639943 0.848714 0.867793
O O2 0.846648 0.854429 0.832997
O O3 0.765459 0.639437 0.941487
O O4 0.791973 0.924034 0.016379
O O5 0.500000 0.500000 0.256161
O O6 0.336807 0.370685 0.174237
O O7 0.477191 0.167861 0.253206
O O8 0.890220 0.844578 0.186967
O O9 0.840053 0.127203 0.164844
O O10 0.000000 0.000000 0.059011
O O11 0.129994 0.441342 0.151521
O O12 0.955389 0.315359 0.267429
O O13 0.282457 0.906858 0.544268
O O14 0.194857 0.859857 0.361068
O O15 0.392299 0.967797 0.375038
O O16 0.255906 0.634241 0.238120
#
# Coordination Sequence:
#
# PCOD9342186 Si02
#       8
#     4   4   4   4   4   4   2   4
#     4  10  21  39  69  90 134 181 222 280 341 416
#     4  10  23  44  69  99 133 177 232 295 350 416
#     4  10  21  38  62  96 134 177 225 269 337 422
#     4  10  21  41  61  95 136 181 223 279 345 417
#     4  11  23  43  67  98 134 180 229 289 351 424
#     4  11  24  41  70  98 139 177 232 292 350 425
#     4  10  24  44  72  96 136 180 234 294 368 416
#     4  11  24  40  65 101 140 178 229 287 348 428
#
# _framework density 21.636369999999999
#
# number of rings (size 3 to 8) (size 9 to 14) (size 15 to 20)
#    0.000    1.600    2.667    1.200    0.933    7.467 
#    2.400    0.000    7.333    0.000    0.000    0.000 
#    0.000    0.000    0.000    0.000    0.000    0.000 
#
# Total GULP energy -167419.573889 kJ/mol
# GULP energy per Si atom -5580.652463 kJ/mol
# Density = 2.158713 g / cm^3
# Si number density = 21.636370 Si / 1000 Ang^3
#
#
#
# Elastic Constant Matrix: (Units=GPa)
#
#
# Indices 1 2 3 4 5 6 
#
# 1 91.5847 43.6870 29.4700 0.0000 0.0000 0.0000
# 2 43.6870 94.7914 15.7953 0.0000 0.0000 0.0000
# 3 29.4700 15.7953 72.1009 0.0000 0.0000 0.0000
# 4 0.0000 0.0000 0.0000 24.3825 0.0000 0.0000
# 5 0.0000 0.0000 0.0000 0.0000 22.0283 0.0000
# 6 0.0000 0.0000 0.0000 0.0000 0.0000 38.7144
#
#
#
# Elastic Compliance Matrix: (Units=1/GPa)
#
#
# Indices 1 2 3 4 5 6 
#
# 1 0.015537 -0.006334 -0.004963 0.000000 0.000000 0.000000
# 2 -0.006334 0.013531 -0.000376 0.000000 0.000000 0.000000
# 3 -0.004963 -0.000376 0.015980 0.000000 0.000000 0.000000
# 4 0.000000 0.000000 0.000000 0.041013 0.000000 0.000000
# 5 0.000000 0.000000 0.000000 0.000000 0.045396 0.000000
# 6 0.000000 0.000000 0.000000 0.000000 0.000000 0.025830
#
#
# Mechanical properties :
#
#
# Convention : Reuss Voigt Hill
#
# Bulk Modulus (GPa) = 46.07423 48.48684 47.28054
# Shear Modulus (GPa) = 26.61463 28.32671 27.47067
#
# Velocity S-wave (km/s) = 3.51107 3.62224 3.56708
# Velocity P-wave (km/s) = 6.14637 6.32081 6.23420
#
# Compressibility (1/GPa) = 0.02170410
#
# Stress axis : x y z
#
# Youngs Moduli (GPa) = 64.36221 73.90400 62.57723
#
# Poissons Ratio (x) = 0.46808 0.31057
# Poissons Ratio (y) = 0.40765 0.02350
# Poissons Ratio (z) = 0.31943 0.02775
#
# Static dielectric constant tensor:
#      x y z
#    x 1.830230 0.000000 0.000000 
#    y 0.000000 1.851660 0.000000 
#    z 0.000000 0.000000 1.782020 
# 
# From -- ./inp_files/5489.got.cif
#   From: 2010.05.17/outbox.cif.g08.bks.cpg/sg30_3_cif.got.tgz:5489.got - 2010.06.03 17:03:02.
