data_PCOD9342828
_publ_section_title
;
Structure prediction by ZEFSAII (Michael W. Deem and Ramdas Pophale) SiO2 
 PCOD9342828
Probable space group: P M N 21
;
_chemical_formula_sum "Si O2"
_cell_formula_units_Z 24
_cell_length_a 7.277618
_cell_length_b 15.788865
_cell_length_c 7.537285
_cell_angle_alpha 90.000000
_cell_angle_beta 90.000000
_cell_angle_gamma 90.000000
_cell_volume 866.074206
_symmetry_space_group_name_H-M "P M N 21"
_symmetry_group_IT_number 31
_symmetry_cell_setting 'orthorhombic'
loop_
_space_group_symop_operation_xyz
x,y,z
1/2-x,-y,1/2+z
-x,y,z
1/2+x,-y,1/2+z
loop_
_atom_site_type_symbol
_atom_site_label
_atom_site_fract_x
_atom_site_fract_y
_atom_site_fract_z
Si Si1 0.776806 0.946968 0.733550
Si Si2 0.279169 0.325666 0.223603
Si Si3 0.776472 0.808702 0.010804
Si Si4 0.705902 0.359671 0.853345
Si Si5 0.290460 0.130652 0.868172
Si Si6 0.783445 0.502589 0.119094
O O1 0.710931 0.897666 0.557455
O O2 0.000000 0.950964 0.725871
O O3 0.707349 0.041593 0.760217
O O4 0.722038 0.893179 0.905460
O O5 0.500000 0.317040 0.216259
O O6 0.215598 0.265093 0.379024
O O7 0.216072 0.305063 0.019202
O O8 0.231070 0.422749 0.257906
O O9 0.714330 0.806036 0.215959
O O10 0.000000 0.808476 0.016321
O O11 0.500000 0.331565 0.805992
O O12 0.689078 0.448073 0.965165
O O13 0.789930 0.405784 0.681492
O O14 0.500000 0.155609 0.907317
O O15 0.000000 0.513262 0.077063
#
# Coordination Sequence:
#
# PCOD9342828 Si02
#       6
#     4   4   4   4   4   4
#     4  10  19  31  50  75  99 130 165 206 248 288
#     4   8  16  31  48  66  94 132 159 192 245 290
#     4   9  17  32  51  69 100 134 164 205 248 290
#     4   8  16  29  46  69  94 122 158 192 231 284
#     4  10  19  31  50  76  98 127 169 205 243 296
#     4   9  16  28  47  71  95 121 157 196 233 282
#
# _framework density 27.711248000000001
#
# number of rings (size 3 to 8) (size 9 to 14) (size 15 to 20)
#    1.000    2.000    1.667    0.000    0.000    1.333 
#    0.000    3.333    0.000    6.000    0.000    0.000 
#    0.000    0.000    0.000    0.000    0.000    0.000 
#
# Total GULP energy -133764.182917 kJ/mol
# GULP energy per Si atom -5573.507622 kJ/mol
# Density = 2.764818 g / cm^3
# Si number density = 27.711248 Si / 1000 Ang^3
#
#
#
# Elastic Constant Matrix: (Units=GPa)
#
#
# Indices 1 2 3 4 5 6 
#
# 1 137.2245 -3.4137 -2.7551 0.0000 0.0000 0.0000
# 2 -3.4137 56.4850 14.1889 0.0000 0.0000 0.0000
# 3 -2.7551 14.1889 158.5400 0.0000 0.0000 0.0000
# 4 0.0000 0.0000 0.0000 68.4096 0.0000 0.0000
# 5 0.0000 0.0000 0.0000 0.0000 7.7820 0.0000
# 6 0.0000 0.0000 0.0000 0.0000 0.0000 23.2462
#
#
#
# Elastic Compliance Matrix: (Units=1/GPa)
#
#
# Indices 1 2 3 4 5 6 
#
# 1 0.007300 0.000419 0.000089 0.000000 0.000000 0.000000
# 2 0.000419 0.018135 -0.001616 0.000000 0.000000 0.000000
# 3 0.000089 -0.001616 0.006454 0.000000 0.000000 0.000000
# 4 0.000000 0.000000 0.000000 0.014618 0.000000 0.000000
# 5 0.000000 0.000000 0.000000 0.000000 0.128502 0.000000
# 6 0.000000 0.000000 0.000000 0.000000 0.000000 0.043018
#
#
# Mechanical properties :
#
#
# Convention : Reuss Voigt Hill
#
# Bulk Modulus (GPa) = 33.70080 40.92108 37.31094
# Shear Modulus (GPa) = 21.72663 42.83619 32.28141
#
# Velocity S-wave (km/s) = 2.80310 3.93594 3.41680
# Velocity P-wave (km/s) = 4.76071 5.95437 5.39068
#
# Compressibility (1/GPa) = 0.02967289
#
# Stress axis : x y z
#
# Youngs Moduli (GPa) = 136.99493 55.14203 154.94951
#
# Poissons Ratio (x) = -0.02309 -0.01385
# Poissons Ratio (y) = -0.05736 0.25036
# Poissons Ratio (z) = -0.01224 0.08910
#
# Static dielectric constant tensor:
#      x y z
#    x 2.017990 0.000000 0.000000 
#    y 0.000000 2.514250 0.000000 
#    z 0.000000 0.000000 2.411920 
# 
# From -- ./inp_files/2266.got.cif
#   From: 2010.05.17/outbox.cif.g08.bks.cpg/sg31_2_cif.got.tgz:2266.got - 2010.06.03 17:08:30.
