data_PCOD9342563
_publ_section_title
;
Structure prediction by ZEFSAII (Michael W. Deem and Ramdas Pophale) SiO2 
 PCOD9342563
Probable space group: P N C 2
;
_chemical_formula_sum "Si O2"
_cell_formula_units_Z 20
_cell_length_a 4.922440
_cell_length_b 12.661045
_cell_length_c 16.002487
_cell_angle_alpha 90.000000
_cell_angle_beta 90.000000
_cell_angle_gamma 90.000000
_cell_volume 997.326747
_symmetry_space_group_name_H-M "P N C 2"
_symmetry_group_IT_number 30
_symmetry_cell_setting 'orthorhombic'
loop_
_space_group_symop_operation_xyz
x,y,z
-x,-y,z
-x,1/2+y,1/2+z
x,1/2-y,1/2+z
loop_
_atom_site_type_symbol
_atom_site_label
_atom_site_fract_x
_atom_site_fract_y
_atom_site_fract_z
Si Si1 0.239005 0.070078 0.008170
Si Si2 0.489989 0.373751 0.770307
Si Si3 0.536571 0.708081 0.951113
Si Si4 0.022045 0.622913 0.051118
Si Si5 0.004189 0.810921 0.167431
O O1 0.091153 0.116397 0.090190
O O2 0.500000 0.000000 0.030109
O O3 0.365601 0.170687 0.959925
O O4 0.000000 0.000000 0.965455
O O5 0.500000 0.500000 0.777069
O O6 0.557715 0.321358 0.858738
O O7 0.190593 0.338362 0.743880
O O8 0.693473 0.335319 0.697808
O O9 0.302133 0.671439 0.015190
O O10 0.800408 0.642772 0.979035
O O11 0.000000 0.500000 0.070689
O O12 0.962614 0.693460 0.132520
#
# Coordination Sequence:
#
# PCOD9342563 Si02
#       5
#     4   4   4   4   4
#     4  11  21  39  63  87 118 158 201 248 295 355
#     4  12  23  38  59  88 121 150 188 250 306 348
#     4  11  24  39  61  91 119 155 205 245 298 367
#     4  11  22  41  63  85 118 161 202 246 293 357
#     4  11  23  37  60  89 116 150 198 241 294 359
#
# _framework density 20.053609999999999
#
# number of rings (size 3 to 8) (size 9 to 14) (size 15 to 20)
#    0.000    0.800    0.000   11.400    0.000    0.000 
#    0.000    3.000    0.000    0.000    0.000    0.000 
#    0.000    0.000    0.000    0.000    0.000    0.000 
#
# Total GULP energy -111788.738862 kJ/mol
# GULP energy per Si atom -5589.436943 kJ/mol
# Density = 2.000797 g / cm^3
# Si number density = 20.053610 Si / 1000 Ang^3
#
#
#
# Elastic Constant Matrix: (Units=GPa)
#
#
# Indices 1 2 3 4 5 6 
#
# 1 92.1977 28.5049 -6.0585 0.0000 0.0000 0.0000
# 2 28.5049 163.9016 42.3219 0.0000 0.0000 0.0000
# 3 -6.0585 42.3219 65.2397 0.0000 0.0000 0.0000
# 4 0.0000 0.0000 0.0000 8.0749 0.0000 0.0000
# 5 0.0000 0.0000 0.0000 0.0000 16.4082 0.0000
# 6 0.0000 0.0000 0.0000 0.0000 0.0000 22.9447
#
#
#
# Elastic Compliance Matrix: (Units=1/GPa)
#
#
# Indices 1 2 3 4 5 6 
#
# 1 0.011915 -0.002832 0.002944 0.000000 0.000000 0.000000
# 2 -0.002832 0.008002 -0.005454 0.000000 0.000000 0.000000
# 3 0.002944 -0.005454 0.019140 0.000000 0.000000 0.000000
# 4 0.000000 0.000000 0.000000 0.123841 0.000000 0.000000
# 5 0.000000 0.000000 0.000000 0.000000 0.060945 0.000000
# 6 0.000000 0.000000 0.000000 0.000000 0.000000 0.043583
#
#
# Mechanical properties :
#
#
# Convention : Reuss Voigt Hill
#
# Bulk Modulus (GPa) = 35.24598 50.09727 42.67162
# Shear Modulus (GPa) = 17.38713 26.59026 21.98869
#
# Velocity S-wave (km/s) = 2.94774 3.64532 3.31493
# Velocity P-wave (km/s) = 5.40366 6.53863 5.99805
#
# Compressibility (1/GPa) = 0.02837203
#
# Stress axis : x y z
#
# Youngs Moduli (GPa) = 83.92478 124.96606 52.24749
#
# Poissons Ratio (x) = 0.35396 -0.15382
# Poissons Ratio (y) = 0.23771 0.28497
# Poissons Ratio (z) = -0.24707 0.68158
#
# Static dielectric constant tensor:
#      x y z
#    x 1.728360 0.000000 0.000000 
#    y 0.000000 1.770260 0.000000 
#    z 0.000000 0.000000 1.691620 
# 
# From -- ./inp_files/4618.got.cif
#   From: 2010.05.17/outbox.cif.g08.bks.cpg/sg30_3_cif.got.tgz:4618.got - 2010.06.03 17:03:02.
