data_PCOD9342321
_publ_section_title
;
Structure prediction by ZEFSAII (Michael W. Deem and Ramdas Pophale) SiO2 
 PCOD9342321
Probable space group: P N C 2
;
_chemical_formula_sum "Si O2"
_cell_formula_units_Z 20
_cell_length_a 5.131966
_cell_length_b 16.901366
_cell_length_c 8.982164
_cell_angle_alpha 90.000000
_cell_angle_beta 90.000000
_cell_angle_gamma 90.000000
_cell_volume 779.088076
_symmetry_space_group_name_H-M "P N C 2"
_symmetry_group_IT_number 30
_symmetry_cell_setting 'orthorhombic'
loop_
_space_group_symop_operation_xyz
x,y,z
-x,-y,z
-x,1/2+y,1/2+z
x,1/2-y,1/2+z
loop_
_atom_site_type_symbol
_atom_site_label
_atom_site_fract_x
_atom_site_fract_y
_atom_site_fract_z
Si Si1 0.500000 0.000000 0.539810
Si Si2 0.474569 0.203927 0.215481
Si Si3 0.829256 0.165331 0.764996
Si Si4 0.261287 0.949296 0.245854
Si Si5 0.867094 0.729181 0.985785
Si Si6 0.000000 0.500000 0.232067
O O1 0.661997 0.053227 0.421908
O O2 0.741330 0.971775 0.640616
O O3 0.708940 0.141609 0.197595
O O4 0.306496 0.184021 0.362587
O O5 0.550338 0.296941 0.227485
O O6 0.302743 0.204145 0.068457
O O7 0.921327 0.225513 0.889733
O O8 0.991799 0.179825 0.613586
O O9 0.880443 0.076236 0.813804
O O10 0.500000 0.000000 0.177088
O O11 0.000000 0.000000 0.226848
#
# Coordination Sequence:
#
# PCOD9342321 Si02
#       6
#     2   4   4   4   4   2
#     4  10  22  40  68 102 140 180 238 302 350 430
#     4  11  24  44  70 100 140 188 237 296 366 432
#     4  11  26  45  74 103 144 190 245 298 366 439
#     4  10  23  39  67 103 138 178 236 299 352 424
#     4  10  25  44  70 102 140 188 234 299 362 429
#     4  12  26  42  72 106 142 190 246 304 360 434
#
# _framework density 25.671040000000001
#
# number of rings (size 3 to 8) (size 9 to 14) (size 15 to 20)
#    0.600    0.800    1.000    2.400   16.800    0.000 
#    0.000    4.000    0.000    0.000    0.000    0.000 
#    0.000    0.000    0.000    0.000    0.000    0.000 
#
# Total GULP energy -111665.072442 kJ/mol
# GULP energy per Si atom -5583.253622 kJ/mol
# Density = 2.561261 g / cm^3
# Si number density = 25.671040 Si / 1000 Ang^3
#
#
#
# Elastic Constant Matrix: (Units=GPa)
#
#
# Indices 1 2 3 4 5 6 
#
# 1 109.3029 -2.9973 17.2091 0.0000 0.0000 0.0000
# 2 -2.9973 89.4403 -2.3411 0.0000 0.0000 0.0000
# 3 17.2091 -2.3411 51.1080 0.0000 0.0000 0.0000
# 4 0.0000 0.0000 0.0000 15.6047 0.0000 0.0000
# 5 0.0000 0.0000 0.0000 0.0000 20.0099 0.0000
# 6 0.0000 0.0000 0.0000 0.0000 0.0000 33.2996
#
#
#
# Elastic Compliance Matrix: (Units=1/GPa)
#
#
# Indices 1 2 3 4 5 6 
#
# 1 0.009666 0.000239 -0.003244 0.000000 0.000000 0.000000
# 2 0.000239 0.011200 0.000433 0.000000 0.000000 0.000000
# 3 -0.003244 0.000433 0.020678 0.000000 0.000000 0.000000
# 4 0.000000 0.000000 0.000000 0.064083 0.000000 0.000000
# 5 0.000000 0.000000 0.000000 0.000000 0.049975 0.000000
# 6 0.000000 0.000000 0.000000 0.000000 0.000000 0.030030
#
#
# Mechanical properties :
#
#
# Convention : Reuss Voigt Hill
#
# Bulk Modulus (GPa) = 27.47246 30.39917 28.93582
# Shear Modulus (GPa) = 24.64127 29.64819 27.14473
#
# Velocity S-wave (km/s) = 3.10156 3.40211 3.25531
# Velocity P-wave (km/s) = 4.85296 5.22494 5.04238
#
# Compressibility (1/GPa) = 0.03640009
#
# Stress axis : x y z
#
# Youngs Moduli (GPa) = 103.45361 89.28594 48.35944
#
# Poissons Ratio (x) = -0.02134 0.15687
# Poissons Ratio (y) = -0.02473 -0.02092
# Poissons Ratio (z) = 0.33559 -0.03862
#
# Static dielectric constant tensor:
#      x y z
#    x 2.027640 0.000000 0.000000 
#    y 0.000000 2.067540 0.000000 
#    z 0.000000 0.000000 1.995970 
# 
# From -- ./inp_files/1335.got.cif
#   From: 2010.05.17/outbox.cif.g08.bks.cpg/sg30_1_cif.got.tgz:1335.got - 2010.06.03 17:03:02.
