data_PCOD9342498
_publ_section_title
;
Structure prediction by ZEFSAII (Michael W. Deem and Ramdas Pophale) SiO2 
 PCOD9342498
Probable space group: P N C 2
;
_chemical_formula_sum "Si O2"
_cell_formula_units_Z 32
_cell_length_a 15.428734
_cell_length_b 10.696189
_cell_length_c 9.284834
_cell_angle_alpha 90.000000
_cell_angle_beta 90.000000
_cell_angle_gamma 90.000000
_cell_volume 1532.263666
_symmetry_space_group_name_H-M "P N C 2"
_symmetry_group_IT_number 30
_symmetry_cell_setting 'orthorhombic'
loop_
_space_group_symop_operation_xyz
x,y,z
-x,-y,z
-x,1/2+y,1/2+z
x,1/2-y,1/2+z
loop_
_atom_site_type_symbol
_atom_site_label
_atom_site_fract_x
_atom_site_fract_y
_atom_site_fract_z
Si Si1 0.101130 0.022414 0.299880
Si Si2 0.802696 0.785032 0.783182
Si Si3 0.505296 0.355464 0.552512
Si Si4 0.242686 0.899974 0.115253
Si Si5 0.248283 0.659201 0.281817
Si Si6 0.433341 0.613040 0.231403
Si Si7 0.690017 0.841471 0.057701
Si Si8 0.896524 0.014189 0.630871
O O1 0.134576 0.165395 0.299732
O O2 0.152091 0.952666 0.173870
O O3 0.121764 0.973910 0.460744
O O4 0.000000 0.000000 0.278211
O O5 0.721279 0.745485 0.686385
O O6 0.854296 0.891287 0.700000
O O7 0.762440 0.829559 0.933638
O O8 0.500000 0.500000 0.611171
O O9 0.556044 0.364232 0.402334
O O10 0.542463 0.242010 0.649031
O O11 0.407084 0.316244 0.511358
O O12 0.270469 0.796959 0.228757
O O13 0.305903 0.017462 0.114390
O O14 0.239590 0.850943 0.952778
O O15 0.330449 0.579898 0.219966
O O16 0.156280 0.622811 0.211436
O O17 0.500000 0.500000 0.192624
O O18 0.000000 0.000000 0.649780
#
# Coordination Sequence:
#
# PCOD9342498 Si02
#       8
#     4   4   4   4   4   4   4   4
#     4  10  24  44  65  97 136 168 224 283 336 402
#     4  11  22  41  68  96 129 176 224 277 337 404
#     4  11  24  42  67  98 137 176 225 282 339 411
#     4  11  24  42  66  95 128 183 219 277 344 405
#     4  12  24  44  67  93 140 176 226 276 342 405
#     4  11  25  42  67 100 135 177 225 282 339 407
#     4  11  22  42  68  95 131 175 226 278 340 401
#     4  11  25  43  66  98 132 177 223 279 336 403
#
# _framework density 20.884132999999999
#
# number of rings (size 3 to 8) (size 9 to 14) (size 15 to 20)
#    0.000    1.000    2.500    4.500    3.500    1.000 
#    0.000    2.500    0.000    0.000    0.000    0.000 
#    0.000    0.000    0.000    0.000    0.000    0.000 
#
# Total GULP energy -178733.422284 kJ/mol
# GULP energy per Si atom -5585.419446 kJ/mol
# Density = 2.083660 g / cm^3
# Si number density = 20.884133 Si / 1000 Ang^3
#
#
#
# Elastic Constant Matrix: (Units=GPa)
#
#
# Indices 1 2 3 4 5 6 
#
# 1 113.0750 20.1045 26.4702 0.0000 0.0000 0.0000
# 2 20.1045 99.5995 30.6989 0.0000 0.0000 0.0000
# 3 26.4702 30.6989 60.0036 0.0000 0.0000 0.0000
# 4 0.0000 0.0000 0.0000 36.1516 0.0000 0.0000
# 5 0.0000 0.0000 0.0000 0.0000 22.1383 0.0000
# 6 0.0000 0.0000 0.0000 0.0000 0.0000 6.4777
#
#
#
# Elastic Compliance Matrix: (Units=1/GPa)
#
#
# Indices 1 2 3 4 5 6 
#
# 1 0.009912 -0.000775 -0.003976 0.000000 0.000000 0.000000
# 2 -0.000775 0.011981 -0.005787 0.000000 0.000000 0.000000
# 3 -0.003976 -0.005787 0.021381 0.000000 0.000000 0.000000
# 4 0.000000 0.000000 0.000000 0.027661 0.000000 0.000000
# 5 0.000000 0.000000 0.000000 0.000000 0.045171 0.000000
# 6 0.000000 0.000000 0.000000 0.000000 0.000000 0.154375
#
#
# Mechanical properties :
#
#
# Convention : Reuss Voigt Hill
#
# Bulk Modulus (GPa) = 45.05351 47.46949 46.26150
# Shear Modulus (GPa) = 16.72484 25.98049 21.35266
#
# Velocity S-wave (km/s) = 2.83298 3.53091 3.20102
# Velocity P-wave (km/s) = 5.68515 6.27713 5.98846
#
# Compressibility (1/GPa) = 0.02219583
#
# Stress axis : x y z
#
# Youngs Moduli (GPa) = 100.88458 83.46873 46.77125
#
# Poissons Ratio (x) = 0.06471 0.18597
# Poissons Ratio (y) = 0.07822 0.27069
# Poissons Ratio (z) = 0.40113 0.48307
#
# Static dielectric constant tensor:
#      x y z
#    x 1.808340 0.000000 0.000000 
#    y 0.000000 1.764630 0.000000 
#    z 0.000000 0.000000 1.710260 
# 
# From -- ./inp_files/2696.got.cif
#   From: 2010.05.17/outbox.cif.g08.bks.cpg/sg30_2_cif.got.tgz:2696.got - 2010.06.03 17:03:02.
