data_PCOD9342732
_publ_section_title
;
Structure prediction by ZEFSAII (Michael W. Deem and Ramdas Pophale) SiO2 
 PCOD9342732
Probable space group: P M N 21
;
_chemical_formula_sum "Si O2"
_cell_formula_units_Z 32
_cell_length_a 8.674806
_cell_length_b 21.382715
_cell_length_c 10.006738
_cell_angle_alpha 90.000000
_cell_angle_beta 90.000000
_cell_angle_gamma 90.000000
_cell_volume 1856.158881
_symmetry_space_group_name_H-M "P M N 21"
_symmetry_group_IT_number 31
_symmetry_cell_setting 'orthorhombic'
loop_
_space_group_symop_operation_xyz
x,y,z
1/2-x,-y,1/2+z
-x,y,z
1/2+x,-y,1/2+z
loop_
_atom_site_type_symbol
_atom_site_label
_atom_site_fract_x
_atom_site_fract_y
_atom_site_fract_z
Si Si1 0.816527 0.564172 0.146280
Si Si2 0.679078 0.639434 0.921586
Si Si3 0.814377 0.139073 0.547606
Si Si4 0.814629 0.138986 0.131424
Si Si5 0.187222 0.103188 0.838649
Si Si6 0.182032 0.765939 0.835652
Si Si7 0.185698 0.958010 0.842435
Si Si8 0.181810 0.500277 0.409209
O O1 0.765010 0.547986 0.295945
O O2 0.000000 0.572221 0.146261
O O3 0.736993 0.622525 0.071717
O O4 0.772577 0.506346 0.047781
O O5 0.500000 0.657031 0.923837
O O6 0.774729 0.693853 0.853834
O O7 0.694690 0.571123 0.853213
O O8 0.763630 0.135947 0.701484
O O9 0.746341 0.196657 0.464288
O O10 0.756074 0.077198 0.470556
O O11 0.000000 0.141203 0.540650
O O12 0.759282 0.200871 0.208130
O O13 0.745453 0.080959 0.215095
O O14 0.000000 0.135287 0.138128
O O15 0.764050 0.134335 0.977635
O O16 0.000000 0.103768 0.837912
O O17 0.233076 0.030272 0.836977
O O18 0.000000 0.774866 0.827734
O O19 0.000000 0.954380 0.847806
O O20 0.000000 0.510462 0.436390
#
# Coordination Sequence:
#
# PCOD9342732 Si02
#       8
#     4   4   4   4   4   4   4   4
#     4   9  16  29  50  77 106 134 162 199 239 278
#     4   9  18  33  53  76 100 132 167 202 237 287
#     4  10  19  33  51  71  95 129 164 201 245 295
#     4  10  19  33  51  71  95 129 163 202 246 293
#     4   9  19  32  49  71  98 125 159 202 250 296
#     4  11  21  35  52  73  95 125 168 208 241 289
#     4  10  18  31  48  73 100 125 159 201 242 298
#     4   8  17  30  48  76 107 133 164 197 236 284
#
# _framework density 17.239903999999999
#
# number of rings (size 3 to 8) (size 9 to 14) (size 15 to 20)
#    0.750    1.750    0.000    4.875    0.000    1.000 
#    0.000    6.250    2.750    0.000    0.000    0.000 
#    0.000    0.000    0.000    0.000    0.000    0.000 
#
# Total GULP energy -178176.220416 kJ/mol
# GULP energy per Si atom -5568.006888 kJ/mol
# Density = 1.720067 g / cm^3
# Si number density = 17.239904 Si / 1000 Ang^3
#
#
#
# Elastic Constant Matrix: (Units=GPa)
#
#
# Indices 1 2 3 4 5 6 
#
# 1 54.0653 5.8295 12.0415 0.0000 0.0000 0.0000
# 2 5.8295 16.8815 -4.3054 0.0000 0.0000 0.0000
# 3 12.0415 -4.3054 87.8748 0.0000 0.0000 0.0000
# 4 0.0000 0.0000 0.0000 2.6651 0.0000 0.0000
# 5 0.0000 0.0000 0.0000 0.0000 17.2485 0.0000
# 6 0.0000 0.0000 0.0000 0.0000 0.0000 22.5040
#
#
#
# Elastic Compliance Matrix: (Units=1/GPa)
#
#
# Indices 1 2 3 4 5 6 
#
# 1 0.020023 -0.007710 -0.003121 0.000000 0.000000 0.000000
# 2 -0.007710 0.062955 0.004141 0.000000 0.000000 0.000000
# 3 -0.003121 0.004141 0.012010 0.000000 0.000000 0.000000
# 4 0.000000 0.000000 0.000000 0.375223 0.000000 0.000000
# 5 0.000000 0.000000 0.000000 0.000000 0.057976 0.000000
# 6 0.000000 0.000000 0.000000 0.000000 0.000000 0.044437
#
#
# Mechanical properties :
#
#
# Convention : Reuss Voigt Hill
#
# Bulk Modulus (GPa) = 12.25391 20.66143 16.45767
# Shear Modulus (GPa) = 8.15384 18.16723 13.16054
#
# Velocity S-wave (km/s) = 2.17713 3.24973 2.76592
# Velocity P-wave (km/s) = 3.66649 5.10800 4.44606
#
# Compressibility (1/GPa) = 0.08160662
#
# Stress axis : x y z
#
# Youngs Moduli (GPa) = 49.94320 15.88434 83.26079
#
# Poissons Ratio (x) = 0.12247 0.25990
# Poissons Ratio (y) = 0.38508 -0.34478
# Poissons Ratio (z) = 0.15590 -0.06578
#
# Static dielectric constant tensor:
#      x y z
#    x 1.581010 0.000000 0.000000 
#    y 0.000000 1.581220 0.000000 
#    z 0.000000 0.000000 1.591950 
# 
# From -- ./inp_files/1887.got.cif
#   From: 2010.05.17/outbox.cif.g08.bks.cpg/sg31_1_cif.got.tgz:1887.got - 2010.06.03 17:08:30.
