data_PCOD9342470
_publ_section_title
;
Structure prediction by ZEFSAII (Michael W. Deem and Ramdas Pophale) SiO2 
 PCOD9342470
Probable space group: P N C 2
;
_chemical_formula_sum "Si O2"
_cell_formula_units_Z 14
_cell_length_a 5.103514
_cell_length_b 5.141697
_cell_length_c 22.506084
_cell_angle_alpha 90.000000
_cell_angle_beta 90.000000
_cell_angle_gamma 90.000000
_cell_volume 590.575908
_symmetry_space_group_name_H-M "P N C 2"
_symmetry_group_IT_number 30
_symmetry_cell_setting 'orthorhombic'
loop_
_space_group_symop_operation_xyz
x,y,z
-x,-y,z
-x,1/2+y,1/2+z
x,1/2-y,1/2+z
loop_
_atom_site_type_symbol
_atom_site_label
_atom_site_fract_x
_atom_site_fract_y
_atom_site_fract_z
Si Si1 0.500000 0.000000 0.535420
Si Si2 0.752536 0.308311 0.440403
Si Si3 0.000000 0.500000 0.704283
Si Si4 0.753588 0.323083 0.310618
Si Si5 0.500000 0.500000 0.620534
O O1 0.726336 0.082678 0.488934
O O2 0.505353 0.248345 0.578407
O O3 0.500000 0.500000 0.445449
O O4 0.731641 0.182758 0.374178
O O5 0.000000 0.500000 0.448907
O O6 0.159243 0.677187 0.751550
O O7 0.242361 0.440366 0.660471
O O8 0.500000 0.500000 0.299869
O O9 0.000000 0.500000 0.323091
#
# Coordination Sequence:
#
# PCOD9342470 Si02
#       5
#     2   4   2   4   2
#     4  12  28  55  74 115 152 210 252 324 368 472
#     4  10  24  46  77 114 149 194 251 325 396 457
#     4  12  28  50  70 114 146 212 250 322 362 476
#     4  10  23  45  76 110 148 191 251 325 396 454
#     4  12  32  47  82 103 160 210 264 294 386 452
#
# _framework density 23.705672
#
# number of rings (size 3 to 8) (size 9 to 14) (size 15 to 20)
#    0.000    1.143    1.429    1.714    8.000   11.429 
#    0.000    0.000    0.000    0.000    0.000    0.000 
#    0.000    0.000    0.000    0.000    0.000    0.000 
#
# Total GULP energy -78061.319659 kJ/mol
# GULP energy per Si atom -5575.808547 kJ/mol
# Density = 2.365172 g / cm^3
# Si number density = 23.705672 Si / 1000 Ang^3
#
#
#
# Elastic Constant Matrix: (Units=GPa)
#
#
# Indices 1 2 3 4 5 6 
#
# 1 216.8700 48.7611 67.0295 0.0000 0.0000 0.0000
# 2 48.7611 112.6804 77.2574 0.0000 0.0000 0.0000
# 3 67.0295 77.2574 224.4588 0.0000 0.0000 0.0000
# 4 0.0000 0.0000 0.0000 -36.2258 0.0000 0.0000
# 5 0.0000 0.0000 0.0000 0.0000 19.7210 0.0000
# 6 0.0000 0.0000 0.0000 0.0000 0.0000 48.3440
#
#
#
# Elastic Compliance Matrix: (Units=1/GPa)
#
#
# Indices 1 2 3 4 5 6 
#
# 1 0.005286 -0.001577 -0.001036 0.000000 0.000000 0.000000
# 2 -0.001577 0.012087 -0.003689 0.000000 0.000000 0.000000
# 3 -0.001036 -0.003689 0.006034 0.000000 0.000000 0.000000
# 4 0.000000 0.000000 0.000000 -0.027605 0.000000 0.000000
# 5 0.000000 0.000000 0.000000 0.000000 0.050707 0.000000
# 6 0.000000 0.000000 0.000000 0.000000 0.000000 0.020685
#
#
# Mechanical properties :
#
#
# Convention : Reuss Voigt Hill
#
# Bulk Modulus (GPa) = 92.57078 104.45611 98.51345
# Shear Modulus (GPa) = 59.95264 30.43193 45.19228
#
# Velocity S-wave (km/s) = 5.03441 3.58682 4.37096
# Velocity P-wave (km/s) = 8.53982 7.83027 8.19273
#
# Compressibility (1/GPa) = 0.01080254
#
# Stress axis : x y z
#
# Youngs Moduli (GPa) = 189.18697 82.73626 165.72276
#
# Poissons Ratio (x) = 0.13050 0.17162
# Poissons Ratio (y) = 0.29841 0.61137
# Poissons Ratio (z) = 0.19592 0.30522
#
# Static dielectric constant tensor:
#      x y z
#    x 1.919790 0.000000 0.000000 
#    y 0.000000 1.987920 0.000000 
#    z 0.000000 0.000000 2.042060 
# 
# From -- ./inp_files/6701.got.cif
#   From: 2010.05.17/outbox.cif.g08.bks.cpg/sg30_4_cif.got.tgz:6701.got - 2010.06.03 17:03:02.
