data_PCOD9342293
_publ_section_title
;
Structure prediction by ZEFSAII (Michael W. Deem and Ramdas Pophale) SiO2 
 PCOD9342293
Probable space group: P N C 2
;
_chemical_formula_sum "Si O2"
_cell_formula_units_Z 28
_cell_length_a 13.398069
_cell_length_b 5.209472
_cell_length_c 18.355327
_cell_angle_alpha 90.000000
_cell_angle_beta 90.000000
_cell_angle_gamma 90.000000
_cell_volume 1281.144286
_symmetry_space_group_name_H-M "P N C 2"
_symmetry_group_IT_number 30
_symmetry_cell_setting 'orthorhombic'
loop_
_space_group_symop_operation_xyz
x,y,z
-x,-y,z
-x,1/2+y,1/2+z
x,1/2-y,1/2+z
loop_
_atom_site_type_symbol
_atom_site_label
_atom_site_fract_x
_atom_site_fract_y
_atom_site_fract_z
Si Si1 0.606227 0.140474 0.968080
Si Si2 0.000000 0.500000 0.801779
Si Si3 0.893968 0.519195 0.143922
Si Si4 0.000000 0.000000 0.903155
Si Si5 0.213616 0.403169 0.743589
Si Si6 0.701827 0.873504 0.404180
Si Si7 0.270765 0.874235 0.103598
Si Si8 0.148990 0.276473 0.508310
O O1 0.622460 0.403385 0.922692
O O2 0.500000 0.000000 0.973723
O O3 0.669195 0.914318 0.927347
O O4 0.643255 0.220924 0.049859
O O5 0.995676 0.749109 0.853313
O O6 0.897025 0.475795 0.756155
O O7 0.817534 0.645058 0.201255
O O8 0.830227 0.292476 0.108050
O O9 0.000000 0.500000 0.183285
O O10 0.923310 0.687968 0.072637
O O11 0.904807 0.979282 0.956433
O O12 0.265042 0.373113 0.820816
O O13 0.285379 0.554727 0.687666
O O14 0.800309 0.926847 0.453898
O O15 0.238517 0.126682 0.059421
#
# Coordination Sequence:
#
# PCOD9342293 Si02
#       8
#     4   2   4   2   4   4   4   4
#     4  11  25  49  76 105 129 173 232 300 364 428
#     4  12  28  39  60  99 144 196 236 278 332 401
#     4  11  22  38  63  95 142 193 239 280 333 413
#     4  12  26  37  62  95 140 190 242 294 316 393
#     4  11  26  41  62 101 142 190 227 277 340 414
#     4  11  24  43  73  99 139 177 227 290 355 417
#     4  10  23  41  69  94 138 179 228 288 354 410
#     4  10  22  38  59  98 130 186 242 286 342 396
#
# _framework density 21.855459
#
# number of rings (size 3 to 8) (size 9 to 14) (size 15 to 20)
#    0.000    1.143    2.857    2.143   12.000    2.286 
#    0.000    1.429    0.000    0.000    0.000    0.000 
#    0.000    0.000    0.000    0.000    0.000    0.000 
#
# Total GULP energy -156007.912821 kJ/mol
# GULP energy per Si atom -5571.711172 kJ/mol
# Density = 2.180572 g / cm^3
# Si number density = 21.855459 Si / 1000 Ang^3
#
#
#
# Elastic Constant Matrix: (Units=GPa)
#
#
# Indices 1 2 3 4 5 6 
#
# 1 65.1896 3.7516 38.8023 0.0000 0.0000 0.0000
# 2 3.7516 78.8345 35.3574 0.0000 0.0000 0.0000
# 3 38.8023 35.3574 178.7420 0.0000 0.0000 0.0000
# 4 0.0000 0.0000 0.0000 21.3545 0.0000 0.0000
# 5 0.0000 0.0000 0.0000 0.0000 16.6396 0.0000
# 6 0.0000 0.0000 0.0000 0.0000 0.0000 32.9047
#
#
#
# Elastic Compliance Matrix: (Units=1/GPa)
#
#
# Indices 1 2 3 4 5 6 
#
# 1 0.017683 0.000966 -0.004030 0.000000 0.000000 0.000000
# 2 0.000966 0.013973 -0.002974 0.000000 0.000000 0.000000
# 3 -0.004030 -0.002974 0.007058 0.000000 0.000000 0.000000
# 4 0.000000 0.000000 0.000000 0.046829 0.000000 0.000000
# 5 0.000000 0.000000 0.000000 0.000000 0.060098 0.000000
# 6 0.000000 0.000000 0.000000 0.000000 0.000000 0.030391
#
#
# Mechanical properties :
#
#
# Convention : Reuss Voigt Hill
#
# Bulk Modulus (GPa) = 37.54027 53.17652 45.35840
# Shear Modulus (GPa) = 25.38273 30.50342 27.94308
#
# Velocity S-wave (km/s) = 3.41162 3.73994 3.57955
# Velocity P-wave (km/s) = 5.72125 6.55999 6.15492
#
# Compressibility (1/GPa) = 0.02663806
#
# Stress axis : x y z
#
# Youngs Moduli (GPa) = 56.55182 71.56908 141.68968
#
# Poissons Ratio (x) = -0.06913 0.57098
# Poissons Ratio (y) = -0.05462 0.42133
# Poissons Ratio (z) = 0.22789 0.21282
#
# Static dielectric constant tensor:
#      x y z
#    x 1.910260 0.000000 0.000000 
#    y 0.000000 1.910310 0.000000 
#    z 0.000000 0.000000 1.816840 
# 
# From -- ./inp_files/6594.got.cif
#   From: 2010.05.17/outbox.cif.g08.bks.cpg/sg30_4_cif.got.tgz:6594.got - 2010.06.03 17:03:02.
