data_PCOD9342709
_publ_section_title
;
Structure prediction by ZEFSAII (Michael W. Deem and Ramdas Pophale) SiO2 
 PCOD9342709
Probable space group: P M N 21
;
_chemical_formula_sum "Si O2"
_cell_formula_units_Z 24
_cell_length_a 8.167505
_cell_length_b 9.513983
_cell_length_c 16.935030
_cell_angle_alpha 90.000000
_cell_angle_beta 90.000000
_cell_angle_gamma 90.000000
_cell_volume 1315.945037
_symmetry_space_group_name_H-M "P M N 21"
_symmetry_group_IT_number 31
_symmetry_cell_setting 'orthorhombic'
loop_
_space_group_symop_operation_xyz
x,y,z
1/2-x,-y,1/2+z
-x,y,z
1/2+x,-y,1/2+z
loop_
_atom_site_type_symbol
_atom_site_label
_atom_site_fract_x
_atom_site_fract_y
_atom_site_fract_z
Si Si1 0.301778 0.832280 0.080800
Si Si2 0.189592 0.072003 0.178952
Si Si3 0.808063 0.191470 0.406186
Si Si4 0.700114 0.662708 0.237052
Si Si5 0.811142 0.079638 0.831292
Si Si6 0.193238 0.657237 0.749248
O O1 0.500000 0.838768 0.080301
O O2 0.250487 0.731871 0.153392
O O3 0.233811 0.987419 0.100436
O O4 0.248219 0.780564 0.994765
O O5 0.223665 0.236798 0.187024
O O6 0.000000 0.046659 0.198964
O O7 0.300395 0.000155 0.246664
O O8 0.722557 0.277632 0.336256
O O9 0.000000 0.223792 0.400929
O O10 0.783383 0.025334 0.388628
O O11 0.500000 0.665380 0.238841
O O12 0.753188 0.765957 0.308368
O O13 0.754179 0.502511 0.245029
O O14 0.000000 0.087850 0.856474
O O15 0.000000 0.656990 0.733277
#
# Coordination Sequence:
#
# PCOD9342709 Si02
#       6
#     4   4   4   4   4   4
#     4   9  18  34  52  69  93 126 163 202 243 285
#     4  10  18  29  47  71  95 119 155 196 233 278
#     4  10  19  31  49  73  98 123 158 203 245 285
#     4   8  16  31  51  71  91 125 166 196 229 283
#     4   9  16  30  50  69  93 124 158 192 230 280
#     4  10  18  31  51  71  96 129 162 193 234 291
#
# _framework density 18.237843999999999
#
# number of rings (size 3 to 8) (size 9 to 14) (size 15 to 20)
#    0.000    2.667    0.000    6.000    0.000    1.333 
#    0.000   10.000    0.000    6.000    0.000    0.000 
#    0.000    0.000    0.000    0.000    0.000    0.000 
#
# Total GULP energy -133666.519701 kJ/mol
# GULP energy per Si atom -5569.438321 kJ/mol
# Density = 1.819633 g / cm^3
# Si number density = 18.237844 Si / 1000 Ang^3
#
#
#
# Elastic Constant Matrix: (Units=GPa)
#
#
# Indices 1 2 3 4 5 6 
#
# 1 27.8844 3.3020 1.7170 0.0000 0.0000 0.0000
# 2 3.3020 134.3876 28.7240 0.0000 0.0000 0.0000
# 3 1.7170 28.7240 64.6081 0.0000 0.0000 0.0000
# 4 0.0000 0.0000 0.0000 16.4663 0.0000 0.0000
# 5 0.0000 0.0000 0.0000 0.0000 15.3564 0.0000
# 6 0.0000 0.0000 0.0000 0.0000 0.0000 14.4594
#
#
#
# Elastic Compliance Matrix: (Units=1/GPa)
#
#
# Indices 1 2 3 4 5 6 
#
# 1 0.035990 -0.000751 -0.000622 0.000000 0.000000 0.000000
# 2 -0.000751 0.008238 -0.003643 0.000000 0.000000 0.000000
# 3 -0.000622 -0.003643 0.017114 0.000000 0.000000 0.000000
# 4 0.000000 0.000000 0.000000 0.060730 0.000000 0.000000
# 5 0.000000 0.000000 0.000000 0.000000 0.065119 0.000000
# 6 0.000000 0.000000 0.000000 0.000000 0.000000 0.069159
#
#
# Mechanical properties :
#
#
# Convention : Reuss Voigt Hill
#
# Bulk Modulus (GPa) = 19.48969 32.70733 26.09851
# Shear Modulus (GPa) = 17.63752 22.13221 19.88487
#
# Velocity S-wave (km/s) = 3.11317 3.48736 3.30556
# Velocity P-wave (km/s) = 4.86128 5.84707 5.37682
#
# Compressibility (1/GPa) = 0.05130917
#
# Stress axis : x y z
#
# Youngs Moduli (GPa) = 27.78574 121.38580 58.43188
#
# Poissons Ratio (x) = 0.09119 0.03637
# Poissons Ratio (y) = 0.02087 0.21285
# Poissons Ratio (z) = 0.01730 0.44216
#
# Static dielectric constant tensor:
#      x y z
#    x 1.626630 0.000000 0.000000 
#    y 0.000000 1.661740 0.000000 
#    z 0.000000 0.000000 1.638830 
# 
# From -- ./inp_files/5711.got.cif
#   From: 2010.05.17/outbox.cif.g08.bks.cpg/sg31_3_cif.got.tgz:5711.got - 2010.06.03 17:08:30.
