data_PCOD9342412
_publ_section_title
;
Structure prediction by ZEFSAII (Michael W. Deem and Ramdas Pophale) SiO2 
 PCOD9342412
Probable space group: P N C 2
;
_chemical_formula_sum "Si O2"
_cell_formula_units_Z 28
_cell_length_a 5.240829
_cell_length_b 22.794521
_cell_length_c 9.409404
_cell_angle_alpha 90.000000
_cell_angle_beta 90.000000
_cell_angle_gamma 90.000000
_cell_volume 1124.067977
_symmetry_space_group_name_H-M "P N C 2"
_symmetry_group_IT_number 30
_symmetry_cell_setting 'orthorhombic'
loop_
_space_group_symop_operation_xyz
x,y,z
-x,-y,z
-x,1/2+y,1/2+z
x,1/2-y,1/2+z
loop_
_atom_site_type_symbol
_atom_site_label
_atom_site_fract_x
_atom_site_fract_y
_atom_site_fract_z
Si Si1 0.044448 0.826327 0.667990
Si Si2 0.457717 0.673766 0.502878
Si Si3 0.832290 0.920046 0.865284
Si Si4 0.122273 0.092553 0.435153
Si Si5 0.547205 0.761066 0.734055
Si Si6 0.108640 0.918828 0.139063
Si Si7 0.500000 0.000000 0.313716
Si Si8 0.000000 0.500000 0.140453
O O1 0.037419 0.880542 0.778619
O O2 0.897242 0.848719 0.526493
O O3 0.840359 0.781423 0.732672
O O4 0.327573 0.800637 0.654265
O O5 0.612523 0.624902 0.412217
O O6 0.559354 0.700085 0.650852
O O7 0.445764 0.728603 0.394455
O O8 0.220155 0.637878 0.560700
O O9 0.793498 0.971918 0.749923
O O10 0.929617 0.943037 0.015164
O O11 0.365829 0.050178 0.410637
O O12 0.932955 0.051313 0.529021
O O13 0.037828 0.103138 0.276571
O O14 0.306521 0.964974 0.208675
#
# Coordination Sequence:
#
# PCOD9342412 Si02
#       8
#     4   4   4   4   4   4   2   2
#     4  10  25  48  76 111 150 193 260 310 387 445
#     4  11  27  46  74 109 149 198 260 312 396 453
#     4  10  24  46  70 104 147 196 245 320 372 470
#     4  11  25  45  73 107 146 199 251 312 377 474
#     4  11  26  48  76 111 149 202 252 325 381 456
#     4  12  25  45  69 107 150 187 251 309 382 463
#     4  12  26  44  72 110 150 202 250 312 386 460
#     4  10  22  46  70  98 148 188 246 306 382 450
#
# _framework density 24.909524000000001
#
# number of rings (size 3 to 8) (size 9 to 14) (size 15 to 20)
#    0.000    1.143    2.857    0.857   10.000    1.143 
#    2.571    0.000    0.000    0.000    0.000    0.000 
#    0.000    0.000    0.000    0.000    0.000    0.000 
#
# Total GULP energy -155996.213834 kJ/mol
# GULP energy per Si atom -5571.293351 kJ/mol
# Density = 2.485283 g / cm^3
# Si number density = 24.909524 Si / 1000 Ang^3
#
#
#
# Elastic Constant Matrix: (Units=GPa)
#
#
# Indices 1 2 3 4 5 6 
#
# 1 71.1344 16.5148 35.0995 0.0000 0.0000 0.0000
# 2 16.5148 31.9959 41.5031 0.0000 0.0000 0.0000
# 3 35.0995 41.5031 189.5632 0.0000 0.0000 0.0000
# 4 0.0000 0.0000 0.0000 -3.9836 0.0000 0.0000
# 5 0.0000 0.0000 0.0000 0.0000 20.0120 0.0000
# 6 0.0000 0.0000 0.0000 0.0000 0.0000 24.1919
#
#
#
# Elastic Compliance Matrix: (Units=1/GPa)
#
#
# Indices 1 2 3 4 5 6 
#
# 1 0.016331 -0.006295 -0.001646 0.000000 0.000000 0.000000
# 2 -0.006295 0.046077 -0.008923 0.000000 0.000000 0.000000
# 3 -0.001646 -0.008923 0.007534 0.000000 0.000000 0.000000
# 4 0.000000 0.000000 0.000000 -0.251026 0.000000 0.000000
# 5 0.000000 0.000000 0.000000 0.000000 0.049970 0.000000
# 6 0.000000 0.000000 0.000000 0.000000 0.000000 0.041336
#
#
# Mechanical properties :
#
#
# Convention : Reuss Voigt Hill
#
# Bulk Modulus (GPa) = 27.61241 53.21425 40.41333
# Shear Modulus (GPa) = -113.68622 21.34913 -46.16854
#
# Velocity S-wave (km/s) = -6.76304 2.93075 -4.30984
# Velocity P-wave (km/s) = 7.06228 5.73252 2.91668
#
# Compressibility (1/GPa) = 0.03621561
#
# Stress axis : x y z
#
# Youngs Moduli (GPa) = 61.23191 21.70291 132.74009
#
# Poissons Ratio (x) = 0.13661 0.21846
# Poissons Ratio (y) = 0.38544 1.18438
# Poissons Ratio (z) = 0.10077 0.19365
#
# Static dielectric constant tensor:
#      x y z
#    x 2.017800 0.000000 0.000000 
#    y 0.000000 2.471070 0.000000 
#    z 0.000000 0.000000 1.983030 
# 
# From -- ./inp_files/1454.got.cif
#   From: 2010.05.17/outbox.cif.g08.bks.cpg/sg30_1_cif.got.tgz:1454.got - 2010.06.03 17:03:02.
