data_PCOD9342768
_publ_section_title
;
Structure prediction by ZEFSAII (Michael W. Deem and Ramdas Pophale) SiO2 
 PCOD9342768
Probable space group: P M N 21
;
_chemical_formula_sum "Si O2"
_cell_formula_units_Z 32
_cell_length_a 23.455042
_cell_length_b 11.137353
_cell_length_c 6.656382
_cell_angle_alpha 90.000000
_cell_angle_beta 90.000000
_cell_angle_gamma 90.000000
_cell_volume 1738.827249
_symmetry_space_group_name_H-M "P M N 21"
_symmetry_group_IT_number 31
_symmetry_cell_setting 'orthorhombic'
loop_
_space_group_symop_operation_xyz
x,y,z
1/2-x,-y,1/2+z
-x,y,z
1/2+x,-y,1/2+z
loop_
_atom_site_type_symbol
_atom_site_label
_atom_site_fract_x
_atom_site_fract_y
_atom_site_fract_z
Si Si1 0.136406 0.499612 0.598160
Si Si2 0.348139 0.839503 0.416544
Si Si3 0.703093 0.943685 0.811558
Si Si4 0.435275 0.636950 0.420203
Si Si5 0.166875 0.946381 0.684642
Si Si6 0.347362 0.296101 0.425463
Si Si7 0.066638 0.589332 0.217376
Si Si8 0.277955 0.713099 0.089331
O O1 0.090543 0.417320 0.715352
O O2 0.156382 0.596379 0.763256
O O3 0.104749 0.564664 0.414263
O O4 0.188171 0.409909 0.541252
O O5 0.327142 0.914438 0.605307
O O6 0.396531 0.748005 0.480026
O O7 0.299085 0.759026 0.307978
O O8 0.368924 0.939071 0.257368
O O9 0.768359 0.973837 0.759899
O O10 0.703889 0.820139 0.938622
O O11 0.673448 0.046495 0.944712
O O12 0.500000 0.672869 0.389776
O O13 0.432796 0.533820 0.588382
O O14 0.149219 0.825120 0.793947
O O15 0.401058 0.316899 0.571577
O O16 0.289552 0.298352 0.557651
O O17 0.000000 0.618678 0.259899
#
# Coordination Sequence:
#
# PCOD9342768 Si02
#       8
#     4   4   4   4   4   4   4   4
#     4  10  20  36  56  85 114 150 184 235 284 348
#     4  10  19  34  58  80 112 144 187 237 286 344
#     4  10  18  33  54  76 108 148 187 228 283 354
#     4   9  19  37  59  83 108 140 188 242 291 334
#     4  10  20  34  51  80 109 150 188 227 283 348
#     4  10  23  36  53  84 118 154 188 234 287 343
#     4  10  21  38  60  81 109 153 198 232 280 349
#     4   9  21  34  51  85 115 143 182 233 300 340
#
# _framework density 18.403207999999999
#
# number of rings (size 3 to 8) (size 9 to 14) (size 15 to 20)
#    0.000    2.250    1.250    1.125    1.750    3.500 
#    2.250    0.625    0.000    0.750    0.000    0.000 
#    0.000    0.000    0.000    0.000    0.000    0.000 
#
# Total GULP energy -178438.454586 kJ/mol
# GULP energy per Si atom -5576.201706 kJ/mol
# Density = 1.836132 g / cm^3
# Si number density = 18.403208 Si / 1000 Ang^3
#
#
#
# Elastic Constant Matrix: (Units=GPa)
#
#
# Indices 1 2 3 4 5 6 
#
# 1 77.9168 37.7939 28.1719 0.0000 0.0000 0.0000
# 2 37.7939 65.8054 17.1550 0.0000 0.0000 0.0000
# 3 28.1719 17.1550 76.9271 0.0000 0.0000 0.0000
# 4 0.0000 0.0000 0.0000 21.9414 0.0000 0.0000
# 5 0.0000 0.0000 0.0000 0.0000 16.4123 0.0000
# 6 0.0000 0.0000 0.0000 0.0000 0.0000 16.8498
#
#
#
# Elastic Compliance Matrix: (Units=1/GPa)
#
#
# Indices 1 2 3 4 5 6 
#
# 1 0.019388 -0.009857 -0.004902 0.000000 0.000000 0.000000
# 2 -0.009857 0.021146 -0.001106 0.000000 0.000000 0.000000
# 3 -0.004902 -0.001106 0.015041 0.000000 0.000000 0.000000
# 4 0.000000 0.000000 0.000000 0.045576 0.000000 0.000000
# 5 0.000000 0.000000 0.000000 0.000000 0.060930 0.000000
# 6 0.000000 0.000000 0.000000 0.000000 0.000000 0.059348
#
#
# Mechanical properties :
#
#
# Convention : Reuss Voigt Hill
#
# Bulk Modulus (GPa) = 41.93735 42.98786 42.46260
# Shear Modulus (GPa) = 19.14930 20.20928 19.67929
#
# Velocity S-wave (km/s) = 3.22924 3.31741 3.27362
# Velocity P-wave (km/s) = 6.06148 6.17116 6.11657
#
# Compressibility (1/GPa) = 0.02384509
#
# Stress axis : x y z
#
# Youngs Moduli (GPa) = 51.57891 47.29086 66.48461
#
# Poissons Ratio (x) = 0.46615 0.32590
# Poissons Ratio (y) = 0.50841 0.07352
# Poissons Ratio (z) = 0.25284 0.05229
#
# Static dielectric constant tensor:
#      x y z
#    x 1.625470 0.000000 0.000000 
#    y 0.000000 1.643180 0.000000 
#    z 0.000000 0.000000 1.660290 
# 
# From -- ./inp_files/1150.got.cif
#   From: 2010.05.17/outbox.cif.g08.bks.cpg/sg31_1_cif.got.tgz:1150.got - 2010.06.03 17:08:30.
