data_PCOD9342839
_publ_section_title
;
Structure prediction by ZEFSAII (Michael W. Deem and Ramdas Pophale) SiO2 
 PCOD9342839
Probable space group: P M N 21
;
_chemical_formula_sum "Si O2"
_cell_formula_units_Z 32
_cell_length_a 8.046719
_cell_length_b 6.966593
_cell_length_c 22.358780
_cell_angle_alpha 90.000000
_cell_angle_beta 90.000000
_cell_angle_gamma 90.000000
_cell_volume 1253.393325
_symmetry_space_group_name_H-M "P M N 21"
_symmetry_group_IT_number 31
_symmetry_cell_setting 'orthorhombic'
loop_
_space_group_symop_operation_xyz
x,y,z
1/2-x,-y,1/2+z
-x,y,z
1/2+x,-y,1/2+z
loop_
_atom_site_type_symbol
_atom_site_label
_atom_site_fract_x
_atom_site_fract_y
_atom_site_fract_z
Si Si1 0.199104 0.517652 0.635710
Si Si2 0.187639 0.165652 0.793866
Si Si3 0.813148 0.665488 0.881264
Si Si4 0.803799 0.430918 0.507746
Si Si5 0.303218 0.023170 0.043554
Si Si6 0.188405 0.444196 0.258039
Si Si7 0.297333 0.929445 0.169445
Si Si8 0.303682 0.073243 0.917819
O O1 0.260534 0.539543 0.567302
O O2 0.266006 0.635509 0.692647
O O3 0.235419 0.293666 0.651479
O O4 0.000000 0.541801 0.634350
O O5 0.187379 0.379339 0.768144
O O6 0.262598 0.045530 0.738038
O O7 0.000000 0.098014 0.804922
O O8 0.280509 0.187807 0.856634
O O9 0.763098 0.546351 0.940457
O O10 0.706141 0.665149 0.820684
O O11 0.798111 0.882464 0.903432
O O12 0.000000 0.613701 0.865408
O O13 0.787057 0.202905 0.524809
O O14 0.000000 0.471084 0.503515
O O15 0.500000 0.062259 0.050090
O O16 0.234091 0.041492 0.110612
O O17 0.247626 0.136136 0.984042
O O18 0.000000 0.515482 0.253930
O O19 0.500000 0.949972 0.172605
O O20 0.500000 0.028218 0.923122
#
# Coordination Sequence:
#
# PCOD9342839 Si02
#       8
#     4   4   4   4   4   4   4   4
#     4   8  14  27  47  70  96 125 158 198 244 292
#     4  10  19  32  50  73 100 129 162 201 246 295
#     4  11  21  33  50  73 101 132 167 207 250 294
#     4   8  14  27  47  70  96 125 158 198 244 292
#     4   7  11  22  42  66  90 118 153 191 230 276
#     4  11  21  33  50  73 101 132 167 207 250 294
#     4   7  11  22  42  66  90 118 153 191 230 276
#     4  10  19  32  50  73 100 129 162 201 246 295
#
# _framework density 25.530691999999998
#
# number of rings (size 3 to 8) (size 9 to 14) (size 15 to 20)
#    0.000    3.000    0.000    6.000    0.000    0.500 
#    0.000    0.000    0.000    3.750    0.000    3.500 
#    0.000    0.000    0.000    0.000    0.000    0.000 
#
# Total GULP energy -178457.447712 kJ/mol
# GULP energy per Si atom -5576.795241 kJ/mol
# Density = 2.547258 g / cm^3
# Si number density = 25.530692 Si / 1000 Ang^3
#
#
#
# Elastic Constant Matrix: (Units=GPa)
#
#
# Indices 1 2 3 4 5 6 
#
# 1 63.7132 -3.5356 44.1106 0.0000 0.0000 0.0000
# 2 -3.5356 53.2210 57.2312 0.0000 0.0000 0.0000
# 3 44.1106 57.2312 294.2569 0.0000 0.0000 0.0000
# 4 0.0000 0.0000 0.0000 56.0524 0.0000 0.0000
# 5 0.0000 0.0000 0.0000 0.0000 22.0149 0.0000
# 6 0.0000 0.0000 0.0000 0.0000 0.0000 5.9983
#
#
#
# Elastic Compliance Matrix: (Units=1/GPa)
#
#
# Indices 1 2 3 4 5 6 
#
# 1 0.018652 0.005369 -0.003840 0.000000 0.000000 0.000000
# 2 0.005369 0.025304 -0.005726 0.000000 0.000000 0.000000
# 3 -0.003840 -0.005726 0.005088 0.000000 0.000000 0.000000
# 4 0.000000 0.000000 0.000000 0.017840 0.000000 0.000000
# 5 0.000000 0.000000 0.000000 0.000000 0.045424 0.000000
# 6 0.000000 0.000000 0.000000 0.000000 0.000000 0.166714
#
#
# Mechanical properties :
#
#
# Convention : Reuss Voigt Hill
#
# Bulk Modulus (GPa) = 24.60141 67.42259 46.01200
# Shear Modulus (GPa) = 16.61313 37.70544 27.15928
#
# Velocity S-wave (km/s) = 2.55367 3.84717 3.26512
# Velocity P-wave (km/s) = 4.28391 6.79706 5.68120
#
# Compressibility (1/GPa) = 0.04064808
#
# Stress axis : x y z
#
# Youngs Moduli (GPa) = 53.61372 39.51951 196.54961
#
# Poissons Ratio (x) = -0.21217 0.75479
# Poissons Ratio (y) = -0.28783 1.12549
# Poissons Ratio (z) = 0.20589 0.22630
#
# Static dielectric constant tensor:
#      x y z
#    x 1.898590 0.000000 0.000000 
#    y 0.000000 2.144850 0.000000 
#    z 0.000000 0.000000 2.159460 
# 
# From -- ./inp_files/6275.got.cif
#   From: 2010.05.17/outbox.cif.g08.bks.cpg/sg31_4_cif.got.tgz:6275.got - 2010.06.03 17:08:30.
