data_PCOD9342301
_publ_section_title
;
Structure prediction by ZEFSAII (Michael W. Deem and Ramdas Pophale) SiO2 
 PCOD9342301
Probable space group: P N C 2
;
_chemical_formula_sum "Si O2"
_cell_formula_units_Z 20
_cell_length_a 8.444236
_cell_length_b 18.343586
_cell_length_c 5.285004
_cell_angle_alpha 90.000000
_cell_angle_beta 90.000000
_cell_angle_gamma 90.000000
_cell_volume 818.634273
_symmetry_space_group_name_H-M "P N C 2"
_symmetry_group_IT_number 30
_symmetry_cell_setting 'orthorhombic'
loop_
_space_group_symop_operation_xyz
x,y,z
-x,-y,z
-x,1/2+y,1/2+z
x,1/2-y,1/2+z
loop_
_atom_site_type_symbol
_atom_site_label
_atom_site_fract_x
_atom_site_fract_y
_atom_site_fract_z
Si Si1 0.259512 0.059021 0.054320
Si Si2 0.583887 0.433422 0.343674
Si Si3 0.072721 0.420158 0.061570
Si Si4 0.551521 0.272350 0.227724
Si Si5 0.098420 0.785902 0.329789
O O1 0.444129 0.079677 0.045966
O O2 0.191063 0.073918 0.325321
O O3 0.268042 0.972162 0.977233
O O4 0.165185 0.095786 0.822260
O O5 0.500000 0.500000 0.185964
O O6 0.602222 0.356607 0.215064
O O7 0.000000 0.500000 0.091971
O O8 0.945630 0.361614 0.962218
O O9 0.460084 0.254878 0.484761
O O10 0.713463 0.226524 0.280781
O O11 0.038271 0.728753 0.544759
#
# Coordination Sequence:
#
# PCOD9342301 Si02
#       5
#     4   4   4   4   4
#     4   9  24  40  67  93 131 163 221 268 318 370
#     4   8  22  44  70  97 129 173 224 273 315 396
#     4  12  24  39  66  98 132 175 216 263 326 390
#     4  10  22  38  65  94 128 166 220 268 323 380
#     4  10  23  38  60  89 131 168 210 269 321 384
#
# _framework density 24.430935000000002
#
# number of rings (size 3 to 8) (size 9 to 14) (size 15 to 20)
#    1.200    0.800    0.000    1.800   11.200    4.800 
#    0.000    6.000    0.000    0.000    0.000    0.000 
#    0.000    0.000    0.000    0.000    0.000    0.000 
#
# Total GULP energy -111469.811390 kJ/mol
# GULP energy per Si atom -5573.490570 kJ/mol
# Density = 2.437533 g / cm^3
# Si number density = 24.430935 Si / 1000 Ang^3
#
#
#
# Elastic Constant Matrix: (Units=GPa)
#
#
# Indices 1 2 3 4 5 6 
#
# 1 51.6413 -5.1156 24.1367 0.0000 0.0000 0.0000
# 2 -5.1156 78.5580 -3.5250 0.0000 0.0000 0.0000
# 3 24.1367 -3.5250 158.0029 0.0000 0.0000 0.0000
# 4 0.0000 0.0000 0.0000 20.9597 0.0000 0.0000
# 5 0.0000 0.0000 0.0000 0.0000 -214.1256 0.0000
# 6 0.0000 0.0000 0.0000 0.0000 0.0000 25.3880
#
#
#
# Elastic Compliance Matrix: (Units=1/GPa)
#
#
# Indices 1 2 3 4 5 6 
#
# 1 0.020970 0.001223 -0.003176 0.000000 0.000000 0.000000
# 2 0.001223 0.012814 0.000099 0.000000 0.000000 0.000000
# 3 -0.003176 0.000099 0.006816 0.000000 0.000000 0.000000
# 4 0.000000 0.000000 0.000000 0.047711 0.000000 0.000000
# 5 0.000000 0.000000 0.000000 0.000000 -0.004670 0.000000
# 6 0.000000 0.000000 0.000000 0.000000 0.000000 0.039389
#
#
# Mechanical properties :
#
#
# Convention : Reuss Voigt Hill
#
# Bulk Modulus (GPa) = 27.10630 35.46604 31.28617
# Shear Modulus (GPa) = 35.96232 -15.37518 10.29357
#
# Velocity S-wave (km/s) = 3.84083 -2.51137 2.05487
# Velocity P-wave (km/s) = 5.54873 2.47771 4.29695
#
# Compressibility (1/GPa) = 0.03689180
#
# Stress axis : x y z
#
# Youngs Moduli (GPa) = 47.68722 78.04244 146.70519
#
# Poissons Ratio (x) = -0.09545 0.46595
# Poissons Ratio (y) = -0.05832 -0.01453
# Poissons Ratio (z) = 0.15146 -0.00773
#
# Static dielectric constant tensor:
#      x y z
#    x 3.031050 0.000000 0.000000 
#    y 0.000000 1.845740 0.000000 
#    z 0.000000 0.000000 2.062200 
# 
# From -- ./inp_files/363.got.cif
#   From: 2010.05.17/outbox.cif.g08.bks.cpg/sg30_1_cif.got.tgz:363.got - 2010.06.03 17:03:02.
