data_PCOD9342042
_publ_section_title
;
Structure prediction by ZEFSAII (Michael W. Deem and Ramdas Pophale) SiO2 
 PCOD9342042
Probable space group: P N C 2
;
_chemical_formula_sum "Si O2"
_cell_formula_units_Z 30
_cell_length_a 4.985076
_cell_length_b 21.861099
_cell_length_c 12.517737
_cell_angle_alpha 90.000000
_cell_angle_beta 90.000000
_cell_angle_gamma 90.000000
_cell_volume 1364.173464
_symmetry_space_group_name_H-M "P N C 2"
_symmetry_group_IT_number 30
_symmetry_cell_setting 'orthorhombic'
loop_
_space_group_symop_operation_xyz
x,y,z
-x,-y,z
-x,1/2+y,1/2+z
x,1/2-y,1/2+z
loop_
_atom_site_type_symbol
_atom_site_label
_atom_site_fract_x
_atom_site_fract_y
_atom_site_fract_z
Si Si1 0.911375 0.062586 0.029040
Si Si2 0.921371 0.847739 0.865144
Si Si3 0.507979 0.929538 0.317450
Si Si4 0.109943 0.717916 0.911965
Si Si5 0.500000 0.000000 0.861580
Si Si6 0.015626 0.631978 0.732587
Si Si7 0.550609 0.122718 0.742621
Si Si8 0.386115 0.150922 0.503146
O O1 0.858039 0.113485 0.118748
O O2 0.115418 0.098196 0.951630
O O3 0.700941 0.034465 0.944344
O O4 0.000000 0.000000 0.087278
O O5 0.140632 0.869356 0.777240
O O6 0.637571 0.832774 0.813018
O O7 0.049734 0.789119 0.921175
O O8 0.710759 0.891864 0.240357
O O9 0.610229 0.911501 0.434609
O O10 0.203249 0.907285 0.311015
O O11 0.500000 0.000000 0.290750
O O12 0.903906 0.681162 0.987993
O O13 0.405953 0.697004 0.944596
O O14 0.044414 0.697914 0.788369
O O15 0.443549 0.055833 0.779201
O O16 0.487316 0.137629 0.621111
#
# Coordination Sequence:
#
# PCOD9342042 Si02
#       8
#     4   4   4   4   2   4   4   4
#     4  11  22  39  60  91 122 165 204 255 316 376
#     4  11  24  41  65  88 129 165 211 261 316 364
#     4  10  20  37  55  90 119 160 200 259 308 372
#     4  10  22  45  59  94 124 161 212 269 299 384
#     4  10  24  40  60  90 134 154 210 258 308 384
#     4  10  23  35  61  85 124 160 204 254 315 364
#     4  11  23  41  63  94 119 170 201 257 315 375
#     4  10  22  39  66  87 126 160 211 256 315 365
#
# _framework density 21.991340000000001
#
# number of rings (size 3 to 8) (size 9 to 14) (size 15 to 20)
#    0.000    1.600    1.333    2.800    3.733    2.133 
#    0.000    0.000    0.000    0.000    0.000    0.000 
#    0.000    0.000    0.000    0.000    0.000    0.000 
#
# Total GULP energy -167185.958952 kJ/mol
# GULP energy per Si atom -5572.865298 kJ/mol
# Density = 2.194129 g / cm^3
# Si number density = 21.991340 Si / 1000 Ang^3
#
#
#
# Elastic Constant Matrix: (Units=GPa)
#
#
# Indices 1 2 3 4 5 6 
#
# 1 73.7470 -2.4979 -7.1443 0.0000 0.0000 0.0000
# 2 -2.4979 67.8589 17.6699 0.0000 0.0000 0.0000
# 3 -7.1443 17.6699 88.1872 0.0000 0.0000 0.0000
# 4 0.0000 0.0000 0.0000 15.0937 0.0000 0.0000
# 5 0.0000 0.0000 0.0000 0.0000 17.8729 0.0000
# 6 0.0000 0.0000 0.0000 0.0000 0.0000 19.9575
#
#
#
# Elastic Compliance Matrix: (Units=1/GPa)
#
#
# Indices 1 2 3 4 5 6 
#
# 1 0.013670 0.000227 0.001062 0.000000 0.000000 0.000000
# 2 0.000227 0.015551 -0.003098 0.000000 0.000000 0.000000
# 3 0.001062 -0.003098 0.012046 0.000000 0.000000 0.000000
# 4 0.000000 0.000000 0.000000 0.066253 0.000000 0.000000
# 5 0.000000 0.000000 0.000000 0.000000 0.055951 0.000000
# 6 0.000000 0.000000 0.000000 0.000000 0.000000 0.050107
#
#
# Mechanical properties :
#
#
# Convention : Reuss Voigt Hill
#
# Bulk Modulus (GPa) = 26.56027 27.31651 26.93839
# Shear Modulus (GPa) = 21.76319 25.36918 23.56618
#
# Velocity S-wave (km/s) = 3.14924 3.40015 3.27710
# Velocity P-wave (km/s) = 5.03264 5.27856 5.15706
#
# Compressibility (1/GPa) = 0.03765022
#
# Stress axis : x y z
#
# Youngs Moduli (GPa) = 73.15055 64.30288 83.01353
#
# Poissons Ratio (x) = -0.01457 -0.08817
# Poissons Ratio (y) = -0.01658 0.25715
# Poissons Ratio (z) = -0.07769 0.19919
#
# Static dielectric constant tensor:
#      x y z
#    x 1.828180 0.000000 0.000000 
#    y 0.000000 1.827470 0.000000 
#    z 0.000000 0.000000 1.835410 
# 
# From -- ./inp_files/3225.got.cif
#   From: 2010.05.17/outbox.cif.g08.bks.cpg/sg30_2_cif.got.tgz:3225.got - 2010.06.03 17:03:02.
