data_PCOD9342963
_publ_section_title
;
Structure prediction by ZEFSAII (Michael W. Deem and Ramdas Pophale) SiO2 
 PCOD9342963
Probable space group: P M N 21
;
_chemical_formula_sum "Si O2"
_cell_formula_units_Z 32
_cell_length_a 8.330189
_cell_length_b 10.986327
_cell_length_c 14.396584
_cell_angle_alpha 90.000000
_cell_angle_beta 90.000000
_cell_angle_gamma 90.000000
_cell_volume 1317.549171
_symmetry_space_group_name_H-M "P M N 21"
_symmetry_group_IT_number 31
_symmetry_cell_setting 'orthorhombic'
loop_
_space_group_symop_operation_xyz
x,y,z
1/2-x,-y,1/2+z
-x,y,z
1/2+x,-y,1/2+z
loop_
_atom_site_type_symbol
_atom_site_label
_atom_site_fract_x
_atom_site_fract_y
_atom_site_fract_z
Si Si1 0.692707 0.064315 0.992250
Si Si2 0.694094 0.193378 0.816574
Si Si3 0.815047 0.702592 0.713224
Si Si4 0.311337 0.650669 0.154991
Si Si5 0.192679 0.441095 0.371785
Si Si6 0.312702 0.952649 0.700212
Si Si7 0.813979 0.422803 0.043086
Si Si8 0.808599 0.199703 0.478587
O O1 0.500000 0.064173 0.981893
O O2 0.750875 0.169142 0.922192
O O3 0.727821 0.061536 0.101069
O O4 0.757346 0.932945 0.957451
O O5 0.500000 0.207430 0.815135
O O6 0.764416 0.304184 0.756987
O O7 0.737110 0.067388 0.762334
O O8 0.500000 0.270508 0.227072
O O9 0.766716 0.582339 0.771156
O O10 0.713723 0.819589 0.745219
O O11 0.781144 0.673827 0.605341
O O12 0.500000 0.616076 0.149720
O O13 0.210129 0.546781 0.103490
O O14 0.287792 0.767479 0.087085
O O15 0.247357 0.546802 0.441177
O O16 0.250187 0.316754 0.423168
O O17 0.000000 0.445360 0.364922
O O18 0.500000 0.969395 0.682261
O O19 0.000000 0.390155 0.040005
O O20 0.000000 0.196132 0.461751
#
# Coordination Sequence:
#
# PCOD9342963 Si02
#       8
#     4   4   4   4   4   4   4   4
#     4  10  19  35  56  84 121 164 203 243 304 375
#     4  10  21  36  58  88 124 163 203 250 311 374
#     4  12  25  43  65  92 125 167 213 259 312 373
#     4  10  19  35  60  86 116 154 200 252 304 360
#     4  10  20  39  66  97 126 161 206 257 312 370
#     4  11  23  40  61  90 126 165 206 259 314 368
#     4  11  23  42  66  93 124 159 205 262 314 369
#     4   8  15  30  56  84 116 155 194 242 297 355
#
# _framework density 24.287520000000001
#
# number of rings (size 3 to 8) (size 9 to 14) (size 15 to 20)
#    0.000    1.750    1.250    4.875    0.000    3.000 
#    2.250    1.875    0.000    0.000    0.000    0.000 
#    0.000    0.000    0.000    0.000    0.000    0.000 
#
# Total GULP energy -178944.075050 kJ/mol
# GULP energy per Si atom -5592.002345 kJ/mol
# Density = 2.423224 g / cm^3
# Si number density = 24.287520 Si / 1000 Ang^3
#
#
#
# Elastic Constant Matrix: (Units=GPa)
#
#
# Indices 1 2 3 4 5 6 
#
# 1 35.5869 -19.3597 -1.5240 0.0000 0.0000 0.0000
# 2 -19.3597 74.1321 -3.0497 0.0000 0.0000 0.0000
# 3 -1.5240 -3.0497 113.8976 0.0000 0.0000 0.0000
# 4 0.0000 0.0000 0.0000 40.8576 0.0000 0.0000
# 5 0.0000 0.0000 0.0000 0.0000 29.4533 0.0000
# 6 0.0000 0.0000 0.0000 0.0000 0.0000 17.1062
#
#
#
# Elastic Compliance Matrix: (Units=1/GPa)
#
#
# Indices 1 2 3 4 5 6 
#
# 1 0.032804 0.008594 0.000669 0.000000 0.000000 0.000000
# 2 0.008594 0.015756 0.000537 0.000000 0.000000 0.000000
# 3 0.000669 0.000537 0.008803 0.000000 0.000000 0.000000
# 4 0.000000 0.000000 0.000000 0.024475 0.000000 0.000000
# 5 0.000000 0.000000 0.000000 0.000000 0.033952 0.000000
# 6 0.000000 0.000000 0.000000 0.000000 0.000000 0.058458
#
#
# Mechanical properties :
#
#
# Convention : Reuss Voigt Hill
#
# Bulk Modulus (GPa) = 12.99307 19.52777 16.26042
# Shear Modulus (GPa) = 27.73108 33.98675 30.85892
#
# Velocity S-wave (km/s) = 3.38269 3.74485 3.56837
# Velocity P-wave (km/s) = 4.54072 5.17264 4.86695
#
# Compressibility (1/GPa) = 0.07696413
#
# Stress axis : x y z
#
# Youngs Moduli (GPa) = 30.48376 63.46808 113.59581
#
# Poissons Ratio (x) = -0.54547 -0.07600
# Poissons Ratio (y) = -0.26199 -0.06099
# Poissons Ratio (z) = -0.02040 -0.03407
#
# Static dielectric constant tensor:
#      x y z
#    x 1.817390 0.000000 0.000000 
#    y 0.000000 1.995110 0.000000 
#    z 0.000000 0.000000 2.002240 
# 
# From -- ./inp_files/5045.got.cif
#   From: 2010.05.17/outbox.cif.g08.bks.cpg/sg31_3_cif.got.tgz:5045.got - 2010.06.03 17:08:30.
