data_PCOD9342176
_publ_section_title
;
Structure prediction by ZEFSAII (Michael W. Deem and Ramdas Pophale) SiO2 
 PCOD9342176
Probable space group: P N C 2
;
_chemical_formula_sum "Si O2"
_cell_formula_units_Z 30
_cell_length_a 21.310668
_cell_length_b 5.540192
_cell_length_c 10.076161
_cell_angle_alpha 90.000000
_cell_angle_beta 90.000000
_cell_angle_gamma 90.000000
_cell_volume 1189.643887
_symmetry_space_group_name_H-M "P N C 2"
_symmetry_group_IT_number 30
_symmetry_cell_setting 'orthorhombic'
loop_
_space_group_symop_operation_xyz
x,y,z
-x,-y,z
-x,1/2+y,1/2+z
x,1/2-y,1/2+z
loop_
_atom_site_type_symbol
_atom_site_label
_atom_site_fract_x
_atom_site_fract_y
_atom_site_fract_z
Si Si1 0.563798 0.419323 0.125000
Si Si2 0.000000 0.500000 0.859168
Si Si3 0.873013 0.242617 0.340927
Si Si4 0.286245 0.121549 0.227076
Si Si5 0.831858 0.966178 0.084509
Si Si6 0.597758 0.580190 0.551928
Si Si7 0.063030 0.372683 0.154189
Si Si8 0.682977 0.110508 0.817536
O O1 0.500000 0.500000 0.200941
O O2 0.573974 0.646248 0.023900
O O3 0.628041 0.387235 0.205991
O O4 0.552799 0.149481 0.072035
O O5 0.937009 0.358258 0.903790
O O6 0.968579 0.696782 0.760609
O O7 0.835327 0.339613 0.467232
O O8 0.893571 0.451067 0.238635
O O9 0.844098 0.054311 0.236621
O O10 0.284684 0.873063 0.312046
O O11 0.239393 0.116619 0.101623
O O12 0.358852 0.124725 0.181289
O O13 0.272249 0.382427 0.289597
O O14 0.889698 0.780142 0.060925
O O15 0.645430 0.466551 0.446592
O O16 0.000000 0.500000 0.094636
#
# Coordination Sequence:
#
# PCOD9342176 Si02
#       8
#     4   2   4   4   4   4   4   4
#     4  10  21  37  60  96 132 166 224 279 329 404
#     4   8  18  44  62  90 122 176 204 268 336 418
#     4  10  23  45  64  98 131 167 227 274 351 415
#     4  10  24  40  65  96 130 174 225 282 330 404
#     4  11  25  42  68 103 128 180 226 288 350 413
#     4  10  21  40  62  92 131 177 224 269 341 399
#     4   9  20  43  63  92 132 169 217 279 343 427
#     4  10  22  43  63  92 129 182 220 271 341 398
#
# _framework density 25.217631000000001
#
# number of rings (size 3 to 8) (size 9 to 14) (size 15 to 20)
#    0.000    2.133    0.000    1.200    3.733    3.200 
#   28.800    0.000    0.000    0.000    0.000    0.000 
#    0.000    0.000    0.000    0.000    0.000    0.000 
#
# Total GULP energy -167198.790597 kJ/mol
# GULP energy per Si atom -5573.293020 kJ/mol
# Density = 2.516023 g / cm^3
# Si number density = 25.217631 Si / 1000 Ang^3
#
#
#
# Elastic Constant Matrix: (Units=GPa)
#
#
# Indices 1 2 3 4 5 6 
#
# 1 83.7016 37.4330 7.2764 0.0000 0.0000 0.0000
# 2 37.4330 133.9947 8.3319 0.0000 0.0000 0.0000
# 3 7.2764 8.3319 52.1515 0.0000 0.0000 0.0000
# 4 0.0000 0.0000 0.0000 11.8200 0.0000 0.0000
# 5 0.0000 0.0000 0.0000 0.0000 -24.6426 0.0000
# 6 0.0000 0.0000 0.0000 0.0000 0.0000 26.8731
#
#
#
# Elastic Compliance Matrix: (Units=1/GPa)
#
#
# Indices 1 2 3 4 5 6 
#
# 1 0.013742 -0.003757 -0.001317 0.000000 0.000000 0.000000
# 2 -0.003757 0.008565 -0.000844 0.000000 0.000000 0.000000
# 3 -0.001317 -0.000844 0.019494 0.000000 0.000000 0.000000
# 4 0.000000 0.000000 0.000000 0.084603 0.000000 0.000000
# 5 0.000000 0.000000 0.000000 0.000000 -0.040580 0.000000
# 6 0.000000 0.000000 0.000000 0.000000 0.000000 0.037212
#
#
# Mechanical properties :
#
#
# Convention : Reuss Voigt Hill
#
# Bulk Modulus (GPa) = 33.37355 41.77005 37.57180
# Shear Modulus (GPa) = 34.51618 17.26384 25.89001
#
# Velocity S-wave (km/s) = 3.70365 2.61931 3.20763
# Velocity P-wave (km/s) = 5.61715 5.07420 5.35256
#
# Compressibility (1/GPa) = 0.02996385
#
# Stress axis : x y z
#
# Youngs Moduli (GPa) = 72.76988 116.75342 51.29900
#
# Poissons Ratio (x) = 0.43865 0.06757
# Poissons Ratio (y) = 0.27340 0.04331
# Poissons Ratio (z) = 0.09585 0.09856
#
# Static dielectric constant tensor:
#      x y z
#    x 2.052150 0.000000 0.000000 
#    y 0.000000 2.129870 0.000000 
#    z 0.000000 0.000000 2.088600 
# 
# From -- ./inp_files/4494.got.cif
#   From: 2010.05.17/outbox.cif.g08.bks.cpg/sg30_3_cif.got.tgz:4494.got - 2010.06.03 17:03:02.
