data_PCOD9342142
_publ_section_title
;
Structure prediction by ZEFSAII (Michael W. Deem and Ramdas Pophale) SiO2 
 PCOD9342142
Probable space group: P N C 2
;
_chemical_formula_sum "Si O2"
_cell_formula_units_Z 28
_cell_length_a 8.818072
_cell_length_b 28.813283
_cell_length_c 4.877913
_cell_angle_alpha 90.000000
_cell_angle_beta 90.000000
_cell_angle_gamma 90.000000
_cell_volume 1239.368448
_symmetry_space_group_name_H-M "P N C 2"
_symmetry_group_IT_number 30
_symmetry_cell_setting 'orthorhombic'
loop_
_space_group_symop_operation_xyz
x,y,z
-x,-y,z
-x,1/2+y,1/2+z
x,1/2-y,1/2+z
loop_
_atom_site_type_symbol
_atom_site_label
_atom_site_fract_x
_atom_site_fract_y
_atom_site_fract_z
Si Si1 0.000000 0.500000 0.758880
Si Si2 0.500000 0.500000 0.831664
Si Si3 0.178757 0.219628 0.806244
Si Si4 0.259879 0.567416 0.913691
Si Si5 0.333949 0.373988 0.094625
Si Si6 0.815578 0.220938 0.812309
Si Si7 0.255697 0.066252 0.076585
Si Si8 0.669139 0.373914 0.366999
O O1 0.125851 0.530538 0.908416
O O2 0.097046 0.460076 0.609899
O O3 0.405756 0.537172 0.003913
O O4 0.618132 0.527916 0.646229
O O5 0.218590 0.263214 0.609902
O O6 0.256962 0.174192 0.683662
O O7 0.996667 0.212252 0.816388
O O8 0.309797 0.592358 0.629028
O O9 0.221092 0.606161 0.132701
O O10 0.261913 0.415130 0.271988
O O11 0.506523 0.371922 0.211483
O O12 0.298823 0.390732 0.783289
O O13 0.779825 0.234865 0.502397
O O14 0.723494 0.177680 0.926635
#
# Coordination Sequence:
#
# PCOD9342142 Si02
#       8
#     2   2   4   4   4   4   4   4
#     4  10  28  44  64  96 128 172 224 260 320 364
#     4  10  20  44  60  88 128 168 204 252 312 372
#     4  10  23  42  65  93 127 167 207 257 318 380
#     4  11  25  41  66  94 129 172 211 265 311 378
#     4  12  24  42  67  98 129 167 212 261 321 378
#     4  10  23  42  65  93 127 167 207 257 318 380
#     4  11  25  41  66  94 129 172 211 265 311 378
#     4  12  24  42  67  98 129 167 212 261 321 378
#
# _framework density 22.592148999999999
#
# number of rings (size 3 to 8) (size 9 to 14) (size 15 to 20)
#    0.000    1.143    2.857    1.714    4.000    8.000 
#    0.000    0.000    0.000    0.000    0.000    0.000 
#    0.000    0.000    0.000    0.000    0.000    0.000 
#
# Total GULP energy -156385.692932 kJ/mol
# GULP energy per Si atom -5585.203319 kJ/mol
# Density = 2.254073 g / cm^3
# Si number density = 22.592149 Si / 1000 Ang^3
#
#
#
# Elastic Constant Matrix: (Units=GPa)
#
#
# Indices 1 2 3 4 5 6 
#
# 1 70.7630 36.3289 5.6217 0.0000 0.0000 0.0000
# 2 36.3289 92.1937 -6.0837 0.0000 0.0000 0.0000
# 3 5.6217 -6.0837 61.0127 0.0000 0.0000 0.0000
# 4 0.0000 0.0000 0.0000 87.4378 0.0000 0.0000
# 5 0.0000 0.0000 0.0000 0.0000 9.0504 0.0000
# 6 0.0000 0.0000 0.0000 0.0000 0.0000 27.1128
#
#
#
# Elastic Compliance Matrix: (Units=1/GPa)
#
#
# Indices 1 2 3 4 5 6 
#
# 1 0.018055 -0.007272 -0.002389 0.000000 0.000000 0.000000
# 2 -0.007272 0.013848 0.002051 0.000000 0.000000 0.000000
# 3 -0.002389 0.002051 0.016815 0.000000 0.000000 0.000000
# 4 0.000000 0.000000 0.000000 0.011437 0.000000 0.000000
# 5 0.000000 0.000000 0.000000 0.000000 0.110492 0.000000
# 6 0.000000 0.000000 0.000000 0.000000 0.000000 0.036883
#
#
# Mechanical properties :
#
#
# Convention : Reuss Voigt Hill
#
# Bulk Modulus (GPa) = 29.85333 32.85592 31.35463
# Shear Modulus (GPa) = 21.37533 37.26036 29.31784
#
# Velocity S-wave (km/s) = 3.07928 4.06552 3.60627
# Velocity P-wave (km/s) = 5.08776 6.05083 5.59007
#
# Compressibility (1/GPa) = 0.03349710
#
# Stress axis : x y z
#
# Youngs Moduli (GPa) = 55.38665 72.21439 59.47211
#
# Poissons Ratio (x) = 0.52515 0.14206
# Poissons Ratio (y) = 0.40278 -0.12197
# Poissons Ratio (z) = 0.13230 -0.14810
#
# Static dielectric constant tensor:
#      x y z
#    x 1.905330 0.000000 0.000000 
#    y 0.000000 1.859040 0.000000 
#    z 0.000000 0.000000 1.803800 
# 
# From -- ./inp_files/526.got.cif
#   From: 2010.05.17/outbox.cif.g08.bks.cpg/sg30_1_cif.got.tgz:526.got - 2010.06.03 17:03:02.
