data_PCOD9342389
_publ_section_title
;
Structure prediction by ZEFSAII (Michael W. Deem and Ramdas Pophale) SiO2 
 PCOD9342389
Probable space group: P N C 2
;
_chemical_formula_sum "Si O2"
_cell_formula_units_Z 26
_cell_length_a 5.720909
_cell_length_b 16.881341
_cell_length_c 11.672226
_cell_angle_alpha 90.000000
_cell_angle_beta 90.000000
_cell_angle_gamma 90.000000
_cell_volume 1127.264084
_symmetry_space_group_name_H-M "P N C 2"
_symmetry_group_IT_number 30
_symmetry_cell_setting 'orthorhombic'
loop_
_space_group_symop_operation_xyz
x,y,z
-x,-y,z
-x,1/2+y,1/2+z
x,1/2-y,1/2+z
loop_
_atom_site_type_symbol
_atom_site_label
_atom_site_fract_x
_atom_site_fract_y
_atom_site_fract_z
Si Si1 0.019717 0.140106 0.172830
Si Si2 0.571253 0.633496 0.127962
Si Si3 0.073337 0.287902 0.296761
Si Si4 0.500000 0.000000 0.807741
Si Si5 0.220059 0.593569 0.449141
Si Si6 0.000000 0.000000 0.336345
Si Si7 0.394009 0.282830 0.502737
Si Si8 0.500000 0.500000 0.948326
O O1 0.923937 0.216155 0.243323
O O2 0.088911 0.074223 0.262684
O O3 0.227221 0.177390 0.097402
O O4 0.861302 0.095711 0.079746
O O5 0.799011 0.667458 0.192158
O O6 0.465730 0.576219 0.226077
O O7 0.467353 0.712351 0.067756
O O8 0.596292 0.572238 0.025227
O O9 0.250954 0.251300 0.391993
O O10 0.946028 0.354809 0.369210
O O11 0.280894 0.990843 0.893762
O O12 0.451764 0.647024 0.453704
O O13 0.250379 0.972633 0.392488
#
# Coordination Sequence:
#
# PCOD9342389 Si02
#       8
#     4   4   4   2   4   2   4   2
#     4  10  26  41  69 100 141 187 242 300 374 438
#     4  10  23  45  71 100 142 184 240 303 374 435
#     4  10  22  45  67 105 133 186 234 301 368 441
#     4  11  24  41  66 106 134 185 228 309 372 430
#     4  11  25  39  72 102 138 181 244 299 369 449
#     4  12  28  48  72 104 150 200 242 314 366 450
#     4  10  22  44  69 101 137 182 239 299 357 461
#     4  11  28  47  72 110 142 197 244 309 366 450
#
# _framework density 23.064692000000001
#
# number of rings (size 3 to 8) (size 9 to 14) (size 15 to 20)
#    0.000    1.538    1.538    0.923    8.615    3.077 
#    0.000    0.000    0.000    0.000    0.000    0.000 
#    0.000    0.000    0.000    0.000    0.000    0.000 
#
# Total GULP energy -144790.050203 kJ/mol
# GULP energy per Si atom -5568.848085 kJ/mol
# Density = 2.301220 g / cm^3
# Si number density = 23.064692 Si / 1000 Ang^3
#
#
#
# Elastic Constant Matrix: (Units=GPa)
#
#
# Indices 1 2 3 4 5 6 
#
# 1 44.9320 8.4644 30.5187 0.0000 0.0000 0.0000
# 2 8.4644 99.2138 44.7439 0.0000 0.0000 0.0000
# 3 30.5187 44.7439 99.3551 0.0000 0.0000 0.0000
# 4 0.0000 0.0000 0.0000 41.0714 0.0000 0.0000
# 5 0.0000 0.0000 0.0000 0.0000 11.7181 0.0000
# 6 0.0000 0.0000 0.0000 0.0000 0.0000 13.5651
#
#
#
# Elastic Compliance Matrix: (Units=1/GPa)
#
#
# Indices 1 2 3 4 5 6 
#
# 1 0.028405 0.001897 -0.009579 0.000000 0.000000 0.000000
# 2 0.001897 0.012775 -0.006336 0.000000 0.000000 0.000000
# 3 -0.009579 -0.006336 0.015861 0.000000 0.000000 0.000000
# 4 0.000000 0.000000 0.000000 0.024348 0.000000 0.000000
# 5 0.000000 0.000000 0.000000 0.000000 0.085338 0.000000
# 6 0.000000 0.000000 0.000000 0.000000 0.000000 0.073718
#
#
# Mechanical properties :
#
#
# Convention : Reuss Voigt Hill
#
# Bulk Modulus (GPa) = 34.47812 45.66165 40.06989
# Shear Modulus (GPa) = 17.97597 23.92251 20.94924
#
# Velocity S-wave (km/s) = 2.79475 3.22404 3.01704
# Velocity P-wave (km/s) = 5.03935 5.80512 5.43574
#
# Compressibility (1/GPa) = 0.02900390
#
# Stress axis : x y z
#
# Youngs Moduli (GPa) = 35.20514 78.27991 63.04963
#
# Poissons Ratio (x) = -0.14847 0.60397
# Poissons Ratio (y) = -0.06677 0.39946
# Poissons Ratio (z) = 0.33724 0.49595
#
# Static dielectric constant tensor:
#      x y z
#    x 1.986380 0.000000 0.000000 
#    y 0.000000 1.849970 0.000000 
#    z 0.000000 0.000000 1.897220 
# 
# From -- ./inp_files/3178.got.cif
#   From: 2010.05.17/outbox.cif.g08.bks.cpg/sg30_2_cif.got.tgz:3178.got - 2010.06.03 17:03:02.
