data_PCOD9342646
_publ_section_title
;
Structure prediction by ZEFSAII (Michael W. Deem and Ramdas Pophale) SiO2 
 PCOD9342646
Probable space group: P N C 2
;
_chemical_formula_sum "Si O2"
_cell_formula_units_Z 18
_cell_length_a 5.074767
_cell_length_b 6.795741
_cell_length_c 21.814209
_cell_angle_alpha 90.000000
_cell_angle_beta 90.000000
_cell_angle_gamma 90.000000
_cell_volume 752.302310
_symmetry_space_group_name_H-M "P N C 2"
_symmetry_group_IT_number 30
_symmetry_cell_setting 'orthorhombic'
loop_
_space_group_symop_operation_xyz
x,y,z
-x,-y,z
-x,1/2+y,1/2+z
x,1/2-y,1/2+z
loop_
_atom_site_type_symbol
_atom_site_label
_atom_site_fract_x
_atom_site_fract_y
_atom_site_fract_z
Si Si1 0.739536 0.868775 0.747370
Si Si2 0.750730 0.865870 0.363830
Si Si3 0.108623 0.789334 0.532477
Si Si4 0.000000 0.500000 0.431640
Si Si5 0.603791 0.783251 0.113563
O O1 0.746503 0.680994 0.791205
O O2 0.682093 0.817072 0.677054
O O3 0.500000 0.000000 0.770968
O O4 0.000000 0.000000 0.751535
O O5 0.812845 0.651886 0.394530
O O6 0.500000 0.000000 0.381844
O O7 0.000000 0.000000 0.376146
O O8 0.164805 0.643493 0.476534
O O9 0.863359 0.707308 0.571877
O O10 0.638094 0.188954 0.575728
O O11 0.000000 0.000000 0.511268
O O12 0.500000 0.000000 0.128206
#
# Coordination Sequence:
#
# PCOD9342646 Si02
#       5
#     4   4   4   2   4
#     4  12  25  47  77 114 159 201 260 330 398 477
#     4  12  29  51  80 118 156 211 269 328 405 479
#     4  12  26  47  75 109 150 202 257 317 393 469
#     4  12  28  54  78 112 164 204 276 326 402 488
#     4  12  24  46  72 111 153 197 253 322 392 469
#
# _framework density 23.926552999999998
#
# number of rings (size 3 to 8) (size 9 to 14) (size 15 to 20)
#    0.000    0.000    3.333    6.667    0.000    7.111 
#    0.000    0.000    0.000    0.000    0.000    0.000 
#    0.000    0.000    0.000    0.000    0.000    0.000 
#
# Total GULP energy -100854.130709 kJ/mol
# GULP energy per Si atom -5603.007262 kJ/mol
# Density = 2.387209 g / cm^3
# Si number density = 23.926553 Si / 1000 Ang^3
#
#
#
# Elastic Constant Matrix: (Units=GPa)
#
#
# Indices 1 2 3 4 5 6 
#
# 1 207.6891 72.6395 54.7168 0.0000 0.0000 0.0000
# 2 72.6395 157.5719 53.2541 0.0000 0.0000 0.0000
# 3 54.7168 53.2541 132.0936 0.0000 0.0000 0.0000
# 4 0.0000 0.0000 0.0000 15.5074 0.0000 0.0000
# 5 0.0000 0.0000 0.0000 0.0000 8.0892 0.0000
# 6 0.0000 0.0000 0.0000 0.0000 0.0000 47.0724
#
#
#
# Elastic Compliance Matrix: (Units=1/GPa)
#
#
# Indices 1 2 3 4 5 6 
#
# 1 0.006016 -0.002236 -0.001591 0.000000 0.000000 0.000000
# 2 -0.002236 0.008178 -0.002371 0.000000 0.000000 0.000000
# 3 -0.001591 -0.002371 0.009185 0.000000 0.000000 0.000000
# 4 0.000000 0.000000 0.000000 0.064485 0.000000 0.000000
# 5 0.000000 0.000000 0.000000 0.000000 0.123621 0.000000
# 6 0.000000 0.000000 0.000000 0.000000 0.000000 0.021244
#
#
# Mechanical properties :
#
#
# Convention : Reuss Voigt Hill
#
# Bulk Modulus (GPa) = 91.03617 95.39727 93.21672
# Shear Modulus (GPa) = 20.09761 35.25008 27.67384
#
# Velocity S-wave (km/s) = 2.90137 3.84247 3.40460
# Velocity P-wave (km/s) = 7.02529 7.72293 7.38235
#
# Compressibility (1/GPa) = 0.01098465
#
# Stress axis : x y z
#
# Youngs Moduli (GPa) = 166.22661 122.27513 108.87134
#
# Poissons Ratio (x) = 0.27337 0.17317
# Poissons Ratio (y) = 0.37163 0.25814
# Poissons Ratio (z) = 0.26440 0.28992
#
# Static dielectric constant tensor:
#      x y z
#    x 1.852280 0.000000 0.000000 
#    y 0.000000 1.988450 0.000000 
#    z 0.000000 0.000000 1.897700 
# 
# From -- ./inp_files/7449.got.cif
#   From: 2010.05.17/outbox.cif.g08.bks.cpg/sg30_4_cif.got.tgz:7449.got - 2010.06.03 17:03:02.
