data_PCOD9342785
_publ_section_title
;
Structure prediction by ZEFSAII (Michael W. Deem and Ramdas Pophale) SiO2 
 PCOD9342785
Probable space group: P M N 21
;
_chemical_formula_sum "Si O2"
_cell_formula_units_Z 32
_cell_length_a 7.804617
_cell_length_b 15.010115
_cell_length_c 12.759134
_cell_angle_alpha 90.000000
_cell_angle_beta 90.000000
_cell_angle_gamma 90.000000
_cell_volume 1494.709565
_symmetry_space_group_name_H-M "P M N 21"
_symmetry_group_IT_number 31
_symmetry_cell_setting 'orthorhombic'
loop_
_space_group_symop_operation_xyz
x,y,z
1/2-x,-y,1/2+z
-x,y,z
1/2+x,-y,1/2+z
loop_
_atom_site_type_symbol
_atom_site_label
_atom_site_fract_x
_atom_site_fract_y
_atom_site_fract_z
Si Si1 0.298144 0.260806 0.727380
Si Si2 0.198899 0.837567 0.027059
Si Si3 0.802104 0.643764 0.920965
Si Si4 0.710407 0.834576 0.650861
Si Si5 0.697072 0.852462 0.415959
Si Si6 0.805804 0.363040 0.193000
Si Si7 0.209295 0.554817 0.135424
Si Si8 0.698428 0.960034 0.840977
O O1 0.500000 0.265185 0.701513
O O2 0.228997 0.189555 0.641340
O O3 0.278968 0.223070 0.843249
O O4 0.231328 0.360859 0.705855
O O5 0.000000 0.867239 0.037716
O O6 0.203445 0.743925 0.965102
O O7 0.288400 0.907467 0.951076
O O8 0.691542 0.634727 0.818400
O O9 0.000000 0.624503 0.893511
O O10 0.750092 0.581320 0.016642
O O11 0.500000 0.834561 0.657709
O O12 0.763808 0.864028 0.534471
O O13 0.771641 0.732724 0.664702
O O14 0.766995 0.898036 0.746440
O O15 0.500000 0.826582 0.426735
O O16 0.711569 0.945947 0.356320
O O17 0.724236 0.456488 0.159581
O O18 0.000000 0.361595 0.150177
O O19 0.000000 0.551609 0.145750
O O20 0.500000 0.979515 0.818006
#
# Coordination Sequence:
#
# PCOD9342785 Si02
#       8
#     4   4   4   4   4   4   4   4
#     4   9  19  38  58  81 114 151 187 231 284 336
#     4   9  18  34  57  80 108 143 181 234 289 332
#     4   9  17  32  52  79 109 142 184 232 279 329
#     4   9  21  39  57  80 115 149 183 230 287 337
#     4  11  24  40  57  83 116 154 191 232 286 342
#     4  10  18  34  58  82 109 149 190 230 278 336
#     4   8  17  33  56  81 111 151 191 224 279 343
#     4  11  22  38  59  84 110 145 191 235 282 341
#
# _framework density 21.408840999999999
#
# number of rings (size 3 to 8) (size 9 to 14) (size 15 to 20)
#    0.000    2.500    1.250    2.250    1.750    1.500 
#    0.000    7.500    0.000    0.000    0.000    0.000 
#    0.000    0.000    0.000    0.000    0.000    0.000 
#
# Total GULP energy -178484.874969 kJ/mol
# GULP energy per Si atom -5577.652343 kJ/mol
# Density = 2.136011 g / cm^3
# Si number density = 21.408841 Si / 1000 Ang^3
#
#
#
# Elastic Constant Matrix: (Units=GPa)
#
#
# Indices 1 2 3 4 5 6 
#
# 1 24.0173 1.1264 0.0409 0.0000 0.0000 0.0000
# 2 1.1264 114.4359 58.9853 0.0000 0.0000 0.0000
# 3 0.0409 58.9853 79.1039 0.0000 0.0000 0.0000
# 4 0.0000 0.0000 0.0000 18.3550 0.0000 0.0000
# 5 0.0000 0.0000 0.0000 0.0000 17.0555 0.0000
# 6 0.0000 0.0000 0.0000 0.0000 0.0000 4.3876
#
#
#
# Elastic Compliance Matrix: (Units=1/GPa)
#
#
# Indices 1 2 3 4 5 6 
#
# 1 0.041666 -0.000648 0.000462 0.000000 0.000000 0.000000
# 2 -0.000648 0.014204 -0.010591 0.000000 0.000000 0.000000
# 3 0.000462 -0.010591 0.020539 0.000000 0.000000 0.000000
# 4 0.000000 0.000000 0.000000 0.054481 0.000000 0.000000
# 5 0.000000 0.000000 0.000000 0.000000 0.058632 0.000000
# 6 0.000000 0.000000 0.000000 0.000000 0.000000 0.227917
#
#
# Mechanical properties :
#
#
# Convention : Reuss Voigt Hill
#
# Bulk Modulus (GPa) = 18.23020 37.54024 27.88522
# Shear Modulus (GPa) = 10.93424 18.45325 14.69375
#
# Velocity S-wave (km/s) = 2.26240 2.93908 2.62265
# Velocity P-wave (km/s) = 3.91897 5.39357 4.71428
#
# Compressibility (1/GPa) = 0.05485403
#
# Stress axis : x y z
#
# Youngs Moduli (GPa) = 24.00028 70.40234 48.68810
#
# Poissons Ratio (x) = 0.04563 -0.02248
# Poissons Ratio (y) = 0.01556 0.51567
# Poissons Ratio (z) = -0.01108 0.74565
#
# Static dielectric constant tensor:
#      x y z
#    x 1.809890 0.000000 0.000000 
#    y 0.000000 1.776910 0.000000 
#    z 0.000000 0.000000 1.771690 
# 
# From -- ./inp_files/3653.got.cif
#   From: 2010.05.17/outbox.cif.g08.bks.cpg/sg31_2_cif.got.tgz:3653.got - 2010.06.03 17:08:30.
