data_PCOD9342337
_publ_section_title
;
Structure prediction by ZEFSAII (Michael W. Deem and Ramdas Pophale) SiO2 
 PCOD9342337
Probable space group: P N C 2
;
_chemical_formula_sum "Si O2"
_cell_formula_units_Z 18
_cell_length_a 9.282790
_cell_length_b 9.283181
_cell_length_c 11.432710
_cell_angle_alpha 90.000000
_cell_angle_beta 90.000000
_cell_angle_gamma 90.000000
_cell_volume 985.200291
_symmetry_space_group_name_H-M "P N C 2"
_symmetry_group_IT_number 30
_symmetry_cell_setting 'orthorhombic'
loop_
_space_group_symop_operation_xyz
x,y,z
-x,-y,z
-x,1/2+y,1/2+z
x,1/2-y,1/2+z
loop_
_atom_site_type_symbol
_atom_site_label
_atom_site_fract_x
_atom_site_fract_y
_atom_site_fract_z
Si Si1 0.330399 0.021147 0.755180
Si Si2 0.150207 0.212881 0.316037
Si Si3 0.000000 0.000000 0.132620
Si Si4 0.832579 0.483271 0.016471
Si Si5 0.135043 0.830932 0.923245
O O1 0.279506 0.184470 0.779294
O O2 0.500000 0.000000 0.763018
O O3 0.270651 0.985483 0.626654
O O4 0.248644 0.918757 0.847507
O O5 0.016604 0.314572 0.354618
O O6 0.090498 0.108130 0.214580
O O7 0.190397 0.113742 0.426416
O O8 0.101611 0.908385 0.046227
O O9 0.000000 0.500000 0.055999
O O10 0.818791 0.332691 0.948800
#
# Coordination Sequence:
#
# PCOD9342337 Si02
#       5
#     4   4   2   4   4
#     4  12  26  41  60  92 138 173 203 250 328 402
#     4  11  21  42  69  98 119 163 219 274 317 367
#     4  12  20  36  74  98 122 158 222 282 314 360
#     4  10  22  41  69  93 120 160 218 272 314 362
#     4  11  21  40  67  94 124 160 217 269 318 368
#
# _framework density 18.270395000000001
#
# number of rings (size 3 to 8) (size 9 to 14) (size 15 to 20)
#    0.000    0.889    5.556    5.333    0.000    1.778 
#    0.000    0.000    0.000    0.000    0.000    0.000 
#    0.000    0.000    0.000    0.000    0.000    0.000 
#
# Total GULP energy -100631.180830 kJ/mol
# GULP energy per Si atom -5590.621157 kJ/mol
# Density = 1.822881 g / cm^3
# Si number density = 18.270395 Si / 1000 Ang^3
#
#
#
# Elastic Constant Matrix: (Units=GPa)
#
#
# Indices 1 2 3 4 5 6 
#
# 1 125.4073 76.9345 68.0077 0.0000 0.0000 0.0000
# 2 76.9345 110.3486 41.8878 0.0000 0.0000 0.0000
# 3 68.0077 41.8878 101.4669 0.0000 0.0000 0.0000
# 4 0.0000 0.0000 0.0000 34.4802 0.0000 0.0000
# 5 0.0000 0.0000 0.0000 0.0000 9.9668 0.0000
# 6 0.0000 0.0000 0.0000 0.0000 0.0000 18.4940
#
#
#
# Elastic Compliance Matrix: (Units=1/GPa)
#
#
# Indices 1 2 3 4 5 6 
#
# 1 0.018460 -0.009692 -0.008371 0.000000 0.000000 0.000000
# 2 -0.009692 0.015835 -0.000041 0.000000 0.000000 0.000000
# 3 -0.008371 -0.000041 0.015483 0.000000 0.000000 0.000000
# 4 0.000000 0.000000 0.000000 0.029002 0.000000 0.000000
# 5 0.000000 0.000000 0.000000 0.000000 0.100333 0.000000
# 6 0.000000 0.000000 0.000000 0.000000 0.000000 0.054072
#
#
# Mechanical properties :
#
#
# Convention : Reuss Voigt Hill
#
# Bulk Modulus (GPa) = 73.69755 78.98698 76.34226
# Shear Modulus (GPa) = 18.25371 22.61439 20.43405
#
# Velocity S-wave (km/s) = 3.16426 3.52200 3.34791
# Velocity P-wave (km/s) = 7.33313 7.73727 7.53791
#
# Compressibility (1/GPa) = 0.01356897
#
# Stress axis : x y z
#
# Youngs Moduli (GPa) = 54.17176 63.15056 64.58629
#
# Poissons Ratio (x) = 0.61208 0.54068
# Poissons Ratio (y) = 0.52505 0.00264
# Poissons Ratio (z) = 0.45349 0.00258
#
# Static dielectric constant tensor:
#      x y z
#    x 1.596310 0.000000 0.000000 
#    y 0.000000 1.653470 0.000000 
#    z 0.000000 0.000000 1.626990 
# 
# From -- ./inp_files/1671.got.cif
#   From: 2010.05.17/outbox.cif.g08.bks.cpg/sg30_1_cif.got.tgz:1671.got - 2010.06.03 17:03:02.
