data_PCOD9342167
_publ_section_title
;
Structure prediction by ZEFSAII (Michael W. Deem and Ramdas Pophale) SiO2 
 PCOD9342167
Probable space group: P N C 2
;
_chemical_formula_sum "Si O2"
_cell_formula_units_Z 30
_cell_length_a 23.201535
_cell_length_b 5.191161
_cell_length_c 12.812397
_cell_angle_alpha 90.000000
_cell_angle_beta 90.000000
_cell_angle_gamma 90.000000
_cell_volume 1543.162297
_symmetry_space_group_name_H-M "P N C 2"
_symmetry_group_IT_number 30
_symmetry_cell_setting 'orthorhombic'
loop_
_space_group_symop_operation_xyz
x,y,z
-x,-y,z
-x,1/2+y,1/2+z
x,1/2-y,1/2+z
loop_
_atom_site_type_symbol
_atom_site_label
_atom_site_fract_x
_atom_site_fract_y
_atom_site_fract_z
Si Si1 0.119928 0.064113 0.519970
Si Si2 0.593677 0.093162 0.764718
Si Si3 0.785180 0.932044 0.340792
Si Si4 0.436466 0.401831 0.034429
Si Si5 0.649971 0.572377 0.850449
Si Si6 0.500000 0.000000 0.928796
Si Si7 0.066054 0.567324 0.431432
Si Si8 0.159912 0.930759 0.750567
O O1 0.175264 0.048254 0.443800
O O2 0.092810 0.346892 0.506390
O O3 0.075063 0.848105 0.480832
O O4 0.139459 0.992755 0.635075
O O5 0.629585 0.356145 0.767954
O O6 0.574418 0.998218 0.650603
O O7 0.630216 0.854269 0.811534
O O8 0.539457 0.145163 0.841521
O O9 0.717969 0.950815 0.364765
O O10 0.798394 0.657701 0.289180
O O11 0.807877 0.159685 0.265701
O O12 0.500000 0.500000 0.000740
O O13 0.384699 0.477174 0.958024
O O14 0.450638 0.104230 0.008178
O O15 0.104476 0.563563 0.326829
O O16 0.000000 0.500000 0.411159
#
# Coordination Sequence:
#
# PCOD9342167 Si02
#       8
#     4   4   4   4   4   2   4   4
#     4  10  21  39  62  86 119 167 204 242 300 349
#     4  11  24  39  63  87 119 153 193 237 304 358
#     4  10  22  40  61  85 121 154 206 252 296 349
#     4  11  23  40  65  87 120 155 194 236 308 368
#     4  11  25  41  59  93 119 152 199 255 294 358
#     4  10  22  40  60  86 118 154 188 236 288 370
#     4  10  21  36  58  94 128 156 200 249 292 352
#     4  10  21  40  63  87 119 166 200 245 300 351
#
# _framework density 19.440598999999999
#
# number of rings (size 3 to 8) (size 9 to 14) (size 15 to 20)
#    0.000    1.600    2.000    2.000    1.867    3.200 
#    0.000    0.000    0.000    0.000    0.000    0.000 
#    0.000    0.000    0.000    0.000    0.000    0.000 
#
# Total GULP energy -167308.331182 kJ/mol
# GULP energy per Si atom -5576.944373 kJ/mol
# Density = 1.939635 g / cm^3
# Si number density = 19.440599 Si / 1000 Ang^3
#
#
#
# Elastic Constant Matrix: (Units=GPa)
#
#
# Indices 1 2 3 4 5 6 
#
# 1 116.7292 2.1246 2.9851 0.0000 0.0000 0.0000
# 2 2.1246 33.6416 5.9285 0.0000 0.0000 0.0000
# 3 2.9851 5.9285 72.3693 0.0000 0.0000 0.0000
# 4 0.0000 0.0000 0.0000 15.6371 0.0000 0.0000
# 5 0.0000 0.0000 0.0000 0.0000 5.8312 0.0000
# 6 0.0000 0.0000 0.0000 0.0000 0.0000 12.3118
#
#
#
# Elastic Compliance Matrix: (Units=1/GPa)
#
#
# Indices 1 2 3 4 5 6 
#
# 1 0.008584 -0.000487 -0.000314 0.000000 0.000000 0.000000
# 2 -0.000487 0.030188 -0.002453 0.000000 0.000000 0.000000
# 3 -0.000314 -0.002453 0.014032 0.000000 0.000000 0.000000
# 4 0.000000 0.000000 0.000000 0.063950 0.000000 0.000000
# 5 0.000000 0.000000 0.000000 0.000000 0.171491 0.000000
# 6 0.000000 0.000000 0.000000 0.000000 0.000000 0.081223
#
#
# Mechanical properties :
#
#
# Convention : Reuss Voigt Hill
#
# Bulk Modulus (GPa) = 21.60014 27.20185 24.40100
# Shear Modulus (GPa) = 12.77442 20.86950 16.82196
#
# Velocity S-wave (km/s) = 2.56618 3.27999 2.94479
# Velocity P-wave (km/s) = 4.46266 5.32608 4.91337
#
# Compressibility (1/GPa) = 0.04629599
#
# Stress axis : x y z
#
# Youngs Moduli (GPa) = 116.49949 33.12567 71.26612
#
# Poissons Ratio (x) = 0.01612 0.02239
# Poissons Ratio (y) = 0.05670 0.17481
# Poissons Ratio (z) = 0.03660 0.08126
#
# Static dielectric constant tensor:
#      x y z
#    x 1.654550 0.000000 0.000000 
#    y 0.000000 2.285400 0.000000 
#    z 0.000000 0.000000 1.646240 
# 
# From -- ./inp_files/4479.got.cif
#   From: 2010.05.17/outbox.cif.g08.bks.cpg/sg30_3_cif.got.tgz:4479.got - 2010.06.03 17:03:02.
