data_PCOD9342819
_publ_section_title
;
Structure prediction by ZEFSAII (Michael W. Deem and Ramdas Pophale) SiO2 
 PCOD9342819
Probable space group: P M N 21
;
_chemical_formula_sum "Si O2"
_cell_formula_units_Z 32
_cell_length_a 7.691503
_cell_length_b 7.806434
_cell_length_c 19.203782
_cell_angle_alpha 90.000000
_cell_angle_beta 90.000000
_cell_angle_gamma 90.000000
_cell_volume 1153.056726
_symmetry_space_group_name_H-M "P M N 21"
_symmetry_group_IT_number 31
_symmetry_cell_setting 'orthorhombic'
loop_
_space_group_symop_operation_xyz
x,y,z
1/2-x,-y,1/2+z
-x,y,z
1/2+x,-y,1/2+z
loop_
_atom_site_type_symbol
_atom_site_label
_atom_site_fract_x
_atom_site_fract_y
_atom_site_fract_z
Si Si1 0.293550 0.239406 0.448670
Si Si2 0.295221 0.533605 0.102886
Si Si3 0.205131 0.023973 0.573931
Si Si4 0.295693 0.577041 0.816401
Si Si5 0.706785 0.799394 0.693453
Si Si6 0.292587 0.915972 0.360350
Si Si7 0.711221 0.301764 0.986169
Si Si8 0.702414 0.747556 0.229000
O O1 0.500000 0.242171 0.443786
O O2 0.251571 0.191966 0.528904
O O3 0.221568 0.072865 0.405816
O O4 0.226765 0.388979 0.398231
O O5 0.500000 0.574044 0.094006
O O6 0.286820 0.354547 0.146997
O O7 0.221669 0.467518 0.028582
O O8 0.218653 0.672170 0.157281
O O9 0.248496 0.976652 0.653860
O O10 0.279185 0.863094 0.530392
O O11 0.000000 0.013377 0.569671
O O12 0.500000 0.546630 0.804558
O O13 0.240127 0.746862 0.771846
O O14 0.199570 0.422437 0.778654
O O15 0.500000 0.785096 0.689637
O O16 0.500000 0.938287 0.352624
O O17 0.262747 0.750255 0.408945
O O18 0.215672 0.881051 0.283973
O O19 0.500000 0.308231 0.989078
O O20 0.500000 0.790749 0.215581
#
# Coordination Sequence:
#
# PCOD9342819 Si02
#       8
#     4   4   4   4   4   4   4   4
#     4  10  19  31  48  70  96 126 158 192 234 280
#     4   8  14  25  42  63  86 114 149 188 229 269
#     4   9  16  27  44  66  91 118 152 193 234 275
#     4  10  20  32  47  70  97 124 157 194 232 277
#     4   9  16  26  42  65  91 117 149 191 234 274
#     4   9  18  30  46  69  93 119 152 189 229 275
#     4   8  14  24  40  63  88 115 146 183 227 270
#     4   9  17  31  49  68  92 121 153 190 231 274
#
# _framework density 27.752319
#
# number of rings (size 3 to 8) (size 9 to 14) (size 15 to 20)
#    0.000    3.000    0.000    2.250    0.000    5.500 
#    0.000    0.000    0.000    1.500    0.000    5.250 
#    0.000    0.000    0.000    0.000    0.000    0.000 
#
# Total GULP energy -178913.837680 kJ/mol
# GULP energy per Si atom -5591.057427 kJ/mol
# Density = 2.768915 g / cm^3
# Si number density = 27.752319 Si / 1000 Ang^3
#
#
#
# Elastic Constant Matrix: (Units=GPa)
#
#
# Indices 1 2 3 4 5 6 
#
# 1 99.1831 -9.4402 -4.9922 0.0000 0.0000 0.0000
# 2 -9.4402 79.4853 -1.8302 0.0000 0.0000 0.0000
# 3 -4.9922 -1.8302 215.7861 0.0000 0.0000 0.0000
# 4 0.0000 0.0000 0.0000 52.1014 0.0000 0.0000
# 5 0.0000 0.0000 0.0000 0.0000 18.2903 0.0000
# 6 0.0000 0.0000 0.0000 0.0000 0.0000 24.8417
#
#
#
# Elastic Compliance Matrix: (Units=1/GPa)
#
#
# Indices 1 2 3 4 5 6 
#
# 1 0.010211 0.001218 0.000247 0.000000 0.000000 0.000000
# 2 0.001218 0.012729 0.000136 0.000000 0.000000 0.000000
# 3 0.000247 0.000136 0.004641 0.000000 0.000000 0.000000
# 4 0.000000 0.000000 0.000000 0.019193 0.000000 0.000000
# 5 0.000000 0.000000 0.000000 0.000000 0.054674 0.000000
# 6 0.000000 0.000000 0.000000 0.000000 0.000000 0.040255
#
#
# Mechanical properties :
#
#
# Convention : Reuss Voigt Hill
#
# Bulk Modulus (GPa) = 32.48573 40.21438 36.35006
# Shear Modulus (GPa) = 33.61089 46.42782 40.01935
#
# Velocity S-wave (km/s) = 3.48386 4.09459 3.80151
# Velocity P-wave (km/s) = 5.28338 6.07257 5.69167
#
# Compressibility (1/GPa) = 0.03078274
#
# Stress axis : x y z
#
# Youngs Moduli (GPa) = 97.93612 78.56210 215.46716
#
# Poissons Ratio (x) = -0.09572 -0.05312
# Poissons Ratio (y) = -0.11932 -0.02933
# Poissons Ratio (z) = -0.02415 -0.01070
#
# Static dielectric constant tensor:
#      x y z
#    x 1.952760 0.000000 0.000000 
#    y 0.000000 2.331620 0.000000 
#    z 0.000000 0.000000 2.223660 
# 
# From -- ./inp_files/5881.got.cif
#   From: 2010.05.17/outbox.cif.g08.bks.cpg/sg31_3_cif.got.tgz:5881.got - 2010.06.03 17:08:30.
