data_PCOD9342469
_publ_section_title
;
Structure prediction by ZEFSAII (Michael W. Deem and Ramdas Pophale) SiO2 
 PCOD9342469
Probable space group: P N C 2
;
_chemical_formula_sum "Si O2"
_cell_formula_units_Z 28
_cell_length_a 5.609297
_cell_length_b 17.939305
_cell_length_c 12.410150
_cell_angle_alpha 90.000000
_cell_angle_beta 90.000000
_cell_angle_gamma 90.000000
_cell_volume 1248.794795
_symmetry_space_group_name_H-M "P N C 2"
_symmetry_group_IT_number 30
_symmetry_cell_setting 'orthorhombic'
loop_
_space_group_symop_operation_xyz
x,y,z
-x,-y,z
-x,1/2+y,1/2+z
x,1/2-y,1/2+z
loop_
_atom_site_type_symbol
_atom_site_label
_atom_site_fract_x
_atom_site_fract_y
_atom_site_fract_z
Si Si1 0.000000 0.000000 0.549930
Si Si2 0.714676 0.777478 0.842824
Si Si3 0.332784 0.877894 0.897091
Si Si4 0.751049 0.458462 0.607633
Si Si5 0.500000 0.500000 0.918401
Si Si6 0.898677 0.222803 0.471992
Si Si7 0.072339 0.643515 0.184518
Si Si8 0.621707 0.356108 0.793111
O O1 0.750182 0.007137 0.483892
O O2 0.962836 0.926959 0.623394
O O3 0.606921 0.854723 0.887567
O O4 0.899400 0.802794 0.752109
O O5 0.534685 0.718899 0.788366
O O6 0.823847 0.736288 0.947293
O O7 0.218197 0.801726 0.943830
O O8 0.248784 0.888030 0.775021
O O9 0.259697 0.939949 0.980955
O O10 0.500000 0.500000 0.629106
O O11 0.732055 0.384683 0.681721
O O12 0.000000 0.500000 0.633119
O O13 0.481168 0.425639 0.845546
O O14 0.821825 0.164994 0.380060
O O15 0.825277 0.193090 0.587566
#
# Coordination Sequence:
#
# PCOD9342469 Si02
#       8
#     2   4   4   4   2   4   4   4
#     4  12  28  44  78 106 156 194 242 316 370 462
#     4  10  25  43  74 107 144 195 244 320 362 454
#     4  10  27  45  68 104 144 194 249 297 368 445
#     4  12  31  48  76 105 151 203 246 304 370 454
#     4  12  26  48  72 112 148 192 252 306 390 436
#     4  10  23  45  73 104 142 183 250 310 370 433
#     4  11  25  44  73 104 145 193 247 303 379 437
#     4  11  25  46  74 109 148 192 252 316 375 440
#
# _framework density 22.421620000000001
#
# number of rings (size 3 to 8) (size 9 to 14) (size 15 to 20)
#    0.000    1.143    2.143    0.857   18.000    1.143 
#    0.000    0.000    0.000    0.000    0.000    0.000 
#    0.000    0.000    0.000    0.000    0.000    0.000 
#
# Total GULP energy -156275.993184 kJ/mol
# GULP energy per Si atom -5581.285471 kJ/mol
# Density = 2.237059 g / cm^3
# Si number density = 22.421620 Si / 1000 Ang^3
#
#
#
# Elastic Constant Matrix: (Units=GPa)
#
#
# Indices 1 2 3 4 5 6 
#
# 1 80.6564 9.0036 30.6079 0.0000 0.0000 0.0000
# 2 9.0036 55.2567 4.8153 0.0000 0.0000 0.0000
# 3 30.6079 4.8153 115.9648 0.0000 0.0000 0.0000
# 4 0.0000 0.0000 0.0000 47.8927 0.0000 0.0000
# 5 0.0000 0.0000 0.0000 0.0000 17.1000 0.0000
# 6 0.0000 0.0000 0.0000 0.0000 0.0000 29.2400
#
#
#
# Elastic Compliance Matrix: (Units=1/GPa)
#
#
# Indices 1 2 3 4 5 6 
#
# 1 0.013988 -0.001965 -0.003610 0.000000 0.000000 0.000000
# 2 -0.001965 0.018439 -0.000247 0.000000 0.000000 0.000000
# 3 -0.003610 -0.000247 0.009586 0.000000 0.000000 0.000000
# 4 0.000000 0.000000 0.000000 0.020880 0.000000 0.000000
# 5 0.000000 0.000000 0.000000 0.000000 0.058480 0.000000
# 6 0.000000 0.000000 0.000000 0.000000 0.000000 0.034200
#
#
# Mechanical properties :
#
#
# Convention : Reuss Voigt Hill
#
# Bulk Modulus (GPa) = 32.92822 37.85905 35.39363
# Shear Modulus (GPa) = 28.19450 32.67661 30.43555
#
# Velocity S-wave (km/s) = 3.54993 3.82169 3.68832
# Velocity P-wave (km/s) = 5.61431 6.03287 5.82735
#
# Compressibility (1/GPa) = 0.03036909
#
# Stress axis : x y z
#
# Youngs Moduli (GPa) = 71.49168 54.23287 104.31355
#
# Poissons Ratio (x) = 0.10654 0.37661
# Poissons Ratio (y) = 0.14045 0.02578
# Poissons Ratio (z) = 0.25811 0.01340
#
# Static dielectric constant tensor:
#      x y z
#    x 1.961360 0.000000 0.000000 
#    y 0.000000 1.845730 0.000000 
#    z 0.000000 0.000000 1.817690 
# 
# From -- ./inp_files/3230.got.cif
#   From: 2010.05.17/outbox.cif.g08.bks.cpg/sg30_2_cif.got.tgz:3230.got - 2010.06.03 17:03:02.
