data_PCOD9342568
_publ_section_title
;
Structure prediction by ZEFSAII (Michael W. Deem and Ramdas Pophale) SiO2 
 PCOD9342568
Probable space group: P N C 2
;
_chemical_formula_sum "Si O2"
_cell_formula_units_Z 24
_cell_length_a 8.282106
_cell_length_b 16.133086
_cell_length_c 9.202485
_cell_angle_alpha 90.000000
_cell_angle_beta 90.000000
_cell_angle_gamma 90.000000
_cell_volume 1229.598576
_symmetry_space_group_name_H-M "P N C 2"
_symmetry_group_IT_number 30
_symmetry_cell_setting 'orthorhombic'
loop_
_space_group_symop_operation_xyz
x,y,z
-x,-y,z
-x,1/2+y,1/2+z
x,1/2-y,1/2+z
loop_
_atom_site_type_symbol
_atom_site_label
_atom_site_fract_x
_atom_site_fract_y
_atom_site_fract_z
Si Si1 0.199397 0.168309 0.178330
Si Si2 0.841181 0.332485 0.799332
Si Si3 0.696957 0.191837 0.601632
Si Si4 0.689936 0.017144 0.148337
Si Si5 0.402813 0.583860 0.346484
Si Si6 0.390304 0.253676 0.432317
O O1 0.326866 0.199901 0.298750
O O2 0.021362 0.178278 0.241255
O O3 0.227475 0.071959 0.143463
O O4 0.241709 0.220559 0.035090
O O5 0.732292 0.269279 0.705935
O O6 0.772295 0.423622 0.765506
O O7 0.821186 0.313032 0.968904
O O8 0.697528 0.113058 0.707625
O O9 0.523345 0.204172 0.525501
O O10 0.500000 0.000000 0.176481
O O11 0.696876 0.064033 0.992747
O O12 0.500000 0.500000 0.315526
O O13 0.522585 0.660763 0.382433
#
# Coordination Sequence:
#
# PCOD9342568 Si02
#       6
#     4   4   4   4   4   4
#     4  12  25  40  67  98 138 172 219 285 343 395
#     4  12  24  41  63 100 137 178 218 281 345 392
#     4  12  22  41  69  94 131 179 230 271 326 409
#     4  11  21  43  67  95 128 177 228 271 332 407
#     4  11  22  39  69  99 122 167 234 282 319 391
#     4  12  21  42  67  97 128 175 235 271 325 411
#
# _framework density 19.518567000000001
#
# number of rings (size 3 to 8) (size 9 to 14) (size 15 to 20)
#    0.000    0.333    8.333    2.500    0.000    2.000 
#    0.000    0.000    0.000    0.000    0.000    0.000 
#    0.000    0.000    0.000    0.000    0.000    0.000 
#
# Total GULP energy -134177.664407 kJ/mol
# GULP energy per Si atom -5590.736017 kJ/mol
# Density = 1.947414 g / cm^3
# Si number density = 19.518567 Si / 1000 Ang^3
#
#
#
# Elastic Constant Matrix: (Units=GPa)
#
#
# Indices 1 2 3 4 5 6 
#
# 1 61.3951 0.5140 24.8527 0.0000 0.0000 0.0000
# 2 0.5140 77.1831 30.2187 0.0000 0.0000 0.0000
# 3 24.8527 30.2187 105.3709 0.0000 0.0000 0.0000
# 4 0.0000 0.0000 0.0000 39.3660 0.0000 0.0000
# 5 0.0000 0.0000 0.0000 0.0000 35.9817 0.0000
# 6 0.0000 0.0000 0.0000 0.0000 0.0000 18.6581
#
#
#
# Elastic Compliance Matrix: (Units=1/GPa)
#
#
# Indices 1 2 3 4 5 6 
#
# 1 0.018217 0.001758 -0.004801 0.000000 0.000000 0.000000
# 2 0.001758 0.014765 -0.004649 0.000000 0.000000 0.000000
# 3 -0.004801 -0.004649 0.011956 0.000000 0.000000 0.000000
# 4 0.000000 0.000000 0.000000 0.025403 0.000000 0.000000
# 5 0.000000 0.000000 0.000000 0.000000 0.027792 0.000000
# 6 0.000000 0.000000 0.000000 0.000000 0.000000 0.053596
#
#
# Mechanical properties :
#
#
# Convention : Reuss Voigt Hill
#
# Bulk Modulus (GPa) = 33.83623 39.45777 36.64700
# Shear Modulus (GPa) = 28.25464 31.35872 29.80668
#
# Velocity S-wave (km/s) = 3.80883 4.01260 3.91204
# Velocity P-wave (km/s) = 6.05937 6.45967 6.26272
#
# Compressibility (1/GPa) = 0.02955412
#
# Stress axis : x y z
#
# Youngs Moduli (GPa) = 54.89503 67.72924 83.64101
#
# Poissons Ratio (x) = -0.11909 0.40154
# Poissons Ratio (y) = -0.09652 0.38885
# Poissons Ratio (z) = 0.26354 0.31487
#
# Static dielectric constant tensor:
#      x y z
#    x 1.693850 0.000000 0.000000 
#    y 0.000000 1.673060 0.000000 
#    z 0.000000 0.000000 1.698720 
# 
# From -- ./inp_files/1817.got.cif
#   From: 2010.05.17/outbox.cif.g08.bks.cpg/sg30_1_cif.got.tgz:1817.got - 2010.06.03 17:03:02.
