data_PCOD9342551
_publ_section_title
;
Structure prediction by ZEFSAII (Michael W. Deem and Ramdas Pophale) SiO2 
 PCOD9342551
Probable space group: P N C 2
;
_chemical_formula_sum "Si O2"
_cell_formula_units_Z 28
_cell_length_a 7.597197
_cell_length_b 22.250050
_cell_length_c 7.512652
_cell_angle_alpha 90.000000
_cell_angle_beta 90.000000
_cell_angle_gamma 90.000000
_cell_volume 1269.923767
_symmetry_space_group_name_H-M "P N C 2"
_symmetry_group_IT_number 30
_symmetry_cell_setting 'orthorhombic'
loop_
_space_group_symop_operation_xyz
x,y,z
-x,-y,z
-x,1/2+y,1/2+z
x,1/2-y,1/2+z
loop_
_atom_site_type_symbol
_atom_site_label
_atom_site_fract_x
_atom_site_fract_y
_atom_site_fract_z
Si Si1 0.738737 0.843806 0.267310
Si Si2 0.954502 0.430812 0.806253
Si Si3 0.337627 0.218260 0.639957
Si Si4 0.435599 0.934618 0.147459
Si Si5 0.277869 0.781751 0.126166
Si Si6 0.201073 0.837045 0.513805
Si Si7 0.436987 0.636872 0.329672
O O1 0.720096 0.820695 0.471461
O O2 0.768387 0.779336 0.173494
O O3 0.891352 0.891154 0.218114
O O4 0.559991 0.880945 0.222886
O O5 0.767265 0.430247 0.706017
O O6 0.930094 0.391865 0.985627
O O7 0.000000 0.500000 0.833092
O O8 0.533856 0.247549 0.621142
O O9 0.379365 0.172949 0.803906
O O10 0.353336 0.866234 0.634788
O O11 0.500000 0.000000 0.204663
O O12 0.455606 0.924540 0.935766
O O13 0.248300 0.812976 0.315234
O O14 0.145342 0.725764 0.103415
O O15 0.301540 0.825757 0.958014
#
# Coordination Sequence:
#
# PCOD9342551 Si02
#       7
#     4   4   4   4   4   4   4
#     4  12  24  44  74 107 147 188 237 298 369 433
#     4  12  27  48  69 101 146 197 248 300 353 431
#     4  11  19  39  66 111 147 170 229 304 360 429
#     4  12  24  48  75  97 140 204 246 291 357 423
#     4  11  17  35  72 105 140 179 227 289 360 434
#     4  11  22  38  68 106 143 180 229 296 363 423
#     4  11  21  40  73 110 140 178 242 292 359 438
#
# _framework density 22.048570000000002
#
# number of rings (size 3 to 8) (size 9 to 14) (size 15 to 20)
#    0.000    0.571    8.571    2.571    0.000    1.143 
#    2.571    2.143    0.000    0.000    0.000    0.000 
#    0.000    0.000    0.000    0.000    0.000    0.000 
#
# Total GULP energy -155933.583801 kJ/mol
# GULP energy per Si atom -5569.056564 kJ/mol
# Density = 2.199839 g / cm^3
# Si number density = 22.048570 Si / 1000 Ang^3
#
#
#
# Elastic Constant Matrix: (Units=GPa)
#
#
# Indices 1 2 3 4 5 6 
#
# 1 105.6717 65.6281 25.6001 0.0000 0.0000 0.0000
# 2 65.6281 159.0221 39.5127 0.0000 0.0000 0.0000
# 3 25.6001 39.5127 105.5102 0.0000 0.0000 0.0000
# 4 0.0000 0.0000 0.0000 19.8340 0.0000 0.0000
# 5 0.0000 0.0000 0.0000 0.0000 11.4945 0.0000
# 6 0.0000 0.0000 0.0000 0.0000 0.0000 41.4125
#
#
#
# Elastic Compliance Matrix: (Units=1/GPa)
#
#
# Indices 1 2 3 4 5 6 
#
# 1 0.012873 -0.005002 -0.001250 0.000000 0.000000 0.000000
# 2 -0.005002 0.008877 -0.002111 0.000000 0.000000 0.000000
# 3 -0.001250 -0.002111 0.010572 0.000000 0.000000 0.000000
# 4 0.000000 0.000000 0.000000 0.050418 0.000000 0.000000
# 5 0.000000 0.000000 0.000000 0.000000 0.086998 0.000000
# 6 0.000000 0.000000 0.000000 0.000000 0.000000 0.024147
#
#
# Mechanical properties :
#
#
# Convention : Reuss Voigt Hill
#
# Bulk Modulus (GPa) = 64.12033 70.18730 67.15382
# Shear Modulus (GPa) = 23.16858 30.51241 26.84050
#
# Velocity S-wave (km/s) = 3.24512 3.72408 3.49282
# Velocity P-wave (km/s) = 6.57157 7.09886 6.84030
#
# Compressibility (1/GPa) = 0.01559568
#
# Stress axis : x y z
#
# Youngs Moduli (GPa) = 77.68461 112.64847 94.59343
#
# Poissons Ratio (x) = 0.56345 0.11825
# Poissons Ratio (y) = 0.38857 0.19967
# Poissons Ratio (z) = 0.09712 0.23778
#
# Static dielectric constant tensor:
#      x y z
#    x 1.982580 0.000000 0.000000 
#    y 0.000000 1.871380 0.000000 
#    z 0.000000 0.000000 1.867180 
# 
# From -- ./inp_files/2139.got.cif
#   From: 2010.05.17/outbox.cif.g08.bks.cpg/sg30_2_cif.got.tgz:2139.got - 2010.06.03 17:03:02.
