data_PCOD9342920
_publ_section_title
;
Structure prediction by ZEFSAII (Michael W. Deem and Ramdas Pophale) SiO2 
 PCOD9342920
Probable space group: P M N 21
;
_chemical_formula_sum "Si O2"
_cell_formula_units_Z 32
_cell_length_a 7.703937
_cell_length_b 11.295174
_cell_length_c 14.426514
_cell_angle_alpha 90.000000
_cell_angle_beta 90.000000
_cell_angle_gamma 90.000000
_cell_volume 1255.356425
_symmetry_space_group_name_H-M "P M N 21"
_symmetry_group_IT_number 31
_symmetry_cell_setting 'orthorhombic'
loop_
_space_group_symop_operation_xyz
x,y,z
1/2-x,-y,1/2+z
-x,y,z
1/2+x,-y,1/2+z
loop_
_atom_site_type_symbol
_atom_site_label
_atom_site_fract_x
_atom_site_fract_y
_atom_site_fract_z
Si Si1 0.803365 0.062006 0.230270
Si Si2 0.292363 0.830585 0.436769
Si Si3 0.701818 0.206939 0.395780
Si Si4 0.795181 0.544022 0.101823
Si Si5 0.288313 0.458534 0.388181
Si Si6 0.290550 0.685099 0.271562
Si Si7 0.214190 0.942509 0.054176
Si Si8 0.699767 0.286798 0.117957
O O1 0.711210 0.098712 0.324324
O O2 0.726483 0.966546 0.158721
O O3 0.804021 0.184912 0.171062
O O4 0.000000 0.030608 0.253270
O O5 0.500000 0.841864 0.431362
O O6 0.228627 0.795533 0.334456
O O7 0.228403 0.946194 0.490628
O O8 0.250760 0.725823 0.509728
O O9 0.500000 0.229769 0.413842
O O10 0.769059 0.328722 0.352974
O O11 0.776066 0.168405 0.494617
O O12 0.762078 0.657338 0.166627
O O13 0.720996 0.423094 0.145771
O O14 0.000000 0.527943 0.096891
O O15 0.732629 0.547177 0.995833
O O16 0.500000 0.468320 0.384858
O O17 0.226444 0.569612 0.329283
O O18 0.500000 0.688183 0.272476
O O19 0.000000 0.943155 0.058077
O O20 0.500000 0.253857 0.131685
#
# Coordination Sequence:
#
# PCOD9342920 Si02
#       8
#     4   4   4   4   4   4   4   4
#     4  10  20  36  57  84 112 148 189 232 285 334
#     4   9  17  34  56  75 105 145 182 224 279 331
#     4  10  19  36  59  82 109 147 193 234 274 335
#     4  11  21  35  52  78 112 149 183 221 280 343
#     4   9  19  35  55  77 108 147 181 222 279 331
#     4  10  19  34  54  78 108 145 187 227 276 336
#     4   8  17  34  57  80 106 145 186 224 278 335
#     4  11  20  32  54  82 108 140 185 234 275 321
#
# _framework density 25.490769
#
# number of rings (size 3 to 8) (size 9 to 14) (size 15 to 20)
#    0.000    2.250    1.250    3.375    0.000    1.500 
#    2.250    4.375    0.000    0.000    0.000    0.000 
#    0.000    0.000    0.000    0.000    0.000    0.000 
#
# Total GULP energy -178807.945943 kJ/mol
# GULP energy per Si atom -5587.748311 kJ/mol
# Density = 2.543275 g / cm^3
# Si number density = 25.490769 Si / 1000 Ang^3
#
#
#
# Elastic Constant Matrix: (Units=GPa)
#
#
# Indices 1 2 3 4 5 6 
#
# 1 46.8489 5.0688 2.8084 0.0000 0.0000 0.0000
# 2 5.0688 44.1781 19.3443 0.0000 0.0000 0.0000
# 3 2.8084 19.3443 105.4333 0.0000 0.0000 0.0000
# 4 0.0000 0.0000 0.0000 45.7187 0.0000 0.0000
# 5 0.0000 0.0000 0.0000 0.0000 19.7052 0.0000
# 6 0.0000 0.0000 0.0000 0.0000 0.0000 9.4443
#
#
#
# Elastic Compliance Matrix: (Units=1/GPa)
#
#
# Indices 1 2 3 4 5 6 
#
# 1 0.021615 -0.002423 -0.000131 0.000000 0.000000 0.000000
# 2 -0.002423 0.024885 -0.004501 0.000000 0.000000 0.000000
# 3 -0.000131 -0.004501 0.010314 0.000000 0.000000 0.000000
# 4 0.000000 0.000000 0.000000 0.021873 0.000000 0.000000
# 5 0.000000 0.000000 0.000000 0.000000 0.050748 0.000000
# 6 0.000000 0.000000 0.000000 0.000000 0.000000 0.105884
#
#
# Mechanical properties :
#
#
# Convention : Reuss Voigt Hill
#
# Bulk Modulus (GPa) = 23.41713 27.87814 25.64764
# Shear Modulus (GPa) = 18.96362 26.25623 22.60992
#
# Velocity S-wave (km/s) = 2.73049 3.21289 2.98146
# Velocity P-wave (km/s) = 4.37575 4.97231 4.68354
#
# Compressibility (1/GPa) = 0.04270378
#
# Stress axis : x y z
#
# Youngs Moduli (GPa) = 46.26380 40.18563 96.95550
#
# Poissons Ratio (x) = 0.09735 0.01273
# Poissons Ratio (y) = 0.11208 0.43641
# Poissons Ratio (z) = 0.00607 0.18088
#
# Static dielectric constant tensor:
#      x y z
#    x 1.919050 0.000000 0.000000 
#    y 0.000000 2.064440 0.000000 
#    z 0.000000 0.000000 2.060340 
# 
# From -- ./inp_files/5094.got.cif
#   From: 2010.05.17/outbox.cif.g08.bks.cpg/sg31_3_cif.got.tgz:5094.got - 2010.06.03 17:08:30.
