data_PCOD9342256
_publ_section_title
;
Structure prediction by ZEFSAII (Michael W. Deem and Ramdas Pophale) SiO2 
 PCOD9342256
Probable space group: P N C 2
;
_chemical_formula_sum "Si O2"
_cell_formula_units_Z 20
_cell_length_a 9.009575
_cell_length_b 11.237527
_cell_length_c 7.815689
_cell_angle_alpha 90.000000
_cell_angle_beta 90.000000
_cell_angle_gamma 90.000000
_cell_volume 791.302108
_symmetry_space_group_name_H-M "P N C 2"
_symmetry_group_IT_number 30
_symmetry_cell_setting 'orthorhombic'
loop_
_space_group_symop_operation_xyz
x,y,z
-x,-y,z
-x,1/2+y,1/2+z
x,1/2-y,1/2+z
loop_
_atom_site_type_symbol
_atom_site_label
_atom_site_fract_x
_atom_site_fract_y
_atom_site_fract_z
Si Si1 0.267377 0.408227 0.661450
Si Si2 0.069314 0.891914 0.528923
Si Si3 0.092453 0.201723 0.853507
Si Si4 0.584462 0.356431 0.761829
Si Si5 0.395768 0.901002 0.643788
O O1 0.200004 0.310797 0.794972
O O2 0.173369 0.381833 0.491045
O O3 0.440613 0.374195 0.643799
O O4 0.287584 0.547521 0.714441
O O5 0.228878 0.931680 0.592431
O O6 0.961483 0.869140 0.689467
O O7 0.053110 0.767856 0.430181
O O8 0.000000 0.000000 0.422029
O O9 0.623724 0.219626 0.746698
O O10 0.532880 0.377150 0.956840
O O11 0.500000 0.000000 0.727944
#
# Coordination Sequence:
#
# PCOD9342256 Si02
#       5
#     4   4   4   4   4
#     4  10  21  42  70 107 138 186 227 290 351 428
#     4  11  25  43  67 101 137 183 233 284 354 423
#     4  10  23  42  71 100 146 178 236 291 358 416
#     4  11  24  43  72 102 144 183 242 284 363 422
#     4  12  26  47  70 103 143 184 238 297 354 426
#
# _framework density 25.274798000000001
#
# number of rings (size 3 to 8) (size 9 to 14) (size 15 to 20)
#    0.000    1.200    2.000    3.600    5.600    3.200 
#    3.600    4.000    0.000    0.000    0.000    0.000 
#    0.000    0.000    0.000    0.000    0.000    0.000 
#
# Total GULP energy -111823.749517 kJ/mol
# GULP energy per Si atom -5591.187476 kJ/mol
# Density = 2.521727 g / cm^3
# Si number density = 25.274798 Si / 1000 Ang^3
#
#
#
# Elastic Constant Matrix: (Units=GPa)
#
#
# Indices 1 2 3 4 5 6 
#
# 1 124.6619 57.2816 -4.7656 0.0000 0.0000 0.0000
# 2 57.2816 160.7770 21.3965 0.0000 0.0000 0.0000
# 3 -4.7656 21.3965 63.2617 0.0000 0.0000 0.0000
# 4 0.0000 0.0000 0.0000 28.0239 0.0000 0.0000
# 5 0.0000 0.0000 0.0000 0.0000 22.0175 0.0000
# 6 0.0000 0.0000 0.0000 0.0000 0.0000 52.6828
#
#
#
# Elastic Compliance Matrix: (Units=1/GPa)
#
#
# Indices 1 2 3 4 5 6 
#
# 1 0.009832 -0.003771 0.002016 0.000000 0.000000 0.000000
# 2 -0.003771 0.007959 -0.002976 0.000000 0.000000 0.000000
# 3 0.002016 -0.002976 0.016966 0.000000 0.000000 0.000000
# 4 0.000000 0.000000 0.000000 0.035684 0.000000 0.000000
# 5 0.000000 0.000000 0.000000 0.000000 0.045418 0.000000
# 6 0.000000 0.000000 0.000000 0.000000 0.000000 0.018982
#
#
# Mechanical properties :
#
#
# Convention : Reuss Voigt Hill
#
# Bulk Modulus (GPa) = 39.53422 55.16950 47.35186
# Shear Modulus (GPa) = 32.73659 38.86405 35.80032
#
# Velocity S-wave (km/s) = 3.60283 3.92555 3.76765
# Velocity P-wave (km/s) = 5.74307 6.51321 6.14023
#
# Compressibility (1/GPa) = 0.02529454
#
# Stress axis : x y z
#
# Youngs Moduli (GPa) = 101.71317 125.63720 58.94205
#
# Poissons Ratio (x) = 0.47379 -0.11883
# Poissons Ratio (y) = 0.38357 0.17542
# Poissons Ratio (z) = -0.20506 0.37391
#
# Static dielectric constant tensor:
#      x y z
#    x 2.005560 0.000000 0.000000 
#    y 0.000000 2.031150 0.000000 
#    z 0.000000 0.000000 1.984000 
# 
# From -- ./inp_files/1698.got.cif
#   From: 2010.05.17/outbox.cif.g08.bks.cpg/sg30_1_cif.got.tgz:1698.got - 2010.06.03 17:03:02.
