data_PCOD9342453
_publ_section_title
;
Structure prediction by ZEFSAII (Michael W. Deem and Ramdas Pophale) SiO2 
 PCOD9342453
Probable space group: P N C 2
;
_chemical_formula_sum "Si O2"
_cell_formula_units_Z 24
_cell_length_a 7.334089
_cell_length_b 11.592680
_cell_length_c 12.466582
_cell_angle_alpha 90.000000
_cell_angle_beta 90.000000
_cell_angle_gamma 90.000000
_cell_volume 1059.930579
_symmetry_space_group_name_H-M "P N C 2"
_symmetry_group_IT_number 30
_symmetry_cell_setting 'orthorhombic'
loop_
_space_group_symop_operation_xyz
x,y,z
-x,-y,z
-x,1/2+y,1/2+z
x,1/2-y,1/2+z
loop_
_atom_site_type_symbol
_atom_site_label
_atom_site_fract_x
_atom_site_fract_y
_atom_site_fract_z
Si Si1 0.299404 0.054918 0.324920
Si Si2 0.197136 0.685549 0.444754
Si Si3 0.689968 0.071844 0.524187
Si Si4 0.284809 0.028052 0.086223
Si Si5 0.223789 0.196336 0.895917
Si Si6 0.787806 0.020385 0.765234
O O1 0.216544 0.049360 0.206561
O O2 0.314843 0.184588 0.365693
O O3 0.500000 0.000000 0.312541
O O4 0.209713 0.983978 0.421652
O O5 0.304455 0.792318 0.496528
O O6 0.186871 0.580951 0.530372
O O7 0.283783 0.623683 0.340313
O O8 0.994400 0.720247 0.405539
O O9 0.500000 0.000000 0.529639
O O10 0.771678 0.049893 0.641232
O O11 0.500000 0.000000 0.087221
O O12 0.266837 0.138855 0.010065
O O13 0.285545 0.101924 0.807027
O O14 0.000000 0.000000 0.791781
#
# Coordination Sequence:
#
# PCOD9342453 Si02
#       6
#     4   4   4   4   4   4
#     4  10  25  42  63 100 137 169 224 273 327 388
#     4  10  24  45  67  99 135 174 221 273 336 392
#     4  11  26  42  64  98 135 170 225 274 325 388
#     4  10  23  43  72  97 132 179 221 269 331 398
#     4  10  23  45  69  97 136 175 219 274 333 394
#     4   9  22  44  68  98 131 173 222 267 333 400
#
# _framework density 22.642992
#
# number of rings (size 3 to 8) (size 9 to 14) (size 15 to 20)
#    0.000    2.000    0.000    1.500   11.667    5.333 
#    3.000    0.000    0.000    0.000    0.000    0.000 
#    0.000    0.000    0.000    0.000    0.000    0.000 
#
# Total GULP energy -133981.486128 kJ/mol
# GULP energy per Si atom -5582.561922 kJ/mol
# Density = 2.259146 g / cm^3
# Si number density = 22.642992 Si / 1000 Ang^3
#
#
#
# Elastic Constant Matrix: (Units=GPa)
#
#
# Indices 1 2 3 4 5 6 
#
# 1 71.1095 40.9188 -15.8791 0.0000 0.0000 0.0000
# 2 40.9188 186.9276 102.4594 0.0000 0.0000 0.0000
# 3 -15.8791 102.4594 188.5634 0.0000 0.0000 0.0000
# 4 0.0000 0.0000 0.0000 24.4318 0.0000 0.0000
# 5 0.0000 0.0000 0.0000 0.0000 17.1463 0.0000
# 6 0.0000 0.0000 0.0000 0.0000 0.0000 26.4395
#
#
#
# Elastic Compliance Matrix: (Units=1/GPa)
#
#
# Indices 1 2 3 4 5 6 
#
# 1 0.019581 -0.007392 0.005665 0.000000 0.000000 0.000000
# 2 -0.007392 0.010409 -0.006278 0.000000 0.000000 0.000000
# 3 0.005665 -0.006278 0.009192 0.000000 0.000000 0.000000
# 4 0.000000 0.000000 0.000000 0.040930 0.000000 0.000000
# 5 0.000000 0.000000 0.000000 0.000000 0.058322 0.000000
# 6 0.000000 0.000000 0.000000 0.000000 0.000000 0.037822
#
#
# Mechanical properties :
#
#
# Convention : Reuss Voigt Hill
#
# Bulk Modulus (GPa) = 43.15405 77.95540 60.55472
# Shear Modulus (GPa) = 25.00121 34.87694 29.93908
#
# Velocity S-wave (km/s) = 3.32648 3.92892 3.64018
# Velocity P-wave (km/s) = 5.81840 7.42190 6.66852
#
# Compressibility (1/GPa) = 0.02317280
#
# Stress axis : x y z
#
# Youngs Moduli (GPa) = 51.06885 96.06991 108.79207
#
# Poissons Ratio (x) = 0.71012 -0.61635
# Poissons Ratio (y) = 0.37749 0.68304
# Poissons Ratio (z) = -0.28933 0.60317
#
# Static dielectric constant tensor:
#      x y z
#    x 1.910380 0.000000 0.000000 
#    y 0.000000 1.833250 0.000000 
#    z 0.000000 0.000000 1.852890 
# 
# From -- ./inp_files/3639.got.cif
#   From: 2010.05.17/outbox.cif.g08.bks.cpg/sg30_2_cif.got.tgz:3639.got - 2010.06.03 17:03:02.
