data_PCOD9342464
_publ_section_title
;
Structure prediction by ZEFSAII (Michael W. Deem and Ramdas Pophale) SiO2 
 PCOD9342464
Probable space group: P N C 2
;
_chemical_formula_sum "Si O2"
_cell_formula_units_Z 22
_cell_length_a 6.804347
_cell_length_b 12.430848
_cell_length_c 11.325266
_cell_angle_alpha 90.000000
_cell_angle_beta 90.000000
_cell_angle_gamma 90.000000
_cell_volume 957.934072
_symmetry_space_group_name_H-M "P N C 2"
_symmetry_group_IT_number 30
_symmetry_cell_setting 'orthorhombic'
loop_
_space_group_symop_operation_xyz
x,y,z
-x,-y,z
-x,1/2+y,1/2+z
x,1/2-y,1/2+z
loop_
_atom_site_type_symbol
_atom_site_label
_atom_site_fract_x
_atom_site_fract_y
_atom_site_fract_z
Si Si1 0.324542 0.585089 0.421710
Si Si2 0.427555 0.658642 0.946548
Si Si3 0.109290 0.842055 0.277435
Si Si4 0.834396 0.378328 0.167931
Si Si5 0.880119 0.893405 0.474947
Si Si6 0.000000 0.000000 0.101267
O O1 0.500000 0.500000 0.427271
O O2 0.397010 0.710150 0.439480
O O3 0.223934 0.571142 0.292315
O O4 0.170887 0.547465 0.520964
O O5 0.313454 0.613042 0.831414
O O6 0.317141 0.606704 0.060094
O O7 0.653121 0.625166 0.955238
O O8 0.178040 0.746375 0.196817
O O9 0.992273 0.804514 0.395198
O O10 0.956551 0.906299 0.195983
O O11 0.051879 0.392077 0.111176
O O12 0.000000 0.000000 0.429759
#
# Coordination Sequence:
#
# PCOD9342464 Si02
#       6
#     4   4   4   4   4   2
#     4  11  27  42  72 109 145 193 246 304 372 448
#     4  10  24  46  70 102 146 189 243 300 375 433
#     4  10  23  45  67  99 140 186 239 299 360 435
#     4  10  24  45  67 100 144 185 234 303 364 435
#     4  11  25  43  74 104 136 191 240 297 362 442
#     4  12  24  46  68 104 144 184 250 298 366 442
#
# _framework density 22.966090000000001
#
# number of rings (size 3 to 8) (size 9 to 14) (size 15 to 20)
#    0.000    1.455    2.727    0.000    6.364    6.545 
#    0.000    0.000    0.000    0.000    0.000    0.000 
#    0.000    0.000    0.000    0.000    0.000    0.000 
#
# Total GULP energy -122559.908444 kJ/mol
# GULP energy per Si atom -5570.904929 kJ/mol
# Density = 2.291382 g / cm^3
# Si number density = 22.966090 Si / 1000 Ang^3
#
#
#
# Elastic Constant Matrix: (Units=GPa)
#
#
# Indices 1 2 3 4 5 6 
#
# 1 178.3009 56.2619 51.6427 0.0000 0.0000 0.0000
# 2 56.2619 81.1831 39.8431 0.0000 0.0000 0.0000
# 3 51.6427 39.8431 131.2510 0.0000 0.0000 0.0000
# 4 0.0000 0.0000 0.0000 32.4012 0.0000 0.0000
# 5 0.0000 0.0000 0.0000 0.0000 23.3303 0.0000
# 6 0.0000 0.0000 0.0000 0.0000 0.0000 33.5560
#
#
#
# Elastic Compliance Matrix: (Units=1/GPa)
#
#
# Indices 1 2 3 4 5 6 
#
# 1 0.007455 -0.004379 -0.001604 0.000000 0.000000 0.000000
# 2 -0.004379 0.017047 -0.003452 0.000000 0.000000 0.000000
# 3 -0.001604 -0.003452 0.009298 0.000000 0.000000 0.000000
# 4 0.000000 0.000000 0.000000 0.030863 0.000000 0.000000
# 5 0.000000 0.000000 0.000000 0.000000 0.042863 0.000000
# 6 0.000000 0.000000 0.000000 0.000000 0.000000 0.029801
#
#
# Mechanical properties :
#
#
# Convention : Reuss Voigt Hill
#
# Bulk Modulus (GPa) = 66.97974 76.24783 71.61379
# Shear Modulus (GPa) = 31.02268 34.05668 32.53968
#
# Velocity S-wave (km/s) = 3.67932 3.85504 3.76820
# Velocity P-wave (km/s) = 6.87588 7.28611 7.08396
#
# Compressibility (1/GPa) = 0.01492989
#
# Stress axis : x y z
#
# Youngs Moduli (GPa) = 134.14019 58.66202 107.55162
#
# Poissons Ratio (x) = 0.25690 0.17250
# Poissons Ratio (y) = 0.58744 0.37124
# Poissons Ratio (z) = 0.21514 0.20248
#
# Static dielectric constant tensor:
#      x y z
#    x 1.849240 0.000000 0.000000 
#    y 0.000000 2.042120 0.000000 
#    z 0.000000 0.000000 1.839300 
# 
# From -- ./inp_files/3110.got.cif
#   From: 2010.05.17/outbox.cif.g08.bks.cpg/sg30_2_cif.got.tgz:3110.got - 2010.06.03 17:03:02.
