data_PCOD9342250
_publ_section_title
;
Structure prediction by ZEFSAII (Michael W. Deem and Ramdas Pophale) SiO2 
 PCOD9342250
Probable space group: P N C 2
;
_chemical_formula_sum "Si O2"
_cell_formula_units_Z 22
_cell_length_a 5.176566
_cell_length_b 13.405810
_cell_length_c 13.756025
_cell_angle_alpha 90.000000
_cell_angle_beta 90.000000
_cell_angle_gamma 90.000000
_cell_volume 954.613940
_symmetry_space_group_name_H-M "P N C 2"
_symmetry_group_IT_number 30
_symmetry_cell_setting 'orthorhombic'
loop_
_space_group_symop_operation_xyz
x,y,z
-x,-y,z
-x,1/2+y,1/2+z
x,1/2-y,1/2+z
loop_
_atom_site_type_symbol
_atom_site_label
_atom_site_fract_x
_atom_site_fract_y
_atom_site_fract_z
Si Si1 0.000000 0.000000 0.756260
Si Si2 0.536319 0.119599 0.216186
Si Si3 0.760679 0.063726 0.567995
Si Si4 0.733337 0.223898 0.405954
Si Si5 0.230583 0.351358 0.404888
Si Si6 0.037728 0.114463 0.120998
O O1 0.185255 0.063768 0.825105
O O2 0.844024 0.071475 0.681266
O O3 0.636831 0.151188 0.320840
O O4 0.259627 0.163835 0.186169
O O5 0.753412 0.155592 0.139914
O O6 0.500000 0.000000 0.211727
O O7 0.733778 0.162807 0.506032
O O8 0.500000 0.000000 0.562795
O O9 0.000000 0.000000 0.524138
O O10 0.521791 0.311977 0.407683
O O11 0.019040 0.264933 0.385226
O O12 0.143513 0.386958 0.511943
O O13 0.000000 0.000000 0.152071
#
# Coordination Sequence:
#
# PCOD9342250 Si02
#       6
#     2   4   4   4   4   4
#     4  10  28  48  74  98 150 204 236 282 380 448
#     4  10  22  41  68  94 133 173 220 280 355 415
#     4  10  24  47  73  98 142 197 240 288 364 448
#     4  12  26  42  69 110 136 178 238 306 341 417
#     4  12  26  43  70 100 144 182 239 289 352 426
#     4  10  21  42  64  92 123 180 220 271 337 415
#
# _framework density 23.045967999999998
#
# number of rings (size 3 to 8) (size 9 to 14) (size 15 to 20)
#    0.545    0.727    0.909    3.818    2.545    6.545 
#    0.000    0.000    0.000    0.000    0.000    0.000 
#    0.000    0.000    0.000    0.000    0.000    0.000 
#
# Total GULP energy -122989.815180 kJ/mol
# GULP energy per Si atom -5590.446145 kJ/mol
# Density = 2.299351 g / cm^3
# Si number density = 23.045968 Si / 1000 Ang^3
#
#
#
# Elastic Constant Matrix: (Units=GPa)
#
#
# Indices 1 2 3 4 5 6 
#
# 1 94.2252 8.9434 17.3809 0.0000 0.0000 0.0000
# 2 8.9434 32.5993 21.5285 0.0000 0.0000 0.0000
# 3 17.3809 21.5285 106.4772 0.0000 0.0000 0.0000
# 4 0.0000 0.0000 0.0000 17.0768 0.0000 0.0000
# 5 0.0000 0.0000 0.0000 0.0000 12.8920 0.0000
# 6 0.0000 0.0000 0.0000 0.0000 0.0000 26.5845
#
#
#
# Elastic Compliance Matrix: (Units=1/GPa)
#
#
# Indices 1 2 3 4 5 6 
#
# 1 0.011069 -0.002127 -0.001377 0.000000 0.000000 0.000000
# 2 -0.002127 0.035812 -0.006893 0.000000 0.000000 0.000000
# 3 -0.001377 -0.006893 0.011010 0.000000 0.000000 0.000000
# 4 0.000000 0.000000 0.000000 0.058559 0.000000 0.000000
# 5 0.000000 0.000000 0.000000 0.000000 0.077567 0.000000
# 6 0.000000 0.000000 0.000000 0.000000 0.000000 0.037616
#
#
# Mechanical properties :
#
#
# Convention : Reuss Voigt Hill
#
# Bulk Modulus (GPa) = 26.95756 36.55635 31.75695
# Shear Modulus (GPa) = 18.88268 23.67393 21.27831
#
# Velocity S-wave (km/s) = 2.86553 3.20855 3.04188
# Velocity P-wave (km/s) = 4.76141 5.44272 5.11343
#
# Compressibility (1/GPa) = 0.03709535
#
# Stress axis : x y z
#
# Youngs Moduli (GPa) = 90.34444 27.92396 90.82511
#
# Poissons Ratio (x) = 0.05941 0.12504
# Poissons Ratio (y) = 0.19221 0.62609
# Poissons Ratio (z) = 0.12437 0.19249
#
# Static dielectric constant tensor:
#      x y z
#    x 1.880760 0.000000 0.000000 
#    y 0.000000 1.819740 0.000000 
#    z 0.000000 0.000000 1.846290 
# 
# From -- ./inp_files/3105.got.cif
#   From: 2010.05.17/outbox.cif.g08.bks.cpg/sg30_2_cif.got.tgz:3105.got - 2010.06.03 17:03:02.
