data_PCOD9342525
_publ_section_title
;
Structure prediction by ZEFSAII (Michael W. Deem and Ramdas Pophale) SiO2 
 PCOD9342525
Probable space group: P N C 2
;
_chemical_formula_sum "Si O2"
_cell_formula_units_Z 24
_cell_length_a 9.543195
_cell_length_b 8.049962
_cell_length_c 14.253282
_cell_angle_alpha 90.000000
_cell_angle_beta 90.000000
_cell_angle_gamma 90.000000
_cell_volume 1094.970720
_symmetry_space_group_name_H-M "P N C 2"
_symmetry_group_IT_number 30
_symmetry_cell_setting 'orthorhombic'
loop_
_space_group_symop_operation_xyz
x,y,z
-x,-y,z
-x,1/2+y,1/2+z
x,1/2-y,1/2+z
loop_
_atom_site_type_symbol
_atom_site_label
_atom_site_fract_x
_atom_site_fract_y
_atom_site_fract_z
Si Si1 0.874946 0.388101 0.210660
Si Si2 0.957008 0.193884 0.390331
Si Si3 0.372064 0.112077 0.797256
Si Si4 0.548804 0.819391 0.115029
Si Si5 0.755623 0.774236 0.475562
Si Si6 0.717454 0.338859 0.027810
O O1 0.945833 0.272215 0.288173
O O2 0.758341 0.500170 0.262944
O O3 0.798194 0.301032 0.124655
O O4 0.000000 0.500000 0.169662
O O5 0.808977 0.225199 0.441091
O O6 0.082504 0.262010 0.454510
O O7 0.000000 0.000000 0.382916
O O8 0.428638 0.205460 0.705226
O O9 0.321011 0.237173 0.877328
O O10 0.500000 0.000000 0.833954
O O11 0.436309 0.733218 0.044970
O O12 0.500000 0.000000 0.144993
O O13 0.691016 0.838693 0.056313
O O14 0.724543 0.961598 0.511434
#
# Coordination Sequence:
#
# PCOD9342525 Si02
#       6
#     4   4   4   4   4   4
#     4  12  23  46  73  98 143 185 231 295 355 430
#     4  10  25  43  70 105 135 187 238 288 360 425
#     4  12  25  46  72 103 140 189 239 293 368 428
#     4  12  27  44  67 104 140 189 240 294 364 433
#     4  11  23  45  71 100 140 183 240 292 354 431
#     4  11  25  47  72  99 144 187 235 297 365 423
#
# _framework density 21.918395
#
# number of rings (size 3 to 8) (size 9 to 14) (size 15 to 20)
#    0.000    0.667    5.000    2.500    4.667    4.000 
#    0.000    0.833    0.000    0.000    0.000    0.000 
#    0.000    0.000    0.000    0.000    0.000    0.000 
#
# Total GULP energy -134271.001888 kJ/mol
# GULP energy per Si atom -5594.625079 kJ/mol
# Density = 2.186851 g / cm^3
# Si number density = 21.918395 Si / 1000 Ang^3
#
#
#
# Elastic Constant Matrix: (Units=GPa)
#
#
# Indices 1 2 3 4 5 6 
#
# 1 73.2528 20.4579 -4.6986 0.0000 0.0000 0.0000
# 2 20.4579 36.8967 18.1863 0.0000 0.0000 0.0000
# 3 -4.6986 18.1863 63.1643 0.0000 0.0000 0.0000
# 4 0.0000 0.0000 0.0000 35.4345 0.0000 0.0000
# 5 0.0000 0.0000 0.0000 0.0000 40.6461 0.0000
# 6 0.0000 0.0000 0.0000 0.0000 0.0000 29.2562
#
#
#
# Elastic Compliance Matrix: (Units=1/GPa)
#
#
# Indices 1 2 3 4 5 6 
#
# 1 0.017278 -0.011903 0.004712 0.000000 0.000000 0.000000
# 2 -0.011903 0.039785 -0.012340 0.000000 0.000000 0.000000
# 3 0.004712 -0.012340 0.019735 0.000000 0.000000 0.000000
# 4 0.000000 0.000000 0.000000 0.028221 0.000000 0.000000
# 5 0.000000 0.000000 0.000000 0.000000 0.024603 0.000000
# 6 0.000000 0.000000 0.000000 0.000000 0.000000 0.034181
#
#
# Mechanical properties :
#
#
# Convention : Reuss Voigt Hill
#
# Bulk Modulus (GPa) = 26.49948 26.80057 26.65003
# Shear Modulus (GPa) = 23.20809 30.35856 26.78332
#
# Velocity S-wave (km/s) = 3.25751 3.72569 3.49944
# Velocity P-wave (km/s) = 5.12492 5.54632 5.33978
#
# Compressibility (1/GPa) = 0.03773659
#
# Stress axis : x y z
#
# Youngs Moduli (GPa) = 57.87801 25.13530 50.67077
#
# Poissons Ratio (x) = 0.29917 -0.23877
# Poissons Ratio (y) = 0.68889 0.62529
# Poissons Ratio (z) = -0.27273 0.31017
#
# Static dielectric constant tensor:
#      x y z
#    x 1.856170 0.000000 0.000000 
#    y 0.000000 1.824470 0.000000 
#    z 0.000000 0.000000 1.740540 
# 
# From -- ./inp_files/5020.got.cif
#   From: 2010.05.17/outbox.cif.g08.bks.cpg/sg30_3_cif.got.tgz:5020.got - 2010.06.03 17:03:02.
