data_PCOD9342562
_publ_section_title
;
Structure prediction by ZEFSAII (Michael W. Deem and Ramdas Pophale) SiO2 
 PCOD9342562
Probable space group: P N C 2
;
_chemical_formula_sum "Si O2"
_cell_formula_units_Z 32
_cell_length_a 10.879412
_cell_length_b 9.212572
_cell_length_c 14.870932
_cell_angle_alpha 90.000000
_cell_angle_beta 90.000000
_cell_angle_gamma 90.000000
_cell_volume 1490.474350
_symmetry_space_group_name_H-M "P N C 2"
_symmetry_group_IT_number 30
_symmetry_cell_setting 'orthorhombic'
loop_
_space_group_symop_operation_xyz
x,y,z
-x,-y,z
-x,1/2+y,1/2+z
x,1/2-y,1/2+z
loop_
_atom_site_type_symbol
_atom_site_label
_atom_site_fract_x
_atom_site_fract_y
_atom_site_fract_z
Si Si1 0.163844 0.088343 0.690120
Si Si2 0.255603 0.671067 0.545123
Si Si3 0.870985 0.636436 0.980905
Si Si4 0.510147 0.324115 0.122073
Si Si5 0.082963 0.741494 0.206116
Si Si6 0.328809 0.150862 0.994610
Si Si7 0.418023 0.142982 0.796323
Si Si8 0.857279 0.355351 0.897248
O O1 0.153041 0.080231 0.581792
O O2 0.290767 0.120361 0.741005
O O3 0.064057 0.215197 0.709287
O O4 0.128745 0.924737 0.717726
O O5 0.359831 0.775840 0.584389
O O6 0.141627 0.687987 0.615850
O O7 0.314976 0.512679 0.530342
O O8 0.219177 0.732116 0.447441
O O9 0.808576 0.791635 0.979449
O O10 0.807909 0.516448 0.917420
O O11 0.010826 0.648189 0.948723
O O12 0.500000 0.500000 0.118780
O O13 0.496832 0.266038 0.224530
O O14 0.402931 0.249141 0.064744
O O15 0.124545 0.829962 0.292798
O O16 0.391772 0.179566 0.898579
O O17 0.500000 0.000000 0.804618
#
# Coordination Sequence:
#
# PCOD9342562 Si02
#       8
#     4   4   4   4   4   4   4   4
#     4  11  20  44  71  95 139 190 234 279 363 435
#     4  12  24  42  66 104 140 177 235 304 353 425
#     4  11  22  46  68  93 143 189 227 280 361 435
#     4  11  24  44  70  92 131 188 234 286 363 432
#     4  11  22  39  70 103 137 184 232 295 349 423
#     4  12  26  44  68 102 142 179 231 304 363 421
#     4  11  23  41  69  99 129 182 235 287 349 429
#     4  11  23  42  68 102 135 182 237 285 347 434
#
# _framework density 21.469676
#
# number of rings (size 3 to 8) (size 9 to 14) (size 15 to 20)
#    0.000    0.750    3.750    5.625    0.000    3.500 
#    4.500    1.250    0.000    0.000    0.000    0.000 
#    0.000    0.000    0.000    0.000    0.000    0.000 
#
# Total GULP energy -178584.810646 kJ/mol
# GULP energy per Si atom -5580.775333 kJ/mol
# Density = 2.142081 g / cm^3
# Si number density = 21.469676 Si / 1000 Ang^3
#
#
#
# Elastic Constant Matrix: (Units=GPa)
#
#
# Indices 1 2 3 4 5 6 
#
# 1 45.2874 6.7234 -8.9253 0.0000 0.0000 0.0000
# 2 6.7234 84.2281 28.4833 0.0000 0.0000 0.0000
# 3 -8.9253 28.4833 116.1379 0.0000 0.0000 0.0000
# 4 0.0000 0.0000 0.0000 3.6284 0.0000 0.0000
# 5 0.0000 0.0000 0.0000 0.0000 28.2810 0.0000
# 6 0.0000 0.0000 0.0000 0.0000 0.0000 31.7681
#
#
#
# Elastic Compliance Matrix: (Units=1/GPa)
#
#
# Indices 1 2 3 4 5 6 
#
# 1 0.022950 -0.002648 0.002413 0.000000 0.000000 0.000000
# 2 -0.002648 0.013252 -0.003454 0.000000 0.000000 0.000000
# 3 0.002413 -0.003454 0.009643 0.000000 0.000000 0.000000
# 4 0.000000 0.000000 0.000000 0.275600 0.000000 0.000000
# 5 0.000000 0.000000 0.000000 0.000000 0.035359 0.000000
# 6 0.000000 0.000000 0.000000 0.000000 0.000000 0.031478
#
#
# Mechanical properties :
#
#
# Convention : Reuss Voigt Hill
#
# Bulk Modulus (GPa) = 25.99574 33.13510 29.56542
# Shear Modulus (GPa) = 12.24045 27.36032 19.80038
#
# Velocity S-wave (km/s) = 2.39032 3.57371 3.04015
# Velocity P-wave (km/s) = 4.44439 5.70048 5.11117
#
# Compressibility (1/GPa) = 0.03846784
#
# Stress axis : x y z
#
# Youngs Moduli (GPa) = 43.57314 75.46156 103.70316
#
# Poissons Ratio (x) = 0.19982 -0.25025
# Poissons Ratio (y) = 0.11538 0.35814
# Poissons Ratio (z) = -0.10515 0.26061
#
# Static dielectric constant tensor:
#      x y z
#    x 1.766250 0.000000 0.000000 
#    y 0.000000 1.857990 0.000000 
#    z 0.000000 0.000000 1.798410 
# 
# From -- ./inp_files/5528.got.cif
#   From: 2010.05.17/outbox.cif.g08.bks.cpg/sg30_3_cif.got.tgz:5528.got - 2010.06.03 17:03:02.
