data_PCOD9342848
_publ_section_title
;
Structure prediction by ZEFSAII (Michael W. Deem and Ramdas Pophale) SiO2 
 PCOD9342848
Probable space group: P M N 21
;
_chemical_formula_sum "Si O2"
_cell_formula_units_Z 32
_cell_length_a 7.568328
_cell_length_b 7.937934
_cell_length_c 24.618012
_cell_angle_alpha 90.000000
_cell_angle_beta 90.000000
_cell_angle_gamma 90.000000
_cell_volume 1478.973554
_symmetry_space_group_name_H-M "P M N 21"
_symmetry_group_IT_number 31
_symmetry_cell_setting 'orthorhombic'
loop_
_space_group_symop_operation_xyz
x,y,z
1/2-x,-y,1/2+z
-x,y,z
1/2+x,-y,1/2+z
loop_
_atom_site_type_symbol
_atom_site_label
_atom_site_fract_x
_atom_site_fract_y
_atom_site_fract_z
Si Si1 0.214527 0.040682 0.939540
Si Si2 0.713772 0.402129 0.814209
Si Si3 0.783114 0.893205 0.053858
Si Si4 0.704739 0.432296 0.935284
Si Si5 0.290510 0.992699 0.318373
Si Si6 0.206250 0.296752 0.239709
Si Si7 0.717205 0.783863 0.619556
Si Si8 0.703698 0.468884 0.551907
O O1 0.278365 0.232233 0.945135
O O2 0.000000 0.045446 0.939058
O O3 0.274342 0.978256 0.880313
O O4 0.270707 0.938458 0.992350
O O5 0.500000 0.410388 0.816194
O O6 0.777966 0.455946 0.874520
O O7 0.779420 0.538505 0.770620
O O8 0.756606 0.204853 0.804825
O O9 0.717483 0.708665 0.069094
O O10 0.000000 0.890724 0.053530
O O11 0.726251 0.038445 0.094784
O O12 0.500000 0.481755 0.935671
O O13 0.792311 0.519824 0.986676
O O14 0.500000 0.016136 0.318228
O O15 0.216831 0.131243 0.277419
O O16 0.279265 0.254487 0.180338
O O17 0.000000 0.335512 0.230949
O O18 0.500000 0.789640 0.619329
O O19 0.778459 0.635634 0.579307
O O20 0.500000 0.466435 0.569356
#
# Coordination Sequence:
#
# PCOD9342848 Si02
#       8
#     4   4   4   4   4   4   4   4
#     4   9  17  33  54  78 110 141 175 221 270 319
#     4   9  20  37  55  80 114 148 184 225 273 329
#     4   9  17  30  53  83 105 129 173 226 271 314
#     4  10  19  32  51  78 112 145 175 214 269 328
#     4  10  21  35  55  84 114 146 183 227 278 330
#     4  10  21  37  59  82 108 148 190 231 273 324
#     4   9  18  34  55  80 106 136 183 230 269 313
#     4  10  19  32  54  79 105 137 175 224 273 319
#
# _framework density 21.636628999999999
#
# number of rings (size 3 to 8) (size 9 to 14) (size 15 to 20)
#    0.000    2.500    1.250    0.750    1.750    2.500 
#    0.000    5.000    0.000    1.500    0.000    0.000 
#    0.000    0.000    0.000    0.000    0.000    0.000 
#
# Total GULP energy -178620.159002 kJ/mol
# GULP energy per Si atom -5581.879969 kJ/mol
# Density = 2.158738 g / cm^3
# Si number density = 21.636629 Si / 1000 Ang^3
#
#
#
# Elastic Constant Matrix: (Units=GPa)
#
#
# Indices 1 2 3 4 5 6 
#
# 1 49.2002 -5.8177 -2.3331 0.0000 0.0000 0.0000
# 2 -5.8177 -36.7478 -65.9073 0.0000 0.0000 0.0000
# 3 -2.3331 -65.9073 2.6694 0.0000 0.0000 0.0000
# 4 0.0000 0.0000 0.0000 18.7908 0.0000 0.0000
# 5 0.0000 0.0000 0.0000 0.0000 10.7288 0.0000
# 6 0.0000 0.0000 0.0000 0.0000 0.0000 3.4321
#
#
#
# Elastic Compliance Matrix: (Units=1/GPa)
#
#
# Indices 1 2 3 4 5 6 
#
# 1 0.020170 -0.000769 -0.001352 0.000000 0.000000 0.000000
# 2 -0.000769 -0.000572 -0.014786 0.000000 0.000000 0.000000
# 3 -0.001352 -0.014786 0.008364 0.000000 0.000000 0.000000
# 4 0.000000 0.000000 0.000000 0.053218 0.000000 0.000000
# 5 0.000000 0.000000 0.000000 0.000000 0.093207 0.000000
# 6 0.000000 0.000000 0.000000 0.000000 0.000000 0.291371
#
#
# Mechanical properties :
#
#
# Convention : Reuss Voigt Hill
#
# Bulk Modulus (GPa) = -170.89721 -14.77718 -92.83719
# Shear Modulus (GPa) = 10.04781 12.53565 11.29173
#
# Velocity S-wave (km/s) = 2.15731 2.40963 2.28695
# Velocity P-wave (km/s) = 8.54115 0.94720 6.00225
#
# Compressibility (1/GPa) = -0.00585147
#
# Stress axis : x y z
#
# Youngs Moduli (GPa) = 49.57826 -1749.28891 119.56519
#
# Poissons Ratio (x) = -1.34481 0.16163
# Poissons Ratio (y) = 0.03811 1.76792
# Poissons Ratio (z) = 0.06702 -25.86537
#
# Static dielectric constant tensor:
#      x y z
#    x 1.838640 0.000000 0.000000 
#    y 0.000000 1.767900 0.000000 
#    z 0.000000 0.000000 1.780600 
# 
# From -- ./inp_files/6467.got.cif
#   From: 2010.05.17/outbox.cif.g08.bks.cpg/sg31_4_cif.got.tgz:6467.got - 2010.06.03 17:08:30.
