data_PCOD9342116
_publ_section_title
;
Structure prediction by ZEFSAII (Michael W. Deem and Ramdas Pophale) SiO2 
 PCOD9342116
Probable space group: P N C 2
;
_chemical_formula_sum "Si O2"
_cell_formula_units_Z 32
_cell_length_a 8.536596
_cell_length_b 28.660527
_cell_length_c 5.333557
_cell_angle_alpha 90.000000
_cell_angle_beta 90.000000
_cell_angle_gamma 90.000000
_cell_volume 1304.925870
_symmetry_space_group_name_H-M "P N C 2"
_symmetry_group_IT_number 30
_symmetry_cell_setting 'orthorhombic'
loop_
_space_group_symop_operation_xyz
x,y,z
-x,-y,z
-x,1/2+y,1/2+z
x,1/2-y,1/2+z
loop_
_atom_site_type_symbol
_atom_site_label
_atom_site_fract_x
_atom_site_fract_y
_atom_site_fract_z
Si Si1 0.645524 0.729581 0.128180
Si Si2 0.000612 0.765777 0.218680
Si Si3 0.986775 0.131127 0.128028
Si Si4 0.929801 0.451286 0.974803
Si Si5 0.279196 0.599968 0.314387
Si Si6 0.665458 0.488303 0.616155
Si Si7 0.445195 0.126376 0.466594
Si Si8 0.710586 0.591332 0.451552
O O1 0.581266 0.736091 0.410113
O O2 0.614144 0.678714 0.017313
O O3 0.829930 0.742272 0.166935
O O4 0.081306 0.740602 0.449868
O O5 0.988982 0.820448 0.270543
O O6 0.015306 0.085688 0.300241
O O7 0.137671 0.125139 0.949971
O O8 0.806377 0.131147 0.025926
O O9 0.779787 0.466553 0.815955
O O10 0.000000 0.500000 0.050070
O O11 0.879258 0.422803 0.211797
O O12 0.364187 0.553550 0.419652
O O13 0.378639 0.622247 0.087661
O O14 0.500000 0.500000 0.737206
O O15 0.734191 0.536218 0.505634
O O16 0.402490 0.111080 0.180766
O O17 0.354003 0.094897 0.669598
#
# Coordination Sequence:
#
# PCOD9342116 Si02
#       8
#     4   4   4   4   4   4   4   4
#     4  10  20  41  69 101 134 171 231 302 358 426
#     4  10  21  40  69 102 134 171 234 304 360 426
#     4  11  26  44  70 106 144 190 243 305 371 438
#     4  11  25  44  67 101 149 196 245 291 365 433
#     4  11  28  43  67 101 155 198 235 305 372 442
#     4  11  23  43  64 101 138 192 245 298 346 421
#     4  12  26  47  72 107 144 189 241 303 370 438
#     4  12  25  42  74 105 137 192 250 296 351 428
#
# _framework density 24.522466999999999
#
# number of rings (size 3 to 8) (size 9 to 14) (size 15 to 20)
#    0.000    1.000    2.500    4.500    8.750    0.500 
#    0.000    1.250    0.000    0.000    0.000    0.000 
#    0.000    0.000    0.000    0.000    0.000    0.000 
#
# Total GULP energy -178602.067345 kJ/mol
# GULP energy per Si atom -5581.314605 kJ/mol
# Density = 2.446665 g / cm^3
# Si number density = 24.522467 Si / 1000 Ang^3
#
#
#
# Elastic Constant Matrix: (Units=GPa)
#
#
# Indices 1 2 3 4 5 6 
#
# 1 45.8789 26.0221 4.2641 0.0000 0.0000 0.0000
# 2 26.0221 80.1439 -8.4748 0.0000 0.0000 0.0000
# 3 4.2641 -8.4748 89.6891 0.0000 0.0000 0.0000
# 4 0.0000 0.0000 0.0000 19.7969 0.0000 0.0000
# 5 0.0000 0.0000 0.0000 0.0000 21.0746 0.0000
# 6 0.0000 0.0000 0.0000 0.0000 0.0000 26.3874
#
#
#
# Elastic Compliance Matrix: (Units=1/GPa)
#
#
# Indices 1 2 3 4 5 6 
#
# 1 0.027118 -0.009032 -0.002143 0.000000 0.000000 0.000000
# 2 -0.009032 0.015611 0.001905 0.000000 0.000000 0.000000
# 3 -0.002143 0.001905 0.011431 0.000000 0.000000 0.000000
# 4 0.000000 0.000000 0.000000 0.050513 0.000000 0.000000
# 5 0.000000 0.000000 0.000000 0.000000 0.047450 0.000000
# 6 0.000000 0.000000 0.000000 0.000000 0.000000 0.037897
#
#
# Mechanical properties :
#
#
# Convention : Reuss Voigt Hill
#
# Bulk Modulus (GPa) = 28.07289 28.81496 28.44392
# Shear Modulus (GPa) = 22.68240 26.37847 24.53043
#
# Velocity S-wave (km/s) = 3.04462 3.28332 3.16622
# Velocity P-wave (km/s) = 4.88183 5.11366 4.99909
#
# Compressibility (1/GPa) = 0.03562156
#
# Stress axis : x y z
#
# Youngs Moduli (GPa) = 36.87542 64.05542 87.47785
#
# Poissons Ratio (x) = 0.57853 0.18744
# Poissons Ratio (y) = 0.33305 -0.16661
# Poissons Ratio (z) = 0.07901 -0.12200
#
# Static dielectric constant tensor:
#      x y z
#    x 2.235200 0.000000 0.000000 
#    y 0.000000 2.094470 0.000000 
#    z 0.000000 0.000000 2.096560 
# 
# From -- ./inp_files/592.got.cif
#   From: 2010.05.17/outbox.cif.g08.bks.cpg/sg30_1_cif.got.tgz:592.got - 2010.06.03 17:03:02.
