data_PCOD9342615
_publ_section_title
;
Structure prediction by ZEFSAII (Michael W. Deem and Ramdas Pophale) SiO2 
 PCOD9342615
Probable space group: P N C 2
;
_chemical_formula_sum "Si O2"
_cell_formula_units_Z 22
_cell_length_a 7.792191
_cell_length_b 8.366895
_cell_length_c 14.789800
_cell_angle_alpha 90.000000
_cell_angle_beta 90.000000
_cell_angle_gamma 90.000000
_cell_volume 964.242366
_symmetry_space_group_name_H-M "P N C 2"
_symmetry_group_IT_number 30
_symmetry_cell_setting 'orthorhombic'
loop_
_space_group_symop_operation_xyz
x,y,z
-x,-y,z
-x,1/2+y,1/2+z
x,1/2-y,1/2+z
loop_
_atom_site_type_symbol
_atom_site_label
_atom_site_fract_x
_atom_site_fract_y
_atom_site_fract_z
Si Si1 0.664218 0.694931 0.766400
Si Si2 0.849501 0.125003 0.874648
Si Si3 0.500000 0.500000 0.306341
Si Si4 0.500000 0.500000 0.932101
Si Si5 0.260089 0.728966 0.047197
Si Si6 0.500000 0.500000 0.617659
Si Si7 0.956879 0.186338 0.217603
O O1 0.541793 0.845100 0.748106
O O2 0.601456 0.620589 0.862519
O O3 0.638043 0.568704 0.687201
O O4 0.858410 0.750123 0.751690
O O5 0.843517 0.274950 0.805852
O O6 0.668390 0.034877 0.864595
O O7 0.867406 0.196708 0.973390
O O8 0.000000 0.000000 0.857277
O O9 0.359080 0.583563 0.997631
O O10 0.409945 0.858980 0.064168
O O11 0.142972 0.721491 0.137430
O O12 0.000000 0.000000 0.199155
#
# Coordination Sequence:
#
# PCOD9342615 Si02
#       7
#     4   4   2   2   4   2   4
#     4  11  24  49  79 105 151 212 257 316 398 462
#     4  12  26  47  76 111 150 201 258 322 392 466
#     4  12  23  47  81 107 154 204 263 313 387 479
#     4  11  26  49  78 114 154 212 271 325 394 486
#     4  12  26  46  75 113 152 197 266 325 393 470
#     4  11  25  44  75 105 146 202 256 314 385 467
#     4  12  25  48  74 109 156 200 253 324 398 466
#
# _framework density 22.815839
#
# number of rings (size 3 to 8) (size 9 to 14) (size 15 to 20)
#    0.000    0.364    5.455    3.273    0.000    2.909 
#    0.000    0.909    0.000    0.000    0.000    0.000 
#    0.000    0.000    0.000    0.000    0.000    0.000 
#
# Total GULP energy -122791.404412 kJ/mol
# GULP energy per Si atom -5581.427473 kJ/mol
# Density = 2.276391 g / cm^3
# Si number density = 22.815839 Si / 1000 Ang^3
#
#
#
# Elastic Constant Matrix: (Units=GPa)
#
#
# Indices 1 2 3 4 5 6 
#
# 1 140.3409 40.1745 31.4651 0.0000 0.0000 0.0000
# 2 40.1745 86.9656 28.6391 0.0000 0.0000 0.0000
# 3 31.4651 28.6391 119.5023 0.0000 0.0000 0.0000
# 4 0.0000 0.0000 0.0000 14.2089 0.0000 0.0000
# 5 0.0000 0.0000 0.0000 0.0000 11.0485 0.0000
# 6 0.0000 0.0000 0.0000 0.0000 0.0000 31.0942
#
#
#
# Elastic Compliance Matrix: (Units=1/GPa)
#
#
# Indices 1 2 3 4 5 6 
#
# 1 0.008420 -0.003430 -0.001395 0.000000 0.000000 0.000000
# 2 -0.003430 0.013882 -0.002424 0.000000 0.000000 0.000000
# 3 -0.001395 -0.002424 0.009316 0.000000 0.000000 0.000000
# 4 0.000000 0.000000 0.000000 0.070379 0.000000 0.000000
# 5 0.000000 0.000000 0.000000 0.000000 0.090510 0.000000
# 6 0.000000 0.000000 0.000000 0.000000 0.000000 0.032160
#
#
# Mechanical properties :
#
#
# Convention : Reuss Voigt Hill
#
# Bulk Modulus (GPa) = 58.41059 60.81848 59.61453
# Shear Modulus (GPa) = 20.41884 27.70564 24.06224
#
# Velocity S-wave (km/s) = 2.99480 3.48848 3.25103
# Velocity P-wave (km/s) = 6.13310 6.55287 6.34646
#
# Compressibility (1/GPa) = 0.01712018
#
# Stress axis : x y z
#
# Youngs Moduli (GPa) = 118.76102 72.03762 107.34055
#
# Poissons Ratio (x) = 0.24712 0.14973
# Poissons Ratio (y) = 0.40740 0.26014
# Poissons Ratio (z) = 0.16567 0.17459
#
# Static dielectric constant tensor:
#      x y z
#    x 2.388800 0.000000 0.000000 
#    y 0.000000 2.065620 0.000000 
#    z 0.000000 0.000000 1.825020 
# 
# From -- ./inp_files/5046.got.cif
#   From: 2010.05.17/outbox.cif.g08.bks.cpg/sg30_3_cif.got.tgz:5046.got - 2010.06.03 17:03:02.
