data_PCOD9342665
_publ_section_title
;
Structure prediction by ZEFSAII (Michael W. Deem and Ramdas Pophale) SiO2 
 PCOD9342665
Probable space group: P N C 2
;
_chemical_formula_sum "Si O2"
_cell_formula_units_Z 16
_cell_length_a 5.228796
_cell_length_b 23.597580
_cell_length_c 4.940437
_cell_angle_alpha 90.000000
_cell_angle_beta 90.000000
_cell_angle_gamma 90.000000
_cell_volume 609.585364
_symmetry_space_group_name_H-M "P N C 2"
_symmetry_group_IT_number 30
_symmetry_cell_setting 'orthorhombic'
loop_
_space_group_symop_operation_xyz
x,y,z
-x,-y,z
-x,1/2+y,1/2+z
x,1/2-y,1/2+z
loop_
_atom_site_type_symbol
_atom_site_label
_atom_site_fract_x
_atom_site_fract_y
_atom_site_fract_z
Si Si1 0.581531 0.626458 0.668520
Si Si2 0.088336 0.112585 0.623754
Si Si3 0.791344 0.213047 0.325160
Si Si4 0.760706 0.035810 0.940012
O O1 0.763499 0.628295 0.403970
O O2 0.492981 0.685982 0.800169
O O3 0.326557 0.593240 0.587111
O O4 0.705644 0.591374 0.909512
O O5 0.961129 0.165579 0.470856
O O6 0.885227 0.063441 0.674504
O O7 0.830625 0.267200 0.517664
O O8 0.500000 0.000000 0.910999
O O9 0.000000 0.000000 0.053606
#
# Coordination Sequence:
#
# PCOD9342665 Si02
#       4
#     4   4   4   4
#     4  12  27  53  80 119 164 212 277 339 401 500
#     4  12  27  53  80 119 164 212 277 339 401 500
#     4  12  27  48  80 118 162 216 271 340 416 478
#     4  12  27  56  84 126 166 224 269 340 414 488
#
# _framework density 26.247347999999999
#
# number of rings (size 3 to 8) (size 9 to 14) (size 15 to 20)
#    0.000    0.000    2.500    7.500    0.000    6.000 
#   13.500    0.000    0.000    0.000    0.000    0.000 
#    0.000    0.000    0.000    0.000    0.000    0.000 
#
# Total GULP energy -89511.536349 kJ/mol
# GULP energy per Si atom -5594.471022 kJ/mol
# Density = 2.618761 g / cm^3
# Si number density = 26.247348 Si / 1000 Ang^3
#
#
#
# Elastic Constant Matrix: (Units=GPa)
#
#
# Indices 1 2 3 4 5 6 
#
# 1 162.9931 50.4054 65.6061 0.0000 0.0000 0.0000
# 2 50.4054 92.7390 25.6593 0.0000 0.0000 0.0000
# 3 65.6061 25.6593 165.2593 0.0000 0.0000 0.0000
# 4 0.0000 0.0000 0.0000 34.6638 0.0000 0.0000
# 5 0.0000 0.0000 0.0000 0.0000 45.2728 0.0000
# 6 0.0000 0.0000 0.0000 0.0000 0.0000 47.5689
#
#
#
# Elastic Compliance Matrix: (Units=1/GPa)
#
#
# Indices 1 2 3 4 5 6 
#
# 1 0.008423 -0.003817 -0.002751 0.000000 0.000000 0.000000
# 2 -0.003817 0.012997 -0.000503 0.000000 0.000000 0.000000
# 3 -0.002751 -0.000503 0.007221 0.000000 0.000000 0.000000
# 4 0.000000 0.000000 0.000000 0.028849 0.000000 0.000000
# 5 0.000000 0.000000 0.000000 0.000000 0.022088 0.000000
# 6 0.000000 0.000000 0.000000 0.000000 0.000000 0.021022
#
#
# Mechanical properties :
#
#
# Convention : Reuss Voigt Hill
#
# Bulk Modulus (GPa) = 68.96830 78.25922 73.61376
# Shear Modulus (GPa) = 41.81495 44.12246 42.96871
#
# Velocity S-wave (km/s) = 3.99571 4.10448 4.05046
# Velocity P-wave (km/s) = 6.90079 7.23485 7.06980
#
# Compressibility (1/GPa) = 0.01449942
#
# Stress axis : x y z
#
# Youngs Moduli (GPa) = 118.72317 76.94348 138.47844
#
# Poissons Ratio (x) = 0.29368 0.38098
# Poissons Ratio (y) = 0.45315 0.06961
# Poissons Ratio (z) = 0.32663 0.03868
#
# Static dielectric constant tensor:
#      x y z
#    x 2.144290 0.000000 0.000000 
#    y 0.000000 2.097260 0.000000 
#    z 0.000000 0.000000 2.013740 
# 
# From -- ./inp_files/164.got.cif
#   From: 2010.05.17/outbox.cif.g08.bks.cpg/sg30_1_cif.got.tgz:164.got - 2010.06.03 17:03:02.
