data_PCOD9342580
_publ_section_title
;
Structure prediction by ZEFSAII (Michael W. Deem and Ramdas Pophale) SiO2 
 PCOD9342580
Probable space group: P N C 2
;
_chemical_formula_sum "Si O2"
_cell_formula_units_Z 14
_cell_length_a 6.496237
_cell_length_b 6.092016
_cell_length_c 14.712401
_cell_angle_alpha 90.000000
_cell_angle_beta 90.000000
_cell_angle_gamma 90.000000
_cell_volume 582.245914
_symmetry_space_group_name_H-M "P N C 2"
_symmetry_group_IT_number 30
_symmetry_cell_setting 'orthorhombic'
loop_
_space_group_symop_operation_xyz
x,y,z
-x,-y,z
-x,1/2+y,1/2+z
x,1/2-y,1/2+z
loop_
_atom_site_type_symbol
_atom_site_label
_atom_site_fract_x
_atom_site_fract_y
_atom_site_fract_z
Si Si1 0.673401 0.843159 0.688050
Si Si2 0.133994 0.810507 0.922991
Si Si3 0.000000 0.500000 0.779789
Si Si4 0.000000 0.500000 0.068923
Si Si5 0.500000 0.500000 0.542241
O O1 0.571981 0.690595 0.610831
O O2 0.847273 0.676947 0.731179
O O3 0.806180 0.019994 0.632869
O O4 0.500000 0.000000 0.737294
O O5 0.158364 0.629416 0.845924
O O6 0.330020 0.900361 0.974589
O O7 0.000000 0.000000 0.878456
O O8 0.991897 0.706397 0.002278
#
# Coordination Sequence:
#
# PCOD9342580 Si02
#       5
#     4   4   2   2   2
#     4  12  26  48  79 113 152 203 266 326 386 482
#     4  11  24  48  74 107 153 199 249 328 392 472
#     4  11  30  50  68 115 172 202 244 335 428 450
#     4  11  22  46  76 107 144 194 258 313 384 470
#     4  12  24  48  82 108 136 206 278 304 378 488
#
# _framework density 24.044820999999999
#
# number of rings (size 3 to 8) (size 9 to 14) (size 15 to 20)
#    0.000    0.571    5.714    1.714    2.000    0.000 
#    7.714    0.000    0.000    0.000    0.000    0.000 
#    0.000    0.000    0.000    0.000    0.000    0.000 
#
# Total GULP energy -78068.312431 kJ/mol
# GULP energy per Si atom -5576.308031 kJ/mol
# Density = 2.399009 g / cm^3
# Si number density = 24.044821 Si / 1000 Ang^3
#
#
#
# Elastic Constant Matrix: (Units=GPa)
#
#
# Indices 1 2 3 4 5 6 
#
# 1 114.9427 61.8179 53.7090 0.0000 0.0000 0.0000
# 2 61.8179 103.7719 57.4986 0.0000 0.0000 0.0000
# 3 53.7090 57.4986 91.1114 0.0000 0.0000 0.0000
# 4 0.0000 0.0000 0.0000 41.0503 0.0000 0.0000
# 5 0.0000 0.0000 0.0000 0.0000 2.6994 0.0000
# 6 0.0000 0.0000 0.0000 0.0000 0.0000 56.8884
#
#
#
# Elastic Compliance Matrix: (Units=1/GPa)
#
#
# Indices 1 2 3 4 5 6 
#
# 1 0.013942 -0.005769 -0.004578 0.000000 0.000000 0.000000
# 2 -0.005769 0.017205 -0.007457 0.000000 0.000000 0.000000
# 3 -0.004578 -0.007457 0.018380 0.000000 0.000000 0.000000
# 4 0.000000 0.000000 0.000000 0.024360 0.000000 0.000000
# 5 0.000000 0.000000 0.000000 0.000000 0.370452 0.000000
# 6 0.000000 0.000000 0.000000 0.000000 0.000000 0.017578
#
#
# Mechanical properties :
#
#
# Convention : Reuss Voigt Hill
#
# Bulk Modulus (GPa) = 71.84231 72.87521 72.35876
# Shear Modulus (GPa) = 9.95691 29.24764 19.60227
#
# Velocity S-wave (km/s) = 2.03715 3.49145 2.85834
# Velocity P-wave (km/s) = 5.95623 6.82843 6.40719
#
# Compressibility (1/GPa) = 0.01391937
#
# Stress axis : x y z
#
# Youngs Moduli (GPa) = 71.72822 58.12339 54.40618
#
# Poissons Ratio (x) = 0.33529 0.24907
# Poissons Ratio (y) = 0.41377 0.40571
# Poissons Ratio (z) = 0.32837 0.43343
#
# Static dielectric constant tensor:
#      x y z
#    x 1.993930 0.000000 0.000000 
#    y 0.000000 1.995320 0.000000 
#    z 0.000000 0.000000 1.858620 
# 
# From -- ./inp_files/5737.got.cif
#   From: 2010.05.17/outbox.cif.g08.bks.cpg/sg30_3_cif.got.tgz:5737.got - 2010.06.03 17:03:02.
