data_PCOD9342780
_publ_section_title
;
Structure prediction by ZEFSAII (Michael W. Deem and Ramdas Pophale) SiO2 
 PCOD9342780
Probable space group: P M N 21
;
_chemical_formula_sum "Si O2"
_cell_formula_units_Z 32
_cell_length_a 7.597601
_cell_length_b 12.075108
_cell_length_c 15.825033
_cell_angle_alpha 90.000000
_cell_angle_beta 90.000000
_cell_angle_gamma 90.000000
_cell_volume 1451.817845
_symmetry_space_group_name_H-M "P M N 21"
_symmetry_group_IT_number 31
_symmetry_cell_setting 'orthorhombic'
loop_
_space_group_symop_operation_xyz
x,y,z
1/2-x,-y,1/2+z
-x,y,z
1/2+x,-y,1/2+z
loop_
_atom_site_type_symbol
_atom_site_label
_atom_site_fract_x
_atom_site_fract_y
_atom_site_fract_z
Si Si1 0.713885 0.086821 0.283290
Si Si2 0.285335 0.494706 0.189808
Si Si3 0.204005 0.831182 0.275731
Si Si4 0.202716 0.285946 0.605326
Si Si5 0.796745 0.746869 0.924529
Si Si6 0.713276 0.498881 0.384378
Si Si7 0.204955 0.730920 0.448089
Si Si8 0.284720 0.249813 0.133406
O O1 0.500000 0.078733 0.284244
O O2 0.775837 0.156985 0.364895
O O3 0.766373 0.157513 0.200977
O O4 0.783318 0.962928 0.281231
O O5 0.500000 0.496634 0.187847
O O6 0.222429 0.592978 0.129019
O O7 0.235571 0.518756 0.286720
O O8 0.228942 0.372038 0.163754
O O9 0.288664 0.785440 0.190389
O O10 0.283000 0.779501 0.361649
O O11 0.000000 0.796883 0.270423
O O12 0.289656 0.230998 0.523993
O O13 0.000000 0.300174 0.581428
O O14 0.723271 0.623550 0.909385
O O15 0.000000 0.737177 0.897310
O O16 0.500000 0.502593 0.389891
O O17 0.783548 0.598083 0.441521
O O18 0.278586 0.769138 0.537924
O O19 0.000000 0.764137 0.447885
O O20 0.500000 0.251768 0.132296
#
# Coordination Sequence:
#
# PCOD9342780 Si02
#       8
#     4   4   4   4   4   4   4   4
#     4  10  21  39  62  83 108 152 199 235 279 344
#     4   9  16  30  56  86 113 144 184 228 274 336
#     4  11  24  40  56  81 118 153 191 246 296 332
#     4  11  22  37  61  87 114 152 196 237 282 348
#     4  10  21  37  59  88 121 152 185 234 292 344
#     4  10  18  33  58  86 118 152 185 225 279 344
#     4  10  21  36  57  84 115 149 185 233 285 334
#     4   9  17  34  59  85 111 144 189 230 275 338
#
# _framework density 22.041333999999999
#
# number of rings (size 3 to 8) (size 9 to 14) (size 15 to 20)
#    0.000    2.000    2.500    1.500    0.000    3.500 
#    0.000    1.875    0.000    1.500    0.000    0.000 
#    0.000    0.000    0.000    0.000    0.000    0.000 
#
# Total GULP energy -178821.574604 kJ/mol
# GULP energy per Si atom -5588.174206 kJ/mol
# Density = 2.199117 g / cm^3
# Si number density = 22.041334 Si / 1000 Ang^3
#
#
#
# Elastic Constant Matrix: (Units=GPa)
#
#
# Indices 1 2 3 4 5 6 
#
# 1 50.1949 -11.4205 -5.4596 0.0000 0.0000 0.0000
# 2 -11.4205 106.1122 26.3803 0.0000 0.0000 0.0000
# 3 -5.4596 26.3803 109.3400 0.0000 0.0000 0.0000
# 4 0.0000 0.0000 0.0000 7.5813 0.0000 0.0000
# 5 0.0000 0.0000 0.0000 0.0000 5.2964 0.0000
# 6 0.0000 0.0000 0.0000 0.0000 0.0000 -19.1629
#
#
#
# Elastic Compliance Matrix: (Units=1/GPa)
#
#
# Indices 1 2 3 4 5 6 
#
# 1 0.020450 0.002071 0.000521 0.000000 0.000000 0.000000
# 2 0.002071 0.010235 -0.002366 0.000000 0.000000 0.000000
# 3 0.000521 -0.002366 0.009743 0.000000 0.000000 0.000000
# 4 0.000000 0.000000 0.000000 0.131904 0.000000 0.000000
# 5 0.000000 0.000000 0.000000 0.000000 0.188807 0.000000
# 6 0.000000 0.000000 0.000000 0.000000 0.000000 -0.052184
#
#
# Mechanical properties :
#
#
# Convention : Reuss Voigt Hill
#
# Bulk Modulus (GPa) = 24.46086 31.62751 28.04419
# Shear Modulus (GPa) = 15.52177 15.81943 15.67060
#
# Velocity S-wave (km/s) = 2.65658 2.68193 2.66928
# Velocity P-wave (km/s) = 4.53119 4.89598 4.71712
#
# Compressibility (1/GPa) = 0.04088164
#
# Stress axis : x y z
#
# Youngs Moduli (GPa) = 48.89898 97.70277 102.64137
#
# Poissons Ratio (x) = -0.20238 -0.05351
# Poissons Ratio (y) = -0.10129 0.24285
# Poissons Ratio (z) = -0.02549 0.23116
#
# Static dielectric constant tensor:
#      x y z
#    x 1.809420 0.000000 0.000000 
#    y 0.000000 1.763250 0.000000 
#    z 0.000000 0.000000 1.811200 
# 
# From -- ./inp_files/4963.got.cif
#   From: 2010.05.17/outbox.cif.g08.bks.cpg/sg31_3_cif.got.tgz:4963.got - 2010.06.03 17:08:30.
