data_PCOD9342691
_publ_section_title
;
Structure prediction by ZEFSAII (Michael W. Deem and Ramdas Pophale) SiO2 
 PCOD9342691
Probable space group: P M N 21
;
_chemical_formula_sum "Si O2"
_cell_formula_units_Z 32
_cell_length_a 8.315757
_cell_length_b 11.993080
_cell_length_c 18.179141
_cell_angle_alpha 90.000000
_cell_angle_beta 90.000000
_cell_angle_gamma 90.000000
_cell_volume 1813.033709
_symmetry_space_group_name_H-M "P M N 21"
_symmetry_group_IT_number 31
_symmetry_cell_setting 'orthorhombic'
loop_
_space_group_symop_operation_xyz
x,y,z
1/2-x,-y,1/2+z
-x,y,z
1/2+x,-y,1/2+z
loop_
_atom_site_type_symbol
_atom_site_label
_atom_site_fract_x
_atom_site_fract_y
_atom_site_fract_z
Si Si1 0.186464 0.938092 0.959310
Si Si2 0.689127 0.961942 0.683209
Si Si3 0.686356 0.838644 0.108757
Si Si4 0.805254 0.365640 0.087635
Si Si5 0.309379 0.382245 0.556324
Si Si6 0.310611 0.714702 0.903765
Si Si7 0.190164 0.855738 0.531785
Si Si8 0.303609 0.735282 0.744314
O O1 0.281902 0.847762 0.911782
O O2 0.000000 0.939479 0.939274
O O3 0.207091 0.886201 0.041534
O O4 0.255488 0.062853 0.966055
O O5 0.500000 0.979810 0.694232
O O6 0.718625 0.902693 0.604029
O O7 0.748862 0.864842 0.737426
O O8 0.774795 0.081380 0.677314
O O9 0.000000 0.146611 0.588613
O O10 0.726064 0.708296 0.109668
O O11 0.735973 0.273922 0.031313
O O12 0.754510 0.329556 0.170412
O O13 0.000000 0.359450 0.084558
O O14 0.755564 0.491440 0.070099
O O15 0.500000 0.376237 0.568776
O O16 0.273298 0.344989 0.472458
O O17 0.500000 0.692366 0.910168
O O18 0.252448 0.684105 0.822019
O O19 0.000000 0.868554 0.542584
O O20 0.500000 0.737075 0.744348
#
# Coordination Sequence:
#
# PCOD9342691 Si02
#       8
#     4   4   4   4   4   4   4   4
#     4  10  17  27  43  64  91 120 149 179 223 278
#     4   9  15  27  45  65  90 118 149 180 222 277
#     4  10  17  26  42  66  93 117 147 188 232 269
#     4   9  18  33  50  68  92 125 166 201 232 279
#     4  10  19  31  48  69  94 126 164 200 235 281
#     4  10  18  30  48  70  96 121 153 197 243 287
#     4  10  17  26  43  68  93 115 145 186 232 271
#     4   8  16  30  49  70  91 120 155 195 239 286
#
# _framework density 17.649975000000001
#
# number of rings (size 3 to 8) (size 9 to 14) (size 15 to 20)
#    0.000    2.500    0.000    8.250    0.000    1.000 
#    0.000    6.250    0.000    1.500    0.000    7.000 
#    0.000    0.000    0.000    0.000    0.000    0.000 
#
# Total GULP energy -178159.488512 kJ/mol
# GULP energy per Si atom -5567.484016 kJ/mol
# Density = 1.760980 g / cm^3
# Si number density = 17.649975 Si / 1000 Ang^3
#
#
#
# Elastic Constant Matrix: (Units=GPa)
#
#
# Indices 1 2 3 4 5 6 
#
# 1 32.2346 12.7781 -4.8429 0.0000 0.0000 0.0000
# 2 12.7781 138.6395 26.1531 0.0000 0.0000 0.0000
# 3 -4.8429 26.1531 44.6030 0.0000 0.0000 0.0000
# 4 0.0000 0.0000 0.0000 14.6306 0.0000 0.0000
# 5 0.0000 0.0000 0.0000 0.0000 9.0446 0.0000
# 6 0.0000 0.0000 0.0000 0.0000 0.0000 16.3897
#
#
#
# Elastic Compliance Matrix: (Units=1/GPa)
#
#
# Indices 1 2 3 4 5 6 
#
# 1 0.033635 -0.004260 0.006150 0.000000 0.000000 0.000000
# 2 -0.004260 0.008650 -0.005534 0.000000 0.000000 0.000000
# 3 0.006150 -0.005534 0.026333 0.000000 0.000000 0.000000
# 4 0.000000 0.000000 0.000000 0.068350 0.000000 0.000000
# 5 0.000000 0.000000 0.000000 0.000000 0.110563 0.000000
# 6 0.000000 0.000000 0.000000 0.000000 0.000000 0.061014
#
#
# Mechanical properties :
#
#
# Convention : Reuss Voigt Hill
#
# Bulk Modulus (GPa) = 16.30553 31.51707 23.91130
# Shear Modulus (GPa) = 14.86872 20.10558 17.48715
#
# Velocity S-wave (km/s) = 2.90560 3.37876 3.15107
# Velocity P-wave (km/s) = 4.52935 5.75472 5.17841
#
# Compressibility (1/GPa) = 0.06132890
#
# Stress axis : x y z
#
# Youngs Moduli (GPa) = 29.73061 115.61215 37.97540
#
# Poissons Ratio (x) = 0.49254 -0.23355
# Poissons Ratio (y) = 0.12666 0.21017
# Poissons Ratio (z) = -0.18285 0.63983
#
# Static dielectric constant tensor:
#      x y z
#    x 1.596860 0.000000 0.000000 
#    y 0.000000 1.650350 0.000000 
#    z 0.000000 0.000000 1.633040 
# 
# From -- ./inp_files/5835.got.cif
#   From: 2010.05.17/outbox.cif.g08.bks.cpg/sg31_3_cif.got.tgz:5835.got - 2010.06.03 17:08:30.
