data_PCOD9342939
_publ_section_title
;
Structure prediction by ZEFSAII (Michael W. Deem and Ramdas Pophale) SiO2 
 PCOD9342939
Probable space group: P M N 21
;
_chemical_formula_sum "Si O2"
_cell_formula_units_Z 32
_cell_length_a 7.536129
_cell_length_b 11.734243
_cell_length_c 16.229727
_cell_angle_alpha 90.000000
_cell_angle_beta 90.000000
_cell_angle_gamma 90.000000
_cell_volume 1435.207239
_symmetry_space_group_name_H-M "P M N 21"
_symmetry_group_IT_number 31
_symmetry_cell_setting 'orthorhombic'
loop_
_space_group_symop_operation_xyz
x,y,z
1/2-x,-y,1/2+z
-x,y,z
1/2+x,-y,1/2+z
loop_
_atom_site_type_symbol
_atom_site_label
_atom_site_fract_x
_atom_site_fract_y
_atom_site_fract_z
Si Si1 0.705174 0.677818 0.274110
Si Si2 0.294241 0.929014 0.250826
Si Si3 0.217543 0.557834 0.818607
Si Si4 0.716423 0.349495 0.139672
Si Si5 0.217936 0.907910 0.601946
Si Si6 0.299517 0.259376 0.448745
Si Si7 0.700622 0.992484 0.928959
Si Si8 0.704610 0.585754 0.088043
O O1 0.500000 0.694224 0.301686
O O2 0.786030 0.803129 0.265380
O O3 0.781570 0.572655 0.326720
O O4 0.704297 0.623142 0.183085
O O5 0.500000 0.909173 0.227253
O O6 0.222980 0.008642 0.176810
O O7 0.288208 0.988315 0.340157
O O8 0.269131 0.615536 0.732180
O O9 0.274468 0.643416 0.889214
O O10 0.000000 0.552156 0.819400
O O11 0.500000 0.350864 0.137810
O O12 0.773411 0.222567 0.117403
O O13 0.774471 0.456342 0.083375
O O14 0.000000 0.909767 0.602420
O O15 0.277045 0.949152 0.511391
O O16 0.500000 0.232490 0.421345
O O17 0.199013 0.141509 0.447557
O O18 0.302500 0.318750 0.536896
O O19 0.500000 0.035617 0.919685
O O20 0.500000 0.586687 0.060579
#
# Coordination Sequence:
#
# PCOD9342939 Si02
#       8
#     4   4   4   4   4   4   4   4
#     4   8  15  30  52  76 101 133 172 208 252 315
#     4  10  19  34  57  80 104 138 178 217 258 310
#     4   8  15  28  49  75  98 125 166 212 251 298
#     4   8  14  28  51  75  97 126 169 210 244 296
#     4   9  18  33  54  78 106 143 180 212 255 318
#     4  11  21  33  51  74 101 133 171 215 262 310
#     4  11  23  37  53  77 108 140 179 223 264 313
#     4   9  17  31  53  77  99 128 167 211 256 306
#
# _framework density 22.296430999999998
#
# number of rings (size 3 to 8) (size 9 to 14) (size 15 to 20)
#    0.000    2.750    0.000    3.750    0.000    5.000 
#    0.000    3.125    0.000   11.250    0.000    0.000 
#    0.000    0.000    0.000    0.000    0.000    0.000 
#
# Total GULP energy -178460.072329 kJ/mol
# GULP energy per Si atom -5576.877260 kJ/mol
# Density = 2.224568 g / cm^3
# Si number density = 22.296431 Si / 1000 Ang^3
#
#
#
# Elastic Constant Matrix: (Units=GPa)
#
#
# Indices 1 2 3 4 5 6 
#
# 1 53.9406 6.6596 -0.1878 0.0000 0.0000 0.0000
# 2 6.6596 126.1171 2.4395 0.0000 0.0000 0.0000
# 3 -0.1878 2.4395 39.5655 0.0000 0.0000 0.0000
# 4 0.0000 0.0000 0.0000 34.2454 0.0000 0.0000
# 5 0.0000 0.0000 0.0000 0.0000 9.5222 0.0000
# 6 0.0000 0.0000 0.0000 0.0000 0.0000 -3.0648
#
#
#
# Elastic Compliance Matrix: (Units=1/GPa)
#
#
# Indices 1 2 3 4 5 6 
#
# 1 0.018661 -0.000988 0.000150 0.000000 0.000000 0.000000
# 2 -0.000988 0.007991 -0.000497 0.000000 0.000000 0.000000
# 3 0.000150 -0.000497 0.025306 0.000000 0.000000 0.000000
# 4 0.000000 0.000000 0.000000 0.029201 0.000000 0.000000
# 5 0.000000 0.000000 0.000000 0.000000 0.105017 0.000000
# 6 0.000000 0.000000 0.000000 0.000000 0.000000 -0.326289
#
#
# Mechanical properties :
#
#
# Convention : Reuss Voigt Hill
#
# Bulk Modulus (GPa) = 20.28975 26.38285 23.33630
# Shear Modulus (GPa) = -41.31832 22.18803 -9.56515
#
# Velocity S-wave (km/s) = -4.30948 3.15800 -2.07348
# Velocity P-wave (km/s) = 3.95504 5.01555 2.18099
#
# Compressibility (1/GPa) = 0.04928597
#
# Stress axis : x y z
#
# Youngs Moduli (GPa) = 53.58641 125.14160 39.51646
#
# Poissons Ratio (x) = 0.12368 -0.00591
# Poissons Ratio (y) = 0.05296 0.01965
# Poissons Ratio (z) = -0.00801 0.06224
#
# Static dielectric constant tensor:
#      x y z
#    x 1.912900 0.000000 0.000000 
#    y 0.000000 1.820340 0.000000 
#    z 0.000000 0.000000 1.792230 
# 
# From -- ./inp_files/5830.got.cif
#   From: 2010.05.17/outbox.cif.g08.bks.cpg/sg31_3_cif.got.tgz:5830.got - 2010.06.03 17:08:30.
