data_PCOD9342130
_publ_section_title
;
Structure prediction by ZEFSAII (Michael W. Deem and Ramdas Pophale) SiO2 
 PCOD9342130
Probable space group: P N C 2
;
_chemical_formula_sum "Si O2"
_cell_formula_units_Z 30
_cell_length_a 12.264727
_cell_length_b 20.930302
_cell_length_c 5.227663
_cell_angle_alpha 90.000000
_cell_angle_beta 90.000000
_cell_angle_gamma 90.000000
_cell_volume 1341.964303
_symmetry_space_group_name_H-M "P N C 2"
_symmetry_group_IT_number 30
_symmetry_cell_setting 'orthorhombic'
loop_
_space_group_symop_operation_xyz
x,y,z
-x,-y,z
-x,1/2+y,1/2+z
x,1/2-y,1/2+z
loop_
_atom_site_type_symbol
_atom_site_label
_atom_site_fract_x
_atom_site_fract_y
_atom_site_fract_z
Si Si1 0.649978 0.416277 0.333670
Si Si2 0.324159 0.209531 0.435859
Si Si3 0.437385 0.393540 0.639411
Si Si4 0.988101 0.286718 0.043997
Si Si5 0.863266 0.604534 0.916943
Si Si6 0.726573 0.214298 0.584647
Si Si7 0.500000 0.000000 0.475612
Si Si8 0.232238 0.454578 0.420078
O O1 0.559743 0.392979 0.536620
O O2 0.699131 0.355855 0.188394
O O3 0.574324 0.455217 0.140903
O O4 0.732872 0.470845 0.432787
O O5 0.326195 0.234381 0.724519
O O6 0.420111 0.164383 0.332777
O O7 0.219590 0.164669 0.403639
O O8 0.340341 0.407464 0.435381
O O9 0.423390 0.457554 0.802478
O O10 0.028016 0.261502 0.319993
O O11 0.024577 0.358325 0.972771
O O12 0.857674 0.282833 0.059786
O O13 0.826985 0.561079 0.154277
O O14 0.845070 0.566545 0.654519
O O15 0.686860 0.236721 0.305825
#
# Coordination Sequence:
#
# PCOD9342130 Si02
#       8
#     4   4   4   4   4   4   2   4
#     4  12  24  41  69  90 134 179 222 275 327 396
#     4  11  23  36  53  87 128 157 198 263 322 368
#     4  11  24  38  61  88 124 174 222 254 310 401
#     4  10  20  42  70  95 128 174 220 263 331 409
#     4  11  22  37  66  94 130 164 212 265 330 398
#     4  10  26  46  69 100 130 172 228 278 327 394
#     4  12  22  42  66  90 118 180 230 256 324 396
#     4  11  22  39  61  99 126 167 218 268 318 392
#
# _framework density 22.355288000000002
#
# number of rings (size 3 to 8) (size 9 to 14) (size 15 to 20)
#    0.000    1.067    2.667    4.800    3.733    1.067 
#    0.000    0.667    0.000    3.200    0.000    0.000 
#    0.000    0.000    0.000    0.000    0.000    0.000 
#
# Total GULP energy -167661.006828 kJ/mol
# GULP energy per Si atom -5588.700228 kJ/mol
# Density = 2.230441 g / cm^3
# Si number density = 22.355288 Si / 1000 Ang^3
#
#
#
# Elastic Constant Matrix: (Units=GPa)
#
#
# Indices 1 2 3 4 5 6 
#
# 1 15.9896 16.6584 26.8452 0.0000 0.0000 0.0000
# 2 16.6584 90.3109 32.2738 0.0000 0.0000 0.0000
# 3 26.8452 32.2738 117.6473 0.0000 0.0000 0.0000
# 4 0.0000 0.0000 0.0000 23.9647 0.0000 0.0000
# 5 0.0000 0.0000 0.0000 0.0000 37.4068 0.0000
# 6 0.0000 0.0000 0.0000 0.0000 0.0000 34.2012
#
#
#
# Elastic Compliance Matrix: (Units=1/GPa)
#
#
# Indices 1 2 3 4 5 6 
#
# 1 0.113591 -0.012960 -0.022364 0.000000 0.000000 0.000000
# 2 -0.012960 0.013755 -0.000816 0.000000 0.000000 0.000000
# 3 -0.022364 -0.000816 0.013827 0.000000 0.000000 0.000000
# 4 0.000000 0.000000 0.000000 0.041728 0.000000 0.000000
# 5 0.000000 0.000000 0.000000 0.000000 0.026733 0.000000
# 6 0.000000 0.000000 0.000000 0.000000 0.000000 0.029239
#
#
# Mechanical properties :
#
#
# Convention : Reuss Voigt Hill
#
# Bulk Modulus (GPa) = 14.51555 41.72250 28.11903
# Shear Modulus (GPa) = 14.96478 28.99257 21.97868
#
# Velocity S-wave (km/s) = 2.59010 3.60516 3.13893
# Velocity P-wave (km/s) = 3.93091 6.00278 5.07373
#
# Compressibility (1/GPa) = 0.06889162
#
# Stress axis : x y z
#
# Youngs Moduli (GPa) = 8.80354 72.70034 72.32231
#
# Poissons Ratio (x) = 0.94222 1.61743
# Poissons Ratio (y) = 0.11410 0.05902
# Poissons Ratio (z) = 0.19688 0.05933
#
# Static dielectric constant tensor:
#      x y z
#    x 1.836630 0.000000 0.000000 
#    y 0.000000 1.846540 0.000000 
#    z 0.000000 0.000000 1.865320 
# 
# From -- ./inp_files/801.got.cif
#   From: 2010.05.17/outbox.cif.g08.bks.cpg/sg30_1_cif.got.tgz:801.got - 2010.06.03 17:03:02.
