data_PCOD9342532
_publ_section_title
;
Structure prediction by ZEFSAII (Michael W. Deem and Ramdas Pophale) SiO2 
 PCOD9342532
Probable space group: P N C 2
;
_chemical_formula_sum "Si O2"
_cell_formula_units_Z 16
_cell_length_a 5.097081
_cell_length_b 5.261543
_cell_length_c 26.992062
_cell_angle_alpha 90.000000
_cell_angle_beta 90.000000
_cell_angle_gamma 90.000000
_cell_volume 723.886908
_symmetry_space_group_name_H-M "P N C 2"
_symmetry_group_IT_number 30
_symmetry_cell_setting 'orthorhombic'
loop_
_space_group_symop_operation_xyz
x,y,z
-x,-y,z
-x,1/2+y,1/2+z
x,1/2-y,1/2+z
loop_
_atom_site_type_symbol
_atom_site_label
_atom_site_fract_x
_atom_site_fract_y
_atom_site_fract_z
Si Si1 0.500000 0.000000 0.581831
Si Si2 0.000000 0.500000 0.447122
Si Si3 0.000000 0.500000 0.151328
Si Si4 0.500000 0.000000 0.316159
Si Si5 0.500000 0.500000 0.515947
Si Si6 0.652949 0.260779 0.717989
Si Si7 0.000000 0.000000 0.382257
O O1 0.548209 0.250462 0.549089
O O2 0.754330 0.954112 0.615815
O O3 0.249683 0.446813 0.481589
O O4 0.937938 0.249453 0.414726
O O5 0.075960 0.722638 0.189867
O O6 0.640107 0.191544 0.276954
O O7 0.255936 0.078603 0.350111
O O8 0.500000 0.500000 0.695955
O O9 0.500000 0.000000 0.710269
#
# Coordination Sequence:
#
# PCOD9342532 Si02
#       7
#     2   2   2   2   2   4   2
#     4  12  28  43  78 101 142 179 246 297 342 452
#     4  12  26  47  76  97 142 175 230 297 378 428
#     4  12  26  48  70 110 142 196 246 284 358 410
#     4  10  28  42  70 104 146 184 244 278 354 404
#     4  12  26  51  70 105 136 181 226 303 382 418
#     4  10  26  43  70  97 151 194 231 292 344 418
#     4  12  26  43  74 105 134 183 238 293 340 448
#
# _framework density 22.102898
#
# number of rings (size 3 to 8) (size 9 to 14) (size 15 to 20)
#    0.750    0.000    1.250    4.500    8.750    3.000 
#    0.000    0.000    0.000    0.000    0.000    0.000 
#    0.000    0.000    0.000    0.000    0.000    0.000 
#
# Total GULP energy -89381.738127 kJ/mol
# GULP energy per Si atom -5586.358633 kJ/mol
# Density = 2.205259 g / cm^3
# Si number density = 22.102898 Si / 1000 Ang^3
#
#
#
# Elastic Constant Matrix: (Units=GPa)
#
#
# Indices 1 2 3 4 5 6 
#
# 1 137.1043 8.3227 50.5355 0.0000 0.0000 0.0000
# 2 8.3227 140.6050 41.1999 0.0000 0.0000 0.0000
# 3 50.5355 41.1999 120.3753 0.0000 0.0000 0.0000
# 4 0.0000 0.0000 0.0000 45.6877 0.0000 0.0000
# 5 0.0000 0.0000 0.0000 0.0000 67.3260 0.0000
# 6 0.0000 0.0000 0.0000 0.0000 0.0000 34.8424
#
#
#
# Elastic Compliance Matrix: (Units=1/GPa)
#
#
# Indices 1 2 3 4 5 6 
#
# 1 0.008677 0.000615 -0.003853 0.000000 0.000000 0.000000
# 2 0.000615 0.007949 -0.002979 0.000000 0.000000 0.000000
# 3 -0.003853 -0.002979 0.010945 0.000000 0.000000 0.000000
# 4 0.000000 0.000000 0.000000 0.021888 0.000000 0.000000
# 5 0.000000 0.000000 0.000000 0.000000 0.014853 0.000000
# 6 0.000000 0.000000 0.000000 0.000000 0.000000 0.028701
#
#
# Mechanical properties :
#
#
# Convention : Reuss Voigt Hill
#
# Bulk Modulus (GPa) = 66.06562 66.46678 66.26620
# Shear Modulus (GPa) = 45.25294 49.43966 47.34630
#
# Velocity S-wave (km/s) = 4.52970 4.73461 4.63329
# Velocity P-wave (km/s) = 7.57050 7.74761 7.65957
#
# Compressibility (1/GPa) = 0.01513646
#
# Stress axis : x y z
#
# Youngs Moduli (GPa) = 115.25212 125.80897 91.36953
#
# Poissons Ratio (x) = -0.07743 0.35207
# Poissons Ratio (y) = -0.07094 0.27218
# Poissons Ratio (z) = 0.44410 0.37477
#
# Static dielectric constant tensor:
#      x y z
#    x 1.798840 0.000000 0.000000 
#    y 0.000000 1.813270 0.000000 
#    z 0.000000 0.000000 1.829000 
# 
# From -- ./inp_files/6731.got.cif
#   From: 2010.05.17/outbox.cif.g08.bks.cpg/sg30_4_cif.got.tgz:6731.got - 2010.06.03 17:03:02.
