data_PCOD9342621
_publ_section_title
;
Structure prediction by ZEFSAII (Michael W. Deem and Ramdas Pophale) SiO2 
 PCOD9342621
Probable space group: P N C 2
;
_chemical_formula_sum "Si O2"
_cell_formula_units_Z 28
_cell_length_a 7.860456
_cell_length_b 27.411600
_cell_length_c 5.107450
_cell_angle_alpha 90.000000
_cell_angle_beta 90.000000
_cell_angle_gamma 90.000000
_cell_volume 1100.490380
_symmetry_space_group_name_H-M "P N C 2"
_symmetry_group_IT_number 30
_symmetry_cell_setting 'orthorhombic'
loop_
_space_group_symop_operation_xyz
x,y,z
-x,-y,z
-x,1/2+y,1/2+z
x,1/2-y,1/2+z
loop_
_atom_site_type_symbol
_atom_site_label
_atom_site_fract_x
_atom_site_fract_y
_atom_site_fract_z
Si Si1 0.981547 0.875581 0.619850
Si Si2 0.677551 0.589853 0.469310
Si Si3 0.663796 0.970875 0.476304
Si Si4 0.095865 0.955734 0.233967
Si Si5 0.724066 0.268767 0.439466
Si Si6 0.691171 0.124915 0.939578
Si Si7 0.892261 0.730892 0.210274
O O1 0.861612 0.891633 0.864980
O O2 0.908270 0.821709 0.571628
O O3 0.986548 0.916255 0.396351
O O4 0.180336 0.871436 0.694160
O O5 0.667578 0.573851 0.770094
O O6 0.510558 0.621725 0.405307
O O7 0.650721 0.544520 0.274926
O O8 0.812155 0.009700 0.442098
O O9 0.500000 0.000000 0.393189
O O10 0.233796 0.922984 0.082027
O O11 0.000000 0.000000 0.076049
O O12 0.638592 0.233878 0.653213
O O13 0.726511 0.322345 0.567474
O O14 0.915733 0.257442 0.325836
O O15 0.808111 0.733296 0.497990
#
# Coordination Sequence:
#
# PCOD9342621 Si02
#       7
#     4   4   4   4   4   4   4
#     4  11  26  43  72 103 139 184 237 292 354 426
#     4  12  27  47  70 102 142 187 237 290 351 424
#     4  12  25  46  66  97 141 185 236 289 343 417
#     4  12  25  44  69 102 142 188 244 296 356 423
#     4   9  20  38  67 102 134 175 229 287 353 427
#     4  11  26  44  73 101 143 188 236 294 361 424
#     4   9  20  38  66  98 133 176 224 284 353 422
#
# _framework density 25.443200999999998
#
# number of rings (size 3 to 8) (size 9 to 14) (size 15 to 20)
#    0.000    1.143    2.857    2.143   12.000    0.571 
#    0.000    1.429    0.000    0.000    0.000    0.000 
#    0.000    0.000    0.000    0.000    0.000    0.000 
#
# Total GULP energy -156019.323004 kJ/mol
# GULP energy per Si atom -5572.118679 kJ/mol
# Density = 2.538529 g / cm^3
# Si number density = 25.443201 Si / 1000 Ang^3
#
#
#
# Elastic Constant Matrix: (Units=GPa)
#
#
# Indices 1 2 3 4 5 6 
#
# 1 93.6161 2.4418 2.2955 0.0000 0.0000 0.0000
# 2 2.4418 124.6200 17.5809 0.0000 0.0000 0.0000
# 3 2.2955 17.5809 70.4367 0.0000 0.0000 0.0000
# 4 0.0000 0.0000 0.0000 34.5946 0.0000 0.0000
# 5 0.0000 0.0000 0.0000 0.0000 22.5720 0.0000
# 6 0.0000 0.0000 0.0000 0.0000 0.0000 18.5125
#
#
#
# Elastic Compliance Matrix: (Units=1/GPa)
#
#
# Indices 1 2 3 4 5 6 
#
# 1 0.010694 -0.000166 -0.000307 0.000000 0.000000 0.000000
# 2 -0.000166 0.008320 -0.002071 0.000000 0.000000 0.000000
# 3 -0.000307 -0.002071 0.014724 0.000000 0.000000 0.000000
# 4 0.000000 0.000000 0.000000 0.028906 0.000000 0.000000
# 5 0.000000 0.000000 0.000000 0.000000 0.044303 0.000000
# 6 0.000000 0.000000 0.000000 0.000000 0.000000 0.054017
#
#
# Mechanical properties :
#
#
# Convention : Reuss Voigt Hill
#
# Bulk Modulus (GPa) = 34.90541 37.03437 35.96989
# Shear Modulus (GPa) = 28.47337 32.89279 30.68308
#
# Velocity S-wave (km/s) = 3.34892 3.59944 3.47644
# Velocity P-wave (km/s) = 5.35746 5.64464 5.50292
#
# Compressibility (1/GPa) = 0.02864885
#
# Stress axis : x y z
#
# Youngs Moduli (GPa) = 93.51229 120.19454 67.91576
#
# Poissons Ratio (x) = 0.01998 0.02085
# Poissons Ratio (y) = 0.01554 0.14067
# Poissons Ratio (z) = 0.02871 0.24895
#
# Static dielectric constant tensor:
#      x y z
#    x 2.284160 0.000000 0.000000 
#    y 0.000000 2.049250 0.000000 
#    z 0.000000 0.000000 2.239620 
# 
# From -- ./inp_files/499.got.cif
#   From: 2010.05.17/outbox.cif.g08.bks.cpg/sg30_1_cif.got.tgz:499.got - 2010.06.03 17:03:02.
