data_PCOD9342214
_publ_section_title
;
Structure prediction by ZEFSAII (Michael W. Deem and Ramdas Pophale) SiO2 
 PCOD9342214
Probable space group: P N C 2
;
_chemical_formula_sum "Si O2"
_cell_formula_units_Z 20
_cell_length_a 4.946661
_cell_length_b 31.071088
_cell_length_c 5.146209
_cell_angle_alpha 90.000000
_cell_angle_beta 90.000000
_cell_angle_gamma 90.000000
_cell_volume 790.962747
_symmetry_space_group_name_H-M "P N C 2"
_symmetry_group_IT_number 30
_symmetry_cell_setting 'orthorhombic'
loop_
_space_group_symop_operation_xyz
x,y,z
-x,-y,z
-x,1/2+y,1/2+z
x,1/2-y,1/2+z
loop_
_atom_site_type_symbol
_atom_site_label
_atom_site_fract_x
_atom_site_fract_y
_atom_site_fract_z
Si Si1 0.400941 0.410666 0.238310
Si Si2 0.761458 0.777658 0.470015
Si Si3 0.500000 0.000000 0.725638
Si Si4 0.000000 0.000000 0.113677
Si Si5 0.112184 0.590459 0.587545
Si Si6 0.247666 0.836228 0.471699
O O1 0.463939 0.454788 0.081570
O O2 0.581466 0.416235 0.496790
O O3 0.094506 0.406096 0.340595
O O4 0.554858 0.370902 0.109422
O O5 0.804477 0.739664 0.678322
O O6 0.458971 0.796884 0.450102
O O7 0.974293 0.813550 0.568206
O O8 0.753090 0.999710 0.915214
O O9 0.020715 0.952831 0.241923
O O10 0.123749 0.635300 0.736688
#
# Coordination Sequence:
#
# PCOD9342214 Si02
#       6
#     4   4   2   2   4   4
#     4  10  21  39  66  98 143 184 233 288 347 430
#     4  12  30  52  77 106 144 184 237 312 386 448
#     4   8  16  34  58  92 136 188 222 274 344 402
#     4   8  16  34  58  92 136 188 222 274 344 402
#     4  10  21  39  66  98 143 184 233 288 347 430
#     4  12  26  44  75 106 132 188 239 296 368 438
#
# _framework density 25.285641999999999
#
# number of rings (size 3 to 8) (size 9 to 14) (size 15 to 20)
#    0.000    1.600    0.000    3.600    8.400    0.000 
#    0.000   14.000    0.000    0.000    0.000    0.000 
#    0.000    0.000    0.000    0.000    0.000    0.000 
#
# Total GULP energy -111504.432988 kJ/mol
# GULP energy per Si atom -5575.221649 kJ/mol
# Density = 2.522809 g / cm^3
# Si number density = 25.285642 Si / 1000 Ang^3
#
#
#
# Elastic Constant Matrix: (Units=GPa)
#
#
# Indices 1 2 3 4 5 6 
#
# 1 171.7177 11.5491 19.8979 0.0000 0.0000 0.0000
# 2 11.5491 88.8528 13.1338 0.0000 0.0000 0.0000
# 3 19.8979 13.1338 56.9884 0.0000 0.0000 0.0000
# 4 0.0000 0.0000 0.0000 46.1351 0.0000 0.0000
# 5 0.0000 0.0000 0.0000 0.0000 48.9353 0.0000
# 6 0.0000 0.0000 0.0000 0.0000 0.0000 42.2435
#
#
#
# Elastic Compliance Matrix: (Units=1/GPa)
#
#
# Indices 1 2 3 4 5 6 
#
# 1 0.006090 -0.000494 -0.002012 0.000000 0.000000 0.000000
# 2 -0.000494 0.011692 -0.002522 0.000000 0.000000 0.000000
# 3 -0.002012 -0.002522 0.018831 0.000000 0.000000 0.000000
# 4 0.000000 0.000000 0.000000 0.021675 0.000000 0.000000
# 5 0.000000 0.000000 0.000000 0.000000 0.020435 0.000000
# 6 0.000000 0.000000 0.000000 0.000000 0.000000 0.023672
#
#
# Mechanical properties :
#
#
# Convention : Reuss Voigt Hill
#
# Bulk Modulus (GPa) = 37.65662 45.19117 41.42389
# Shear Modulus (GPa) = 41.21850 45.66131 43.43990
#
# Velocity S-wave (km/s) = 4.04185 4.25410 4.14933
# Velocity P-wave (km/s) = 6.05862 6.48390 6.27486
#
# Compressibility (1/GPa) = 0.02655576
#
# Stress axis : x y z
#
# Youngs Moduli (GPa) = 164.20524 85.53168 53.10301
#
# Poissons Ratio (x) = 0.04226 0.10687
# Poissons Ratio (y) = 0.08113 0.13392
# Poissons Ratio (z) = 0.33046 0.21571
#
# Static dielectric constant tensor:
#      x y z
#    x 1.899010 0.000000 0.000000 
#    y 0.000000 2.158730 0.000000 
#    z 0.000000 0.000000 2.067340 
# 
# From -- ./inp_files/195.got.cif
#   From: 2010.05.17/outbox.cif.g08.bks.cpg/sg30_1_cif.got.tgz:195.got - 2010.06.03 17:03:02.
