data_PCOD9342801
_publ_section_title
;
Structure prediction by ZEFSAII (Michael W. Deem and Ramdas Pophale) SiO2 
 PCOD9342801
Probable space group: P M N 21
;
_chemical_formula_sum "Si O2"
_cell_formula_units_Z 32
_cell_length_a 7.473346
_cell_length_b 15.711382
_cell_length_c 12.439890
_cell_angle_alpha 90.000000
_cell_angle_beta 90.000000
_cell_angle_gamma 90.000000
_cell_volume 1460.649511
_symmetry_space_group_name_H-M "P M N 21"
_symmetry_group_IT_number 31
_symmetry_cell_setting 'orthorhombic'
loop_
_space_group_symop_operation_xyz
x,y,z
1/2-x,-y,1/2+z
-x,y,z
1/2+x,-y,1/2+z
loop_
_atom_site_type_symbol
_atom_site_label
_atom_site_fract_x
_atom_site_fract_y
_atom_site_fract_z
Si Si1 0.293845 0.735897 0.524630
Si Si2 0.280873 0.757206 0.767852
Si Si3 0.294286 0.110462 0.870852
Si Si4 0.718944 0.920783 0.907760
Si Si5 0.210687 0.394426 0.851868
Si Si6 0.282816 0.654154 0.118990
Si Si7 0.783721 0.412119 0.397266
Si Si8 0.785103 0.153261 0.628527
O O1 0.500000 0.712277 0.545961
O O2 0.219562 0.754286 0.643516
O O3 0.290688 0.819133 0.448512
O O4 0.213994 0.658921 0.452844
O O5 0.500000 0.759516 0.770247
O O6 0.222901 0.842214 0.832114
O O7 0.226074 0.669882 0.827922
O O8 0.500000 0.106603 0.906326
O O9 0.287051 0.138114 0.746956
O O10 0.220335 0.014686 0.874738
O O11 0.500000 0.919193 0.904320
O O12 0.773610 0.906355 0.031392
O O13 0.286734 0.366139 0.737122
O O14 0.227676 0.495418 0.858190
O O15 0.000000 0.372085 0.849494
O O16 0.500000 0.646534 0.122305
O O17 0.241439 0.751376 0.092572
O O18 0.220547 0.597783 0.020110
O O19 0.000000 0.410217 0.396444
O O20 0.000000 0.147148 0.637655
#
# Coordination Sequence:
#
# PCOD9342801 Si02
#       8
#     4   4   4   4   4   4   4   4
#     4  10  21  38  59  79 108 153 191 218 265 337
#     4   9  18  35  58  82 108 143 189 228 262 324
#     4  11  23  36  54  87 119 141 178 237 284 314
#     4   9  19  35  57  83 112 145 183 228 276 322
#     4  10  21  36  53  79 112 144 181 225 270 327
#     4   9  17  34  58  78 101 139 187 225 263 324
#     4  10  20  35  58  83 104 138 185 230 273 321
#     4  10  18  37  63  79 102 149 194 223 265 335
#
# _framework density 21.908062999999999
#
# number of rings (size 3 to 8) (size 9 to 14) (size 15 to 20)
#    0.000    2.250    2.500    0.375    3.500    0.500 
#    0.000    1.875    0.000    2.250    0.000    0.000 
#    0.000    0.000    0.000    0.000    0.000    0.000 
#
# Total GULP energy -178645.727745 kJ/mol
# GULP energy per Si atom -5582.678992 kJ/mol
# Density = 2.185820 g / cm^3
# Si number density = 21.908063 Si / 1000 Ang^3
#
#
#
# Elastic Constant Matrix: (Units=GPa)
#
#
# Indices 1 2 3 4 5 6 
#
# 1 57.6879 -7.0414 -3.4619 0.0000 0.0000 0.0000
# 2 -7.0414 96.6938 27.4338 0.0000 0.0000 0.0000
# 3 -3.4619 27.4338 124.1206 0.0000 0.0000 0.0000
# 4 0.0000 0.0000 0.0000 33.0185 0.0000 0.0000
# 5 0.0000 0.0000 0.0000 0.0000 -12.8523 0.0000
# 6 0.0000 0.0000 0.0000 0.0000 0.0000 25.0596
#
#
#
# Elastic Compliance Matrix: (Units=1/GPa)
#
#
# Indices 1 2 3 4 5 6 
#
# 1 0.017496 0.001212 0.000220 0.000000 0.000000 0.000000
# 2 0.001212 0.011118 -0.002424 0.000000 0.000000 0.000000
# 3 0.000220 -0.002424 0.008598 0.000000 0.000000 0.000000
# 4 0.000000 0.000000 0.000000 0.030286 0.000000 0.000000
# 5 0.000000 0.000000 0.000000 0.000000 -0.077807 0.000000
# 6 0.000000 0.000000 0.000000 0.000000 0.000000 0.039905
#
#
# Mechanical properties :
#
#
# Convention : Reuss Voigt Hill
#
# Bulk Modulus (GPa) = 28.38605 34.70702 31.54654
# Shear Modulus (GPa) = 115.41394 26.48326 70.94860
#
# Velocity S-wave (km/s) = 7.26604 3.48060 5.69693
# Velocity P-wave (km/s) = 9.13120 5.65945 7.59632
#
# Compressibility (1/GPa) = 0.03522857
#
# Stress axis : x y z
#
# Youngs Moduli (GPa) = 57.15668 89.94625 116.29967
#
# Poissons Ratio (x) = -0.10898 -0.02561
# Poissons Ratio (y) = -0.06925 0.28185
# Poissons Ratio (z) = -0.01259 0.21799
#
# Static dielectric constant tensor:
#      x y z
#    x 1.838570 0.000000 0.000000 
#    y 0.000000 1.756430 0.000000 
#    z 0.000000 0.000000 1.773700 
# 
# From -- ./inp_files/3551.got.cif
#   From: 2010.05.17/outbox.cif.g08.bks.cpg/sg31_2_cif.got.tgz:3551.got - 2010.06.03 17:08:30.
