data_PCOD9342224
_publ_section_title
;
Structure prediction by ZEFSAII (Michael W. Deem and Ramdas Pophale) SiO2 
 PCOD9342224
Probable space group: P N C 2
;
_chemical_formula_sum "Si O2"
_cell_formula_units_Z 24
_cell_length_a 7.945285
_cell_length_b 11.426947
_cell_length_c 12.662602
_cell_angle_alpha 90.000000
_cell_angle_beta 90.000000
_cell_angle_gamma 90.000000
_cell_volume 1149.642075
_symmetry_space_group_name_H-M "P N C 2"
_symmetry_group_IT_number 30
_symmetry_cell_setting 'orthorhombic'
loop_
_space_group_symop_operation_xyz
x,y,z
-x,-y,z
-x,1/2+y,1/2+z
x,1/2-y,1/2+z
loop_
_atom_site_type_symbol
_atom_site_label
_atom_site_fract_x
_atom_site_fract_y
_atom_site_fract_z
Si Si1 0.302681 0.530797 0.437380
Si Si2 0.321831 0.939002 0.171456
Si Si3 0.795823 0.972309 0.611805
Si Si4 0.148723 0.177613 0.797856
Si Si5 0.180597 0.436806 0.877618
Si Si6 0.247911 0.686914 0.252026
O O1 0.500000 0.500000 0.438547
O O2 0.236563 0.547895 0.556421
O O3 0.194992 0.431742 0.374692
O O4 0.301183 0.649428 0.369076
O O5 0.323943 0.804336 0.205843
O O6 0.500000 0.000000 0.157911
O O7 0.245432 0.004542 0.271314
O O8 0.766902 0.858958 0.686176
O O9 0.737252 0.959026 0.491958
O O10 0.713809 0.081021 0.672351
O O11 0.000000 0.000000 0.613361
O O12 0.190707 0.298464 0.854966
O O13 0.953632 0.193402 0.766284
O O14 0.000000 0.500000 0.889670
#
# Coordination Sequence:
#
# PCOD9342224 Si02
#       6
#     4   4   4   4   4   4
#     4  10  24  43  64  92 128 177 215 264 328 391
#     4  11  26  42  61  95 131 167 215 268 332 385
#     4   8  19  37  59  90 122 160 206 263 323 375
#     4  10  21  40  64  93 127 165 214 268 323 393
#     4  11  22  38  62  96 123 159 214 268 321 380
#     4  10  21  43  66  89 127 169 218 266 323 393
#
# _framework density 20.876062000000001
#
# number of rings (size 3 to 8) (size 9 to 14) (size 15 to 20)
#    0.000    2.000    1.667    1.500    7.000    2.667 
#    0.000    3.333    0.000    0.000    0.000    0.000 
#    0.000    0.000    0.000    0.000    0.000    0.000 
#
# Total GULP energy -133768.240611 kJ/mol
# GULP energy per Si atom -5573.676692 kJ/mol
# Density = 2.082855 g / cm^3
# Si number density = 20.876062 Si / 1000 Ang^3
#
#
#
# Elastic Constant Matrix: (Units=GPa)
#
#
# Indices 1 2 3 4 5 6 
#
# 1 22.6403 14.6664 8.7036 0.0000 0.0000 0.0000
# 2 14.6664 129.1091 63.4088 0.0000 0.0000 0.0000
# 3 8.7036 63.4088 206.1403 0.0000 0.0000 0.0000
# 4 0.0000 0.0000 0.0000 20.9024 0.0000 0.0000
# 5 0.0000 0.0000 0.0000 0.0000 25.1611 0.0000
# 6 0.0000 0.0000 0.0000 0.0000 0.0000 14.9922
#
#
#
# Elastic Compliance Matrix: (Units=1/GPa)
#
#
# Indices 1 2 3 4 5 6 
#
# 1 0.047707 -0.005218 -0.000409 0.000000 0.000000 0.000000
# 2 -0.005218 0.009695 -0.002762 0.000000 0.000000 0.000000
# 3 -0.000409 -0.002762 0.005718 0.000000 0.000000 0.000000
# 4 0.000000 0.000000 0.000000 0.047841 0.000000 0.000000
# 5 0.000000 0.000000 0.000000 0.000000 0.039744 0.000000
# 6 0.000000 0.000000 0.000000 0.000000 0.000000 0.066701
#
#
# Mechanical properties :
#
#
# Convention : Reuss Voigt Hill
#
# Bulk Modulus (GPa) = 21.57933 59.04971 40.31452
# Shear Modulus (GPa) = 20.02957 30.28522 25.15740
#
# Velocity S-wave (km/s) = 3.10086 3.81296 3.47520
# Velocity P-wave (km/s) = 4.81454 6.90884 5.95449
#
# Compressibility (1/GPa) = 0.04634065
#
# Stress axis : x y z
#
# Youngs Moduli (GPa) = 20.96141 103.15087 174.89130
#
# Poissons Ratio (x) = 0.53829 0.07154
# Poissons Ratio (y) = 0.10939 0.48300
# Poissons Ratio (z) = 0.00857 0.28487
#
# Static dielectric constant tensor:
#      x y z
#    x 1.572770 0.000000 0.000000 
#    y 0.000000 1.729670 0.000000 
#    z 0.000000 0.000000 1.802770 
# 
# From -- ./inp_files/3624.got.cif
#   From: 2010.05.17/outbox.cif.g08.bks.cpg/sg30_2_cif.got.tgz:3624.got - 2010.06.03 17:03:02.
