data_PCOD9342696
_publ_section_title
;
Structure prediction by ZEFSAII (Michael W. Deem and Ramdas Pophale) SiO2 
 PCOD9342696
Probable space group: P M N 21
;
_chemical_formula_sum "Si O2"
_cell_formula_units_Z 32
_cell_length_a 8.646103
_cell_length_b 11.848198
_cell_length_c 18.047755
_cell_angle_alpha 90.000000
_cell_angle_beta 90.000000
_cell_angle_gamma 90.000000
_cell_volume 1848.825382
_symmetry_space_group_name_H-M "P M N 21"
_symmetry_group_IT_number 31
_symmetry_cell_setting 'orthorhombic'
loop_
_space_group_symop_operation_xyz
x,y,z
1/2-x,-y,1/2+z
-x,y,z
1/2+x,-y,1/2+z
loop_
_atom_site_type_symbol
_atom_site_label
_atom_site_fract_x
_atom_site_fract_y
_atom_site_fract_z
Si Si1 0.184924 0.347274 0.036840
Si Si2 0.815234 0.228333 0.255641
Si Si3 0.183582 0.551952 0.689479
Si Si4 0.815416 0.656840 0.123871
Si Si5 0.684712 0.888069 0.598387
Si Si6 0.316843 0.870852 0.060826
Si Si7 0.815881 0.771549 0.908693
Si Si8 0.315392 0.552318 0.970490
O O1 0.270523 0.395203 0.109585
O O2 0.215248 0.213763 0.040146
O O3 0.000000 0.363269 0.045959
O O4 0.244972 0.426369 0.970639
O O5 0.755380 0.356249 0.244299
O O6 0.776536 0.159724 0.180466
O O7 0.739658 0.180508 0.330101
O O8 0.000000 0.229535 0.262471
O O9 0.255434 0.426445 0.688090
O O10 0.000000 0.546138 0.697343
O O11 0.760060 0.785779 0.120660
O O12 0.000000 0.650417 0.119015
O O13 0.740349 0.606243 0.048687
O O14 0.500000 0.909761 0.597168
O O15 0.774074 0.001236 0.579465
O O16 0.500000 0.852444 0.060680
O O17 0.251213 0.837598 0.979707
O O18 0.751277 0.643385 0.913691
O O19 0.000000 0.769797 0.914032
O O20 0.500000 0.548424 0.967328
#
# Coordination Sequence:
#
# PCOD9342696 Si02
#       8
#     4   4   4   4   4   4   4   4
#     4   9  16  28  46  69  97 127 159 198 245 291
#     4  10  20  35  53  75 103 133 168 210 260 312
#     4  10  17  27  45  71  99 125 157 195 242 295
#     4  10  17  28  46  68  96 127 160 199 245 291
#     4   9  19  34  52  74 102 136 173 214 257 305
#     4  11  21  33  51  75 103 135 176 220 258 303
#     4  11  21  34  52  74 102 134 170 211 260 313
#     4  10  17  27  45  70  98 125 157 197 245 296
#
# _framework density 17.308287
#
# number of rings (size 3 to 8) (size 9 to 14) (size 15 to 20)
#    0.000    2.000    0.000   10.125    0.000    3.000 
#    0.000    0.000    0.000    1.500    0.000    3.500 
#    0.000    0.000    0.000    0.000    0.000    0.000 
#
# Total GULP energy -178342.372336 kJ/mol
# GULP energy per Si atom -5573.199136 kJ/mol
# Density = 1.726889 g / cm^3
# Si number density = 17.308287 Si / 1000 Ang^3
#
#
#
# Elastic Constant Matrix: (Units=GPa)
#
#
# Indices 1 2 3 4 5 6 
#
# 1 118.1210 49.8182 27.1780 0.0000 0.0000 0.0000
# 2 49.8182 110.1319 28.6821 0.0000 0.0000 0.0000
# 3 27.1780 28.6821 53.1320 0.0000 0.0000 0.0000
# 4 0.0000 0.0000 0.0000 14.4877 0.0000 0.0000
# 5 0.0000 0.0000 0.0000 0.0000 25.9254 0.0000
# 6 0.0000 0.0000 0.0000 0.0000 0.0000 30.6234
#
#
#
# Elastic Compliance Matrix: (Units=1/GPa)
#
#
# Indices 1 2 3 4 5 6 
#
# 1 0.010969 -0.004073 -0.003412 0.000000 0.000000 0.000000
# 2 -0.004073 0.012078 -0.004436 0.000000 0.000000 0.000000
# 3 -0.003412 -0.004436 0.022961 0.000000 0.000000 0.000000
# 4 0.000000 0.000000 0.000000 0.069024 0.000000 0.000000
# 5 0.000000 0.000000 0.000000 0.000000 0.038572 0.000000
# 6 0.000000 0.000000 0.000000 0.000000 0.000000 0.032655
#
#
# Mechanical properties :
#
#
# Convention : Reuss Voigt Hill
#
# Bulk Modulus (GPa) = 45.11660 54.74906 49.93283
# Shear Modulus (GPa) = 22.98950 25.92106 24.45528
#
# Velocity S-wave (km/s) = 3.64845 3.87409 3.76296
# Velocity P-wave (km/s) = 6.62354 7.19110 6.91315
#
# Compressibility (1/GPa) = 0.02216479
#
# Stress axis : x y z
#
# Youngs Moduli (GPa) = 91.16752 82.79566 43.55160
#
# Poissons Ratio (x) = 0.33724 0.14860
# Poissons Ratio (y) = 0.37134 0.19322
# Poissons Ratio (z) = 0.31106 0.36732
#
# Static dielectric constant tensor:
#      x y z
#    x 1.571950 0.000000 0.000000 
#    y 0.000000 1.632610 0.000000 
#    z 0.000000 0.000000 1.670520 
# 
# From -- ./inp_files/5898.got.cif
#   From: 2010.05.17/outbox.cif.g08.bks.cpg/sg31_3_cif.got.tgz:5898.got - 2010.06.03 17:08:30.
