data_PCOD9342017
_publ_section_title
;
Structure prediction by ZEFSAII (Michael W. Deem and Ramdas Pophale) SiO2 
 PCOD9342017
Probable space group: P N C 2
;
_chemical_formula_sum "Si O2"
_cell_formula_units_Z 30
_cell_length_a 13.096444
_cell_length_b 12.694822
_cell_length_c 8.275579
_cell_angle_alpha 90.000000
_cell_angle_beta 90.000000
_cell_angle_gamma 90.000000
_cell_volume 1375.873148
_symmetry_space_group_name_H-M "P N C 2"
_symmetry_group_IT_number 30
_symmetry_cell_setting 'orthorhombic'
loop_
_space_group_symop_operation_xyz
x,y,z
-x,-y,z
-x,1/2+y,1/2+z
x,1/2-y,1/2+z
loop_
_atom_site_type_symbol
_atom_site_label
_atom_site_fract_x
_atom_site_fract_y
_atom_site_fract_z
Si Si1 0.712952 0.173393 0.260540
Si Si2 0.615359 0.123899 0.605568
Si Si3 0.073327 0.347454 0.444735
Si Si4 0.000000 0.500000 0.853204
Si Si5 0.266938 0.212487 0.341646
Si Si6 0.626447 0.611175 0.146719
Si Si7 0.799457 0.523156 0.631283
Si Si8 0.951312 0.210121 0.272466
O O1 0.666200 0.132069 0.428240
O O2 0.649517 0.272100 0.199165
O O3 0.830007 0.211312 0.272313
O O4 0.722483 0.073609 0.139073
O O5 0.492646 0.122733 0.603568
O O6 0.647108 0.011630 0.682207
O O7 0.160398 0.262972 0.397591
O O8 0.136994 0.453783 0.469411
O O9 0.990748 0.326809 0.309202
O O10 0.008885 0.327276 0.609329
O O11 0.890948 0.502473 0.759334
O O12 0.987848 0.377668 0.907827
O O13 0.339381 0.308189 0.285997
O O14 0.311382 0.145766 0.488472
O O15 0.250917 0.131838 0.192325
#
# Coordination Sequence:
#
# PCOD9342017 Si02
#       8
#     4   4   4   2   4   4   4   4
#     4  11  23  44  67  94 132 177 214 267 332 393
#     4  11  25  46  66  92 129 168 222 274 336 389
#     4  11  19  36  59  99 132 169 212 262 309 389
#     4   8  16  32  52  86 120 170 202 246 296 374
#     4  12  20  40  66  95 128 168 216 268 329 380
#     4  11  25  43  68  96 125 167 220 281 328 397
#     4  10  20  35  63  94 127 167 213 254 318 380
#     4  10  20  34  60  90 132 169 214 259 316 385
#
# _framework density 21.804335999999999
#
# number of rings (size 3 to 8) (size 9 to 14) (size 15 to 20)
#    0.000    1.333    5.333    1.600    0.000    1.067 
#    0.000    4.000    0.000    6.400    0.000    0.000 
#    0.000    0.000    0.000    0.000    0.000    0.000 
#
# Total GULP energy -167162.478779 kJ/mol
# GULP energy per Si atom -5572.082626 kJ/mol
# Density = 2.175471 g / cm^3
# Si number density = 21.804336 Si / 1000 Ang^3
#
#
#
# Elastic Constant Matrix: (Units=GPa)
#
#
# Indices 1 2 3 4 5 6 
#
# 1 91.4195 30.9172 1.8341 0.0000 0.0000 0.0000
# 2 30.9172 121.2253 5.0627 0.0000 0.0000 0.0000
# 3 1.8341 5.0627 21.5186 0.0000 0.0000 0.0000
# 4 0.0000 0.0000 0.0000 35.2395 0.0000 0.0000
# 5 0.0000 0.0000 0.0000 0.0000 20.9626 0.0000
# 6 0.0000 0.0000 0.0000 0.0000 0.0000 44.5542
#
#
#
# Elastic Compliance Matrix: (Units=1/GPa)
#
#
# Indices 1 2 3 4 5 6 
#
# 1 0.011973 -0.003041 -0.000305 0.000000 0.000000 0.000000
# 2 -0.003041 0.009103 -0.001883 0.000000 0.000000 0.000000
# 3 -0.000305 -0.001883 0.046940 0.000000 0.000000 0.000000
# 4 0.000000 0.000000 0.000000 0.028377 0.000000 0.000000
# 5 0.000000 0.000000 0.000000 0.000000 0.047704 0.000000
# 6 0.000000 0.000000 0.000000 0.000000 0.000000 0.022445
#
#
# Mechanical properties :
#
#
# Convention : Reuss Voigt Hill
#
# Bulk Modulus (GPa) = 17.37327 34.42127 25.89727
# Shear Modulus (GPa) = 25.48603 33.24124 29.36363
#
# Velocity S-wave (km/s) = 3.42256 3.90875 3.67371
# Velocity P-wave (km/s) = 4.85836 6.01596 5.46788
#
# Compressibility (1/GPa) = 0.05755968
#
# Stress axis : x y z
#
# Youngs Moduli (GPa) = 83.52062 109.85075 21.30365
#
# Poissons Ratio (x) = 0.33404 0.00650
# Poissons Ratio (y) = 0.25397 0.04011
# Poissons Ratio (z) = 0.02548 0.20680
#
# Static dielectric constant tensor:
#      x y z
#    x 1.784870 0.000000 0.000000 
#    y 0.000000 2.002800 0.000000 
#    z 0.000000 0.000000 1.844520 
# 
# From -- ./inp_files/2668.got.cif
#   From: 2010.05.17/outbox.cif.g08.bks.cpg/sg30_2_cif.got.tgz:2668.got - 2010.06.03 17:03:02.
