data_PCOD9342091
_publ_section_title
;
Structure prediction by ZEFSAII (Michael W. Deem and Ramdas Pophale) SiO2 
 PCOD9342091
Probable space group: P N C 2
;
_chemical_formula_sum "Si O2"
_cell_formula_units_Z 32
_cell_length_a 14.664280
_cell_length_b 11.721963
_cell_length_c 8.562779
_cell_angle_alpha 90.000000
_cell_angle_beta 90.000000
_cell_angle_gamma 90.000000
_cell_volume 1471.891597
_symmetry_space_group_name_H-M "P N C 2"
_symmetry_group_IT_number 30
_symmetry_cell_setting 'orthorhombic'
loop_
_space_group_symop_operation_xyz
x,y,z
-x,-y,z
-x,1/2+y,1/2+z
x,1/2-y,1/2+z
loop_
_atom_site_type_symbol
_atom_site_label
_atom_site_fract_x
_atom_site_fract_y
_atom_site_fract_z
Si Si1 0.327716 0.636808 0.486260
Si Si2 0.132920 0.393648 0.719806
Si Si3 0.294577 0.017444 0.721196
Si Si4 0.229450 0.289354 0.023272
Si Si5 0.176811 0.815359 0.580182
Si Si6 0.428945 0.347288 0.034596
Si Si7 0.918950 0.362671 0.775621
Si Si8 0.447152 0.698888 0.764211
O O1 0.310007 0.517825 0.399207
O O2 0.238894 0.715075 0.507823
O O3 0.378983 0.629266 0.652217
O O4 0.390314 0.710720 0.367468
O O5 0.177171 0.322726 0.578951
O O6 0.134099 0.530087 0.699474
O O7 0.025559 0.368505 0.740692
O O8 0.182692 0.354505 0.879378
O O9 0.245316 0.910151 0.642700
O O10 0.233850 0.127356 0.676677
O O11 0.388204 0.045367 0.629188
O O12 0.336960 0.278672 0.983986
O O13 0.119206 0.755807 0.713973
O O14 0.107202 0.868276 0.456526
O O15 0.486495 0.270024 0.151907
O O16 0.490604 0.369864 0.884854
#
# Coordination Sequence:
#
# PCOD9342091 Si02
#       8
#     4   4   4   4   4   4   4   4
#     4  11  21  39  67  95 133 173 223 277 337 407
#     4  11  23  43  65  99 130 181 222 286 338 407
#     4  10  22  38  69  94 129 182 217 275 341 409
#     4  10  22  42  68  91 138 174 225 271 345 404
#     4  12  21  43  65  95 131 178 217 275 343 404
#     4   9  21  38  66  91 130 174 217 274 330 402
#     4  11  24  40  68  96 136 171 231 280 341 407
#     4  10  20  39  65  93 135 170 221 277 334 397
#
# _framework density 21.740731
#
# number of rings (size 3 to 8) (size 9 to 14) (size 15 to 20)
#    0.750    0.750    3.750    1.500    0.000    1.500 
#    0.000    0.000   16.500    0.000    0.000    0.000 
#    0.000    0.000    0.000    0.000    0.000    0.000 
#
# Total GULP energy -178771.116508 kJ/mol
# GULP energy per Si atom -5586.597391 kJ/mol
# Density = 2.169125 g / cm^3
# Si number density = 21.740731 Si / 1000 Ang^3
#
#
#
# Elastic Constant Matrix: (Units=GPa)
#
#
# Indices 1 2 3 4 5 6 
#
# 1 64.0325 11.4027 13.2292 0.0000 0.0000 0.0000
# 2 11.4027 64.7907 13.1273 0.0000 0.0000 0.0000
# 3 13.2292 13.1273 48.4661 0.0000 0.0000 0.0000
# 4 0.0000 0.0000 0.0000 48.6047 0.0000 0.0000
# 5 0.0000 0.0000 0.0000 0.0000 29.9345 0.0000
# 6 0.0000 0.0000 0.0000 0.0000 0.0000 29.3193
#
#
#
# Elastic Compliance Matrix: (Units=1/GPa)
#
#
# Indices 1 2 3 4 5 6 
#
# 1 0.016829 -0.002149 -0.004011 0.000000 0.000000 0.000000
# 2 -0.002149 0.016605 -0.003911 0.000000 0.000000 0.000000
# 3 -0.004011 -0.003911 0.022787 0.000000 0.000000 0.000000
# 4 0.000000 0.000000 0.000000 0.020574 0.000000 0.000000
# 5 0.000000 0.000000 0.000000 0.000000 0.033406 0.000000
# 6 0.000000 0.000000 0.000000 0.000000 0.000000 0.034107
#
#
# Mechanical properties :
#
#
# Convention : Reuss Voigt Hill
#
# Bulk Modulus (GPa) = 27.71773 28.08976 27.90374
# Shear Modulus (GPa) = 28.33232 30.87371 29.60301
#
# Velocity S-wave (km/s) = 3.61389 3.77249 3.69404
# Velocity P-wave (km/s) = 5.49459 5.65013 5.57290
#
# Compressibility (1/GPa) = 0.03607800
#
# Stress axis : x y z
#
# Youngs Moduli (GPa) = 59.42295 60.22313 43.88427
#
# Poissons Ratio (x) = 0.12942 0.17604
# Poissons Ratio (y) = 0.12770 0.17163
# Poissons Ratio (z) = 0.23837 0.23553
#
# Static dielectric constant tensor:
#      x y z
#    x 1.768400 0.000000 0.000000 
#    y 0.000000 1.799630 0.000000 
#    z 0.000000 0.000000 1.807250 
# 
# From -- ./inp_files/2692.got.cif
#   From: 2010.05.17/outbox.cif.g08.bks.cpg/sg30_2_cif.got.tgz:2692.got - 2010.06.03 17:03:02.
