data_PCOD9342833
_publ_section_title
;
Structure prediction by ZEFSAII (Michael W. Deem and Ramdas Pophale) SiO2 
 PCOD9342833
Probable space group: P M N 21
;
_chemical_formula_sum "Si O2"
_cell_formula_units_Z 32
_cell_length_a 7.727963
_cell_length_b 12.520927
_cell_length_c 14.504210
_cell_angle_alpha 90.000000
_cell_angle_beta 90.000000
_cell_angle_gamma 90.000000
_cell_volume 1403.445643
_symmetry_space_group_name_H-M "P M N 21"
_symmetry_group_IT_number 31
_symmetry_cell_setting 'orthorhombic'
loop_
_space_group_symop_operation_xyz
x,y,z
1/2-x,-y,1/2+z
-x,y,z
1/2+x,-y,1/2+z
loop_
_atom_site_type_symbol
_atom_site_label
_atom_site_fract_x
_atom_site_fract_y
_atom_site_fract_z
Si Si1 0.196986 0.903249 0.625000
Si Si2 0.701467 0.167879 0.409031
Si Si3 0.712117 0.859089 0.121847
Si Si4 0.201796 0.415006 0.947968
Si Si5 0.296893 0.732990 0.289499
Si Si6 0.795381 0.339140 0.145384
Si Si7 0.301849 0.608289 0.841051
Si Si8 0.703837 0.937428 0.418321
O O1 0.277578 0.789524 0.651072
O O2 0.202399 0.908485 0.513154
O O3 0.000000 0.899277 0.658623
O O4 0.268549 0.020646 0.651035
O O5 0.500000 0.181123 0.385526
O O6 0.725271 0.162851 0.519104
O O7 0.798404 0.268102 0.368572
O O8 0.762581 0.050693 0.377926
O O9 0.500000 0.861239 0.122033
O O10 0.773947 0.766236 0.190372
O O11 0.278864 0.354272 0.858809
O O12 0.211312 0.538122 0.919466
O O13 0.000000 0.380759 0.952338
O O14 0.275999 0.381483 0.047299
O O15 0.500000 0.705565 0.274866
O O16 0.285871 0.842551 0.346869
O O17 0.723575 0.394839 0.237800
O O18 0.000000 0.362780 0.146372
O O19 0.500000 0.571896 0.838790
O O20 0.500000 0.950493 0.442750
#
# Coordination Sequence:
#
# PCOD9342833 Si02
#       8
#     4   4   4   4   4   4   4   4
#     4  10  19  31  54  87 123 155 194 244 289 341
#     4  10  21  37  59  85 118 158 199 240 289 352
#     4   9  19  34  55  87 126 162 196 239 294 345
#     4  10  21  41  65  85 112 152 201 246 289 351
#     4   9  17  33  59  86 114 155 196 236 288 344
#     4  10  22  41  62  84 115 155 194 242 300 355
#     4  11  25  42  61  86 118 154 195 248 303 351
#     4   9  17  33  57  82 116 157 195 235 288 349
#
# _framework density 22.801024000000002
#
# number of rings (size 3 to 8) (size 9 to 14) (size 15 to 20)
#    0.000    2.250    1.250    1.125    1.750    3.500 
#    0.000    3.750    0.000    0.000    0.000    0.000 
#    0.000    0.000    0.000    0.000    0.000    0.000 
#
# Total GULP energy -178597.716913 kJ/mol
# GULP energy per Si atom -5581.178654 kJ/mol
# Density = 2.274913 g / cm^3
# Si number density = 22.801024 Si / 1000 Ang^3
#
#
#
# Elastic Constant Matrix: (Units=GPa)
#
#
# Indices 1 2 3 4 5 6 
#
# 1 38.4439 3.5328 5.8841 0.0000 0.0000 0.0000
# 2 3.5328 67.8827 22.7609 0.0000 0.0000 0.0000
# 3 5.8841 22.7609 81.7540 0.0000 0.0000 0.0000
# 4 0.0000 0.0000 0.0000 27.5176 0.0000 0.0000
# 5 0.0000 0.0000 0.0000 0.0000 4.7488 0.0000
# 6 0.0000 0.0000 0.0000 0.0000 0.0000 22.5945
#
#
#
# Elastic Compliance Matrix: (Units=1/GPa)
#
#
# Indices 1 2 3 4 5 6 
#
# 1 0.026342 -0.000811 -0.001670 0.000000 0.000000 0.000000
# 2 -0.000811 0.016273 -0.004472 0.000000 0.000000 0.000000
# 3 -0.001670 -0.004472 0.013597 0.000000 0.000000 0.000000
# 4 0.000000 0.000000 0.000000 0.036340 0.000000 0.000000
# 5 0.000000 0.000000 0.000000 0.000000 0.210581 0.000000
# 6 0.000000 0.000000 0.000000 0.000000 0.000000 0.044258
#
#
# Mechanical properties :
#
#
# Convention : Reuss Voigt Hill
#
# Bulk Modulus (GPa) = 23.63745 28.04845 25.84295
# Shear Modulus (GPa) = 13.31910 21.36570 17.34240
#
# Velocity S-wave (km/s) = 2.41953 3.06445 2.76089
# Velocity P-wave (km/s) = 4.26554 4.98490 4.63919
#
# Compressibility (1/GPa) = 0.04230575
#
# Stress axis : x y z
#
# Youngs Moduli (GPa) = 37.96210 61.45148 73.54511
#
# Poissons Ratio (x) = 0.04983 0.12283
# Poissons Ratio (y) = 0.03078 0.32891
# Poissons Ratio (z) = 0.06340 0.27482
#
# Static dielectric constant tensor:
#      x y z
#    x 1.839790 0.000000 0.000000 
#    y 0.000000 1.837000 0.000000 
#    z 0.000000 0.000000 1.863290 
# 
# From -- ./inp_files/5073.got.cif
#   From: 2010.05.17/outbox.cif.g08.bks.cpg/sg31_3_cif.got.tgz:5073.got - 2010.06.03 17:08:30.
