data_PCOD9342276
_publ_section_title
;
Structure prediction by ZEFSAII (Michael W. Deem and Ramdas Pophale) SiO2 
 PCOD9342276
Probable space group: P N C 2
;
_chemical_formula_sum "Si O2"
_cell_formula_units_Z 24
_cell_length_a 8.198127
_cell_length_b 14.282455
_cell_length_c 7.653455
_cell_angle_alpha 90.000000
_cell_angle_beta 90.000000
_cell_angle_gamma 90.000000
_cell_volume 896.138301
_symmetry_space_group_name_H-M "P N C 2"
_symmetry_group_IT_number 30
_symmetry_cell_setting 'orthorhombic'
loop_
_space_group_symop_operation_xyz
x,y,z
-x,-y,z
-x,1/2+y,1/2+z
x,1/2-y,1/2+z
loop_
_atom_site_type_symbol
_atom_site_label
_atom_site_fract_x
_atom_site_fract_y
_atom_site_fract_z
Si Si1 0.054024 0.903069 0.728310
Si Si2 0.371396 0.126009 0.903309
Si Si3 0.851277 0.798021 0.461468
Si Si4 0.811886 0.374389 0.874974
Si Si5 0.469447 0.111360 0.500309
Si Si6 0.291378 0.915824 0.004227
O O1 0.148493 0.932734 0.550708
O O2 0.021091 0.814425 0.360123
O O3 0.178480 0.861003 0.866774
O O4 0.000000 0.000000 0.811612
O O5 0.434850 0.137348 0.703218
O O6 0.230268 0.196015 0.967452
O O7 0.533925 0.133500 0.020454
O O8 0.320804 0.018172 0.924776
O O9 0.697103 0.860324 0.402284
O O10 0.911326 0.839265 0.649596
O O11 0.631124 0.338094 0.925809
O O12 0.790927 0.076334 0.191271
O O13 0.500000 0.000000 0.484595
#
# Coordination Sequence:
#
# PCOD9342276 Si02
#       6
#     4   4   4   4   4   4
#     4  10  21  49  80 112 165 228 269 341 424 502
#     4  11  23  48  81 133 165 223 280 358 422 509
#     4  10  26  48  81 120 170 212 284 350 418 500
#     4  10  25  47  83 116 161 220 277 343 415 506
#     4  12  23  50  88 110 169 234 272 340 438 502
#     4  11  23  48  90 118 168 224 283 341 436 513
#
# _framework density 26.781580999999999
#
# number of rings (size 3 to 8) (size 9 to 14) (size 15 to 20)
#    1.000    0.333    3.333    2.000    2.333    2.000 
#    3.000   11.667    7.333    0.000    0.000    0.000 
#    0.000    0.000    0.000    0.000    0.000    0.000 
#
# Total GULP energy -134167.051424 kJ/mol
# GULP energy per Si atom -5590.293809 kJ/mol
# Density = 2.672063 g / cm^3
# Si number density = 26.781581 Si / 1000 Ang^3
#
#
#
# Elastic Constant Matrix: (Units=GPa)
#
#
# Indices 1 2 3 4 5 6 
#
# 1 246.6450 69.0554 54.6605 0.0000 0.0000 0.0000
# 2 69.0554 109.1396 11.1706 0.0000 0.0000 0.0000
# 3 54.6605 11.1706 115.8873 0.0000 0.0000 0.0000
# 4 0.0000 0.0000 0.0000 13.8522 0.0000 0.0000
# 5 0.0000 0.0000 0.0000 0.0000 25.0627 0.0000
# 6 0.0000 0.0000 0.0000 0.0000 0.0000 43.5805
#
#
#
# Elastic Compliance Matrix: (Units=1/GPa)
#
#
# Indices 1 2 3 4 5 6 
#
# 1 0.005458 -0.003222 -0.002264 0.000000 0.000000 0.000000
# 2 -0.003222 0.011156 0.000444 0.000000 0.000000 0.000000
# 3 -0.002264 0.000444 0.009654 0.000000 0.000000 0.000000
# 4 0.000000 0.000000 0.000000 0.072191 0.000000 0.000000
# 5 0.000000 0.000000 0.000000 0.000000 0.039900 0.000000
# 6 0.000000 0.000000 0.000000 0.000000 0.000000 0.022946
#
#
# Mechanical properties :
#
#
# Convention : Reuss Voigt Hill
#
# Bulk Modulus (GPa) = 61.78535 82.38278 72.08407
# Shear Modulus (GPa) = 28.28335 38.95144 33.61739
#
# Velocity S-wave (km/s) = 3.25326 3.81781 3.54678
# Velocity P-wave (km/s) = 6.10178 7.08957 6.61414
#
# Compressibility (1/GPa) = 0.01618507
#
# Stress axis : x y z
#
# Youngs Moduli (GPa) = 183.21183 89.64090 103.58346
#
# Poissons Ratio (x) = 0.28881 0.23450
# Poissons Ratio (y) = 0.59027 -0.04602
# Poissons Ratio (z) = 0.41477 -0.03983
#
# Static dielectric constant tensor:
#      x y z
#    x 2.203460 0.000000 0.000000 
#    y 0.000000 2.164620 0.000000 
#    z 0.000000 0.000000 2.067440 
# 
# From -- ./inp_files/1819.got.cif
#   From: 2010.05.17/outbox.cif.g08.bks.cpg/sg30_1_cif.got.tgz:1819.got - 2010.06.03 17:03:02.
