data_PCOD9342912
_publ_section_title
;
Structure prediction by ZEFSAII (Michael W. Deem and Ramdas Pophale) SiO2 
 PCOD9342912
Probable space group: P M N 21
;
_chemical_formula_sum "Si O2"
_cell_formula_units_Z 32
_cell_length_a 7.699412
_cell_length_b 16.540945
_cell_length_c 11.379478
_cell_angle_alpha 90.000000
_cell_angle_beta 90.000000
_cell_angle_gamma 90.000000
_cell_volume 1449.239684
_symmetry_space_group_name_H-M "P M N 21"
_symmetry_group_IT_number 31
_symmetry_cell_setting 'orthorhombic'
loop_
_space_group_symop_operation_xyz
x,y,z
1/2-x,-y,1/2+z
-x,y,z
1/2+x,-y,1/2+z
loop_
_atom_site_type_symbol
_atom_site_label
_atom_site_fract_x
_atom_site_fract_y
_atom_site_fract_z
Si Si1 0.803220 0.148428 0.133210
Si Si2 0.790382 0.537626 0.789420
Si Si3 0.793327 0.557024 0.529259
Si Si4 0.301589 0.272241 0.947137
Si Si5 0.299036 0.277095 0.318883
Si Si6 0.207649 0.157695 0.502866
Si Si7 0.212593 0.024279 0.317214
Si Si8 0.292103 0.151847 0.773263
O O1 0.803842 0.214416 0.238170
O O2 0.732408 0.067692 0.195077
O O3 0.000000 0.134406 0.093088
O O4 0.700699 0.194809 0.032910
O O5 0.729115 0.519435 0.654365
O O6 0.732800 0.488314 0.905013
O O7 0.740095 0.631259 0.809541
O O8 0.000000 0.531539 0.791742
O O9 0.723356 0.648685 0.508693
O O10 0.000000 0.562596 0.548410
O O11 0.500000 0.295688 0.920660
O O12 0.219130 0.233793 0.830784
O O13 0.500000 0.274687 0.279096
O O14 0.284487 0.239450 0.447837
O O15 0.268513 0.082119 0.423283
O O16 0.258943 0.147706 0.636146
O O17 0.000000 0.161806 0.493692
O O18 0.000000 0.024699 0.314901
O O19 0.273374 0.932638 0.326922
O O20 0.500000 0.153586 0.792143
#
# Coordination Sequence:
#
# PCOD9342912 Si02
#       8
#     4   4   4   4   4   4   4   4
#     4  10  19  33  57  85 115 144 185 240 288 336
#     4  10  22  40  62  90 120 154 200 251 300 367
#     4  10  22  41  61  88 124 156 199 255 307 364
#     4  10  21  38  59  82 114 156 198 239 288 354
#     4  10  19  37  62  83 110 147 191 233 285 352
#     4  10  21  37  55  83 119 148 190 245 297 347
#     4   8  18  35  53  79 113 148 187 238 288 342
#     4  10  21  37  57  80 113 157 200 239 291 352
#
# _framework density 22.080544
#
# number of rings (size 3 to 8) (size 9 to 14) (size 15 to 20)
#    0.000    2.250    1.250    1.875    1.750    3.500 
#    0.000    6.875    0.000    0.000    0.000    0.000 
#    0.000    0.000    0.000    0.000    0.000    0.000 
#
# Total GULP energy -178486.007195 kJ/mol
# GULP energy per Si atom -5577.687725 kJ/mol
# Density = 2.203029 g / cm^3
# Si number density = 22.080544 Si / 1000 Ang^3
#
#
#
# Elastic Constant Matrix: (Units=GPa)
#
#
# Indices 1 2 3 4 5 6 
#
# 1 45.0541 4.9596 -2.0975 0.0000 0.0000 0.0000
# 2 4.9596 68.3213 46.7006 0.0000 0.0000 0.0000
# 3 -2.0975 46.7006 133.5327 0.0000 0.0000 0.0000
# 4 0.0000 0.0000 0.0000 29.3800 0.0000 0.0000
# 5 0.0000 0.0000 0.0000 0.0000 27.9331 0.0000
# 6 0.0000 0.0000 0.0000 0.0000 0.0000 11.7918
#
#
#
# Elastic Compliance Matrix: (Units=1/GPa)
#
#
# Indices 1 2 3 4 5 6 
#
# 1 0.022524 -0.002466 0.001216 0.000000 0.000000 0.000000
# 2 -0.002466 0.019505 -0.006860 0.000000 0.000000 0.000000
# 3 0.001216 -0.006860 0.009907 0.000000 0.000000 0.000000
# 4 0.000000 0.000000 0.000000 0.034037 0.000000 0.000000
# 5 0.000000 0.000000 0.000000 0.000000 0.035800 0.000000
# 6 0.000000 0.000000 0.000000 0.000000 0.000000 0.084805
#
#
# Mechanical properties :
#
#
# Convention : Reuss Voigt Hill
#
# Bulk Modulus (GPa) = 27.99933 38.44817 33.22375
# Shear Modulus (GPa) = 21.30350 26.97734 24.14042
#
# Velocity S-wave (km/s) = 3.10951 3.49917 3.31008
# Velocity P-wave (km/s) = 5.05966 5.81172 5.44868
#
# Compressibility (1/GPa) = 0.03571514
#
# Stress axis : x y z
#
# Youngs Moduli (GPa) = 44.39776 51.26872 100.93701
#
# Poissons Ratio (x) = 0.12645 -0.12278
# Poissons Ratio (y) = 0.10951 0.69246
# Poissons Ratio (z) = -0.05401 0.35172
#
# Static dielectric constant tensor:
#      x y z
#    x 1.832270 0.000000 0.000000 
#    y 0.000000 1.807280 0.000000 
#    z 0.000000 0.000000 1.867470 
# 
# From -- ./inp_files/3800.got.cif
#   From: 2010.05.17/outbox.cif.g08.bks.cpg/sg31_2_cif.got.tgz:3800.got - 2010.06.03 17:08:30.
