data_PCOD9342681
_publ_section_title
;
Structure prediction by ZEFSAII (Michael W. Deem and Ramdas Pophale) SiO2 
 PCOD9342681
Probable space group: P M N 21
;
_chemical_formula_sum "Si O2"
_cell_formula_units_Z 24
_cell_length_a 8.334321
_cell_length_b 6.931247
_cell_length_c 14.715662
_cell_angle_alpha 90.000000
_cell_angle_beta 90.000000
_cell_angle_gamma 90.000000
_cell_volume 850.083141
_symmetry_space_group_name_H-M "P M N 21"
_symmetry_group_IT_number 31
_symmetry_cell_setting 'orthorhombic'
loop_
_space_group_symop_operation_xyz
x,y,z
1/2-x,-y,1/2+z
-x,y,z
1/2+x,-y,1/2+z
loop_
_atom_site_type_symbol
_atom_site_label
_atom_site_fract_x
_atom_site_fract_y
_atom_site_fract_z
Si Si1 0.686420 0.588060 0.463170
Si Si2 0.673128 0.023681 0.509380
Si Si3 0.000000 0.129288 0.508846
Si Si4 0.000000 0.308539 0.709635
Si Si5 0.500000 0.236649 0.256351
Si Si6 0.319068 0.425682 0.767979
Si Si7 0.322801 0.859800 0.717388
Si Si8 0.500000 0.307180 0.048334
O O1 0.500000 0.527472 0.480719
O O2 0.671536 0.821323 0.457143
O O3 0.764591 0.520145 0.369331
O O4 0.838267 0.573178 0.531941
O O5 0.500000 0.116641 0.498860
O O6 0.687576 0.955065 0.616481
O O7 0.816970 0.161471 0.479161
O O8 0.000000 0.893803 0.494421
O O9 0.000000 0.222706 0.608887
O O10 0.813868 0.273170 0.735984
O O11 0.000000 0.529412 0.755160
O O12 0.336278 0.128133 0.280526
O O13 0.500000 0.219085 0.147626
O O14 0.500000 0.349161 0.768533
O O15 0.324612 0.623008 0.708980
O O16 0.500000 0.906966 0.755696
#
# Coordination Sequence:
#
# PCOD9342681 Si02
#       8
#     4   4   2   2   2   4   4   2
#     4  10  17  28  46  75  99 121 162 207 240 280
#     4   9  17  29  50  74  95 120 166 210 239 272
#     4  10  18  32  48  74  92 126 168 201 242 288
#     4  10  22  32  46  74 105 131 158 197 252 291
#     4  10  16  30  48  72  98 126 152 196 247 281
#     4  10  19  30  46  72 105 131 157 197 248 294
#     4   9  16  27  44  71  98 124 154 198 242 280
#     4  10  18  30  54  76  89 123 168 208 239 278
#
# _framework density 28.232533
#
# number of rings (size 3 to 8) (size 9 to 14) (size 15 to 20)
#    0.000    2.333    5.000    0.000    0.000    0.667 
#    0.000    0.000    0.000    0.000    8.667    0.000 
#    0.000    0.000    0.000    0.000    0.000    0.000 
#
# Total GULP energy -133632.557716 kJ/mol
# GULP energy per Si atom -5568.023238 kJ/mol
# Density = 2.816827 g / cm^3
# Si number density = 28.232533 Si / 1000 Ang^3
#
#
#
# Elastic Constant Matrix: (Units=GPa)
#
#
# Indices 1 2 3 4 5 6 
#
# 1 340.1407 23.3919 49.7155 0.0000 0.0000 0.0000
# 2 23.3919 149.1683 33.9686 0.0000 0.0000 0.0000
# 3 49.7155 33.9686 51.5026 0.0000 0.0000 0.0000
# 4 0.0000 0.0000 0.0000 24.5160 0.0000 0.0000
# 5 0.0000 0.0000 0.0000 0.0000 31.6344 0.0000
# 6 0.0000 0.0000 0.0000 0.0000 0.0000 -25.9293
#
#
#
# Elastic Compliance Matrix: (Units=1/GPa)
#
#
# Indices 1 2 3 4 5 6 
#
# 1 0.003431 0.000254 -0.003480 0.000000 0.000000 0.000000
# 2 0.000254 0.007908 -0.005461 0.000000 0.000000 0.000000
# 3 -0.003480 -0.005461 0.026377 0.000000 0.000000 0.000000
# 4 0.000000 0.000000 0.000000 0.040790 0.000000 0.000000
# 5 0.000000 0.000000 0.000000 0.000000 0.031611 0.000000
# 6 0.000000 0.000000 0.000000 0.000000 0.000000 -0.038566
#
#
# Mechanical properties :
#
#
# Convention : Reuss Voigt Hill
#
# Bulk Modulus (GPa) = 49.15655 83.88483 66.52069
# Shear Modulus (GPa) = 52.24432 34.95992 43.60212
#
# Velocity S-wave (km/s) = 4.30641 3.52275 3.93414
# Velocity P-wave (km/s) = 6.49431 6.80609 6.65203
#
# Compressibility (1/GPa) = 0.02034317
#
# Stress axis : x y z
#
# Youngs Moduli (GPa) = 291.45351 126.46201 37.91135
#
# Poissons Ratio (x) = -0.03217 0.13192
# Poissons Ratio (y) = -0.07414 0.20703
# Poissons Ratio (z) = 1.01420 0.69060
#
# Static dielectric constant tensor:
#      x y z
#    x 2.482640 0.000000 0.000000 
#    y 0.000000 2.291700 0.000000 
#    z 0.000000 0.000000 2.194860 
# 
# From -- ./inp_files/5738.got.cif
#   From: 2010.05.17/outbox.cif.g08.bks.cpg/sg31_3_cif.got.tgz:5738.got - 2010.06.03 17:08:30.
