data_PCOD9342231
_publ_section_title
;
Structure prediction by ZEFSAII (Michael W. Deem and Ramdas Pophale) SiO2 
 PCOD9342231
Probable space group: P N C 2
;
_chemical_formula_sum "Si O2"
_cell_formula_units_Z 24
_cell_length_a 11.514617
_cell_length_b 5.071015
_cell_length_c 17.644816
_cell_angle_alpha 90.000000
_cell_angle_beta 90.000000
_cell_angle_gamma 90.000000
_cell_volume 1030.294843
_symmetry_space_group_name_H-M "P N C 2"
_symmetry_group_IT_number 30
_symmetry_cell_setting 'orthorhombic'
loop_
_space_group_symop_operation_xyz
x,y,z
-x,-y,z
-x,1/2+y,1/2+z
x,1/2-y,1/2+z
loop_
_atom_site_type_symbol
_atom_site_label
_atom_site_fract_x
_atom_site_fract_y
_atom_site_fract_z
Si Si1 0.886309 0.131420 0.655340
Si Si2 0.814756 0.300147 0.801167
Si Si3 0.613691 0.868580 0.831472
Si Si4 0.248912 0.470310 0.942077
Si Si5 0.748912 0.470310 0.544735
Si Si6 0.685244 0.699853 0.685645
O O1 0.912196 0.206917 0.742827
O O2 0.850622 0.368890 0.600404
O O3 0.775508 0.933600 0.662749
O O4 0.000000 0.000000 0.622427
O O5 0.846067 0.437122 0.880050
O O6 0.750000 0.500000 0.743406
O O7 0.724492 0.066400 0.824063
O O8 0.649377 0.631109 0.886408
O O9 0.587803 0.793083 0.743986
O O10 0.500000 0.000000 0.864385
O O11 0.281485 0.719888 0.993316
O O12 0.218516 0.219888 0.993497
O O13 0.653933 0.562878 0.606762
#
# Coordination Sequence:
#
# PCOD9342231 Si02
#       6
#     4   4   4   4   4   4
#     4  10  21  40  70  97 126 173 229 266 320 386
#     4   9  20  38  66  90 126 172 213 271 315 380
#     4  10  21  40  70  97 126 173 229 266 320 386
#     4  11  21  39  67  89 132 176 209 266 339 385
#     4  11  21  39  67  89 132 176 209 266 339 385
#     4   9  20  38  66  90 126 172 213 271 315 380
#
# _framework density 23.294302999999999
#
# number of rings (size 3 to 8) (size 9 to 14) (size 15 to 20)
#    0.000    2.000    3.333    0.000    0.000    5.333 
#    0.000    0.000   29.333    0.000    0.000    0.000 
#    0.000    0.000    0.000    0.000    0.000    0.000 
#
# Total GULP energy -133772.405114 kJ/mol
# GULP energy per Si atom -5573.850213 kJ/mol
# Density = 2.324128 g / cm^3
# Si number density = 23.294303 Si / 1000 Ang^3
#
#
#
# Elastic Constant Matrix: (Units=GPa)
#
#
# Indices 1 2 3 4 5 6 
#
# 1 24.3073 8.3886 20.8793 0.0000 0.0000 0.0000
# 2 8.3886 139.3926 84.9834 0.0000 0.0000 0.0000
# 3 20.8793 84.9834 205.0674 0.0000 0.0000 0.0000
# 4 0.0000 0.0000 0.0000 67.1612 0.0000 0.0000
# 5 0.0000 0.0000 0.0000 0.0000 4.9586 0.0000
# 6 0.0000 0.0000 0.0000 0.0000 0.0000 22.1595
#
#
#
# Elastic Compliance Matrix: (Units=1/GPa)
#
#
# Indices 1 2 3 4 5 6 
#
# 1 0.045084 0.000114 -0.004638 0.000000 0.000000 0.000000
# 2 0.000114 0.009600 -0.003990 0.000000 0.000000 0.000000
# 3 -0.004638 -0.003990 0.007002 0.000000 0.000000 0.000000
# 4 0.000000 0.000000 0.000000 0.014890 0.000000 0.000000
# 5 0.000000 0.000000 0.000000 0.000000 0.201671 0.000000
# 6 0.000000 0.000000 0.000000 0.000000 0.000000 0.045127
#
#
# Mechanical properties :
#
#
# Convention : Reuss Voigt Hill
#
# Bulk Modulus (GPa) = 22.39179 66.36334 44.37757
# Shear Modulus (GPa) = 14.07315 35.82359 24.94837
#
# Velocity S-wave (km/s) = 2.46060 3.92582 3.27618
# Velocity P-wave (km/s) = 4.20787 7.00717 5.77956
#
# Compressibility (1/GPa) = 0.04465922
#
# Stress axis : x y z
#
# Youngs Moduli (GPa) = 22.18081 104.17090 142.81402
#
# Poissons Ratio (x) = -0.01191 0.66233
# Poissons Ratio (y) = -0.00254 0.56981
# Poissons Ratio (z) = 0.10287 0.41563
#
# Static dielectric constant tensor:
#      x y z
#    x 2.114450 0.000000 0.000000 
#    y 0.000000 2.027950 0.000000 
#    z 0.000000 0.000000 1.950350 
# 
# From -- ./inp_files/6493.got.cif
#   From: 2010.05.17/outbox.cif.g08.bks.cpg/sg30_4_cif.got.tgz:6493.got - 2010.06.03 17:03:02.
