data_PCOD9342324
_publ_section_title
;
Structure prediction by ZEFSAII (Michael W. Deem and Ramdas Pophale) SiO2 
 PCOD9342324
Probable space group: P N C 2
;
_chemical_formula_sum "Si O2"
_cell_formula_units_Z 18
_cell_length_a 5.230303
_cell_length_b 13.723011
_cell_length_c 9.096408
_cell_angle_alpha 90.000000
_cell_angle_beta 90.000000
_cell_angle_gamma 90.000000
_cell_volume 652.899283
_symmetry_space_group_name_H-M "P N C 2"
_symmetry_group_IT_number 30
_symmetry_cell_setting 'orthorhombic'
loop_
_space_group_symop_operation_xyz
x,y,z
-x,-y,z
-x,1/2+y,1/2+z
x,1/2-y,1/2+z
loop_
_atom_site_type_symbol
_atom_site_label
_atom_site_fract_x
_atom_site_fract_y
_atom_site_fract_z
Si Si1 0.745825 0.891483 0.975110
Si Si2 0.004972 0.284046 0.121882
Si Si3 0.000000 0.000000 0.715984
Si Si4 0.505320 0.244544 0.800036
Si Si5 0.740247 0.554411 0.810240
O O1 0.798125 0.962388 0.839085
O O2 0.491629 0.833620 0.929563
O O3 0.732877 0.942416 0.131944
O O4 0.951443 0.802833 0.001778
O O5 0.780210 0.239657 0.227241
O O6 0.932024 0.400919 0.123240
O O7 0.294847 0.291615 0.183153
O O8 0.343305 0.337695 0.854997
O O9 0.500000 0.500000 0.873936
O O10 0.000000 0.500000 0.846272
#
# Coordination Sequence:
#
# PCOD9342324 Si02
#       5
#     4   4   2   4   4
#     4  10  22  40  68  97 135 185 230 303 365 426
#     4  10  23  41  62 102 134 178 241 300 350 455
#     4  10  22  40  72  96 134 192 238 290 376 448
#     4  10  23  39  63  93 140 169 231 302 355 429
#     4  11  22  38  63  95 128 175 236 283 350 452
#
# _framework density 27.569336
#
# number of rings (size 3 to 8) (size 9 to 14) (size 15 to 20)
#    0.000    1.778    1.111    2.667    3.111    8.000 
#    2.000    0.000    0.000    0.000    0.000    0.000 
#    0.000    0.000    0.000    0.000    0.000    0.000 
#
# Total GULP energy -100232.946710 kJ/mol
# GULP energy per Si atom -5568.497039 kJ/mol
# Density = 2.750659 g / cm^3
# Si number density = 27.569336 Si / 1000 Ang^3
#
#
#
# Elastic Constant Matrix: (Units=GPa)
#
#
# Indices 1 2 3 4 5 6 
#
# 1 163.4422 36.9508 33.1305 0.0000 0.0000 0.0000
# 2 36.9508 168.3925 17.2047 0.0000 0.0000 0.0000
# 3 33.1305 17.2047 82.8084 0.0000 0.0000 0.0000
# 4 0.0000 0.0000 0.0000 -17.0639 0.0000 0.0000
# 5 0.0000 0.0000 0.0000 0.0000 25.6888 0.0000
# 6 0.0000 0.0000 0.0000 0.0000 0.0000 31.4281
#
#
#
# Elastic Compliance Matrix: (Units=1/GPa)
#
#
# Indices 1 2 3 4 5 6 
#
# 1 0.006911 -0.001261 -0.002503 0.000000 0.000000 0.000000
# 2 -0.001261 0.006297 -0.000804 0.000000 0.000000 0.000000
# 3 -0.002503 -0.000804 0.013245 0.000000 0.000000 0.000000
# 4 0.000000 0.000000 0.000000 -0.058603 0.000000 0.000000
# 5 0.000000 0.000000 0.000000 0.000000 0.038927 0.000000
# 6 0.000000 0.000000 0.000000 0.000000 0.000000 0.031819
#
#
# Mechanical properties :
#
#
# Convention : Reuss Voigt Hill
#
# Bulk Modulus (GPa) = 57.74583 65.46834 61.60709
# Shear Modulus (GPa) = 93.45265 29.83442 61.64354
#
# Velocity S-wave (km/s) = 5.82846 3.29319 4.73371
# Velocity P-wave (km/s) = 8.14160 6.18534 7.22994
#
# Compressibility (1/GPa) = 0.01731727
#
# Stress axis : x y z
#
# Youngs Moduli (GPa) = 144.70203 158.79852 75.50297
#
# Poissons Ratio (x) = 0.20020 0.18898
# Poissons Ratio (y) = 0.18243 0.06070
# Poissons Ratio (z) = 0.36218 0.12767
#
# Static dielectric constant tensor:
#      x y z
#    x 2.033550 0.000000 0.000000 
#    y 0.000000 2.139740 0.000000 
#    z 0.000000 0.000000 2.304820 
# 
# From -- ./inp_files/3062.got.cif
#   From: 2010.05.17/outbox.cif.g08.bks.cpg/sg30_2_cif.got.tgz:3062.got - 2010.06.03 17:03:02.
