data_PCOD9342508
_publ_section_title
;
Structure prediction by ZEFSAII (Michael W. Deem and Ramdas Pophale) SiO2 
 PCOD9342508
Probable space group: P N C 2
;
_chemical_formula_sum "Si O2"
_cell_formula_units_Z 20
_cell_length_a 4.805960
_cell_length_b 16.686438
_cell_length_c 9.133432
_cell_angle_alpha 90.000000
_cell_angle_beta 90.000000
_cell_angle_gamma 90.000000
_cell_volume 732.449675
_symmetry_space_group_name_H-M "P N C 2"
_symmetry_group_IT_number 30
_symmetry_cell_setting 'orthorhombic'
loop_
_space_group_symop_operation_xyz
x,y,z
-x,-y,z
-x,1/2+y,1/2+z
x,1/2-y,1/2+z
loop_
_atom_site_type_symbol
_atom_site_label
_atom_site_fract_x
_atom_site_fract_y
_atom_site_fract_z
Si Si1 0.406261 0.136630 0.050730
Si Si2 0.500000 0.500000 0.718908
Si Si3 0.906264 0.636630 0.087536
Si Si4 0.000000 0.500000 0.427870
Si Si5 0.000000 0.500000 0.919357
Si Si6 0.500000 0.500000 0.210394
Si Si7 0.750002 0.749330 0.319133
O O1 0.613284 0.071444 0.118983
O O2 0.364332 0.196213 0.188023
O O3 0.456553 0.190868 0.909380
O O4 0.150765 0.076256 0.007921
O O5 0.250000 0.470737 0.819132
O O6 0.650766 0.576256 0.130344
O O7 0.956556 0.690867 0.228886
O O8 0.864337 0.696213 0.950242
O O9 0.113286 0.571444 0.019282
O O10 0.250000 0.528179 0.319132
#
# Coordination Sequence:
#
# PCOD9342508 Si02
#       7
#     4   2   4   2   2   2   4
#     4  11  24  48  76 115 152 206 254 321 378 468
#     4  12  26  50  84 114 150 208 268 316 374 474
#     4  11  24  48  76 115 152 206 254 321 378 468
#     4  12  26  50  84 114 150 208 268 316 374 474
#     4  12  26  50  84 114 150 208 268 316 374 474
#     4  12  26  50  84 114 150 208 268 316 374 474
#     4  10  24  46  74 112 166 190 254 324 398 432
#
# _framework density 27.305630000000001
#
# number of rings (size 3 to 8) (size 9 to 14) (size 15 to 20)
#    0.000    0.800    4.000    2.400    0.000    0.000 
#    0.000   12.000    0.000    0.000    0.000    0.000 
#    0.000    0.000    0.000    0.000    0.000    0.000 
#
# Total GULP energy -111675.010789 kJ/mol
# GULP energy per Si atom -5583.750539 kJ/mol
# Density = 2.724348 g / cm^3
# Si number density = 27.305630 Si / 1000 Ang^3
#
#
#
# Elastic Constant Matrix: (Units=GPa)
#
#
# Indices 1 2 3 4 5 6 
#
# 1 84.9895 12.5746 8.5197 0.0000 0.0000 0.0000
# 2 12.5746 189.6534 90.2327 0.0000 0.0000 0.0000
# 3 8.5197 90.2327 220.7791 0.0000 0.0000 0.0000
# 4 0.0000 0.0000 0.0000 -404.3266 0.0000 0.0000
# 5 0.0000 0.0000 0.0000 0.0000 19.3951 0.0000
# 6 0.0000 0.0000 0.0000 0.0000 0.0000 26.4480
#
#
#
# Elastic Compliance Matrix: (Units=1/GPa)
#
#
# Indices 1 2 3 4 5 6 
#
# 1 0.011888 -0.000708 -0.000170 0.000000 0.000000 0.000000
# 2 -0.000708 0.006588 -0.002665 0.000000 0.000000 0.000000
# 3 -0.000170 -0.002665 0.005625 0.000000 0.000000 0.000000
# 4 0.000000 0.000000 0.000000 -0.002473 0.000000 0.000000
# 5 0.000000 0.000000 0.000000 0.000000 0.051559 0.000000
# 6 0.000000 0.000000 0.000000 0.000000 0.000000 0.037810
#
#
# Mechanical properties :
#
#
# Convention : Reuss Voigt Hill
#
# Bulk Modulus (GPa) = 58.76710 79.78622 69.27666
# Shear Modulus (GPa) = 40.40290 -46.09039 -2.84375
#
# Velocity S-wave (km/s) = 3.85080 -4.11292 -1.02162
# Velocity P-wave (km/s) = 6.42964 2.59390 4.90248
#
# Compressibility (1/GPa) = 0.01701633
#
# Stress axis : x y z
#
# Youngs Moduli (GPa) = 84.11957 151.79859 177.77196
#
# Poissons Ratio (x) = 0.10740 0.03015
# Poissons Ratio (y) = 0.05952 0.47378
# Poissons Ratio (z) = 0.01426 0.40456
#
# Static dielectric constant tensor:
#      x y z
#    x 2.168260 0.000000 0.000000 
#    y 0.000000 2.168960 0.000000 
#    z 0.000000 0.000000 2.193680 
# 
# From -- ./inp_files/1348.got.cif
#   From: 2010.05.17/outbox.cif.g08.bks.cpg/sg30_1_cif.got.tgz:1348.got - 2010.06.03 17:03:02.
