data_PCOD9342438
_publ_section_title
;
Structure prediction by ZEFSAII (Michael W. Deem and Ramdas Pophale) SiO2 
 PCOD9342438
Probable space group: P N C 2
;
_chemical_formula_sum "Si O2"
_cell_formula_units_Z 22
_cell_length_a 13.648259
_cell_length_b 8.219308
_cell_length_c 9.230449
_cell_angle_alpha 90.000000
_cell_angle_beta 90.000000
_cell_angle_gamma 90.000000
_cell_volume 1035.464794
_symmetry_space_group_name_H-M "P N C 2"
_symmetry_group_IT_number 30
_symmetry_cell_setting 'orthorhombic'
loop_
_space_group_symop_operation_xyz
x,y,z
-x,-y,z
-x,1/2+y,1/2+z
x,1/2-y,1/2+z
loop_
_atom_site_type_symbol
_atom_site_label
_atom_site_fract_x
_atom_site_fract_y
_atom_site_fract_z
Si Si1 0.216017 0.709334 0.662750
Si Si2 0.211089 0.047807 0.710743
Si Si3 0.304057 0.292803 0.939716
Si Si4 0.612780 0.545116 0.662958
Si Si5 0.000000 0.000000 0.829154
Si Si6 0.071505 0.656073 0.916846
O O1 0.303254 0.587674 0.625597
O O2 0.134721 0.630309 0.769068
O O3 0.154849 0.786756 0.530639
O O4 0.260606 0.872155 0.735522
O O5 0.246184 0.173138 0.832266
O O6 0.233826 0.113348 0.550976
O O7 0.096994 0.018696 0.735590
O O8 0.362951 0.405402 0.828707
O O9 0.370673 0.190907 0.049693
O O10 0.500000 0.500000 0.652758
O O11 0.990048 0.174096 0.908472
O O12 0.000000 0.500000 0.937014
#
# Coordination Sequence:
#
# PCOD9342438 Si02
#       6
#     4   4   4   4   2   4
#     4  11  25  46  64 103 139 188 237 305 353 434
#     4  10  23  42  65  98 140 183 233 291 353 426
#     4  10  24  43  69 101 136 183 229 298 362 425
#     4  11  25  47  74 103 139 186 240 303 372 434
#     4  10  24  40  66 100 138 192 248 284 354 442
#     4  11  27  43  68 102 143 194 240 295 363 440
#
# _framework density 21.246497999999999
#
# number of rings (size 3 to 8) (size 9 to 14) (size 15 to 20)
#    0.000    1.455    0.000    3.273   14.000    4.364 
#    0.000    3.636    0.000    0.000    0.000    0.000 
#    0.000    0.000    0.000    0.000    0.000    0.000 
#
# Total GULP energy -122788.300601 kJ/mol
# GULP energy per Si atom -5581.286391 kJ/mol
# Density = 2.119814 g / cm^3
# Si number density = 21.246498 Si / 1000 Ang^3
#
#
#
# Elastic Constant Matrix: (Units=GPa)
#
#
# Indices 1 2 3 4 5 6 
#
# 1 108.9397 65.7094 43.1812 0.0000 0.0000 0.0000
# 2 65.7094 136.1821 42.7529 0.0000 0.0000 0.0000
# 3 43.1812 42.7529 117.2943 0.0000 0.0000 0.0000
# 4 0.0000 0.0000 0.0000 21.7806 0.0000 0.0000
# 5 0.0000 0.0000 0.0000 0.0000 10.7627 0.0000
# 6 0.0000 0.0000 0.0000 0.0000 0.0000 35.0344
#
#
#
# Elastic Compliance Matrix: (Units=1/GPa)
#
#
# Indices 1 2 3 4 5 6 
#
# 1 0.013824 -0.005728 -0.003001 0.000000 0.000000 0.000000
# 2 -0.005728 0.010665 -0.001779 0.000000 0.000000 0.000000
# 3 -0.003001 -0.001779 0.010279 0.000000 0.000000 0.000000
# 4 0.000000 0.000000 0.000000 0.045912 0.000000 0.000000
# 5 0.000000 0.000000 0.000000 0.000000 0.092914 0.000000
# 6 0.000000 0.000000 0.000000 0.000000 0.000000 0.028543
#
#
# Mechanical properties :
#
#
# Convention : Reuss Voigt Hill
#
# Bulk Modulus (GPa) = 72.71685 73.96701 73.34193
# Shear Modulus (GPa) = 21.95504 27.56703 24.76104
#
# Velocity S-wave (km/s) = 3.21806 3.60597 3.41752
# Velocity P-wave (km/s) = 6.93596 7.22680 7.08287
#
# Compressibility (1/GPa) = 0.01375197
#
# Stress axis : x y z
#
# Youngs Moduli (GPa) = 72.33765 93.76166 97.28713
#
# Poissons Ratio (x) = 0.53707 0.29200
# Poissons Ratio (y) = 0.41435 0.17305
# Poissons Ratio (z) = 0.21712 0.16678
#
# Static dielectric constant tensor:
#      x y z
#    x 1.762870 0.000000 0.000000 
#    y 0.000000 1.894590 0.000000 
#    z 0.000000 0.000000 1.839650 
# 
# From -- ./inp_files/2598.got.cif
#   From: 2010.05.17/outbox.cif.g08.bks.cpg/sg30_2_cif.got.tgz:2598.got - 2010.06.03 17:03:02.
