data_PCOD9342411
_publ_section_title
;
Structure prediction by ZEFSAII (Michael W. Deem and Ramdas Pophale) SiO2 
 PCOD9342411
Probable space group: P N C 2
;
_chemical_formula_sum "Si O2"
_cell_formula_units_Z 18
_cell_length_a 10.787121
_cell_length_b 7.336679
_cell_length_c 9.549587
_cell_angle_alpha 90.000000
_cell_angle_beta 90.000000
_cell_angle_gamma 90.000000
_cell_volume 755.770016
_symmetry_space_group_name_H-M "P N C 2"
_symmetry_group_IT_number 30
_symmetry_cell_setting 'orthorhombic'
loop_
_space_group_symop_operation_xyz
x,y,z
-x,-y,z
-x,1/2+y,1/2+z
x,1/2-y,1/2+z
loop_
_atom_site_type_symbol
_atom_site_label
_atom_site_fract_x
_atom_site_fract_y
_atom_site_fract_z
Si Si1 0.100779 0.355551 0.570500
Si Si2 0.000000 0.500000 0.077584
Si Si3 0.248962 0.162273 0.821291
Si Si4 0.356977 0.959707 0.365664
Si Si5 0.734542 0.161071 0.659336
O O1 0.046239 0.174568 0.493684
O O2 0.169065 0.263830 0.700696
O O3 0.180532 0.442183 0.447364
O O4 0.000000 0.500000 0.616547
O O5 0.880707 0.404810 0.155537
O O6 0.311340 0.334860 0.893017
O O7 0.327504 0.007422 0.743991
O O8 0.322386 0.846800 0.504741
O O9 0.291322 0.849308 0.238995
O O10 0.500000 0.000000 0.334084
#
# Coordination Sequence:
#
# PCOD9342411 Si02
#       5
#     4   2   4   4   4
#     4  11  25  39  70 101 150 191 236 305 378 453
#     4  10  22  46  70 108 152 186 250 314 378 474
#     4  11  25  47  66 109 146 192 255 299 383 449
#     4  12  29  51  77 107 152 202 262 320 379 463
#     4  11  28  48  76 113 148 204 254 316 400 447
#
# _framework density 23.816770000000002
#
# number of rings (size 3 to 8) (size 9 to 14) (size 15 to 20)
#    0.000    0.889    4.444    1.333   17.111    0.000 
#    0.000    0.000    0.000    0.000    0.000    0.000 
#    0.000    0.000    0.000    0.000    0.000    0.000 
#
# Total GULP energy -100347.720298 kJ/mol
# GULP energy per Si atom -5574.873350 kJ/mol
# Density = 2.376256 g / cm^3
# Si number density = 23.816770 Si / 1000 Ang^3
#
#
#
# Elastic Constant Matrix: (Units=GPa)
#
#
# Indices 1 2 3 4 5 6 
#
# 1 84.0145 12.9028 9.3244 0.0000 0.0000 0.0000
# 2 12.9028 84.5918 -24.3534 0.0000 0.0000 0.0000
# 3 9.3244 -24.3534 80.4798 0.0000 0.0000 0.0000
# 4 0.0000 0.0000 0.0000 33.9892 0.0000 0.0000
# 5 0.0000 0.0000 0.0000 0.0000 3.2995 0.0000
# 6 0.0000 0.0000 0.0000 0.0000 0.0000 16.0255
#
#
#
# Elastic Compliance Matrix: (Units=1/GPa)
#
#
# Indices 1 2 3 4 5 6 
#
# 1 0.012542 -0.002554 -0.002226 0.000000 0.000000 0.000000
# 2 -0.002554 0.013470 0.004372 0.000000 0.000000 0.000000
# 3 -0.002226 0.004372 0.014006 0.000000 0.000000 0.000000
# 4 0.000000 0.000000 0.000000 0.029421 0.000000 0.000000
# 5 0.000000 0.000000 0.000000 0.000000 0.303076 0.000000
# 6 0.000000 0.000000 0.000000 0.000000 0.000000 0.062400
#
#
# Mechanical properties :
#
#
# Convention : Reuss Voigt Hill
#
# Bulk Modulus (GPa) = 25.50888 27.20375 26.35631
# Shear Modulus (GPa) = 11.14085 27.41034 19.27560
#
# Velocity S-wave (km/s) = 2.16515 3.39615 2.84796
# Velocity P-wave (km/s) = 4.12119 5.17932 4.68025
#
# Compressibility (1/GPa) = 0.03920203
#
# Stress axis : x y z
#
# Youngs Moduli (GPa) = 79.73228 74.24109 71.39640
#
# Poissons Ratio (x) = 0.18960 0.15892
# Poissons Ratio (y) = 0.20362 -0.31213
# Poissons Ratio (z) = 0.17748 -0.32457
#
# Static dielectric constant tensor:
#      x y z
#    x 2.336800 0.000000 0.000000 
#    y 0.000000 1.950390 0.000000 
#    z 0.000000 0.000000 1.863620 
# 
# From -- ./inp_files/2289.got.cif
#   From: 2010.05.17/outbox.cif.g08.bks.cpg/sg30_2_cif.got.tgz:2289.got - 2010.06.03 17:03:02.
