data_PCOD9342334
_publ_section_title
;
Structure prediction by ZEFSAII (Michael W. Deem and Ramdas Pophale) SiO2 
 PCOD9342334
Probable space group: P N C 2
;
_chemical_formula_sum "Si O2"
_cell_formula_units_Z 32
_cell_length_a 8.319184
_cell_length_b 15.254166
_cell_length_c 11.914629
_cell_angle_alpha 90.000000
_cell_angle_beta 90.000000
_cell_angle_gamma 90.000000
_cell_volume 1511.992796
_symmetry_space_group_name_H-M "P N C 2"
_symmetry_group_IT_number 30
_symmetry_cell_setting 'orthorhombic'
loop_
_space_group_symop_operation_xyz
x,y,z
-x,-y,z
-x,1/2+y,1/2+z
x,1/2-y,1/2+z
loop_
_atom_site_type_symbol
_atom_site_label
_atom_site_fract_x
_atom_site_fract_y
_atom_site_fract_z
Si Si1 0.115997 0.586184 0.979250
Si Si2 0.961453 0.233873 0.639918
Si Si3 0.981242 0.091939 0.037971
Si Si4 0.334191 0.951625 0.692269
Si Si5 0.603271 0.085096 0.046148
Si Si6 0.159370 0.112401 0.804894
Si Si7 0.499698 0.690300 0.353730
Si Si8 0.695019 0.156258 0.269715
O O1 0.193132 0.605795 0.858252
O O2 0.000000 0.500000 0.979553
O O3 0.040848 0.678092 0.024265
O O4 0.250339 0.575458 0.076701
O O5 0.043074 0.326112 0.609286
O O6 0.799000 0.273540 0.695663
O O7 0.039959 0.167980 0.727738
O O8 0.790671 0.093363 0.011196
O O9 0.000000 0.000000 0.100732
O O10 0.079467 0.092647 0.923558
O O11 0.387917 0.876668 0.780488
O O12 0.500000 0.000000 0.664908
O O13 0.214325 0.020962 0.750195
O O14 0.611848 0.093712 0.179391
O O15 0.500000 0.000000 0.011050
O O16 0.518767 0.165078 0.983572
O O17 0.319645 0.170152 0.818207
O O18 0.437299 0.787086 0.333542
#
# Coordination Sequence:
#
# PCOD9342334 Si02
#       8
#     4   4   4   4   4   4   4   4
#     4  12  24  43  69  99 138 183 230 285 351 419
#     4  11  23  43  64  99 134 178 228 280 345 413
#     4  11  24  40  67  95 131 175 226 284 341 408
#     4  10  22  41  67 100 133 173 228 285 346 414
#     4  11  24  44  67  94 131 175 228 275 340 412
#     4  11  23  39  67 104 133 174 225 290 346 408
#     4  11  22  41  67 100 134 171 230 283 343 416
#     4  11  25  43  67  95 135 184 225 282 347 417
#
# _framework density 21.164121000000002
#
# number of rings (size 3 to 8) (size 9 to 14) (size 15 to 20)
#    0.000    1.000    2.500    5.625    1.750    4.500 
#    2.250    1.250    0.000    0.000    0.000    0.000 
#    0.000    0.000    0.000    0.000    0.000    0.000 
#
# Total GULP energy -178664.626545 kJ/mol
# GULP energy per Si atom -5583.269580 kJ/mol
# Density = 2.111595 g / cm^3
# Si number density = 21.164121 Si / 1000 Ang^3
#
#
#
# Elastic Constant Matrix: (Units=GPa)
#
#
# Indices 1 2 3 4 5 6 
#
# 1 43.4960 16.4892 4.1254 0.0000 0.0000 0.0000
# 2 16.4892 85.7508 18.8417 0.0000 0.0000 0.0000
# 3 4.1254 18.8417 76.6190 0.0000 0.0000 0.0000
# 4 0.0000 0.0000 0.0000 10.2842 0.0000 0.0000
# 5 0.0000 0.0000 0.0000 0.0000 24.4848 0.0000
# 6 0.0000 0.0000 0.0000 0.0000 0.0000 35.4013
#
#
#
# Elastic Compliance Matrix: (Units=1/GPa)
#
#
# Indices 1 2 3 4 5 6 
#
# 1 0.024800 -0.004731 -0.000172 0.000000 0.000000 0.000000
# 2 -0.004731 0.013230 -0.002999 0.000000 0.000000 0.000000
# 3 -0.000172 -0.002999 0.013798 0.000000 0.000000 0.000000
# 4 0.000000 0.000000 0.000000 0.097237 0.000000 0.000000
# 5 0.000000 0.000000 0.000000 0.000000 0.040842 0.000000
# 6 0.000000 0.000000 0.000000 0.000000 0.000000 0.028248
#
#
# Mechanical properties :
#
#
# Convention : Reuss Voigt Hill
#
# Bulk Modulus (GPa) = 27.75813 31.64204 29.70009
# Shear Modulus (GPa) = 20.32788 25.12800 22.72794
#
# Velocity S-wave (km/s) = 3.10254 3.44945 3.28058
# Velocity P-wave (km/s) = 5.09690 5.55411 5.33041
#
# Compressibility (1/GPa) = 0.03602548
#
# Stress axis : x y z
#
# Youngs Moduli (GPa) = 40.32177 75.58356 72.47275
#
# Poissons Ratio (x) = 0.35760 0.01246
# Poissons Ratio (y) = 0.19077 0.21733
# Poissons Ratio (z) = 0.00693 0.22666
#
# Static dielectric constant tensor:
#      x y z
#    x 1.808980 0.000000 0.000000 
#    y 0.000000 1.803170 0.000000 
#    z 0.000000 0.000000 1.758690 
# 
# From -- ./inp_files/3790.got.cif
#   From: 2010.05.17/outbox.cif.g08.bks.cpg/sg30_2_cif.got.tgz:3790.got - 2010.06.03 17:03:02.
