data_PCOD9342704
_publ_section_title
;
Structure prediction by ZEFSAII (Michael W. Deem and Ramdas Pophale) SiO2 
 PCOD9342704
Probable space group: P M N 21
;
_chemical_formula_sum "Si O2"
_cell_formula_units_Z 32
_cell_length_a 13.493054
_cell_length_b 9.918992
_cell_length_c 12.514888
_cell_angle_alpha 90.000000
_cell_angle_beta 90.000000
_cell_angle_gamma 90.000000
_cell_volume 1674.961256
_symmetry_space_group_name_H-M "P M N 21"
_symmetry_group_IT_number 31
_symmetry_cell_setting 'orthorhombic'
loop_
_space_group_symop_operation_xyz
x,y,z
1/2-x,-y,1/2+z
-x,y,z
1/2+x,-y,1/2+z
loop_
_atom_site_type_symbol
_atom_site_label
_atom_site_fract_x
_atom_site_fract_y
_atom_site_fract_z
Si Si1 0.117775 0.967575 0.628450
Si Si2 0.883567 0.156724 0.822355
Si Si3 0.618368 0.131813 0.730962
Si Si4 0.219835 0.652192 0.383735
Si Si5 0.271847 0.748056 0.617767
Si Si6 0.121429 0.376319 0.315150
Si Si7 0.119382 0.087161 0.401897
Si Si8 0.117538 0.003863 0.025505
O O1 0.182335 0.839598 0.663479
O O2 0.000000 0.936800 0.627858
O O3 0.132675 0.094200 0.706252
O O4 0.151789 0.011442 0.509633
O O5 0.827691 0.296482 0.843641
O O6 0.000000 0.176472 0.838407
O O7 0.849535 0.038226 0.904998
O O8 0.500000 0.140309 0.726623
O O9 0.654343 0.250787 0.807457
O O10 0.645828 0.997803 0.797212
O O11 0.653634 0.111215 0.608409
O O12 0.226024 0.682663 0.510257
O O13 0.175169 0.505509 0.365064
O O14 0.325590 0.650245 0.700911
O O15 0.355818 0.854973 0.582080
O O16 0.145392 0.242606 0.384872
O O17 0.000000 0.389589 0.307420
O O18 0.000000 0.084548 0.408348
O O19 0.000000 0.983844 0.018717
#
# Coordination Sequence:
#
# PCOD9342704 Si02
#       8
#     4   4   4   4   4   4   4   4
#     4  10  20  35  58  89 122 154 199 254 302 360
#     4   9  20  36  54  83 121 162 204 247 303 370
#     4  10  17  32  59  90 115 143 196 257 304 350
#     4  11  23  37  58  88 119 161 203 250 307 373
#     4  11  21  36  59  83 115 157 196 250 315 370
#     4  11  24  41  61  91 127 162 206 258 313 373
#     4   9  18  34  59  86 113 148 192 247 302 350
#     4   9  17  31  55  84 112 149 197 249 303 356
#
# _framework density 19.10492
#
# number of rings (size 3 to 8) (size 9 to 14) (size 15 to 20)
#    0.000    2.000    2.500    1.500    0.000    2.000 
#    0.000    1.875    0.000    1.500    0.000    1.750 
#    0.000    0.000    0.000    0.000    0.000    0.000 
#
# Total GULP energy -178227.195514 kJ/mol
# GULP energy per Si atom -5569.599860 kJ/mol
# Density = 1.906144 g / cm^3
# Si number density = 19.104920 Si / 1000 Ang^3
#
#
#
# Elastic Constant Matrix: (Units=GPa)
#
#
# Indices 1 2 3 4 5 6 
#
# 1 95.2174 16.5004 15.6017 0.0000 0.0000 0.0000
# 2 16.5004 70.9916 1.7557 0.0000 0.0000 0.0000
# 3 15.6017 1.7557 55.7442 0.0000 0.0000 0.0000
# 4 0.0000 0.0000 0.0000 23.3142 0.0000 0.0000
# 5 0.0000 0.0000 0.0000 0.0000 26.9101 0.0000
# 6 0.0000 0.0000 0.0000 0.0000 0.0000 31.7512
#
#
#
# Elastic Compliance Matrix: (Units=1/GPa)
#
#
# Indices 1 2 3 4 5 6 
#
# 1 0.011463 -0.002587 -0.003127 0.000000 0.000000 0.000000
# 2 -0.002587 0.014681 0.000262 0.000000 0.000000 0.000000
# 3 -0.003127 0.000262 0.018806 0.000000 0.000000 0.000000
# 4 0.000000 0.000000 0.000000 0.042892 0.000000 0.000000
# 5 0.000000 0.000000 0.000000 0.000000 0.037161 0.000000
# 6 0.000000 0.000000 0.000000 0.000000 0.000000 0.031495
#
#
# Mechanical properties :
#
#
# Convention : Reuss Voigt Hill
#
# Bulk Modulus (GPa) = 29.37227 32.18541 30.77884
# Shear Modulus (GPa) = 27.97196 28.93480 28.45338
#
# Velocity S-wave (km/s) = 3.83054 3.89591 3.86336
# Velocity P-wave (km/s) = 5.91368 6.09267 6.00384
#
# Compressibility (1/GPa) = 0.03404572
#
# Stress axis : x y z
#
# Youngs Moduli (GPa) = 87.23792 68.11532 53.17465
#
# Poissons Ratio (x) = 0.17621 0.16626
# Poissons Ratio (y) = 0.22568 -0.01391
# Poissons Ratio (z) = 0.27277 -0.01782
#
# Static dielectric constant tensor:
#      x y z
#    x 1.730390 0.000000 0.000000 
#    y 0.000000 1.635790 0.000000 
#    z 0.000000 0.000000 1.720180 
# 
# From -- ./inp_files/4264.got.cif
#   From: 2010.05.17/outbox.cif.g08.bks.cpg/sg31_3_cif.got.tgz:4264.got - 2010.06.03 17:08:30.
