data_PCOD9342614
_publ_section_title
;
Structure prediction by ZEFSAII (Michael W. Deem and Ramdas Pophale) SiO2 
 PCOD9342614
Probable space group: P N C 2
;
_chemical_formula_sum "Si O2"
_cell_formula_units_Z 12
_cell_length_a 5.004046
_cell_length_b 5.478509
_cell_length_c 18.145609
_cell_angle_alpha 90.000000
_cell_angle_beta 90.000000
_cell_angle_gamma 90.000000
_cell_volume 497.456628
_symmetry_space_group_name_H-M "P N C 2"
_symmetry_group_IT_number 30
_symmetry_cell_setting 'orthorhombic'
loop_
_space_group_symop_operation_xyz
x,y,z
-x,-y,z
-x,1/2+y,1/2+z
x,1/2-y,1/2+z
loop_
_atom_site_type_symbol
_atom_site_label
_atom_site_fract_x
_atom_site_fract_y
_atom_site_fract_z
Si Si1 0.000000 0.000000 0.157761
Si Si2 0.169422 0.243376 0.871287
Si Si3 0.500000 0.000000 0.255527
Si Si4 0.746416 0.668162 0.034060
O O1 0.242429 0.905738 0.209245
O O2 0.169683 0.164384 0.101442
O O3 0.388778 0.289089 0.808877
O O4 0.000000 0.500000 0.869874
O O5 0.294163 0.215697 0.953421
O O6 0.000000 0.000000 0.857617
O O7 0.500000 0.500000 0.053781
O O8 0.000000 0.500000 0.023141
#
# Coordination Sequence:
#
# PCOD9342614 Si02
#       4
#     2   4   2   4
#     4  12  26  50  74 118 168 214 274 350 420 484
#     4  11  25  51  82 117 159 215 278 338 409 501
#     4  12  26  50  74 124 162 222 268 352 418 488
#     4  11  24  47  78 114 154 215 276 337 407 501
#
# _framework density 24.122706999999998
#
# number of rings (size 3 to 8) (size 9 to 14) (size 15 to 20)
#    0.000    0.667    5.000    2.000    0.000    2.667 
#   12.000    0.000    0.000    0.000    0.000    0.000 
#    0.000    0.000    0.000    0.000    0.000    0.000 
#
# Total GULP energy -67115.043392 kJ/mol
# GULP energy per Si atom -5592.920283 kJ/mol
# Density = 2.406780 g / cm^3
# Si number density = 24.122707 Si / 1000 Ang^3
#
#
#
# Elastic Constant Matrix: (Units=GPa)
#
#
# Indices 1 2 3 4 5 6 
#
# 1 201.0773 88.4771 101.1464 0.0000 0.0000 0.0000
# 2 88.4771 146.9696 75.6342 0.0000 0.0000 0.0000
# 3 101.1464 75.6342 213.8427 0.0000 0.0000 0.0000
# 4 0.0000 0.0000 0.0000 26.4956 0.0000 0.0000
# 5 0.0000 0.0000 0.0000 0.0000 154.9444 0.0000
# 6 0.0000 0.0000 0.0000 0.0000 0.0000 67.9476
#
#
#
# Elastic Compliance Matrix: (Units=1/GPa)
#
#
# Indices 1 2 3 4 5 6 
#
# 1 0.007685 -0.003369 -0.002443 0.000000 0.000000 0.000000
# 2 -0.003369 0.009795 -0.001871 0.000000 0.000000 0.000000
# 3 -0.002443 -0.001871 0.006494 0.000000 0.000000 0.000000
# 4 0.000000 0.000000 0.000000 0.037742 0.000000 0.000000
# 5 0.000000 0.000000 0.000000 0.000000 0.006454 0.000000
# 6 0.000000 0.000000 0.000000 0.000000 0.000000 0.014717
#
#
# Mechanical properties :
#
#
# Convention : Reuss Voigt Hill
#
# Bulk Modulus (GPa) = 116.18124 121.37834 118.77979
# Shear Modulus (GPa) = 49.44540 69.65300 59.54920
#
# Velocity S-wave (km/s) = 4.53232 5.37932 4.97389
# Velocity P-wave (km/s) = 8.69807 9.43446 9.07374
#
# Compressibility (1/GPa) = 0.00860724
#
# Stress axis : x y z
#
# Youngs Moduli (GPa) = 130.13145 102.09247 153.99501
#
# Poissons Ratio (x) = 0.34393 0.37624
# Poissons Ratio (y) = 0.43839 0.28812
# Poissons Ratio (z) = 0.31794 0.19101
#
# Static dielectric constant tensor:
#      x y z
#    x 1.892740 0.000000 0.000000 
#    y 0.000000 1.918820 0.000000 
#    z 0.000000 0.000000 2.037470 
# 
# From -- ./inp_files/5714.got.cif
#   From: 2010.05.17/outbox.cif.g08.bks.cpg/sg30_3_cif.got.tgz:5714.got - 2010.06.03 17:03:02.
