data_PCOD9342743
_publ_section_title
;
Structure prediction by ZEFSAII (Michael W. Deem and Ramdas Pophale) SiO2 
 PCOD9342743
Probable space group: P M N 21
;
_chemical_formula_sum "Si O2"
_cell_formula_units_Z 32
_cell_length_a 7.545350
_cell_length_b 10.917950
_cell_length_c 14.510543
_cell_angle_alpha 90.000000
_cell_angle_beta 90.000000
_cell_angle_gamma 90.000000
_cell_volume 1195.374963
_symmetry_space_group_name_H-M "P M N 21"
_symmetry_group_IT_number 31
_symmetry_cell_setting 'orthorhombic'
loop_
_space_group_symop_operation_xyz
x,y,z
1/2-x,-y,1/2+z
-x,y,z
1/2+x,-y,1/2+z
loop_
_atom_site_type_symbol
_atom_site_label
_atom_site_fract_x
_atom_site_fract_y
_atom_site_fract_z
Si Si1 0.794038 0.982430 0.107160
Si Si2 0.301348 0.556588 0.268596
Si Si3 0.790633 0.933873 0.902906
Si Si4 0.710807 0.576018 0.946889
Si Si5 0.287556 0.203366 0.882331
Si Si6 0.783983 0.282400 0.611782
Si Si7 0.715865 0.337959 0.060439
Si Si8 0.204616 0.792416 0.733495
O O1 0.784634 0.845901 0.148911
O O2 0.000000 0.017474 0.099034
O O3 0.705490 0.085308 0.169353
O O4 0.714180 0.956326 0.005138
O O5 0.500000 0.524467 0.242860
O O6 0.246027 0.452257 0.340505
O O7 0.293490 0.683744 0.326458
O O8 0.217342 0.604197 0.174035
O O9 0.713726 0.834576 0.830963
O O10 0.000000 0.910146 0.913305
O O11 0.770748 0.067966 0.856789
O O12 0.500000 0.577200 0.954559
O O13 0.774750 0.691280 0.006406
O O14 0.774425 0.458440 0.005904
O O15 0.500000 0.214277 0.874206
O O16 0.239009 0.228886 0.989505
O O17 0.000000 0.278331 0.616047
O O18 0.500000 0.342337 0.065403
O O19 0.781145 0.309090 0.163267
O O20 0.000000 0.761284 0.752033
#
# Coordination Sequence:
#
# PCOD9342743 Si02
#       8
#     4   4   4   4   4   4   4   4
#     4  11  23  37  54  84 119 148 183 236 285 326
#     4  10  20  35  57  87 114 144 186 234 282 325
#     4  10  21  34  50  79 115 146 181 230 283 330
#     4   9  19  38  60  83 108 142 191 237 275 328
#     4  10  18  31  54  80 106 144 188 228 268 324
#     4  10  22  40  59  81 114 155 192 225 272 341
#     4   8  15  30  54  77  96 129 179 226 265 317
#     4  10  19  35  56  79 108 148 186 220 276 347
#
# _framework density 26.769839999999999
#
# number of rings (size 3 to 8) (size 9 to 14) (size 15 to 20)
#    0.000    2.250    1.250    2.625    0.000    5.500 
#    2.250    0.000    0.000    0.000    0.000    0.000 
#    0.000    0.000    0.000    0.000    0.000    0.000 
#
# Total GULP energy -178924.445603 kJ/mol
# GULP energy per Si atom -5591.388925 kJ/mol
# Density = 2.670891 g / cm^3
# Si number density = 26.769840 Si / 1000 Ang^3
#
#
#
# Elastic Constant Matrix: (Units=GPa)
#
#
# Indices 1 2 3 4 5 6 
#
# 1 87.0842 2.9004 -1.8188 0.0000 0.0000 0.0000
# 2 2.9004 94.9913 19.9171 0.0000 0.0000 0.0000
# 3 -1.8188 19.9171 162.1664 0.0000 0.0000 0.0000
# 4 0.0000 0.0000 0.0000 63.0521 0.0000 0.0000
# 5 0.0000 0.0000 0.0000 0.0000 53.6780 0.0000
# 6 0.0000 0.0000 0.0000 0.0000 0.0000 39.6041
#
#
#
# Elastic Compliance Matrix: (Units=1/GPa)
#
#
# Indices 1 2 3 4 5 6 
#
# 1 0.011500 -0.000388 0.000177 0.000000 0.000000 0.000000
# 2 -0.000388 0.010819 -0.001333 0.000000 0.000000 0.000000
# 3 0.000177 -0.001333 0.006332 0.000000 0.000000 0.000000
# 4 0.000000 0.000000 0.000000 0.015860 0.000000 0.000000
# 5 0.000000 0.000000 0.000000 0.000000 0.018630 0.000000
# 6 0.000000 0.000000 0.000000 0.000000 0.000000 0.025250
#
#
# Mechanical properties :
#
#
# Convention : Reuss Voigt Hill
#
# Bulk Modulus (GPa) = 39.12145 42.91547 41.01846
# Shear Modulus (GPa) = 50.00014 52.81638 51.40826
#
# Velocity S-wave (km/s) = 4.32647 4.44664 4.38697
# Velocity P-wave (km/s) = 6.29313 6.51380 6.40442
#
# Compressibility (1/GPa) = 0.02556142
#
# Stress axis : x y z
#
# Youngs Moduli (GPa) = 86.95838 92.43306 157.92261
#
# Poissons Ratio (x) = 0.03588 -0.02790
# Poissons Ratio (y) = 0.03375 0.21052
# Poissons Ratio (z) = -0.01536 0.12322
#
# Static dielectric constant tensor:
#      x y z
#    x 1.920740 0.000000 0.000000 
#    y 0.000000 2.104420 0.000000 
#    z 0.000000 0.000000 2.176370 
# 
# From -- ./inp_files/5059.got.cif
#   From: 2010.05.17/outbox.cif.g08.bks.cpg/sg31_3_cif.got.tgz:5059.got - 2010.06.03 17:08:30.
