data_PCOD9342414
_publ_section_title
;
Structure prediction by ZEFSAII (Michael W. Deem and Ramdas Pophale) SiO2 
 PCOD9342414
Probable space group: P N C 2
;
_chemical_formula_sum "Si O2"
_cell_formula_units_Z 24
_cell_length_a 10.999182
_cell_length_b 11.301757
_cell_length_c 8.636415
_cell_angle_alpha 90.000000
_cell_angle_beta 90.000000
_cell_angle_gamma 90.000000
_cell_volume 1073.593458
_symmetry_space_group_name_H-M "P N C 2"
_symmetry_group_IT_number 30
_symmetry_cell_setting 'orthorhombic'
loop_
_space_group_symop_operation_xyz
x,y,z
-x,-y,z
-x,1/2+y,1/2+z
x,1/2-y,1/2+z
loop_
_atom_site_type_symbol
_atom_site_label
_atom_site_fract_x
_atom_site_fract_y
_atom_site_fract_z
Si Si1 0.631557 0.964031 0.945660
Si Si2 0.301772 0.622199 0.915093
Si Si3 0.224188 0.649220 0.250487
Si Si4 0.846163 0.819184 0.997475
Si Si5 0.500000 0.500000 0.751349
Si Si6 0.119416 0.418233 0.842734
Si Si7 0.000000 0.500000 0.292213
O O1 0.716869 0.068726 0.884820
O O2 0.500000 0.000000 0.874599
O O3 0.710796 0.845309 0.926736
O O4 0.603210 0.964030 0.128081
O O5 0.224767 0.720131 0.821219
O O6 0.437961 0.602805 0.851147
O O7 0.231844 0.499705 0.891896
O O8 0.302859 0.653610 0.095176
O O9 0.099947 0.580933 0.206666
O O10 0.887827 0.686508 0.967430
O O11 0.858248 0.857338 0.175770
O O12 0.932271 0.906092 0.900798
O O13 0.000000 0.500000 0.835088
#
# Coordination Sequence:
#
# PCOD9342414 Si02
#       7
#     4   4   4   4   2   4   2
#     4   9  21  46  73 100 147 190 243 305 372 434
#     4  12  27  46  72 111 149 195 254 302 378 448
#     4  11  26  45  76 107 149 198 250 306 379 451
#     4  11  24  45  70 103 141 192 241 309 366 438
#     4  10  22  46  72 106 150 190 246 304 366 446
#     4  12  27  44  71 102 146 190 245 304 370 441
#     4  10  24  46  76  98 146 194 248 306 380 436
#
# _framework density 22.35483
#
# number of rings (size 3 to 8) (size 9 to 14) (size 15 to 20)
#    0.500    0.667    2.500    2.000    9.333    4.000 
#    0.000    0.000    0.000    0.000    0.000    0.000 
#    0.000    0.000    0.000    0.000    0.000    0.000 
#
# Total GULP energy -133924.500964 kJ/mol
# GULP energy per Si atom -5580.187540 kJ/mol
# Density = 2.230395 g / cm^3
# Si number density = 22.354830 Si / 1000 Ang^3
#
#
#
# Elastic Constant Matrix: (Units=GPa)
#
#
# Indices 1 2 3 4 5 6 
#
# 1 84.7768 33.7861 27.3915 0.0000 0.0000 0.0000
# 2 33.7861 136.1272 39.7598 0.0000 0.0000 0.0000
# 3 27.3915 39.7598 89.2262 0.0000 0.0000 0.0000
# 4 0.0000 0.0000 0.0000 -4.2774 0.0000 0.0000
# 5 0.0000 0.0000 0.0000 0.0000 14.2312 0.0000
# 6 0.0000 0.0000 0.0000 0.0000 0.0000 26.7481
#
#
#
# Elastic Compliance Matrix: (Units=1/GPa)
#
#
# Indices 1 2 3 4 5 6 
#
# 1 0.013805 -0.002516 -0.003117 0.000000 0.000000 0.000000
# 2 -0.002516 0.008904 -0.003195 0.000000 0.000000 0.000000
# 3 -0.003117 -0.003195 0.013588 0.000000 0.000000 0.000000
# 4 0.000000 0.000000 0.000000 -0.233785 0.000000 0.000000
# 5 0.000000 0.000000 0.000000 0.000000 0.070268 0.000000
# 6 0.000000 0.000000 0.000000 0.000000 0.000000 0.037386
#
#
# Mechanical properties :
#
#
# Convention : Reuss Voigt Hill
#
# Bulk Modulus (GPa) = 53.64518 56.88945 55.26732
# Shear Modulus (GPa) = -75.79952 21.28656 -27.25648
#
# Velocity S-wave (km/s) = -5.82933 3.08914 -3.49559
# Velocity P-wave (km/s) = 4.61073 6.18283 2.91278
#
# Compressibility (1/GPa) = 0.01864100
#
# Stress axis : x y z
#
# Youngs Moduli (GPa) = 72.43490 112.31168 73.59351
#
# Poissons Ratio (x) = 0.28258 0.22939
# Poissons Ratio (y) = 0.18225 0.23515
# Poissons Ratio (z) = 0.22578 0.35886
#
# Static dielectric constant tensor:
#      x y z
#    x 1.853050 0.000000 0.000000 
#    y 0.000000 1.817690 0.000000 
#    z 0.000000 0.000000 1.817100 
# 
# From -- ./inp_files/2392.got.cif
#   From: 2010.05.17/outbox.cif.g08.bks.cpg/sg30_2_cif.got.tgz:2392.got - 2010.06.03 17:03:02.
