data_PCOD9342401
_publ_section_title
;
Structure prediction by ZEFSAII (Michael W. Deem and Ramdas Pophale) SiO2 
 PCOD9342401
Probable space group: P N C 2
;
_chemical_formula_sum "Si O2"
_cell_formula_units_Z 30
_cell_length_a 9.499115
_cell_length_b 13.118483
_cell_length_c 11.292639
_cell_angle_alpha 90.000000
_cell_angle_beta 90.000000
_cell_angle_gamma 90.000000
_cell_volume 1407.220675
_symmetry_space_group_name_H-M "P N C 2"
_symmetry_group_IT_number 30
_symmetry_cell_setting 'orthorhombic'
loop_
_space_group_symop_operation_xyz
x,y,z
-x,-y,z
-x,1/2+y,1/2+z
x,1/2-y,1/2+z
loop_
_atom_site_type_symbol
_atom_site_label
_atom_site_fract_x
_atom_site_fract_y
_atom_site_fract_z
Si Si1 0.339060 0.470662 0.090630
Si Si2 0.971643 0.642204 0.415194
Si Si3 0.304988 0.337426 0.321362
Si Si4 0.839595 0.841495 0.407662
Si Si5 0.794563 0.338386 0.222207
Si Si6 0.000000 0.500000 0.770882
Si Si7 0.431001 0.892029 0.922973
Si Si8 0.200642 0.612451 0.609338
O O1 0.500000 0.500000 0.060877
O O2 0.346619 0.391563 0.200778
O O3 0.249035 0.570202 0.132603
O O4 0.258660 0.412333 0.985896
O O5 0.057332 0.650165 0.291773
O O6 0.080704 0.601654 0.508909
O O7 0.821089 0.594864 0.379452
O O8 0.917890 0.748565 0.473357
O O9 0.241044 0.224751 0.307625
O O10 0.430676 0.323041 0.414776
O O11 0.962389 0.904937 0.350101
O O12 0.676967 0.349185 0.325691
O O13 0.794333 0.226983 0.162338
O O14 0.142548 0.530344 0.701956
O O15 0.500000 0.000000 0.887629
O O16 0.349540 0.903942 0.045421
#
# Coordination Sequence:
#
# PCOD9342401 Si02
#       8
#     4   4   4   4   4   2   4   4
#     4  12  25  44  73 105 140 194 241 289 360 431
#     4   9  24  42  67 103 130 183 232 282 358 404
#     4  10  22  45  69 100 145 171 236 291 350 416
#     4  10  27  43  70 100 143 180 234 299 349 419
#     4  11  22  44  69 100 141 183 241 291 347 418
#     4  12  26  52  62 108 148 176 246 288 358 438
#     4  11  23  46  67 106 140 185 234 288 344 441
#     4  11  26  42  73  98 142 188 228 296 361 416
#
# _framework density 21.318619000000002
#
# number of rings (size 3 to 8) (size 9 to 14) (size 15 to 20)
#    0.800    0.533    4.000    0.000    9.333    0.533 
#    2.400    0.000    0.000    0.000    0.000    0.000 
#    0.000    0.000    0.000    0.000    0.000    0.000 
#
# Total GULP energy -167190.124785 kJ/mol
# GULP energy per Si atom -5573.004159 kJ/mol
# Density = 2.127010 g / cm^3
# Si number density = 21.318619 Si / 1000 Ang^3
#
#
#
# Elastic Constant Matrix: (Units=GPa)
#
#
# Indices 1 2 3 4 5 6 
#
# 1 125.9741 3.3739 19.8783 0.0000 0.0000 0.0000
# 2 3.3739 66.2394 4.6282 0.0000 0.0000 0.0000
# 3 19.8783 4.6282 41.4709 0.0000 0.0000 0.0000
# 4 0.0000 0.0000 0.0000 7.0988 0.0000 0.0000
# 5 0.0000 0.0000 0.0000 0.0000 25.2552 0.0000
# 6 0.0000 0.0000 0.0000 0.0000 0.0000 39.9474
#
#
#
# Elastic Compliance Matrix: (Units=1/GPa)
#
#
# Indices 1 2 3 4 5 6 
#
# 1 0.008589 -0.000151 -0.004100 0.000000 0.000000 0.000000
# 2 -0.000151 0.015218 -0.001626 0.000000 0.000000 0.000000
# 3 -0.004100 -0.001626 0.026260 0.000000 0.000000 0.000000
# 4 0.000000 0.000000 0.000000 0.140869 0.000000 0.000000
# 5 0.000000 0.000000 0.000000 0.000000 0.039596 0.000000
# 6 0.000000 0.000000 0.000000 0.000000 0.000000 0.025033
#
#
# Mechanical properties :
#
#
# Convention : Reuss Voigt Hill
#
# Bulk Modulus (GPa) = 26.10082 32.16057 29.13070
# Shear Modulus (GPa) = 17.85136 28.18054 23.01595
#
# Velocity S-wave (km/s) = 2.89686 3.63970 3.28932
# Velocity P-wave (km/s) = 4.84343 5.72553 5.30285
#
# Compressibility (1/GPa) = 0.03831297
#
# Stress axis : x y z
#
# Youngs Moduli (GPa) = 116.42544 65.71143 38.08061
#
# Poissons Ratio (x) = 0.00992 0.15614
# Poissons Ratio (y) = 0.01758 0.06192
# Poissons Ratio (z) = 0.47737 0.10684
#
# Static dielectric constant tensor:
#      x y z
#    x 1.830090 0.000000 0.000000 
#    y 0.000000 2.594840 0.000000 
#    z 0.000000 0.000000 1.799220 
# 
# From -- ./inp_files/3764.got.cif
#   From: 2010.05.17/outbox.cif.g08.bks.cpg/sg30_2_cif.got.tgz:3764.got - 2010.06.03 17:03:02.
