data_PCOD9342588
_publ_section_title
;
Structure prediction by ZEFSAII (Michael W. Deem and Ramdas Pophale) SiO2 
 PCOD9342588
Probable space group: P N C 2
;
_chemical_formula_sum "Si O2"
_cell_formula_units_Z 32
_cell_length_a 5.633642
_cell_length_b 18.338714
_cell_length_c 13.406318
_cell_angle_alpha 90.000000
_cell_angle_beta 90.000000
_cell_angle_gamma 90.000000
_cell_volume 1385.056978
_symmetry_space_group_name_H-M "P N C 2"
_symmetry_group_IT_number 30
_symmetry_cell_setting 'orthorhombic'
loop_
_space_group_symop_operation_xyz
x,y,z
-x,-y,z
-x,1/2+y,1/2+z
x,1/2-y,1/2+z
loop_
_atom_site_type_symbol
_atom_site_label
_atom_site_fract_x
_atom_site_fract_y
_atom_site_fract_z
Si Si1 0.347377 0.198744 0.243410
Si Si2 0.921470 0.816049 0.855006
Si Si3 0.222175 0.541881 0.068719
Si Si4 0.265561 0.809244 0.686997
Si Si5 0.982500 0.176301 0.084684
Si Si6 0.761655 0.039305 0.145803
Si Si7 0.742810 0.964032 0.769444
Si Si8 0.641093 0.074700 0.350748
O O1 0.181026 0.238464 0.323034
O O2 0.491265 0.264245 0.189799
O O3 0.194695 0.156739 0.160691
O O4 0.510089 0.144642 0.306070
O O5 0.769952 0.881488 0.805519
O O6 0.176131 0.816909 0.800572
O O7 0.934154 0.823701 0.972040
O O8 0.233948 0.610370 0.142930
O O9 0.278806 0.475391 0.148515
O O10 0.000000 0.500000 0.019785
O O11 0.327558 0.578590 0.969134
O O12 0.096076 0.755855 0.623280
O O13 0.767479 0.118891 0.094712
O O14 0.825605 0.059220 0.261686
O O15 0.500000 0.000000 0.135380
O O16 0.000000 0.000000 0.104296
O O17 0.500000 0.000000 0.810598
O O18 0.000000 0.000000 0.795956
O O19 0.500000 0.000000 0.344155
#
# Coordination Sequence:
#
# PCOD9342588 Si02
#       8
#     4   4   4   4   4   4   4   4
#     4  11  26  47  71 113 154 206 269 333 395 491
#     4  11  26  46  74 109 153 206 258 334 403 481
#     4  11  23  42  75 112 150 200 258 325 409 466
#     4  11  24  47  72 106 156 193 263 328 391 494
#     4  11  26  45  75 108 154 208 264 323 416 475
#     4  11  24  48  74 108 155 198 261 332 385 481
#     4  11  23  48  73 108 152 193 259 322 392 471
#     4  11  24  43  74 107 151 199 260 320 399 468
#
# _framework density 23.103743999999999
#
# number of rings (size 3 to 8) (size 9 to 14) (size 15 to 20)
#    0.000    1.000    3.750    3.000    3.500    1.500 
#    0.000    3.125    0.000    0.000    0.000    0.000 
#    0.000    0.000    0.000    0.000    0.000    0.000 
#
# Total GULP energy -178208.933300 kJ/mol
# GULP energy per Si atom -5569.029166 kJ/mol
# Density = 2.305116 g / cm^3
# Si number density = 23.103744 Si / 1000 Ang^3
#
#
#
# Elastic Constant Matrix: (Units=GPa)
#
#
# Indices 1 2 3 4 5 6 
#
# 1 100.9675 37.8204 28.1477 0.0000 0.0000 0.0000
# 2 37.8204 107.0619 49.7893 0.0000 0.0000 0.0000
# 3 28.1477 49.7893 147.1057 0.0000 0.0000 0.0000
# 4 0.0000 0.0000 0.0000 22.8163 0.0000 0.0000
# 5 0.0000 0.0000 0.0000 0.0000 2.2658 0.0000
# 6 0.0000 0.0000 0.0000 0.0000 0.0000 52.1912
#
#
#
# Elastic Compliance Matrix: (Units=1/GPa)
#
#
# Indices 1 2 3 4 5 6 
#
# 1 0.011533 -0.003617 -0.000982 0.000000 0.000000 0.000000
# 2 -0.003617 0.012220 -0.003444 0.000000 0.000000 0.000000
# 3 -0.000982 -0.003444 0.008151 0.000000 0.000000 0.000000
# 4 0.000000 0.000000 0.000000 0.043828 0.000000 0.000000
# 5 0.000000 0.000000 0.000000 0.000000 0.441343 0.000000
# 6 0.000000 0.000000 0.000000 0.000000 0.000000 0.019160
#
#
# Mechanical properties :
#
#
# Convention : Reuss Voigt Hill
#
# Bulk Modulus (GPa) = 63.22220 65.18332 64.20276
# Shear Modulus (GPa) = 8.96708 31.41318 20.19013
#
# Velocity S-wave (km/s) = 1.97222 3.69135 2.95937
# Velocity P-wave (km/s) = 5.71052 6.81489 6.28700
#
# Compressibility (1/GPa) = 0.01581723
#
# Stress axis : x y z
#
# Youngs Moduli (GPa) = 86.70763 81.83497 122.67844
#
# Poissons Ratio (x) = 0.29601 0.12053
# Poissons Ratio (y) = 0.31364 0.42247
# Poissons Ratio (z) = 0.08519 0.28182
#
# Static dielectric constant tensor:
#      x y z
#    x 2.093570 0.000000 0.000000 
#    y 0.000000 1.884210 0.000000 
#    z 0.000000 0.000000 1.963420 
# 
# From -- ./inp_files/3252.got.cif
#   From: 2010.05.17/outbox.cif.g08.bks.cpg/sg30_2_cif.got.tgz:3252.got - 2010.06.03 17:03:02.
