data_PCOD9342192
_publ_section_title
;
Structure prediction by ZEFSAII (Michael W. Deem and Ramdas Pophale) SiO2 
 PCOD9342192
Probable space group: P N C 2
;
_chemical_formula_sum "Si O2"
_cell_formula_units_Z 20
_cell_length_a 13.799655
_cell_length_b 10.918022
_cell_length_c 4.864365
_cell_angle_alpha 90.000000
_cell_angle_beta 90.000000
_cell_angle_gamma 90.000000
_cell_volume 732.889246
_symmetry_space_group_name_H-M "P N C 2"
_symmetry_group_IT_number 30
_symmetry_cell_setting 'orthorhombic'
loop_
_space_group_symop_operation_xyz
x,y,z
-x,-y,z
-x,1/2+y,1/2+z
x,1/2-y,1/2+z
loop_
_atom_site_type_symbol
_atom_site_label
_atom_site_fract_x
_atom_site_fract_y
_atom_site_fract_z
Si Si1 0.468929 0.674744 0.627180
Si Si2 0.730732 0.155879 0.911817
Si Si3 0.015731 0.822201 0.556492
Si Si4 0.305717 0.164215 0.102482
Si Si5 0.168031 0.024369 0.499688
O O1 0.459321 0.802308 0.451969
O O2 0.379044 0.889321 0.979966
O O3 0.579521 0.635631 0.601346
O O4 0.747835 0.267779 0.693332
O O5 0.781393 0.041753 0.758906
O O6 0.033681 0.798115 0.876201
O O7 0.903915 0.861223 0.542890
O O8 0.086800 0.922231 0.429938
O O9 0.287928 0.285557 0.295678
O O10 0.242978 0.062328 0.263128
#
# Coordination Sequence:
#
# PCOD9342192 Si02
#       5
#     4   4   4   4   4
#     4   8  16  34  60  86 122 164 210 275 336 391
#     4  10  21  38  64  97 132 175 227 282 342 412
#     4  11  26  45  64  98 144 183 232 297 358 422
#     4  10  21  38  64  97 132 175 227 282 342 412
#     4  11  24  40  70 101 136 188 238 288 354 424
#
# _framework density 27.289254
#
# number of rings (size 3 to 8) (size 9 to 14) (size 15 to 20)
#    0.000    2.000    0.000    2.400    0.000    8.000 
#    0.000    0.000    0.000   79.200    0.000    8.400 
#    0.000    0.000    0.000    0.000    0.000    0.000 
#
# Total GULP energy -111621.658007 kJ/mol
# GULP energy per Si atom -5581.082900 kJ/mol
# Density = 2.722714 g / cm^3
# Si number density = 27.289254 Si / 1000 Ang^3
#
#
#
# Elastic Constant Matrix: (Units=GPa)
#
#
# Indices 1 2 3 4 5 6 
#
# 1 203.3432 44.3916 59.6179 0.0000 0.0000 0.0000
# 2 44.3916 87.9786 32.7524 0.0000 0.0000 0.0000
# 3 59.6179 32.7524 174.1367 0.0000 0.0000 0.0000
# 4 0.0000 0.0000 0.0000 29.3584 0.0000 0.0000
# 5 0.0000 0.0000 0.0000 0.0000 52.0845 0.0000
# 6 0.0000 0.0000 0.0000 0.0000 0.0000 24.9557
#
#
#
# Elastic Compliance Matrix: (Units=1/GPa)
#
#
# Indices 1 2 3 4 5 6 
#
# 1 0.005900 -0.002393 -0.001570 0.000000 0.000000 0.000000
# 2 -0.002393 0.013192 -0.001662 0.000000 0.000000 0.000000
# 3 -0.001570 -0.001662 0.006593 0.000000 0.000000 0.000000
# 4 0.000000 0.000000 0.000000 0.034062 0.000000 0.000000
# 5 0.000000 0.000000 0.000000 0.000000 0.019200 0.000000
# 6 0.000000 0.000000 0.000000 0.000000 0.000000 0.040071
#
#
# Mechanical properties :
#
#
# Convention : Reuss Voigt Hill
#
# Bulk Modulus (GPa) = 69.27176 82.10914 75.69045
# Shear Modulus (GPa) = 37.01515 43.19283 40.10399
#
# Velocity S-wave (km/s) = 3.68693 3.98273 3.83768
# Velocity P-wave (km/s) = 6.60030 7.16263 6.88721
#
# Compressibility (1/GPa) = 0.01443590
#
# Stress axis : x y z
#
# Youngs Moduli (GPa) = 169.47793 75.80080 151.68136
#
# Poissons Ratio (x) = 0.18137 0.23815
# Poissons Ratio (y) = 0.40551 0.25211
# Poissons Ratio (z) = 0.26609 0.12599
#
# Static dielectric constant tensor:
#      x y z
#    x 2.191960 0.000000 0.000000 
#    y 0.000000 2.294230 0.000000 
#    z 0.000000 0.000000 2.027730 
# 
# From -- ./inp_files/878.got.cif
#   From: 2010.05.17/outbox.cif.g08.bks.cpg/sg30_1_cif.got.tgz:878.got - 2010.06.03 17:03:02.
