data_PCOD9342013
_publ_section_title
;
Structure prediction by ZEFSAII (Michael W. Deem and Ramdas Pophale) SiO2 
 PCOD9342013
Probable space group: P N C 2
;
_chemical_formula_sum "Si O2"
_cell_formula_units_Z 26
_cell_length_a 10.676547
_cell_length_b 12.496221
_cell_length_c 9.368010
_cell_angle_alpha 90.000000
_cell_angle_beta 90.000000
_cell_angle_gamma 90.000000
_cell_volume 1249.847020
_symmetry_space_group_name_H-M "P N C 2"
_symmetry_group_IT_number 30
_symmetry_cell_setting 'orthorhombic'
loop_
_space_group_symop_operation_xyz
x,y,z
-x,-y,z
-x,1/2+y,1/2+z
x,1/2-y,1/2+z
loop_
_atom_site_type_symbol
_atom_site_label
_atom_site_fract_x
_atom_site_fract_y
_atom_site_fract_z
Si Si1 0.230437 0.500289 0.290300
Si Si2 0.500000 0.000000 0.935504
Si Si3 0.231931 0.226013 0.885411
Si Si4 0.520007 0.229482 0.913678
Si Si5 0.313128 0.813732 0.633980
Si Si6 0.141645 0.121685 0.170325
Si Si7 0.145536 0.606027 0.576376
O O1 0.374714 0.486518 0.342629
O O2 0.186588 0.378100 0.293883
O O3 0.237347 0.576080 0.153803
O O4 0.158625 0.567556 0.412365
O O5 0.483328 0.883303 0.004696
O O6 0.378944 0.250643 0.866372
O O7 0.157649 0.326069 0.824024
O O8 0.211549 0.191637 0.049086
O O9 0.610818 0.208415 0.780085
O O10 0.583210 0.318167 0.011023
O O11 0.223406 0.713224 0.602369
O O12 0.997479 0.121717 0.121618
O O13 0.191606 0.000102 0.160562
#
# Coordination Sequence:
#
# PCOD9342013 Si02
#       7
#     4   2   4   4   4   4   4
#     4   9  19  35  62  86 119 152 199 238 305 358
#     4   8  14  32  52  80 108 156 176 236 284 362
#     4  10  21  42  60  88 118 165 198 249 297 363
#     4  10  20  33  60  85 118 152 199 238 305 354
#     4  11  19  36  59  91 117 155 190 255 296 357
#     4  10  23  40  64  82 121 163 209 241 293 363
#     4  10  21  40  61  88 118 163 201 244 299 364
#
# _framework density 20.802544999999999
#
# number of rings (size 3 to 8) (size 9 to 14) (size 15 to 20)
#    0.000    2.154    3.077    0.923    2.154    0.000 
#    2.769    0.000    0.000    0.000    0.000    0.000 
#    0.000    0.000    0.000    0.000    0.000    0.000 
#
# Total GULP energy -144921.457107 kJ/mol
# GULP energy per Si atom -5573.902196 kJ/mol
# Density = 2.075520 g / cm^3
# Si number density = 20.802545 Si / 1000 Ang^3
#
#
#
# Elastic Constant Matrix: (Units=GPa)
#
#
# Indices 1 2 3 4 5 6 
#
# 1 53.0843 1.6060 -8.3975 0.0000 0.0000 0.0000
# 2 1.6060 43.5347 1.4827 0.0000 0.0000 0.0000
# 3 -8.3975 1.4827 24.0544 0.0000 0.0000 0.0000
# 4 0.0000 0.0000 0.0000 23.8937 0.0000 0.0000
# 5 0.0000 0.0000 0.0000 0.0000 -3.3086 0.0000
# 6 0.0000 0.0000 0.0000 0.0000 0.0000 20.7179
#
#
#
# Elastic Compliance Matrix: (Units=1/GPa)
#
#
# Indices 1 2 3 4 5 6 
#
# 1 0.019980 -0.000977 0.007035 0.000000 0.000000 0.000000
# 2 -0.000977 0.023066 -0.001763 0.000000 0.000000 0.000000
# 3 0.007035 -0.001763 0.044137 0.000000 0.000000 0.000000
# 4 0.000000 0.000000 0.000000 0.041852 0.000000 0.000000
# 5 0.000000 0.000000 0.000000 0.000000 -0.302241 0.000000
# 6 0.000000 0.000000 0.000000 0.000000 0.000000 0.048267
#
#
# Mechanical properties :
#
#
# Convention : Reuss Voigt Hill
#
# Bulk Modulus (GPa) = 10.44102 12.22841 11.33472
# Shear Modulus (GPa) = -49.21054 16.65939 -16.27557
#
# Velocity S-wave (km/s) = -4.86902 2.83297 -2.80015
# Velocity P-wave (km/s) = 5.15556 4.07334 2.23470
#
# Compressibility (1/GPa) = 0.09577609
#
# Stress axis : x y z
#
# Youngs Moduli (GPa) = 50.04887 43.35335 22.65660
#
# Poissons Ratio (x) = 0.04234 -0.15940
# Poissons Ratio (y) = 0.04888 0.03994
# Poissons Ratio (z) = -0.35212 0.07642
#
# Static dielectric constant tensor:
#      x y z
#    x 1.756890 0.000000 0.000000 
#    y 0.000000 1.814880 0.000000 
#    z 0.000000 0.000000 1.745940 
# 
# From -- ./inp_files/2366.got.cif
#   From: 2010.05.17/outbox.cif.g08.bks.cpg/sg30_2_cif.got.tgz:2366.got - 2010.06.03 17:03:02.
