data_PCOD9342878
_publ_section_title
;
Structure prediction by ZEFSAII (Michael W. Deem and Ramdas Pophale) SiO2 
 PCOD9342878
Probable space group: P M N 21
;
_chemical_formula_sum "Si O2"
_cell_formula_units_Z 32
_cell_length_a 9.395304
_cell_length_b 14.760221
_cell_length_c 12.371082
_cell_angle_alpha 90.000000
_cell_angle_beta 90.000000
_cell_angle_gamma 90.000000
_cell_volume 1715.581612
_symmetry_space_group_name_H-M "P M N 21"
_symmetry_group_IT_number 31
_symmetry_cell_setting 'orthorhombic'
loop_
_space_group_symop_operation_xyz
x,y,z
1/2-x,-y,1/2+z
-x,y,z
1/2+x,-y,1/2+z
loop_
_atom_site_type_symbol
_atom_site_label
_atom_site_fract_x
_atom_site_fract_y
_atom_site_fract_z
Si Si1 0.658119 0.837530 0.141920
Si Si2 0.829227 0.332673 0.923434
Si Si3 0.670028 0.357250 0.145669
Si Si4 0.329016 0.219561 0.328798
Si Si5 0.330209 0.556430 0.208162
Si Si6 0.662628 0.947204 0.921782
Si Si7 0.336291 0.878935 0.383967
Si Si8 0.831690 0.679915 0.051499
O O1 0.500000 0.792358 0.143002
O O2 0.671394 0.887947 0.254418
O O3 0.779585 0.763650 0.125414
O O4 0.662574 0.903690 0.040829
O O5 0.750897 0.361705 0.032414
O O6 0.000000 0.343322 0.934593
O O7 0.786287 0.389862 0.816904
O O8 0.799971 0.225611 0.907228
O O9 0.500000 0.352215 0.126905
O O10 0.711054 0.270886 0.218749
O O11 0.697368 0.449277 0.212698
O O12 0.500000 0.205714 0.330444
O O13 0.250502 0.124692 0.349473
O O14 0.295492 0.286829 0.430049
O O15 0.500000 0.569042 0.196416
O O16 0.251769 0.596115 0.102782
O O17 0.500000 0.953610 0.883535
O O18 0.734440 0.044817 0.929601
O O19 0.500000 0.894097 0.418241
O O20 0.000000 0.665178 0.056841
#
# Coordination Sequence:
#
# PCOD9342878 Si02
#       8
#     4   4   4   4   4   4   4   4
#     4   9  18  36  56  76 108 150 190 230 291 350
#     4  10  22  40  62  86 118 155 194 240 292 350
#     4  10  23  40  60  85 119 160 197 237 291 350
#     4   9  20  39  58  81 116 156 193 235 292 350
#     4  10  21  39  60  83 116 156 191 232 293 355
#     4  10  21  35  57  87 114 147 195 248 289 338
#     4  10  20  37  59  81 112 156 192 230 293 357
#     4  10  19  32  58  87 109 140 190 246 285 330
#
# _framework density 18.652567000000001
#
# number of rings (size 3 to 8) (size 9 to 14) (size 15 to 20)
#    0.000    2.250    1.250    0.750    1.750    4.500 
#    0.000    3.750    0.000    0.000    0.000    0.000 
#    0.000    0.000    0.000    0.000    0.000    0.000 
#
# Total GULP energy -178493.820110 kJ/mol
# GULP energy per Si atom -5577.931878 kJ/mol
# Density = 1.861011 g / cm^3
# Si number density = 18.652567 Si / 1000 Ang^3
#
#
#
# Elastic Constant Matrix: (Units=GPa)
#
#
# Indices 1 2 3 4 5 6 
#
# 1 40.4603 38.6451 26.6703 0.0000 0.0000 0.0000
# 2 38.6451 88.3616 23.9344 0.0000 0.0000 0.0000
# 3 26.6703 23.9344 58.2756 0.0000 0.0000 0.0000
# 4 0.0000 0.0000 0.0000 10.1978 0.0000 0.0000
# 5 0.0000 0.0000 0.0000 0.0000 26.2980 0.0000
# 6 0.0000 0.0000 0.0000 0.0000 0.0000 28.2204
#
#
#
# Elastic Compliance Matrix: (Units=1/GPa)
#
#
# Indices 1 2 3 4 5 6 
#
# 1 0.054083 -0.019071 -0.016919 0.000000 0.000000 0.000000
# 2 -0.019071 0.019458 0.000736 0.000000 0.000000 0.000000
# 3 -0.016919 0.000736 0.024601 0.000000 0.000000 0.000000
# 4 0.000000 0.000000 0.000000 0.098060 0.000000 0.000000
# 5 0.000000 0.000000 0.000000 0.000000 0.038026 0.000000
# 6 0.000000 0.000000 0.000000 0.000000 0.000000 0.035435
#
#
# Mechanical properties :
#
#
# Convention : Reuss Voigt Hill
#
# Bulk Modulus (GPa) = 36.18602 40.62190 38.40396
# Shear Modulus (GPa) = 14.31096 19.46641 16.88868
#
# Velocity S-wave (km/s) = 2.77291 3.23403 3.01231
# Velocity P-wave (km/s) = 5.44924 5.98087 5.72123
#
# Compressibility (1/GPa) = 0.02763498
#
# Stress axis : x y z
#
# Youngs Moduli (GPa) = 18.49002 51.39200 40.64919
#
# Poissons Ratio (x) = 0.98007 0.68775
# Poissons Ratio (y) = 0.35261 -0.02992
# Poissons Ratio (z) = 0.31284 -0.03783
#
# Static dielectric constant tensor:
#      x y z
#    x 1.637890 0.000000 0.000000 
#    y 0.000000 1.649210 0.000000 
#    z 0.000000 0.000000 1.634980 
# 
# From -- ./inp_files/3672.got.cif
#   From: 2010.05.17/outbox.cif.g08.bks.cpg/sg31_2_cif.got.tgz:3672.got - 2010.06.03 17:08:30.
