data_PCOD9342457
_publ_section_title
;
Structure prediction by ZEFSAII (Michael W. Deem and Ramdas Pophale) SiO2 
 PCOD9342457
Probable space group: P N C 2
;
_chemical_formula_sum "Si O2"
_cell_formula_units_Z 32
_cell_length_a 11.239618
_cell_length_b 9.714902
_cell_length_c 14.453547
_cell_angle_alpha 90.000000
_cell_angle_beta 90.000000
_cell_angle_gamma 90.000000
_cell_volume 1578.208631
_symmetry_space_group_name_H-M "P N C 2"
_symmetry_group_IT_number 30
_symmetry_cell_setting 'orthorhombic'
loop_
_space_group_symop_operation_xyz
x,y,z
-x,-y,z
-x,1/2+y,1/2+z
x,1/2-y,1/2+z
loop_
_atom_site_type_symbol
_atom_site_label
_atom_site_fract_x
_atom_site_fract_y
_atom_site_fract_z
Si Si1 0.087585 0.879701 0.636930
Si Si2 0.318902 0.275957 0.569338
Si Si3 0.413322 0.727247 0.611064
Si Si4 0.292024 0.964139 0.516073
Si Si5 0.869463 0.471528 0.852043
Si Si6 0.079445 0.120394 0.160414
Si Si7 0.751540 0.192076 0.786317
Si Si8 0.363132 0.518804 0.451465
O O1 0.182147 0.872286 0.554753
O O2 0.166604 0.910210 0.726938
O O3 0.009908 0.747322 0.656775
O O4 0.000000 0.000000 0.614943
O O5 0.445925 0.301761 0.619384
O O6 0.202102 0.335666 0.616061
O O7 0.321786 0.363425 0.473542
O O8 0.305456 0.111793 0.563072
O O9 0.399465 0.863426 0.544735
O O10 0.344770 0.752565 0.708794
O O11 0.359421 0.603365 0.548955
O O12 0.246307 0.002161 0.414124
O O13 0.884446 0.565037 0.761377
O O14 0.836348 0.316763 0.819707
O O15 0.000000 0.500000 0.898495
O O16 0.000000 0.000000 0.114541
O O17 0.698050 0.110924 0.872981
O O18 0.500000 0.500000 0.424168
#
# Coordination Sequence:
#
# PCOD9342457 Si02
#       8
#     4   4   4   4   4   4   4   4
#     4  11  22  41  63  96 133 172 218 279 338 404
#     4  11  24  44  65 101 134 174 232 286 333 414
#     4  10  23  45  72  94 132 179 227 279 348 409
#     4  11  23  41  69  92 134 181 222 275 350 404
#     4  11  22  40  66  97 131 176 231 274 336 420
#     4  11  23  42  65  97 136 178 229 280 335 409
#     4  11  22  42  72  96 131 181 217 282 352 401
#     4  10  23  44  67  98 135 170 228 285 336 407
#
# _framework density 20.276153999999998
#
# number of rings (size 3 to 8) (size 9 to 14) (size 15 to 20)
#    0.000    1.250    5.000    1.500    1.750    3.000 
#    4.500    0.000    0.000    0.000    0.000    0.000 
#    0.000    0.000    0.000    0.000    0.000    0.000 
#
# Total GULP energy -178205.400296 kJ/mol
# GULP energy per Si atom -5568.918759 kJ/mol
# Density = 2.023000 g / cm^3
# Si number density = 20.276154 Si / 1000 Ang^3
#
#
#
# Elastic Constant Matrix: (Units=GPa)
#
#
# Indices 1 2 3 4 5 6 
#
# 1 109.3256 31.1162 33.1970 0.0000 0.0000 0.0000
# 2 31.1162 96.1162 16.6769 0.0000 0.0000 0.0000
# 3 33.1970 16.6769 51.0266 0.0000 0.0000 0.0000
# 4 0.0000 0.0000 0.0000 22.5763 0.0000 0.0000
# 5 0.0000 0.0000 0.0000 0.0000 17.2556 0.0000
# 6 0.0000 0.0000 0.0000 0.0000 0.0000 41.6671
#
#
#
# Elastic Compliance Matrix: (Units=1/GPa)
#
#
# Indices 1 2 3 4 5 6 
#
# 1 0.012020 -0.002687 -0.006942 0.000000 0.000000 0.000000
# 2 -0.002687 0.011630 -0.002053 0.000000 0.000000 0.000000
# 3 -0.006942 -0.002053 0.024785 0.000000 0.000000 0.000000
# 4 0.000000 0.000000 0.000000 0.044294 0.000000 0.000000
# 5 0.000000 0.000000 0.000000 0.000000 0.057952 0.000000
# 6 0.000000 0.000000 0.000000 0.000000 0.000000 0.024000
#
#
# Mechanical properties :
#
#
# Convention : Reuss Voigt Hill
#
# Bulk Modulus (GPa) = 39.88594 46.49427 43.19010
# Shear Modulus (GPa) = 24.22478 27.99837 26.11157
#
# Velocity S-wave (km/s) = 3.46025 3.72001 3.59248
# Velocity P-wave (km/s) = 5.97315 6.43674 6.20927
#
# Compressibility (1/GPa) = 0.02507149
#
# Stress axis : x y z
#
# Youngs Moduli (GPa) = 83.19801 85.98383 40.34748
#
# Poissons Ratio (x) = 0.23101 0.28008
# Poissons Ratio (y) = 0.22353 0.08284
# Poissons Ratio (z) = 0.57753 0.17653
#
# Static dielectric constant tensor:
#      x y z
#    x 1.760990 0.000000 0.000000 
#    y 0.000000 1.718110 0.000000 
#    z 0.000000 0.000000 1.787690 
# 
# From -- ./inp_files/5509.got.cif
#   From: 2010.05.17/outbox.cif.g08.bks.cpg/sg30_3_cif.got.tgz:5509.got - 2010.06.03 17:03:02.
