data_PCOD9342827
_publ_section_title
;
Structure prediction by ZEFSAII (Michael W. Deem and Ramdas Pophale) SiO2 
 PCOD9342827
Probable space group: P M N 21
;
_chemical_formula_sum "Si O2"
_cell_formula_units_Z 32
_cell_length_a 7.362492
_cell_length_b 25.168756
_cell_length_c 7.797558
_cell_angle_alpha 90.000000
_cell_angle_beta 90.000000
_cell_angle_gamma 90.000000
_cell_volume 1444.924650
_symmetry_space_group_name_H-M "P M N 21"
_symmetry_group_IT_number 31
_symmetry_cell_setting 'orthorhombic'
loop_
_space_group_symop_operation_xyz
x,y,z
1/2-x,-y,1/2+z
-x,y,z
1/2+x,-y,1/2+z
loop_
_atom_site_type_symbol
_atom_site_label
_atom_site_fract_x
_atom_site_fract_y
_atom_site_fract_z
Si Si1 0.720531 0.548204 0.425060
Si Si2 0.778105 0.248548 0.677565
Si Si3 0.777165 0.170775 0.376862
Si Si4 0.710239 0.570402 0.803385
Si Si5 0.281600 0.057850 0.006760
Si Si6 0.777827 0.369373 0.631217
Si Si7 0.204884 0.056816 0.401499
Si Si8 0.286178 0.825461 0.483316
O O1 0.500000 0.546606 0.427723
O O2 0.786757 0.566577 0.611996
O O3 0.781840 0.488684 0.382693
O O4 0.777435 0.588634 0.276470
O O5 0.724641 0.217378 0.505128
O O6 0.721269 0.309650 0.672985
O O7 0.000000 0.248001 0.680431
O O8 0.714428 0.215928 0.844209
O O9 0.713566 0.113605 0.451759
O O10 0.715037 0.177773 0.179363
O O11 0.000000 0.168144 0.373485
O O12 0.500000 0.585799 0.781252
O O13 0.786406 0.610150 0.945743
O O14 0.500000 0.056563 0.013223
O O15 0.202719 0.061673 0.196721
O O16 0.233899 0.113610 0.918786
O O17 0.214742 0.001215 0.936501
O O18 0.000000 0.370212 0.629008
O O19 0.000000 0.055373 0.472180
O O20 0.500000 0.814894 0.497879
#
# Coordination Sequence:
#
# PCOD9342827 Si02
#       8
#     4   4   4   4   4   4   4   4
#     4  10  19  31  50  75 105 136 168 209 254 304
#     4   9  17  29  51  75  98 134 170 208 257 298
#     4   8  15  29  46  68  96 124 162 207 245 296
#     4  10  19  31  50  74 103 138 168 206 256 301
#     4  10  20  32  50  75 103 133 165 209 260 307
#     4   9  18  31  46  75 107 128 168 218 254 298
#     4   9  19  33  48  72 102 129 166 209 253 307
#     4   9  18  32  51  72  98 132 169 210 255 305
#
# _framework density 22.146483
#
# number of rings (size 3 to 8) (size 9 to 14) (size 15 to 20)
#    0.000    2.750    1.250    1.125    1.750    2.000 
#    0.000    5.000    0.000    1.500    0.000    3.500 
#    0.000    0.000    0.000    0.000    0.000    0.000 
#
# Total GULP energy -178560.666983 kJ/mol
# GULP energy per Si atom -5580.020843 kJ/mol
# Density = 2.209608 g / cm^3
# Si number density = 22.146483 Si / 1000 Ang^3
#
#
#
# Elastic Constant Matrix: (Units=GPa)
#
#
# Indices 1 2 3 4 5 6 
#
# 1 83.4529 -9.6858 -1.6990 0.0000 0.0000 0.0000
# 2 -9.6858 100.0929 6.2207 0.0000 0.0000 0.0000
# 3 -1.6990 6.2207 69.5607 0.0000 0.0000 0.0000
# 4 0.0000 0.0000 0.0000 40.8017 0.0000 0.0000
# 5 0.0000 0.0000 0.0000 0.0000 0.5007 0.0000
# 6 0.0000 0.0000 0.0000 0.0000 0.0000 16.8149
#
#
#
# Elastic Compliance Matrix: (Units=1/GPa)
#
#
# Indices 1 2 3 4 5 6 
#
# 1 0.012121 0.001161 0.000192 0.000000 0.000000 0.000000
# 2 0.001161 0.010158 -0.000880 0.000000 0.000000 0.000000
# 3 0.000192 -0.000880 0.014459 0.000000 0.000000 0.000000
# 4 0.000000 0.000000 0.000000 0.024509 0.000000 0.000000
# 5 0.000000 0.000000 0.000000 0.000000 1.997340 0.000000
# 6 0.000000 0.000000 0.000000 0.000000 0.000000 0.059471
#
#
# Mechanical properties :
#
#
# Convention : Reuss Voigt Hill
#
# Bulk Modulus (GPa) = 26.53575 26.97537 26.75556
# Shear Modulus (GPa) = 2.34778 28.84150 15.59464
#
# Velocity S-wave (km/s) = 1.03073 3.61266 2.65648
# Velocity P-wave (km/s) = 3.66394 5.44138 4.63860
#
# Compressibility (1/GPa) = 0.03768501
#
# Stress axis : x y z
#
# Youngs Moduli (GPa) = 82.49824 98.44689 69.15950
#
# Poissons Ratio (x) = -0.11430 -0.01329
# Poissons Ratio (y) = -0.09578 0.06086
# Poissons Ratio (z) = -0.01586 0.08664
#
# Static dielectric constant tensor:
#      x y z
#    x 1.910800 0.000000 0.000000 
#    y 0.000000 1.802830 0.000000 
#    z 0.000000 0.000000 1.788670 
# 
# From -- ./inp_files/1894.got.cif
#   From: 2010.05.17/outbox.cif.g08.bks.cpg/sg31_1_cif.got.tgz:1894.got - 2010.06.03 17:08:30.
