data_PCOD9342432
_publ_section_title
;
Structure prediction by ZEFSAII (Michael W. Deem and Ramdas Pophale) SiO2 
 PCOD9342432
Probable space group: P N C 2
;
_chemical_formula_sum "Si O2"
_cell_formula_units_Z 20
_cell_length_a 9.803134
_cell_length_b 8.516073
_cell_length_c 10.776668
_cell_angle_alpha 90.000000
_cell_angle_beta 90.000000
_cell_angle_gamma 90.000000
_cell_volume 899.681558
_symmetry_space_group_name_H-M "P N C 2"
_symmetry_group_IT_number 30
_symmetry_cell_setting 'orthorhombic'
loop_
_space_group_symop_operation_xyz
x,y,z
-x,-y,z
-x,1/2+y,1/2+z
x,1/2-y,1/2+z
loop_
_atom_site_type_symbol
_atom_site_label
_atom_site_fract_x
_atom_site_fract_y
_atom_site_fract_z
Si Si1 0.156313 0.449160 0.086340
Si Si2 0.611588 0.628338 0.760206
Si Si3 0.684322 0.668171 0.494397
Si Si4 0.849548 0.423113 0.838769
Si Si5 0.845178 0.443314 0.347849
O O1 0.208995 0.467723 0.224564
O O2 0.000000 0.500000 0.098929
O O3 0.185553 0.278001 0.031273
O O4 0.211123 0.561392 0.978552
O O5 0.500000 0.500000 0.793093
O O6 0.591750 0.679947 0.617227
O O7 0.618203 0.753359 0.871914
O O8 0.754943 0.533938 0.756962
O O9 0.743616 0.498900 0.456058
O O10 0.851532 0.239419 0.812729
O O11 0.000000 0.500000 0.837067
O O12 0.000000 0.500000 0.375937
#
# Coordination Sequence:
#
# PCOD9342432 Si02
#       5
#     4   4   4   4   4
#     4   9  19  36  60  96 139 170 224 273 330 393
#     4  11  26  48  70  96 138 176 229 284 343 404
#     4  11  23  45  67  97 135 185 229 280 338 414
#     4  10  23  41  66 103 140 177 225 284 336 407
#     4  11  21  36  68 102 137 184 222 278 345 401
#
# _framework density 22.230087000000001
#
# number of rings (size 3 to 8) (size 9 to 14) (size 15 to 20)
#    0.000    1.600    2.000    3.600    5.600    2.400 
#    3.600    1.000    0.000    0.000    0.000    0.000 
#    0.000    0.000    0.000    0.000    0.000    0.000 
#
# Total GULP energy -111519.103748 kJ/mol
# GULP energy per Si atom -5575.955187 kJ/mol
# Density = 2.217949 g / cm^3
# Si number density = 22.230087 Si / 1000 Ang^3
#
#
#
# Elastic Constant Matrix: (Units=GPa)
#
#
# Indices 1 2 3 4 5 6 
#
# 1 34.4920 4.6940 12.0348 0.0000 0.0000 0.0000
# 2 4.6940 76.4548 17.6027 0.0000 0.0000 0.0000
# 3 12.0348 17.6027 135.8926 0.0000 0.0000 0.0000
# 4 0.0000 0.0000 0.0000 21.7194 0.0000 0.0000
# 5 0.0000 0.0000 0.0000 0.0000 15.4497 0.0000
# 6 0.0000 0.0000 0.0000 0.0000 0.0000 30.5147
#
#
#
# Elastic Compliance Matrix: (Units=1/GPa)
#
#
# Indices 1 2 3 4 5 6 
#
# 1 0.030036 -0.001269 -0.002496 0.000000 0.000000 0.000000
# 2 -0.001269 0.013535 -0.001641 0.000000 0.000000 0.000000
# 3 -0.002496 -0.001641 0.007792 0.000000 0.000000 0.000000
# 4 0.000000 0.000000 0.000000 0.046042 0.000000 0.000000
# 5 0.000000 0.000000 0.000000 0.000000 0.064726 0.000000
# 6 0.000000 0.000000 0.000000 0.000000 0.000000 0.032771
#
#
# Mechanical properties :
#
#
# Convention : Reuss Voigt Hill
#
# Bulk Modulus (GPa) = 24.65996 35.05582 29.85789
# Shear Modulus (GPa) = 22.80692 27.70394 25.25543
#
# Velocity S-wave (km/s) = 3.20652 3.53404 3.37425
# Velocity P-wave (km/s) = 4.98258 5.69705 5.35175
#
# Compressibility (1/GPa) = 0.04055157
#
# Stress axis : x y z
#
# Youngs Moduli (GPa) = 33.29367 73.88065 128.33168
#
# Poissons Ratio (x) = 0.09379 0.32026
# Poissons Ratio (y) = 0.04227 0.21057
# Poissons Ratio (z) = 0.08309 0.12123
#
# Static dielectric constant tensor:
#      x y z
#    x 1.703410 0.000000 0.000000 
#    y 0.000000 1.830850 0.000000 
#    z 0.000000 0.000000 1.917460 
# 
# From -- ./inp_files/3530.got.cif
#   From: 2010.05.17/outbox.cif.g08.bks.cpg/sg30_2_cif.got.tgz:3530.got - 2010.06.03 17:03:02.
