data_PCOD9342080
_publ_section_title
;
Structure prediction by ZEFSAII (Michael W. Deem and Ramdas Pophale) SiO2 
 PCOD9342080
Probable space group: P N C 2
;
_chemical_formula_sum "Si O2"
_cell_formula_units_Z 20
_cell_length_a 6.751247
_cell_length_b 10.069751
_cell_length_c 14.611773
_cell_angle_alpha 90.000000
_cell_angle_beta 90.000000
_cell_angle_gamma 90.000000
_cell_volume 993.357661
_symmetry_space_group_name_H-M "P N C 2"
_symmetry_group_IT_number 30
_symmetry_cell_setting 'orthorhombic'
loop_
_space_group_symop_operation_xyz
x,y,z
-x,-y,z
-x,1/2+y,1/2+z
x,1/2-y,1/2+z
loop_
_atom_site_type_symbol
_atom_site_label
_atom_site_fract_x
_atom_site_fract_y
_atom_site_fract_z
Si Si1 0.683800 0.801200 0.177710
Si Si2 0.000000 0.500000 0.766770
Si Si3 0.993903 0.155013 0.579067
Si Si4 0.137119 0.872772 0.934979
Si Si5 0.257621 0.752918 0.252553
Si Si6 0.500000 0.000000 0.032949
O O1 0.495011 0.762259 0.239024
O O2 0.610914 0.898743 0.098661
O O3 0.796082 0.681359 0.128562
O O4 0.856203 0.886253 0.225382
O O5 0.822752 0.395141 0.791019
O O6 0.956223 0.249204 0.491097
O O7 0.831646 0.205532 0.654383
O O8 0.000000 0.000000 0.554727
O O9 0.174805 0.846081 0.828733
O O10 0.348222 0.913172 0.975718
O O11 0.000000 0.000000 0.949521
#
# Coordination Sequence:
#
# PCOD9342080 Si02
#       6
#     4   2   4   4   4   2
#     4  11  20  43  71  96 135 185 235 280 348 420
#     4  10  20  38  70  96 132 178 232 276 344 422
#     4  11  25  45  68 100 143 183 232 289 354 421
#     4  12  26  44  70 104 139 183 239 292 353 424
#     4  11  24  41  68 105 136 182 231 298 353 415
#     4  12  20  42  72 100 126 192 238 278 344 436
#
# _framework density 20.133737
#
# number of rings (size 3 to 8) (size 9 to 14) (size 15 to 20)
#    0.000    0.800    6.000    1.800    2.800    5.600 
#    0.000    2.000    0.000    0.000    0.000    0.000 
#    0.000    0.000    0.000    0.000    0.000    0.000 
#
# Total GULP energy -111337.482445 kJ/mol
# GULP energy per Si atom -5566.874122 kJ/mol
# Density = 2.008791 g / cm^3
# Si number density = 20.133737 Si / 1000 Ang^3
#
#
#
# Elastic Constant Matrix: (Units=GPa)
#
#
# Indices 1 2 3 4 5 6 
#
# 1 107.3330 21.6617 11.4610 0.0000 0.0000 0.0000
# 2 21.6617 116.7707 6.4565 0.0000 0.0000 0.0000
# 3 11.4610 6.4565 60.2239 0.0000 0.0000 0.0000
# 4 0.0000 0.0000 0.0000 109.0801 0.0000 0.0000
# 5 0.0000 0.0000 0.0000 0.0000 51.3272 0.0000
# 6 0.0000 0.0000 0.0000 0.0000 0.0000 18.3612
#
#
#
# Elastic Compliance Matrix: (Units=1/GPa)
#
#
# Indices 1 2 3 4 5 6 
#
# 1 0.009847 -0.001733 -0.001688 0.000000 0.000000 0.000000
# 2 -0.001733 0.008920 -0.000626 0.000000 0.000000 0.000000
# 3 -0.001688 -0.000626 0.016993 0.000000 0.000000 0.000000
# 4 0.000000 0.000000 0.000000 0.009168 0.000000 0.000000
# 5 0.000000 0.000000 0.000000 0.000000 0.019483 0.000000
# 6 0.000000 0.000000 0.000000 0.000000 0.000000 0.054463
#
#
# Mechanical properties :
#
#
# Convention : Reuss Voigt Hill
#
# Bulk Modulus (GPa) = 36.14774 40.38734 38.26754
# Shear Modulus (GPa) = 36.71339 52.07027 44.39183
#
# Velocity S-wave (km/s) = 4.27485 5.09101 4.70067
# Velocity P-wave (km/s) = 6.50835 7.39330 6.96489
#
# Compressibility (1/GPa) = 0.02766425
#
# Stress axis : x y z
#
# Youngs Moduli (GPa) = 101.55516 112.10799 58.84737
#
# Poissons Ratio (x) = 0.19432 0.09934
# Poissons Ratio (y) = 0.17603 0.03686
# Poissons Ratio (z) = 0.17144 0.07023
#
# Static dielectric constant tensor:
#      x y z
#    x 1.881330 0.000000 0.000000 
#    y 0.000000 1.722730 0.000000 
#    z 0.000000 0.000000 1.721190 
# 
# From -- ./inp_files/5857.got.cif
#   From: 2010.05.17/outbox.cif.g08.bks.cpg/sg30_3_cif.got.tgz:5857.got - 2010.06.03 17:03:02.
