data_PCOD9342284
_publ_section_title
;
Structure prediction by ZEFSAII (Michael W. Deem and Ramdas Pophale) SiO2 
 PCOD9342284
Probable space group: P N C 2
;
_chemical_formula_sum "Si O2"
_cell_formula_units_Z 28
_cell_length_a 9.511035
_cell_length_b 23.341968
_cell_length_c 5.046426
_cell_angle_alpha 90.000000
_cell_angle_beta 90.000000
_cell_angle_gamma 90.000000
_cell_volume 1120.338236
_symmetry_space_group_name_H-M "P N C 2"
_symmetry_group_IT_number 30
_symmetry_cell_setting 'orthorhombic'
loop_
_space_group_symop_operation_xyz
x,y,z
-x,-y,z
-x,1/2+y,1/2+z
x,1/2-y,1/2+z
loop_
_atom_site_type_symbol
_atom_site_label
_atom_site_fract_x
_atom_site_fract_y
_atom_site_fract_z
Si Si1 0.337868 0.865117 0.466880
Si Si2 0.000000 0.000000 0.616411
Si Si3 0.240268 0.350664 0.605613
Si Si4 0.478134 0.712678 0.617645
Si Si5 0.500000 0.000000 0.909363
Si Si6 0.945899 0.380912 0.802563
Si Si7 0.365948 0.103226 0.603214
Si Si8 0.237749 0.950148 0.894233
O O1 0.393037 0.845807 0.174584
O O2 0.173992 0.844073 0.457035
O O3 0.493163 0.856971 0.603758
O O4 0.298642 0.923635 0.622680
O O5 0.991582 0.059774 0.454250
O O6 0.865139 0.999222 0.806579
O O7 0.354274 0.299469 0.629569
O O8 0.253270 0.369349 0.301684
O O9 0.081780 0.346070 0.707106
O O10 0.308971 0.397768 0.805589
O O11 0.435007 0.747043 0.360991
O O12 0.583016 0.955597 0.725805
O O13 0.373694 0.969202 0.062361
O O14 0.859876 0.406487 0.552840
#
# Coordination Sequence:
#
# PCOD9342284 Si02
#       8
#     4   2   4   4   2   4   4   4
#     4   9  23  42  64  96 130 171 221 280 350 396
#     4  10  22  40  56  98 134 190 234 264 330 390
#     4  11  25  43  68  98 132 174 216 280 352 400
#     4  11  24  46  75  98 127 167 229 287 352 431
#     4  10  22  36  60  92 132 180 238 264 302 380
#     4  11  24  39  68  94 145 182 228 278 339 409
#     4  10  23  41  64  95 135 181 227 274 323 395
#     4  10  22  39  60  92 139 179 226 278 321 397
#
# _framework density 24.992452
#
# number of rings (size 3 to 8) (size 9 to 14) (size 15 to 20)
#    0.000    1.714    0.000    3.000   18.000    0.571 
#    0.000    1.429    0.000    0.000    0.000    0.000 
#    0.000    0.000    0.000    0.000    0.000    0.000 
#
# Total GULP energy -155917.879427 kJ/mol
# GULP energy per Si atom -5568.495694 kJ/mol
# Density = 2.493557 g / cm^3
# Si number density = 24.992452 Si / 1000 Ang^3
#
#
#
# Elastic Constant Matrix: (Units=GPa)
#
#
# Indices 1 2 3 4 5 6 
#
# 1 180.8400 2.0945 14.7811 0.0000 0.0000 0.0000
# 2 2.0945 39.7795 23.2823 0.0000 0.0000 0.0000
# 3 14.7811 23.2823 92.7042 0.0000 0.0000 0.0000
# 4 0.0000 0.0000 0.0000 33.7897 0.0000 0.0000
# 5 0.0000 0.0000 0.0000 0.0000 38.1765 0.0000
# 6 0.0000 0.0000 0.0000 0.0000 0.0000 29.6321
#
#
#
# Elastic Compliance Matrix: (Units=1/GPa)
#
#
# Indices 1 2 3 4 5 6 
#
# 1 0.005605 0.000267 -0.000961 0.000000 0.000000 0.000000
# 2 0.000267 0.029483 -0.007447 0.000000 0.000000 0.000000
# 3 -0.000961 -0.007447 0.012811 0.000000 0.000000 0.000000
# 4 0.000000 0.000000 0.000000 0.029595 0.000000 0.000000
# 5 0.000000 0.000000 0.000000 0.000000 0.026194 0.000000
# 6 0.000000 0.000000 0.000000 0.000000 0.000000 0.033747
#
#
# Mechanical properties :
#
#
# Convention : Reuss Voigt Hill
#
# Bulk Modulus (GPa) = 31.62821 43.73772 37.68297
# Shear Modulus (GPa) = 30.44031 38.53072 34.48551
#
# Velocity S-wave (km/s) = 3.49374 3.93070 3.71865
# Velocity P-wave (km/s) = 5.38122 6.17567 5.79208
#
# Compressibility (1/GPa) = 0.03161734
#
# Stress axis : x y z
#
# Youngs Moduli (GPa) = 178.40617 33.91757 78.06072
#
# Poissons Ratio (x) = -0.00906 0.07500
# Poissons Ratio (y) = -0.04768 0.58134
# Poissons Ratio (z) = 0.17142 0.25259
#
# Static dielectric constant tensor:
#      x y z
#    x 2.040690 0.000000 0.000000 
#    y 0.000000 2.264430 0.000000 
#    z 0.000000 0.000000 2.076080 
# 
# From -- ./inp_files/531.got.cif
#   From: 2010.05.17/outbox.cif.g08.bks.cpg/sg30_1_cif.got.tgz:531.got - 2010.06.03 17:03:02.
