data_PCOD9342166
_publ_section_title
;
Structure prediction by ZEFSAII (Michael W. Deem and Ramdas Pophale) SiO2 
 PCOD9342166
Probable space group: P N C 2
;
_chemical_formula_sum "Si O2"
_cell_formula_units_Z 24
_cell_length_a 8.800489
_cell_length_b 5.244259
_cell_length_c 26.004610
_cell_angle_alpha 90.000000
_cell_angle_beta 90.000000
_cell_angle_gamma 90.000000
_cell_volume 1200.165896
_symmetry_space_group_name_H-M "P N C 2"
_symmetry_group_IT_number 30
_symmetry_cell_setting 'orthorhombic'
loop_
_space_group_symop_operation_xyz
x,y,z
-x,-y,z
-x,1/2+y,1/2+z
x,1/2-y,1/2+z
loop_
_atom_site_type_symbol
_atom_site_label
_atom_site_fract_x
_atom_site_fract_y
_atom_site_fract_z
Si Si1 0.095940 0.234678 0.856590
Si Si2 0.500000 0.500000 0.112666
Si Si3 0.399500 0.254357 0.421491
Si Si4 0.000000 0.500000 0.691124
Si Si5 0.000000 0.500000 0.257968
Si Si6 0.246054 0.838775 0.123181
Si Si7 0.000000 0.500000 0.074213
Si Si8 0.724615 0.705413 0.536373
O O1 0.252564 0.274298 0.885658
O O2 0.000000 0.500000 0.854416
O O3 0.120238 0.117915 0.799165
O O4 0.000000 0.000000 0.882126
O O5 0.399081 0.706704 0.143182
O O6 0.380858 0.367026 0.074779
O O7 0.500000 0.500000 0.407073
O O8 0.339883 0.295126 0.479674
O O9 0.500000 0.000000 0.419860
O O10 0.155323 0.457038 0.657759
O O11 0.961969 0.247542 0.724253
O O12 0.112621 0.642667 0.112171
O O13 0.279919 0.937501 0.065588
O O14 0.104691 0.315518 0.039932
#
# Coordination Sequence:
#
# PCOD9342166 Si02
#       8
#     4   2   4   2   2   4   2   4
#     4  10  22  46  71  98 123 172 219 281 337 395
#     4  10  22  38  56  82 144 168 222 244 332 360
#     4  12  26  42  68 101 139 180 218 265 337 408
#     4  12  22  40  72  94 127 163 230 270 344 392
#     4  10  23  44  71  96 121 164 220 293 344 384
#     4  11  22  38  61  95 126 179 212 278 306 401
#     4  10  21  36  57  90 132 169 230 259 304 362
#     4  11  22  39  58  92 136 182 215 260 312 390
#
# _framework density 19.997235
#
# number of rings (size 3 to 8) (size 9 to 14) (size 15 to 20)
#    0.500    0.667    3.333    3.000    5.833    1.333 
#    0.000    0.000    5.500    0.000    0.000    0.000 
#    0.000    0.000    0.000    0.000    0.000    0.000 
#
# Total GULP energy -133741.927672 kJ/mol
# GULP energy per Si atom -5572.580320 kJ/mol
# Density = 1.995172 g / cm^3
# Si number density = 19.997235 Si / 1000 Ang^3
#
#
#
# Elastic Constant Matrix: (Units=GPa)
#
#
# Indices 1 2 3 4 5 6 
#
# 1 125.7478 55.7780 43.5159 0.0000 0.0000 0.0000
# 2 55.7780 132.6824 35.2175 0.0000 0.0000 0.0000
# 3 43.5159 35.2175 83.1923 0.0000 0.0000 0.0000
# 4 0.0000 0.0000 0.0000 18.3331 0.0000 0.0000
# 5 0.0000 0.0000 0.0000 0.0000 6.5949 0.0000
# 6 0.0000 0.0000 0.0000 0.0000 0.0000 40.9314
#
#
#
# Elastic Compliance Matrix: (Units=1/GPa)
#
#
# Indices 1 2 3 4 5 6 
#
# 1 0.010973 -0.003480 -0.004266 0.000000 0.000000 0.000000
# 2 -0.003480 0.009595 -0.002241 0.000000 0.000000 0.000000
# 3 -0.004266 -0.002241 0.015201 0.000000 0.000000 0.000000
# 4 0.000000 0.000000 0.000000 0.054546 0.000000 0.000000
# 5 0.000000 0.000000 0.000000 0.000000 0.151631 0.000000
# 6 0.000000 0.000000 0.000000 0.000000 0.000000 0.024431
#
#
# Mechanical properties :
#
#
# Convention : Reuss Voigt Hill
#
# Bulk Modulus (GPa) = 63.32129 67.84948 65.58538
# Shear Modulus (GPa) = 17.14583 26.97931 22.06257
#
# Velocity S-wave (km/s) = 2.93133 3.67707 3.32517
# Velocity P-wave (km/s) = 6.57196 7.21324 6.90006
#
# Compressibility (1/GPa) = 0.01579248
#
# Stress axis : x y z
#
# Youngs Moduli (GPa) = 91.13658 104.22337 65.78682
#
# Poissons Ratio (x) = 0.36274 0.28066
# Poissons Ratio (y) = 0.31719 0.14744
# Poissons Ratio (z) = 0.38880 0.23359
#
# Static dielectric constant tensor:
#      x y z
#    x 1.667610 0.000000 0.000000 
#    y 0.000000 1.769030 0.000000 
#    z 0.000000 0.000000 1.724310 
# 
# From -- ./inp_files/7347.got.cif
#   From: 2010.05.17/outbox.cif.g08.bks.cpg/sg30_4_cif.got.tgz:7347.got - 2010.06.03 17:03:02.
