data_PCOD9342957
_publ_section_title
;
Structure prediction by ZEFSAII (Michael W. Deem and Ramdas Pophale) SiO2 
 PCOD9342957
Probable space group: P M N 21
;
_chemical_formula_sum "Si O2"
_cell_formula_units_Z 26
_cell_length_a 7.424129
_cell_length_b 16.379569
_cell_length_c 7.802246
_cell_angle_alpha 90.000000
_cell_angle_beta 90.000000
_cell_angle_gamma 90.000000
_cell_volume 948.784582
_symmetry_space_group_name_H-M "P M N 21"
_symmetry_group_IT_number 31
_symmetry_cell_setting 'orthorhombic'
loop_
_space_group_symop_operation_xyz
x,y,z
1/2-x,-y,1/2+z
-x,y,z
1/2+x,-y,1/2+z
loop_
_atom_site_type_symbol
_atom_site_label
_atom_site_fract_x
_atom_site_fract_y
_atom_site_fract_z
Si Si1 0.714012 0.075701 0.851690
Si Si2 0.712903 0.526215 0.249510
Si Si3 0.216866 0.184232 0.193547
Si Si4 0.287755 0.624906 0.928928
Si Si5 0.792445 0.340990 0.992313
Si Si6 0.213998 0.768073 0.161063
Si Si7 0.500000 0.072376 0.352715
O O1 0.500000 0.055323 0.832993
O O2 0.766711 0.138455 0.699395
O O3 0.842071 0.998588 0.855249
O O4 0.740613 0.125779 0.028002
O O5 0.500000 0.542389 0.249917
O O6 0.792737 0.570105 0.083809
O O7 0.731339 0.428967 0.265901
O O8 0.790630 0.576374 0.412384
O O9 0.275676 0.275153 0.131823
O O10 0.000000 0.183491 0.222715
O O11 0.343177 0.142982 0.333210
O O12 0.500000 0.616434 0.927448
O O13 0.256972 0.716851 0.990880
O O14 0.000000 0.356185 0.040316
O O15 0.794622 0.284723 0.818043
O O16 0.000000 0.766938 0.185145
#
# Coordination Sequence:
#
# PCOD9342957 Si02
#       7
#     4   4   4   4   4   4   2
#     4  10  20  35  54  83 110 140 184 232 279 327
#     4   9  18  33  51  78 110 142 179 224 271 319
#     4  10  19  35  55  82 111 141 182 232 280 328
#     4  10  20  32  51  81 109 143 181 225 271 322
#     4   8  16  30  51  76 106 133 170 227 276 319
#     4   9  17  29  51  77 104 133 173 225 274 321
#     4  12  22  32  58  82 106 148 170 234 284 332
#
# _framework density 27.403480999999999
#
# number of rings (size 3 to 8) (size 9 to 14) (size 15 to 20)
#    0.000    2.462    1.538    2.308    3.231    3.077 
#    0.000    0.000    0.000    1.846    4.000    0.000 
#    0.000    0.000    0.000    0.000    0.000    0.000 
#
# Total GULP energy -144989.503329 kJ/mol
# GULP energy per Si atom -5576.519359 kJ/mol
# Density = 2.734111 g / cm^3
# Si number density = 27.403481 Si / 1000 Ang^3
#
#
#
# Elastic Constant Matrix: (Units=GPa)
#
#
# Indices 1 2 3 4 5 6 
#
# 1 151.6367 35.3524 -4.3795 0.0000 0.0000 0.0000
# 2 35.3524 188.5208 3.3825 0.0000 0.0000 0.0000
# 3 -4.3795 3.3825 86.5621 0.0000 0.0000 0.0000
# 4 0.0000 0.0000 0.0000 13.5923 0.0000 0.0000
# 5 0.0000 0.0000 0.0000 0.0000 74.6357 0.0000
# 6 0.0000 0.0000 0.0000 0.0000 0.0000 36.9144
#
#
#
# Elastic Compliance Matrix: (Units=1/GPa)
#
#
# Indices 1 2 3 4 5 6 
#
# 1 0.006910 -0.001303 0.000401 0.000000 0.000000 0.000000
# 2 -0.001303 0.005554 -0.000283 0.000000 0.000000 0.000000
# 3 0.000401 -0.000283 0.011584 0.000000 0.000000 0.000000
# 4 0.000000 0.000000 0.000000 0.073571 0.000000 0.000000
# 5 0.000000 0.000000 0.000000 0.000000 0.013398 0.000000
# 6 0.000000 0.000000 0.000000 0.000000 0.000000 0.027090
#
#
# Mechanical properties :
#
#
# Convention : Reuss Voigt Hill
#
# Bulk Modulus (GPa) = 46.13224 55.04782 50.59003
# Shear Modulus (GPa) = 33.85164 51.18608 42.51886
#
# Velocity S-wave (km/s) = 3.51850 4.32657 3.94329
# Velocity P-wave (km/s) = 5.77732 6.71494 6.26370
#
# Compressibility (1/GPa) = 0.02167681
#
# Stress axis : x y z
#
# Youngs Moduli (GPa) = 144.71661 180.05438 86.32801
#
# Poissons Ratio (x) = 0.23461 -0.03458
# Poissons Ratio (y) = 0.18857 0.02443
# Poissons Ratio (z) = -0.05796 0.05095
#
# Static dielectric constant tensor:
#      x y z
#    x 1.981930 0.000000 0.000000 
#    y 0.000000 2.138400 0.000000 
#    z 0.000000 0.000000 2.420720 
# 
# From -- ./inp_files/3528.got.cif
#   From: 2010.05.17/outbox.cif.g08.bks.cpg/sg31_2_cif.got.tgz:3528.got - 2010.06.03 17:08:30.
