data_PCOD9342215
_publ_section_title
;
Structure prediction by ZEFSAII (Michael W. Deem and Ramdas Pophale) SiO2 
 PCOD9342215
Probable space group: P N C 2
;
_chemical_formula_sum "Si O2"
_cell_formula_units_Z 32
_cell_length_a 7.768432
_cell_length_b 15.495565
_cell_length_c 11.892988
_cell_angle_alpha 90.000000
_cell_angle_beta 90.000000
_cell_angle_gamma 90.000000
_cell_volume 1431.633214
_symmetry_space_group_name_H-M "P N C 2"
_symmetry_group_IT_number 30
_symmetry_cell_setting 'orthorhombic'
loop_
_space_group_symop_operation_xyz
x,y,z
-x,-y,z
-x,1/2+y,1/2+z
x,1/2-y,1/2+z
loop_
_atom_site_type_symbol
_atom_site_label
_atom_site_fract_x
_atom_site_fract_y
_atom_site_fract_z
Si Si1 0.225169 0.663705 0.183510
Si Si2 0.265672 0.648753 0.625123
Si Si3 0.795660 0.003370 0.301922
Si Si4 0.861992 0.075212 0.892709
Si Si5 0.330642 0.354067 0.644663
Si Si6 0.292281 0.492018 0.064201
Si Si7 0.637119 0.938415 0.935235
Si Si8 0.638712 0.834338 0.714867
O O1 0.180755 0.757212 0.135929
O O2 0.132116 0.651065 0.303675
O O3 0.195884 0.575758 0.114896
O O4 0.433859 0.668264 0.189747
O O5 0.255927 0.592146 0.738732
O O6 0.176167 0.603941 0.518831
O O7 0.470799 0.657179 0.603475
O O8 0.699438 0.924711 0.239934
O O9 0.755577 0.992788 0.433174
O O10 0.000000 0.000000 0.284922
O O11 0.695008 0.019031 0.856521
O O12 0.000000 0.000000 0.885908
O O13 0.246537 0.397238 0.533813
O O14 0.282678 0.259563 0.688597
O O15 0.500000 0.500000 0.070056
O O16 0.264558 0.405128 0.137313
O O17 0.631918 0.861938 0.845446
O O18 0.500000 0.000000 0.001184
#
# Coordination Sequence:
#
# PCOD9342215 Si02
#       8
#     4   4   4   4   4   4   4   4
#     4  10  22  41  69  96 128 168 222 278 325 384
#     4  11  23  42  68  96 125 170 228 274 320 389
#     4  12  26  44  60  91 138 175 208 266 334 395
#     4  12  24  42  66  99 133 178 219 268 341 400
#     4  11  23  39  69  98 126 172 221 275 328 379
#     4  10  21  42  66  95 129 169 214 266 325 388
#     4  12  19  41  67  92 131 169 221 278 322 382
#     4  10  21  39  68 103 126 163 226 278 321 379
#
# _framework density 22.352094000000001
#
# number of rings (size 3 to 8) (size 9 to 14) (size 15 to 20)
#    0.000    1.000    5.000    1.875    3.500    0.500 
#    2.250    0.000    0.000    0.000    0.000    0.000 
#    0.000    0.000    0.000    0.000    0.000    0.000 
#
# Total GULP energy -178254.479473 kJ/mol
# GULP energy per Si atom -5570.452484 kJ/mol
# Density = 2.230122 g / cm^3
# Si number density = 22.352094 Si / 1000 Ang^3
#
#
#
# Elastic Constant Matrix: (Units=GPa)
#
#
# Indices 1 2 3 4 5 6 
#
# 1 34.5417 7.3271 -2.7461 0.0000 0.0000 0.0000
# 2 7.3271 174.3594 69.1096 0.0000 0.0000 0.0000
# 3 -2.7461 69.1096 135.2823 0.0000 0.0000 0.0000
# 4 0.0000 0.0000 0.0000 29.6235 0.0000 0.0000
# 5 0.0000 0.0000 0.0000 0.0000 -0.7476 0.0000
# 6 0.0000 0.0000 0.0000 0.0000 0.0000 8.3607
#
#
#
# Elastic Compliance Matrix: (Units=1/GPa)
#
#
# Indices 1 2 3 4 5 6 
#
# 1 0.029466 -0.001850 0.001543 0.000000 0.000000 0.000000
# 2 -0.001850 0.007308 -0.003771 0.000000 0.000000 0.000000
# 3 0.001543 -0.003771 0.009350 0.000000 0.000000 0.000000
# 4 0.000000 0.000000 0.000000 0.033757 0.000000 0.000000
# 5 0.000000 0.000000 0.000000 0.000000 -1.337563 0.000000
# 6 0.000000 0.000000 0.000000 0.000000 0.000000 0.119607
#
#
# Mechanical properties :
#
#
# Convention : Reuss Voigt Hill
#
# Bulk Modulus (GPa) = 26.33801 54.61828 40.47815
# Shear Modulus (GPa) = -4.47521 25.48015 10.50247
#
# Velocity S-wave (km/s) = -1.41651 3.37997 2.16999
# Velocity P-wave (km/s) = 3.02217 6.30244 4.94238
#
# Compressibility (1/GPa) = 0.03796794
#
# Stress axis : x y z
#
# Youngs Moduli (GPa) = 33.93787 136.84446 106.95722
#
# Poissons Ratio (x) = 0.25315 -0.16505
# Poissons Ratio (y) = 0.06278 0.40330
# Poissons Ratio (z) = -0.05237 0.51599
#
# Static dielectric constant tensor:
#      x y z
#    x 2.291390 0.000000 0.000000 
#    y 0.000000 1.902440 0.000000 
#    z 0.000000 0.000000 1.798280 
# 
# From -- ./inp_files/3763.got.cif
#   From: 2010.05.17/outbox.cif.g08.bks.cpg/sg30_2_cif.got.tgz:3763.got - 2010.06.03 17:03:02.
