data_PCOD9342055
_publ_section_title
;
Structure prediction by ZEFSAII (Michael W. Deem and Ramdas Pophale) SiO2 
 PCOD9342055
Probable space group: P N C 2
;
_chemical_formula_sum "Si O2"
_cell_formula_units_Z 16
_cell_length_a 7.401692
_cell_length_b 4.961525
_cell_length_c 17.253111
_cell_angle_alpha 90.000000
_cell_angle_beta 90.000000
_cell_angle_gamma 90.000000
_cell_volume 633.597726
_symmetry_space_group_name_H-M "P N C 2"
_symmetry_group_IT_number 30
_symmetry_cell_setting 'orthorhombic'
loop_
_space_group_symop_operation_xyz
x,y,z
-x,-y,z
-x,1/2+y,1/2+z
x,1/2-y,1/2+z
loop_
_atom_site_type_symbol
_atom_site_label
_atom_site_fract_x
_atom_site_fract_y
_atom_site_fract_z
Si Si1 0.780349 0.963918 0.519440
Si Si2 0.299860 0.610663 0.259783
Si Si3 0.216613 0.534230 0.433082
Si Si4 0.810220 0.631462 0.667769
O O1 0.719493 0.767567 0.449995
O O2 0.728817 0.803656 0.596899
O O3 0.716953 0.263512 0.500341
O O4 0.000000 0.000000 0.522697
O O5 0.500000 0.500000 0.250769
O O6 0.264228 0.655389 0.350285
O O7 0.172317 0.363754 0.232403
O O8 0.283488 0.877141 0.207952
O O9 0.000000 0.500000 0.436846
O O10 0.000000 0.500000 0.641506
#
# Coordination Sequence:
#
# PCOD9342055 Si02
#       4
#     4   4   4   4
#     4  10  20  37  65  97 126 159 216 279 323 374
#     4  12  26  43  64  99 140 177 216 269 329 393
#     4  10  20  38  64  94 126 168 217 268 324 386
#     4  12  23  42  70  98 129 174 224 272 327 393
#
# _framework density 25.252617000000001
#
# number of rings (size 3 to 8) (size 9 to 14) (size 15 to 20)
#    0.000    1.000    0.000    9.750    0.000    2.000 
#    0.000    5.000    0.000    3.000    0.000    0.000 
#    0.000    0.000    0.000    0.000    0.000    0.000 
#
# Total GULP energy -89501.978242 kJ/mol
# GULP energy per Si atom -5593.873640 kJ/mol
# Density = 2.519514 g / cm^3
# Si number density = 25.252617 Si / 1000 Ang^3
#
#
#
# Elastic Constant Matrix: (Units=GPa)
#
#
# Indices 1 2 3 4 5 6 
#
# 1 66.5971 37.3104 14.7591 0.0000 0.0000 0.0000
# 2 37.3104 211.6126 77.2116 0.0000 0.0000 0.0000
# 3 14.7591 77.2116 145.0617 0.0000 0.0000 0.0000
# 4 0.0000 0.0000 0.0000 49.6675 0.0000 0.0000
# 5 0.0000 0.0000 0.0000 0.0000 -6.8436 0.0000
# 6 0.0000 0.0000 0.0000 0.0000 0.0000 18.0989
#
#
#
# Elastic Compliance Matrix: (Units=1/GPa)
#
#
# Indices 1 2 3 4 5 6 
#
# 1 0.016665 -0.002879 -0.000163 0.000000 0.000000 0.000000
# 2 -0.002879 0.006362 -0.003093 0.000000 0.000000 0.000000
# 3 -0.000163 -0.003093 0.008557 0.000000 0.000000 0.000000
# 4 0.000000 0.000000 0.000000 0.020134 0.000000 0.000000
# 5 0.000000 0.000000 0.000000 0.000000 -0.146122 0.000000
# 6 0.000000 0.000000 0.000000 0.000000 0.000000 0.055252
#
#
# Mechanical properties :
#
#
# Convention : Reuss Voigt Hill
#
# Bulk Modulus (GPa) = 51.77964 75.75929 63.76946
# Shear Modulus (GPa) = -244.55770 31.78391 -106.38689
#
# Velocity S-wave (km/s) = -9.85164 3.55158 -6.49773
# Velocity P-wave (km/s) = 10.43346 6.84719 5.56656
#
# Compressibility (1/GPa) = 0.01931261
#
# Stress axis : x y z
#
# Youngs Moduli (GPa) = 60.00752 157.18763 116.86744
#
# Poissons Ratio (x) = 0.45248 0.01909
# Poissons Ratio (y) = 0.17274 0.36151
# Poissons Ratio (z) = 0.00980 0.48623
#
# Static dielectric constant tensor:
#      x y z
#    x 2.065540 0.000000 0.000000 
#    y 0.000000 1.924740 0.000000 
#    z 0.000000 0.000000 2.000080 
# 
# From -- ./inp_files/6126.got.cif
#   From: 2010.05.17/outbox.cif.g08.bks.cpg/sg30_4_cif.got.tgz:6126.got - 2010.06.03 17:03:02.
