data_PCOD9342941
_publ_section_title
;
Structure prediction by ZEFSAII (Michael W. Deem and Ramdas Pophale) SiO2 
 PCOD9342941
Probable space group: P M N 21
;
_chemical_formula_sum "Si O2"
_cell_formula_units_Z 32
_cell_length_a 8.707786
_cell_length_b 11.062916
_cell_length_c 14.398528
_cell_angle_alpha 90.000000
_cell_angle_beta 90.000000
_cell_angle_gamma 90.000000
_cell_volume 1387.060670
_symmetry_space_group_name_H-M "P M N 21"
_symmetry_group_IT_number 31
_symmetry_cell_setting 'orthorhombic'
loop_
_space_group_symop_operation_xyz
x,y,z
1/2-x,-y,1/2+z
-x,y,z
1/2+x,-y,1/2+z
loop_
_atom_site_type_symbol
_atom_site_label
_atom_site_fract_x
_atom_site_fract_y
_atom_site_fract_z
Si Si1 0.817632 0.321005 0.427090
Si Si2 0.181130 0.820995 0.532051
Si Si3 0.684106 0.443170 0.259938
Si Si4 0.680227 0.938058 0.364313
Si Si5 0.686394 0.445576 0.044693
Si Si6 0.318106 0.300526 0.771925
Si Si7 0.677618 0.176586 0.582394
Si Si8 0.820108 0.069718 0.200069
O O1 0.742378 0.336186 0.326308
O O2 0.761590 0.438472 0.486820
O O3 0.775438 0.207958 0.492135
O O4 0.000000 0.326922 0.415841
O O5 0.268957 0.918991 0.470054
O O6 0.228273 0.685298 0.503823
O O7 0.221135 0.837578 0.640166
O O8 0.000000 0.835290 0.517611
O O9 0.500000 0.447840 0.262597
O O10 0.734637 0.440735 0.152387
O O11 0.755795 0.568522 0.297351
O O12 0.500000 0.958168 0.357325
O O13 0.728708 0.809518 0.319261
O O14 0.766927 0.038435 0.303579
O O15 0.500000 0.450726 0.044845
O O16 0.500000 0.289287 0.792851
O O17 0.297770 0.278947 0.661366
O O18 0.500000 0.177506 0.553684
O O19 0.703455 0.054907 0.641334
O O20 0.000000 0.100439 0.198334
#
# Coordination Sequence:
#
# PCOD9342941 Si02
#       8
#     4   4   4   4   4   4   4   4
#     4  11  21  36  58  87 120 156 198 244 299 362
#     4  11  22  41  65  90 123 164 207 256 312 368
#     4  11  21  36  56  84 119 161 202 241 299 367
#     4  11  22  38  63  94 121 160 208 254 308 369
#     4   9  21  39  59  85 122 161 196 245 302 360
#     4  10  19  34  57  86 119 154 196 252 301 347
#     4   9  19  36  58  82 112 149 190 244 300 351
#     4  10  22  42  64  90 122 157 203 260 309 362
#
# _framework density 23.070366
#
# number of rings (size 3 to 8) (size 9 to 14) (size 15 to 20)
#    0.000    1.750    1.250    4.500    0.000    3.500 
#    2.250    4.375    0.000    0.000    0.000    0.000 
#    0.000    0.000    0.000    0.000    0.000    0.000 
#
# Total GULP energy -178982.646188 kJ/mol
# GULP energy per Si atom -5593.207693 kJ/mol
# Density = 2.301786 g / cm^3
# Si number density = 23.070366 Si / 1000 Ang^3
#
#
#
# Elastic Constant Matrix: (Units=GPa)
#
#
# Indices 1 2 3 4 5 6 
#
# 1 45.4832 -0.2313 19.1736 0.0000 0.0000 0.0000
# 2 -0.2313 37.7128 2.3124 0.0000 0.0000 0.0000
# 3 19.1736 2.3124 113.9044 0.0000 0.0000 0.0000
# 4 0.0000 0.0000 0.0000 40.6453 0.0000 0.0000
# 5 0.0000 0.0000 0.0000 0.0000 33.4328 0.0000
# 6 0.0000 0.0000 0.0000 0.0000 0.0000 16.2570
#
#
#
# Elastic Compliance Matrix: (Units=1/GPa)
#
#
# Indices 1 2 3 4 5 6 
#
# 1 0.023671 0.000390 -0.003993 0.000000 0.000000 0.000000
# 2 0.000390 0.026556 -0.000605 0.000000 0.000000 0.000000
# 3 -0.003993 -0.000605 0.009464 0.000000 0.000000 0.000000
# 4 0.000000 0.000000 0.000000 0.024603 0.000000 0.000000
# 5 0.000000 0.000000 0.000000 0.000000 0.029911 0.000000
# 6 0.000000 0.000000 0.000000 0.000000 0.000000 0.061512
#
#
# Mechanical properties :
#
#
# Convention : Reuss Voigt Hill
#
# Bulk Modulus (GPa) = 19.50233 26.62330 23.06282
# Shear Modulus (GPa) = 24.84805 29.79005 27.31905
#
# Velocity S-wave (km/s) = 3.28541 3.59732 3.44490
# Velocity P-wave (km/s) = 4.78160 5.36837 5.08346
#
# Compressibility (1/GPa) = 0.05127592
#
# Stress axis : x y z
#
# Youngs Moduli (GPa) = 42.24542 37.65673 105.66767
#
# Poissons Ratio (x) = -0.01468 0.42188
# Poissons Ratio (y) = -0.01647 0.06390
# Poissons Ratio (z) = 0.16867 0.02277
#
# Static dielectric constant tensor:
#      x y z
#    x 1.759390 0.000000 0.000000 
#    y 0.000000 1.943650 0.000000 
#    z 0.000000 0.000000 1.902860 
# 
# From -- ./inp_files/4929.got.cif
#   From: 2010.05.17/outbox.cif.g08.bks.cpg/sg31_3_cif.got.tgz:4929.got - 2010.06.03 17:08:30.
