data_PCOD9342106
_publ_section_title
;
Structure prediction by ZEFSAII (Michael W. Deem and Ramdas Pophale) SiO2 
 PCOD9342106
Probable space group: P N C 2
;
_chemical_formula_sum "Si O2"
_cell_formula_units_Z 32
_cell_length_a 12.086541
_cell_length_b 8.568891
_cell_length_c 14.046114
_cell_angle_alpha 90.000000
_cell_angle_beta 90.000000
_cell_angle_gamma 90.000000
_cell_volume 1454.731480
_symmetry_space_group_name_H-M "P N C 2"
_symmetry_group_IT_number 30
_symmetry_cell_setting 'orthorhombic'
loop_
_space_group_symop_operation_xyz
x,y,z
-x,-y,z
-x,1/2+y,1/2+z
x,1/2-y,1/2+z
loop_
_atom_site_type_symbol
_atom_site_label
_atom_site_fract_x
_atom_site_fract_y
_atom_site_fract_z
Si Si1 0.944070 0.343318 0.226620
Si Si2 0.662268 0.868620 0.621861
Si Si3 0.770052 0.428458 0.386369
Si Si4 0.834094 0.667692 0.733511
Si Si5 0.539446 0.321611 0.404770
Si Si6 0.206894 0.875349 0.108415
Si Si7 0.421446 0.716874 0.115540
Si Si8 0.305512 0.286748 0.900277
O O1 0.868978 0.388050 0.316607
O O2 0.867508 0.262644 0.148833
O O3 0.000000 0.500000 0.188458
O O4 0.043785 0.228382 0.254992
O O5 0.760630 0.806049 0.686730
O O6 0.548467 0.777337 0.647212
O O7 0.689921 0.840346 0.510164
O O8 0.631158 0.048669 0.637350
O O9 0.655545 0.345897 0.352043
O O10 0.794111 0.377757 0.494573
O O11 0.746706 0.613145 0.394550
O O12 0.836411 0.533342 0.654939
O O13 0.769026 0.614010 0.828329
O O14 0.500000 0.500000 0.427546
O O15 0.567590 0.231689 0.501370
O O16 0.432270 0.234109 0.365085
O O17 0.333859 0.849012 0.141775
#
# Coordination Sequence:
#
# PCOD9342106 Si02
#       8
#     4   4   4   4   4   4   4   4
#     4  12  26  44  66  94 130 171 234 280 324 405
#     4  10  21  41  66  98 136 175 219 273 338 403
#     4  10  21  44  70  93 134 185 214 274 348 404
#     4  12  25  41  64 100 132 171 232 282 321 408
#     4   8  17  35  66  97 129 171 222 264 335 410
#     4  11  25  45  70 100 132 175 223 283 343 400
#     4   9  20  38  65  97 136 172 216 271 338 408
#     4  10  20  40  69  98 133 175 214 275 339 400
#
# _framework density 21.997185999999999
#
# number of rings (size 3 to 8) (size 9 to 14) (size 15 to 20)
#    0.000    1.750    2.500    1.125    1.750    5.000 
#    4.500    5.000    0.000    0.000    0.000    0.000 
#    0.000    0.000    0.000    0.000    0.000    0.000 
#
# Total GULP energy -178879.870926 kJ/mol
# GULP energy per Si atom -5589.995966 kJ/mol
# Density = 2.194712 g / cm^3
# Si number density = 21.997186 Si / 1000 Ang^3
#
#
#
# Elastic Constant Matrix: (Units=GPa)
#
#
# Indices 1 2 3 4 5 6 
#
# 1 132.5678 26.8739 40.1614 0.0000 0.0000 0.0000
# 2 26.8739 32.3756 20.5410 0.0000 0.0000 0.0000
# 3 40.1614 20.5410 118.3792 0.0000 0.0000 0.0000
# 4 0.0000 0.0000 0.0000 22.3991 0.0000 0.0000
# 5 0.0000 0.0000 0.0000 0.0000 27.6831 0.0000
# 6 0.0000 0.0000 0.0000 0.0000 0.0000 30.0598
#
#
#
# Elastic Compliance Matrix: (Units=1/GPa)
#
#
# Indices 1 2 3 4 5 6 
#
# 1 0.009507 -0.006568 -0.002086 0.000000 0.000000 0.000000
# 2 -0.006568 0.039246 -0.004582 0.000000 0.000000 0.000000
# 3 -0.002086 -0.004582 0.009950 0.000000 0.000000 0.000000
# 4 0.000000 0.000000 0.000000 0.044645 0.000000 0.000000
# 5 0.000000 0.000000 0.000000 0.000000 0.036123 0.000000
# 6 0.000000 0.000000 0.000000 0.000000 0.000000 0.033267
#
#
# Mechanical properties :
#
#
# Convention : Reuss Voigt Hill
#
# Bulk Modulus (GPa) = 31.02466 50.94170 40.98318
# Shear Modulus (GPa) = 23.81496 29.07815 26.44656
#
# Velocity S-wave (km/s) = 3.29391 3.63974 3.47114
# Velocity P-wave (km/s) = 5.34799 6.39314 5.89378
#
# Compressibility (1/GPa) = 0.03223243
#
# Stress axis : x y z
#
# Youngs Moduli (GPa) = 105.19052 25.48016 100.50258
#
# Poissons Ratio (x) = 0.16735 0.20960
# Poissons Ratio (y) = 0.69088 0.46048
# Poissons Ratio (z) = 0.21938 0.11674
#
# Static dielectric constant tensor:
#      x y z
#    x 1.807700 0.000000 0.000000 
#    y 0.000000 1.812370 0.000000 
#    z 0.000000 0.000000 1.800340 
# 
# From -- ./inp_files/5542.got.cif
#   From: 2010.05.17/outbox.cif.g08.bks.cpg/sg30_3_cif.got.tgz:5542.got - 2010.06.03 17:03:02.
