data_PCOD9342050
_publ_section_title
;
Structure prediction by ZEFSAII (Michael W. Deem and Ramdas Pophale) SiO2 
 PCOD9342050
Probable space group: P N C 2
;
_chemical_formula_sum "Si O2"
_cell_formula_units_Z 32
_cell_length_a 10.018401
_cell_length_b 12.633742
_cell_length_c 12.044146
_cell_angle_alpha 90.000000
_cell_angle_beta 90.000000
_cell_angle_gamma 90.000000
_cell_volume 1524.426276
_symmetry_space_group_name_H-M "P N C 2"
_symmetry_group_IT_number 30
_symmetry_cell_setting 'orthorhombic'
loop_
_space_group_symop_operation_xyz
x,y,z
-x,-y,z
-x,1/2+y,1/2+z
x,1/2-y,1/2+z
loop_
_atom_site_type_symbol
_atom_site_label
_atom_site_fract_x
_atom_site_fract_y
_atom_site_fract_z
Si Si1 0.639751 0.019217 0.159810
Si Si2 0.849454 0.152521 0.300048
Si Si3 0.708255 0.382872 0.277297
Si Si4 0.729458 0.695557 0.548539
Si Si5 0.959724 0.719258 0.181941
Si Si6 0.441232 0.816054 0.971002
Si Si7 0.115822 0.433601 0.373190
Si Si8 0.211041 0.847612 0.540050
O O1 0.750645 0.085973 0.223324
O O2 0.500000 0.000000 0.224687
O O3 0.699263 0.908551 0.121439
O O4 0.593380 0.086491 0.052327
O O5 0.792397 0.274099 0.297364
O O6 0.838695 0.104707 0.423366
O O7 0.995814 0.174664 0.249287
O O8 0.572549 0.354284 0.343191
O O9 0.772844 0.481860 0.339457
O O10 0.721074 0.405165 0.146034
O O11 0.817294 0.772276 0.623072
O O12 0.586066 0.728989 0.501157
O O13 0.821784 0.656925 0.447802
O O14 0.950242 0.620690 0.265854
O O15 0.076724 0.703459 0.091500
O O16 0.326246 0.733152 0.002199
O O17 0.000000 0.500000 0.434043
#
# Coordination Sequence:
#
# PCOD9342050 Si02
#       8
#     4   4   4   4   4   4   4   4
#     4  10  20  39  63  90 126 164 215 265 318 391
#     4  10  20  37  62  95 124 169 222 257 326 405
#     4  10  20  37  69  91 121 173 220 273 320 398
#     4  11  26  38  65  97 133 163 218 283 330 385
#     4  11  23  40  61  99 130 172 210 280 337 393
#     4  10  20  41  62  97 122 167 219 272 323 391
#     4  12  23  40  65  98 130 170 224 275 334 402
#     4  10  20  39  66  87 127 172 214 256 335 394
#
# _framework density 20.991503000000002
#
# number of rings (size 3 to 8) (size 9 to 14) (size 15 to 20)
#    0.000    1.500    6.250    0.750    3.500    1.000 
#    2.250    3.750    2.750    0.000    0.000    0.000 
#    0.000    0.000    0.000    0.000    0.000    0.000 
#
# Total GULP energy -178349.164214 kJ/mol
# GULP energy per Si atom -5573.411382 kJ/mol
# Density = 2.094373 g / cm^3
# Si number density = 20.991503 Si / 1000 Ang^3
#
#
#
# Elastic Constant Matrix: (Units=GPa)
#
#
# Indices 1 2 3 4 5 6 
#
# 1 113.7643 8.0024 25.8732 0.0000 0.0000 0.0000
# 2 8.0024 13.3088 -12.0698 0.0000 0.0000 0.0000
# 3 25.8732 -12.0698 85.1479 0.0000 0.0000 0.0000
# 4 0.0000 0.0000 0.0000 -9.7172 0.0000 0.0000
# 5 0.0000 0.0000 0.0000 0.0000 28.4033 0.0000
# 6 0.0000 0.0000 0.0000 0.0000 0.0000 24.5562
#
#
#
# Elastic Compliance Matrix: (Units=1/GPa)
#
#
# Indices 1 2 3 4 5 6 
#
# 1 0.010620 -0.010686 -0.004742 0.000000 0.000000 0.000000
# 2 -0.010686 0.096975 0.016993 0.000000 0.000000 0.000000
# 3 -0.004742 0.016993 0.015594 0.000000 0.000000 0.000000
# 4 0.000000 0.000000 0.000000 -0.102910 0.000000 0.000000
# 5 0.000000 0.000000 0.000000 0.000000 0.035207 0.000000
# 6 0.000000 0.000000 0.000000 0.000000 0.000000 0.040723
#
#
# Mechanical properties :
#
#
# Convention : Reuss Voigt Hill
#
# Bulk Modulus (GPa) = 7.91641 28.42587 18.17114
# Shear Modulus (GPa) = 36.98635 21.34281 29.16458
#
# Velocity S-wave (km/s) = 4.20213 3.19209 3.73144
# Velocity P-wave (km/s) = 5.22717 5.21123 5.21921
#
# Compressibility (1/GPa) = 0.12631990
#
# Stress axis : x y z
#
# Youngs Moduli (GPa) = 94.15991 10.31193 64.12730
#
# Poissons Ratio (x) = 0.11020 0.30408
# Poissons Ratio (y) = 1.00621 -1.08974
# Poissons Ratio (z) = 0.44649 -0.17524
#
# Static dielectric constant tensor:
#      x y z
#    x 1.863790 0.000000 0.000000 
#    y 0.000000 1.774440 0.000000 
#    z 0.000000 0.000000 1.817320 
# 
# From -- ./inp_files/3786.got.cif
#   From: 2010.05.17/outbox.cif.g08.bks.cpg/sg30_2_cif.got.tgz:3786.got - 2010.06.03 17:03:02.
