data_PCOD9342761
_publ_section_title
;
Structure prediction by ZEFSAII (Michael W. Deem and Ramdas Pophale) SiO2 
 PCOD9342761
Probable space group: P M N 21
;
_chemical_formula_sum "Si O2"
_cell_formula_units_Z 32
_cell_length_a 9.207673
_cell_length_b 8.450717
_cell_length_c 20.517218
_cell_angle_alpha 90.000000
_cell_angle_beta 90.000000
_cell_angle_gamma 90.000000
_cell_volume 1596.474252
_symmetry_space_group_name_H-M "P M N 21"
_symmetry_group_IT_number 31
_symmetry_cell_setting 'orthorhombic'
loop_
_space_group_symop_operation_xyz
x,y,z
1/2-x,-y,1/2+z
-x,y,z
1/2+x,-y,1/2+z
loop_
_atom_site_type_symbol
_atom_site_label
_atom_site_fract_x
_atom_site_fract_y
_atom_site_fract_z
Si Si1 0.837233 0.142528 0.231320
Si Si2 0.163213 0.614887 0.803843
Si Si3 0.673658 0.306077 0.032414
Si Si4 0.161306 0.953795 0.366468
Si Si5 0.328200 0.664320 0.392795
Si Si6 0.337482 0.188997 0.435801
Si Si7 0.826442 0.344080 0.547934
Si Si8 0.674030 0.993514 0.113771
O O1 0.755828 0.306175 0.247258
O O2 0.748520 0.034758 0.181862
O O3 0.000000 0.169114 0.206740
O O4 0.847117 0.054871 0.300878
O O5 0.228520 0.465930 0.841857
O O6 0.150254 0.738632 0.863677
O O7 0.000000 0.577882 0.780576
O O8 0.500000 0.295940 0.023504
O O9 0.700147 0.474002 0.070406
O O10 0.719559 0.141908 0.067135
O O11 0.749995 0.326498 0.962445
O O12 0.289444 0.829188 0.359336
O O13 0.000000 0.886368 0.378074
O O14 0.212726 0.058028 0.428003
O O15 0.500000 0.637484 0.401506
O O16 0.500000 0.134790 0.454993
O O17 0.274750 0.317889 0.484889
O O18 0.000000 0.334851 0.532827
O O19 0.792123 0.185937 0.590208
O O20 0.500000 0.002502 0.119630
#
# Coordination Sequence:
#
# PCOD9342761 Si02
#       8
#     4   4   4   4   4   4   4   4
#     4  10  22  40  60  81 108 149 200 243 291 349
#     4   9  19  35  56  82 115 149 183 228 287 348
#     4  10  21  37  59  88 122 158 197 241 293 356
#     4  10  21  36  55  82 115 150 190 237 291 352
#     4  11  21  35  57  90 122 150 189 238 297 355
#     4  10  18  32  55  83 113 146 184 230 286 341
#     4  10  20  35  57  84 115 155 196 235 291 354
#     4  10  22  40  59  80 114 157 201 246 292 347
#
# _framework density 20.044169
#
# number of rings (size 3 to 8) (size 9 to 14) (size 15 to 20)
#    0.000    2.000    1.250    2.250    0.000    5.000 
#    2.250    0.000    0.000    0.000    0.000    0.000 
#    0.000    0.000    0.000    0.000    0.000    0.000 
#
# Total GULP energy -178245.494894 kJ/mol
# GULP energy per Si atom -5570.171715 kJ/mol
# Density = 1.999855 g / cm^3
# Si number density = 20.044169 Si / 1000 Ang^3
#
#
#
# Elastic Constant Matrix: (Units=GPa)
#
#
# Indices 1 2 3 4 5 6 
#
# 1 26.9736 8.1839 13.3182 0.0000 0.0000 0.0000
# 2 8.1839 75.4167 11.1317 0.0000 0.0000 0.0000
# 3 13.3182 11.1317 26.6425 0.0000 0.0000 0.0000
# 4 0.0000 0.0000 0.0000 19.4743 0.0000 0.0000
# 5 0.0000 0.0000 0.0000 0.0000 24.5781 0.0000
# 6 0.0000 0.0000 0.0000 0.0000 0.0000 18.3205
#
#
#
# Elastic Compliance Matrix: (Units=1/GPa)
#
#
# Indices 1 2 3 4 5 6 
#
# 1 0.049458 -0.001831 -0.023959 0.000000 0.000000 0.000000
# 2 -0.001831 0.014199 -0.005017 0.000000 0.000000 0.000000
# 3 -0.023959 -0.005017 0.051607 0.000000 0.000000 0.000000
# 4 0.000000 0.000000 0.000000 0.051350 0.000000 0.000000
# 5 0.000000 0.000000 0.000000 0.000000 0.040687 0.000000
# 6 0.000000 0.000000 0.000000 0.000000 0.000000 0.054584
#
#
# Mechanical properties :
#
#
# Convention : Reuss Voigt Hill
#
# Bulk Modulus (GPa) = 18.63907 21.58892 20.11400
# Shear Modulus (GPa) = 14.64636 18.90117 16.77377
#
# Velocity S-wave (km/s) = 2.70609 3.07412 2.89596
# Velocity P-wave (km/s) = 4.36842 4.83677 4.60855
#
# Compressibility (1/GPa) = 0.05365075
#
# Stress axis : x y z
#
# Youngs Moduli (GPa) = 20.21901 70.42797 19.37720
#
# Poissons Ratio (x) = 0.12893 0.46425
# Poissons Ratio (y) = 0.03701 0.09722
# Poissons Ratio (z) = 0.48442 0.35337
#
# Static dielectric constant tensor:
#      x y z
#    x 1.702340 0.000000 0.000000 
#    y 0.000000 1.794650 0.000000 
#    z 0.000000 0.000000 1.701080 
# 
# From -- ./inp_files/6463.got.cif
#   From: 2010.05.17/outbox.cif.g08.bks.cpg/sg31_4_cif.got.tgz:6463.got - 2010.06.03 17:08:30.
