data_PCOD9342575
_publ_section_title
;
Structure prediction by ZEFSAII (Michael W. Deem and Ramdas Pophale) SiO2 
 PCOD9342575
Probable space group: P N C 2
;
_chemical_formula_sum "Si O2"
_cell_formula_units_Z 24
_cell_length_a 8.527360
_cell_length_b 16.050275
_cell_length_c 7.811931
_cell_angle_alpha 90.000000
_cell_angle_beta 90.000000
_cell_angle_gamma 90.000000
_cell_volume 1069.191443
_symmetry_space_group_name_H-M "P N C 2"
_symmetry_group_IT_number 30
_symmetry_cell_setting 'orthorhombic'
loop_
_space_group_symop_operation_xyz
x,y,z
-x,-y,z
-x,1/2+y,1/2+z
x,1/2-y,1/2+z
loop_
_atom_site_type_symbol
_atom_site_label
_atom_site_fract_x
_atom_site_fract_y
_atom_site_fract_z
Si Si1 0.401509 0.416736 0.485060
Si Si2 0.212900 0.168042 0.692804
Si Si3 0.727973 0.158955 0.999626
Si Si4 0.099789 0.584076 0.193331
Si Si5 0.720234 0.345280 0.885711
Si Si6 0.653252 0.655002 0.822445
O O1 0.500000 0.500000 0.463027
O O2 0.286967 0.394466 0.331971
O O3 0.538704 0.346911 0.490545
O O4 0.322246 0.412370 0.671731
O O5 0.284342 0.258124 0.740917
O O6 0.259406 0.143476 0.500890
O O7 0.026585 0.159292 0.700688
O O8 0.799283 0.095140 0.864316
O O9 0.766994 0.252650 0.945553
O O10 0.778594 0.140140 0.192881
O O11 0.000000 0.500000 0.186978
O O12 0.210688 0.593870 0.028522
O O13 0.531183 0.347179 0.870978
#
# Coordination Sequence:
#
# PCOD9342575 Si02
#       6
#     4   4   4   4   4   4
#     4  11  24  42  69 103 136 171 225 290 343 393
#     4  12  24  41  69  96 138 177 227 285 334 411
#     4  11  22  42  71  93 129 184 227 271 334 415
#     4  12  29  44  64 104 144 177 222 282 356 408
#     4  11  22  42  73  95 130 182 236 277 333 412
#     4  11  23  43  71 101 128 178 237 282 333 406
#
# _framework density 22.446870000000001
#
# number of rings (size 3 to 8) (size 9 to 14) (size 15 to 20)
#    0.000    0.667    5.000    3.000    2.333    5.333 
#    0.000    0.000    0.000    0.000    0.000    0.000 
#    0.000    0.000    0.000    0.000    0.000    0.000 
#
# Total GULP energy -134285.133866 kJ/mol
# GULP energy per Si atom -5595.213911 kJ/mol
# Density = 2.239578 g / cm^3
# Si number density = 22.446870 Si / 1000 Ang^3
#
#
#
# Elastic Constant Matrix: (Units=GPa)
#
#
# Indices 1 2 3 4 5 6 
#
# 1 77.2628 1.5348 41.6653 0.0000 0.0000 0.0000
# 2 1.5348 31.6705 4.7904 0.0000 0.0000 0.0000
# 3 41.6653 4.7904 170.4817 0.0000 0.0000 0.0000
# 4 0.0000 0.0000 0.0000 19.4205 0.0000 0.0000
# 5 0.0000 0.0000 0.0000 0.0000 -47.5561 0.0000
# 6 0.0000 0.0000 0.0000 0.0000 0.0000 33.0835
#
#
#
# Elastic Compliance Matrix: (Units=1/GPa)
#
#
# Indices 1 2 3 4 5 6 
#
# 1 0.014909 -0.000172 -0.003639 0.000000 0.000000 0.000000
# 2 -0.000172 0.031712 -0.000849 0.000000 0.000000 0.000000
# 3 -0.003639 -0.000849 0.006779 0.000000 0.000000 0.000000
# 4 0.000000 0.000000 0.000000 0.051492 0.000000 0.000000
# 5 0.000000 0.000000 0.000000 0.000000 -0.021028 0.000000
# 6 0.000000 0.000000 0.000000 0.000000 0.000000 0.030227
#
#
# Mechanical properties :
#
#
# Convention : Reuss Voigt Hill
#
# Bulk Modulus (GPa) = 22.68627 41.71067 32.19847
# Shear Modulus (GPa) = 36.20488 16.41787 26.31137
#
# Velocity S-wave (km/s) = 4.02047 2.70739 3.42740
# Velocity P-wave (km/s) = 5.62857 5.32875 5.48071
#
# Compressibility (1/GPa) = 0.04407953
#
# Stress axis : x y z
#
# Youngs Moduli (GPa) = 67.07573 31.53390 147.51662
#
# Poissons Ratio (x) = 0.00543 0.53678
# Poissons Ratio (y) = 0.01154 0.12525
# Poissons Ratio (z) = 0.24407 0.02677
#
# Static dielectric constant tensor:
#      x y z
#    x 1.829920 0.000000 0.000000 
#    y 0.000000 1.865990 0.000000 
#    z 0.000000 0.000000 1.810980 
# 
# From -- ./inp_files/1923.got.cif
#   From: 2010.05.17/outbox.cif.g08.bks.cpg/sg30_1_cif.got.tgz:1923.got - 2010.06.03 17:03:02.
