data_PCOD9342306
_publ_section_title
;
Structure prediction by ZEFSAII (Michael W. Deem and Ramdas Pophale) SiO2 
 PCOD9342306
Probable space group: P N C 2
;
_chemical_formula_sum "Si O2"
_cell_formula_units_Z 26
_cell_length_a 18.400055
_cell_length_b 5.044461
_cell_length_c 12.230929
_cell_angle_alpha 90.000000
_cell_angle_beta 90.000000
_cell_angle_gamma 90.000000
_cell_volume 1135.254769
_symmetry_space_group_name_H-M "P N C 2"
_symmetry_group_IT_number 30
_symmetry_cell_setting 'orthorhombic'
loop_
_space_group_symop_operation_xyz
x,y,z
-x,-y,z
-x,1/2+y,1/2+z
x,1/2-y,1/2+z
loop_
_atom_site_type_symbol
_atom_site_label
_atom_site_fract_x
_atom_site_fract_y
_atom_site_fract_z
Si Si1 0.847817 0.156723 0.451560
Si Si2 0.271191 0.508726 0.778105
Si Si3 0.847145 0.844380 0.105689
Si Si4 0.642181 0.787281 0.957187
Si Si5 0.000000 0.000000 0.451134
Si Si6 0.000000 0.000000 0.111107
Si Si7 0.638935 0.271791 0.098297
Si Si8 0.500000 0.500000 0.523835
O O1 0.783294 0.132781 0.366186
O O2 0.842686 0.947706 0.552740
O O3 0.923239 0.058722 0.395077
O O4 0.846616 0.448305 0.504211
O O5 0.219044 0.378634 0.687872
O O6 0.320406 0.305770 0.847107
O O7 0.322922 0.711046 0.712503
O O8 0.922602 0.933538 0.165141
O O9 0.555518 0.833115 0.949756
O O10 0.650713 0.560710 0.049546
O O11 0.670255 0.061550 0.008830
O O12 0.001016 0.750526 0.531343
O O13 0.553809 0.184843 0.095249
#
# Coordination Sequence:
#
# PCOD9342306 Si02
#       8
#     4   4   4   4   2   2   4   2
#     4  10  22  39  61  91 133 172 221 265 319 374
#     4  12  24  39  67  98 130 170 207 269 333 379
#     4  10  22  39  61  90 133 170 219 269 313 379
#     4  10  23  43  67  93 124 161 207 257 314 384
#     4   8  16  35  58  83 122 178 218 263 306 371
#     4   8  16  35  58  83 120 178 216 259 316 363
#     4  10  23  43  65  92 128 157 208 258 314 382
#     4   8  22  48  66  84 130 152 204 268 298 396
#
# _framework density 22.902346999999999
#
# number of rings (size 3 to 8) (size 9 to 14) (size 15 to 20)
#    0.923    1.231    0.000    2.308    0.000    5.538 
#    2.769    0.000    0.000   11.077    0.000    0.000 
#    0.000    0.000    0.000    0.000    0.000    0.000 
#
# Total GULP energy -144997.143455 kJ/mol
# GULP energy per Si atom -5576.813210 kJ/mol
# Density = 2.285022 g / cm^3
# Si number density = 22.902347 Si / 1000 Ang^3
#
#
#
# Elastic Constant Matrix: (Units=GPa)
#
#
# Indices 1 2 3 4 5 6 
#
# 1 168.5448 1.3181 51.4513 0.0000 0.0000 0.0000
# 2 1.3181 93.9554 3.9702 0.0000 0.0000 0.0000
# 3 51.4513 3.9702 80.6249 0.0000 0.0000 0.0000
# 4 0.0000 0.0000 0.0000 0.7537 0.0000 0.0000
# 5 0.0000 0.0000 0.0000 0.0000 -9.0902 0.0000
# 6 0.0000 0.0000 0.0000 0.0000 0.0000 25.3809
#
#
#
# Elastic Compliance Matrix: (Units=1/GPa)
#
#
# Indices 1 2 3 4 5 6 
#
# 1 0.007369 0.000096 -0.004708 0.000000 0.000000 0.000000
# 2 0.000096 0.010667 -0.000586 0.000000 0.000000 0.000000
# 3 -0.004708 -0.000586 0.015436 0.000000 0.000000 0.000000
# 4 0.000000 0.000000 0.000000 1.326721 0.000000 0.000000
# 5 0.000000 0.000000 0.000000 0.000000 -0.110008 0.000000
# 6 0.000000 0.000000 0.000000 0.000000 0.000000 0.039400
#
#
# Mechanical properties :
#
#
# Convention : Reuss Voigt Hill
#
# Bulk Modulus (GPa) = 43.33535 50.73384 47.03459
# Shear Modulus (GPa) = 3.82358 22.50124 13.16241
#
# Velocity S-wave (km/s) = 1.29350 3.13786 2.39993
# Velocity P-wave (km/s) = 4.60366 5.94379 5.31612
#
# Compressibility (1/GPa) = 0.02307585
#
# Stress axis : x y z
#
# Youngs Moduli (GPa) = 135.69503 93.74904 64.78298
#
# Poissons Ratio (x) = -0.00896 0.30497
# Poissons Ratio (y) = -0.01296 0.03798
# Poissons Ratio (z) = 0.63880 0.05496
#
# Static dielectric constant tensor:
#      x y z
#    x 2.006240 0.000000 0.000000 
#    y 0.000000 1.818570 0.000000 
#    z 0.000000 0.000000 1.850840 
# 
# From -- ./inp_files/4454.got.cif
#   From: 2010.05.17/outbox.cif.g08.bks.cpg/sg30_3_cif.got.tgz:4454.got - 2010.06.03 17:03:02.
