data_PCOD9342271
_publ_section_title
;
Structure prediction by ZEFSAII (Michael W. Deem and Ramdas Pophale) SiO2 
 PCOD9342271
Probable space group: P N C 2
;
_chemical_formula_sum "Si O2"
_cell_formula_units_Z 26
_cell_length_a 7.541703
_cell_length_b 9.834228
_cell_length_c 16.236991
_cell_angle_alpha 90.000000
_cell_angle_beta 90.000000
_cell_angle_gamma 90.000000
_cell_volume 1204.246099
_symmetry_space_group_name_H-M "P N C 2"
_symmetry_group_IT_number 30
_symmetry_cell_setting 'orthorhombic'
loop_
_space_group_symop_operation_xyz
x,y,z
-x,-y,z
-x,1/2+y,1/2+z
x,1/2-y,1/2+z
loop_
_atom_site_type_symbol
_atom_site_label
_atom_site_fract_x
_atom_site_fract_y
_atom_site_fract_z
Si Si1 0.087666 0.207477 0.968530
Si Si2 0.707961 0.964818 0.831318
Si Si3 0.578364 0.849506 0.488231
Si Si4 0.672576 0.095505 0.224708
Si Si5 0.561695 0.844909 0.676008
Si Si6 0.738400 0.258276 0.879911
Si Si7 0.000000 0.500000 0.612088
O O1 0.181759 0.104721 0.903805
O O2 0.219721 0.334809 0.962027
O O3 0.894522 0.258366 0.945064
O O4 0.065187 0.122527 0.052810
O O5 0.704112 0.866097 0.750493
O O6 0.221765 0.880494 0.828321
O O7 0.500000 0.000000 0.848219
O O8 0.596398 0.799595 0.582786
O O9 0.446837 0.762011 0.430508
O O10 0.500000 0.000000 0.485680
O O11 0.590983 0.242717 0.203381
O O12 0.737106 0.115325 0.318097
O O13 0.832949 0.047615 0.167208
O O14 0.500000 0.000000 0.219740
O O15 0.500000 0.000000 0.667571
#
# Coordination Sequence:
#
# PCOD9342271 Si02
#       7
#     4   4   4   4   4   4   2
#     4  12  25  44  72 104 141 193 250 301 366 448
#     4  11  20  43  74 100 133 188 254 296 365 439
#     4  11  25  43  68 100 146 188 237 302 374 435
#     4  12  26  45  71 106 151 189 244 312 381 441
#     4  10  21  43  73  98 135 193 240 297 363 435
#     4  12  24  44  72 102 142 196 248 306 371 452
#     4  12  28  44  70 118 152 198 246 316 376 452
#
# _framework density 21.590271999999999
#
# number of rings (size 3 to 8) (size 9 to 14) (size 15 to 20)
#    0.000    0.615    6.154    2.308    0.000    6.154 
#    0.000    0.000    0.000    0.000    0.000    0.000 
#    0.000    0.000    0.000    0.000    0.000    0.000 
#
# Total GULP energy -144884.750255 kJ/mol
# GULP energy per Si atom -5572.490394 kJ/mol
# Density = 2.154113 g / cm^3
# Si number density = 21.590272 Si / 1000 Ang^3
#
#
#
# Elastic Constant Matrix: (Units=GPa)
#
#
# Indices 1 2 3 4 5 6 
#
# 1 101.7226 41.6194 38.6493 0.0000 0.0000 0.0000
# 2 41.6194 77.5593 36.9926 0.0000 0.0000 0.0000
# 3 38.6493 36.9926 132.7282 0.0000 0.0000 0.0000
# 4 0.0000 0.0000 0.0000 39.3335 0.0000 0.0000
# 5 0.0000 0.0000 0.0000 0.0000 48.9092 0.0000
# 6 0.0000 0.0000 0.0000 0.0000 0.0000 30.4966
#
#
#
# Elastic Compliance Matrix: (Units=1/GPa)
#
#
# Indices 1 2 3 4 5 6 
#
# 1 0.013103 -0.006010 -0.002140 0.000000 0.000000 0.000000
# 2 -0.006010 0.017627 -0.003163 0.000000 0.000000 0.000000
# 3 -0.002140 -0.003163 0.009039 0.000000 0.000000 0.000000
# 4 0.000000 0.000000 0.000000 0.025424 0.000000 0.000000
# 5 0.000000 0.000000 0.000000 0.000000 0.020446 0.000000
# 6 0.000000 0.000000 0.000000 0.000000 0.000000 0.032791
#
#
# Mechanical properties :
#
#
# Convention : Reuss Voigt Hill
#
# Bulk Modulus (GPa) = 58.33551 60.72584 59.53067
# Shear Modulus (GPa) = 34.06689 36.73112 35.39900
#
# Velocity S-wave (km/s) = 3.97656 4.12913 4.05357
# Velocity P-wave (km/s) = 6.93989 7.13586 7.03856
#
# Compressibility (1/GPa) = 0.01714222
#
# Stress axis : x y z
#
# Youngs Moduli (GPa) = 76.31831 56.73083 110.63293
#
# Poissons Ratio (x) = 0.34098 0.23679
# Poissons Ratio (y) = 0.45871 0.34989
# Poissons Ratio (z) = 0.16335 0.17942
#
# Static dielectric constant tensor:
#      x y z
#    x 1.770800 0.000000 0.000000 
#    y 0.000000 1.741290 0.000000 
#    z 0.000000 0.000000 1.899530 
# 
# From -- ./inp_files/5940.got.cif
#   From: 2010.05.17/outbox.cif.g08.bks.cpg/sg30_3_cif.got.tgz:5940.got - 2010.06.03 17:03:02.
