data_PCOD9342922
_publ_section_title
;
Structure prediction by ZEFSAII (Michael W. Deem and Ramdas Pophale) SiO2 
 PCOD9342922
Probable space group: P M N 21
;
_chemical_formula_sum "Si O2"
_cell_formula_units_Z 32
_cell_length_a 7.748979
_cell_length_b 11.080166
_cell_length_c 14.597798
_cell_angle_alpha 90.000000
_cell_angle_beta 90.000000
_cell_angle_gamma 90.000000
_cell_volume 1253.366552
_symmetry_space_group_name_H-M "P M N 21"
_symmetry_group_IT_number 31
_symmetry_cell_setting 'orthorhombic'
loop_
_space_group_symop_operation_xyz
x,y,z
1/2-x,-y,1/2+z
-x,y,z
1/2+x,-y,1/2+z
loop_
_atom_site_type_symbol
_atom_site_label
_atom_site_fract_x
_atom_site_fract_y
_atom_site_fract_z
Si Si1 0.706313 0.065043 0.011710
Si Si2 0.707804 0.192682 0.839338
Si Si3 0.798536 0.714365 0.723746
Si Si4 0.293931 0.661856 0.173249
Si Si5 0.208565 0.433862 0.387234
Si Si6 0.301267 0.966611 0.722234
Si Si7 0.711961 0.428146 0.058367
Si Si8 0.790208 0.197104 0.502377
O O1 0.500000 0.067469 0.001613
O O2 0.733667 0.056887 0.120108
O O3 0.771976 0.934958 0.975639
O O4 0.770294 0.169873 0.943319
O O5 0.500000 0.192005 0.842859
O O6 0.747976 0.308561 0.777193
O O7 0.774775 0.075771 0.781553
O O8 0.778190 0.596049 0.787055
O O9 0.711628 0.832745 0.765852
O O10 0.731393 0.682384 0.621941
O O11 0.000000 0.742022 0.717113
O O12 0.500000 0.655917 0.169232
O O13 0.233144 0.543603 0.119549
O O14 0.237080 0.771649 0.106764
O O15 0.265227 0.542071 0.454585
O O16 0.260044 0.311567 0.442033
O O17 0.000000 0.439529 0.380984
O O18 0.500000 0.997384 0.713190
O O19 0.500000 0.422867 0.056367
O O20 0.000000 0.194686 0.500396
#
# Coordination Sequence:
#
# PCOD9342922 Si02
#       8
#     4   4   4   4   4   4   4   4
#     4  10  19  34  54  79 111 149 184 222 278 340
#     4  10  21  35  54  82 116 147 180 228 285 337
#     4  11  22  38  58  84 117 152 189 232 280 333
#     4   9  16  32  58  79 100 137 184 227 272 328
#     4   9  17  35  61  85 107 145 193 233 279 335
#     4  11  23  39  57  82 116 153 189 231 277 330
#     4   8  18  37  60  82 109 147 187 230 282 335
#     4   8  14  28  54  79 102 138 182 225 271 326
#
# _framework density 25.531241000000001
#
# number of rings (size 3 to 8) (size 9 to 14) (size 15 to 20)
#    0.000    2.500    1.250    3.000    0.000    3.000 
#    2.250    6.875    0.000    0.000    0.000    0.000 
#    0.000    0.000    0.000    0.000    0.000    0.000 
#
# Total GULP energy -178680.668428 kJ/mol
# GULP energy per Si atom -5583.770888 kJ/mol
# Density = 2.547313 g / cm^3
# Si number density = 25.531241 Si / 1000 Ang^3
#
#
#
# Elastic Constant Matrix: (Units=GPa)
#
#
# Indices 1 2 3 4 5 6 
#
# 1 36.2705 -4.7705 -5.5848 0.0000 0.0000 0.0000
# 2 -4.7705 63.6988 16.4304 0.0000 0.0000 0.0000
# 3 -5.5848 16.4304 139.6641 0.0000 0.0000 0.0000
# 4 0.0000 0.0000 0.0000 45.3151 0.0000 0.0000
# 5 0.0000 0.0000 0.0000 0.0000 20.3063 0.0000
# 6 0.0000 0.0000 0.0000 0.0000 0.0000 4.1749
#
#
#
# Elastic Compliance Matrix: (Units=1/GPa)
#
#
# Indices 1 2 3 4 5 6 
#
# 1 0.027954 0.001862 0.000899 0.000000 0.000000 0.000000
# 2 0.001862 0.016314 -0.001845 0.000000 0.000000 0.000000
# 3 0.000899 -0.001845 0.007413 0.000000 0.000000 0.000000
# 4 0.000000 0.000000 0.000000 0.022068 0.000000 0.000000
# 5 0.000000 0.000000 0.000000 0.000000 0.049246 0.000000
# 6 0.000000 0.000000 0.000000 0.000000 0.000000 0.239524
#
#
# Mechanical properties :
#
#
# Convention : Reuss Voigt Hill
#
# Bulk Modulus (GPa) = 18.68727 27.97597 23.33162
# Shear Modulus (GPa) = 13.20918 29.52983 21.36950
#
# Velocity S-wave (km/s) = 2.27705 3.40459 2.89622
# Velocity P-wave (km/s) = 3.77472 5.14163 4.51026
#
# Compressibility (1/GPa) = 0.05351236
#
# Stress axis : x y z
#
# Youngs Moduli (GPa) = 35.77320 61.29654 134.89818
#
# Poissons Ratio (x) = -0.11411 -0.12125
# Poissons Ratio (y) = -0.06660 0.24886
# Poissons Ratio (z) = -0.03215 0.11308
#
# Static dielectric constant tensor:
#      x y z
#    x 1.983180 0.000000 0.000000 
#    y 0.000000 2.096460 0.000000 
#    z 0.000000 0.000000 2.080270 
# 
# From -- ./inp_files/5046.got.cif
#   From: 2010.05.17/outbox.cif.g08.bks.cpg/sg31_3_cif.got.tgz:5046.got - 2010.06.03 17:08:30.
