data_PCOD9342388
_publ_section_title
;
Structure prediction by ZEFSAII (Michael W. Deem and Ramdas Pophale) SiO2 
 PCOD9342388
Probable space group: P N C 2
;
_chemical_formula_sum "Si O2"
_cell_formula_units_Z 32
_cell_length_a 8.358332
_cell_length_b 31.167905
_cell_length_c 5.219899
_cell_angle_alpha 90.000000
_cell_angle_beta 90.000000
_cell_angle_gamma 90.000000
_cell_volume 1359.844750
_symmetry_space_group_name_H-M "P N C 2"
_symmetry_group_IT_number 30
_symmetry_cell_setting 'orthorhombic'
loop_
_space_group_symop_operation_xyz
x,y,z
-x,-y,z
-x,1/2+y,1/2+z
x,1/2-y,1/2+z
loop_
_atom_site_type_symbol
_atom_site_label
_atom_site_fract_x
_atom_site_fract_y
_atom_site_fract_z
Si Si1 0.491817 0.629632 0.228070
Si Si2 0.993950 0.776946 0.831004
Si Si3 0.868213 0.127843 0.846449
Si Si4 0.436518 0.077852 0.254259
Si Si5 0.042734 0.453857 0.131378
Si Si6 0.607765 0.724346 0.340628
Si Si7 0.784950 0.437652 0.716578
Si Si8 0.319211 0.011090 0.881358
O O1 0.299633 0.625481 0.195229
O O2 0.534107 0.604462 0.489830
O O3 0.531366 0.679046 0.274298
O O4 0.589261 0.611451 0.983653
O O5 0.041691 0.751197 0.576576
O O6 0.064565 0.824604 0.840057
O O7 0.800630 0.780571 0.833094
O O8 0.994512 0.091850 0.751388
O O9 0.824052 0.110623 0.129910
O O10 0.609127 0.057974 0.337122
O O11 0.323558 0.040540 0.139102
O O12 0.767832 0.538803 0.163714
O O13 0.000000 0.500000 0.257117
O O14 0.935213 0.454171 0.876114
O O15 0.563052 0.741614 0.620497
O O16 0.755579 0.465542 0.461103
O O17 0.500000 0.000000 0.811225
#
# Coordination Sequence:
#
# PCOD9342388 Si02
#       8
#     4   4   4   4   4   4   4   4
#     4  11  23  43  70 103 139 183 243 301 362 442
#     4  10  25  46  70 101 140 182 235 299 371 449
#     4  11  25  45  71 104 146 186 245 300 375 444
#     4  10  23  44  68 102 143 189 241 305 355 435
#     4  12  25  43  71 101 148 197 244 305 372 438
#     4  10  22  44  68  98 139 179 227 297 372 442
#     4  10  23  46  67 100 149 191 240 309 368 433
#     4  10  24  47  71 103 148 201 258 308 371 449
#
# _framework density 23.5321
#
# number of rings (size 3 to 8) (size 9 to 14) (size 15 to 20)
#    0.000    1.500    2.500    0.750    5.250    2.000 
#    0.000    2.500    0.000    0.000    0.000    0.000 
#    0.000    0.000    0.000    0.000    0.000    0.000 
#
# Total GULP energy -178652.718312 kJ/mol
# GULP energy per Si atom -5582.897447 kJ/mol
# Density = 2.347854 g / cm^3
# Si number density = 23.532100 Si / 1000 Ang^3
#
#
#
# Elastic Constant Matrix: (Units=GPa)
#
#
# Indices 1 2 3 4 5 6 
#
# 1 33.1788 23.9311 16.0478 0.0000 0.0000 0.0000
# 2 23.9311 160.4246 27.8911 0.0000 0.0000 0.0000
# 3 16.0478 27.8911 94.8556 0.0000 0.0000 0.0000
# 4 0.0000 0.0000 0.0000 32.7139 0.0000 0.0000
# 5 0.0000 0.0000 0.0000 0.0000 28.1816 0.0000
# 6 0.0000 0.0000 0.0000 0.0000 0.0000 47.9566
#
#
#
# Elastic Compliance Matrix: (Units=1/GPa)
#
#
# Indices 1 2 3 4 5 6 
#
# 1 0.035665 -0.004501 -0.004710 0.000000 0.000000 0.000000
# 2 -0.004501 0.007137 -0.001337 0.000000 0.000000 0.000000
# 3 -0.004710 -0.001337 0.011732 0.000000 0.000000 0.000000
# 4 0.000000 0.000000 0.000000 0.030568 0.000000 0.000000
# 5 0.000000 0.000000 0.000000 0.000000 0.035484 0.000000
# 6 0.000000 0.000000 0.000000 0.000000 0.000000 0.020852
#
#
# Mechanical properties :
#
#
# Convention : Reuss Voigt Hill
#
# Bulk Modulus (GPa) = 29.90689 47.13322 38.52006
# Shear Modulus (GPa) = 28.78826 36.47635 32.63231
#
# Velocity S-wave (km/s) = 3.50145 3.94136 3.72790
# Velocity P-wave (km/s) = 5.39291 6.38633 5.91053
#
# Compressibility (1/GPa) = 0.03343711
#
# Stress axis : x y z
#
# Youngs Moduli (GPa) = 28.03895 140.10697 85.23413
#
# Poissons Ratio (x) = 0.63066 0.40147
# Poissons Ratio (y) = 0.12621 0.11397
# Poissons Ratio (z) = 0.13207 0.18734
#
# Static dielectric constant tensor:
#      x y z
#    x 2.207620 0.000000 0.000000 
#    y 0.000000 1.837940 0.000000 
#    z 0.000000 0.000000 1.938720 
# 
# From -- ./inp_files/584.got.cif
#   From: 2010.05.17/outbox.cif.g08.bks.cpg/sg30_1_cif.got.tgz:584.got - 2010.06.03 17:03:02.
