data_PCOD9342323
_publ_section_title
;
Structure prediction by ZEFSAII (Michael W. Deem and Ramdas Pophale) SiO2 
 PCOD9342323
Probable space group: P N C 2
;
_chemical_formula_sum "Si O2"
_cell_formula_units_Z 20
_cell_length_a 6.500927
_cell_length_b 14.201020
_cell_length_c 9.881034
_cell_angle_alpha 90.000000
_cell_angle_beta 90.000000
_cell_angle_gamma 90.000000
_cell_volume 912.215027
_symmetry_space_group_name_H-M "P N C 2"
_symmetry_group_IT_number 30
_symmetry_cell_setting 'orthorhombic'
loop_
_space_group_symop_operation_xyz
x,y,z
-x,-y,z
-x,1/2+y,1/2+z
x,1/2-y,1/2+z
loop_
_atom_site_type_symbol
_atom_site_label
_atom_site_fract_x
_atom_site_fract_y
_atom_site_fract_z
Si Si1 0.215122 0.667510 0.335580
Si Si2 0.879110 0.901434 0.638932
Si Si3 0.500000 0.500000 0.731331
Si Si4 0.500000 0.000000 0.751748
Si Si5 0.120890 0.401434 0.844150
Si Si6 0.784877 0.332489 0.647501
O O1 0.347636 0.571188 0.328891
O O2 0.200984 0.695219 0.491540
O O3 0.309440 0.749999 0.241540
O O4 0.994762 0.648031 0.263409
O O5 0.896413 0.854025 0.491541
O O6 0.646145 0.930697 0.667017
O O7 0.000000 0.000000 0.628784
O O8 0.353854 0.430697 0.816062
O O9 0.652363 0.428811 0.654190
O O10 0.000000 0.500000 0.854300
O O11 0.005237 0.351968 0.719673
#
# Coordination Sequence:
#
# PCOD9342323 Si02
#       6
#     4   4   2   2   4   4
#     4  11  24  41  62  91 128 169 214 264 318 377
#     4   9  19  37  61  88 119 156 199 250 308 370
#     4  10  22  40  68  96 124 164 214 262 316 378
#     4  10  22  40  68  96 124 164 214 262 316 378
#     4   9  19  37  61  88 119 156 199 250 308 370
#     4  11  24  41  62  91 128 169 214 264 318 377
#
# _framework density 21.924657
#
# number of rings (size 3 to 8) (size 9 to 14) (size 15 to 20)
#    0.000    2.000    0.000    2.400    0.000   15.200 
#    0.000    0.000    0.000    0.000    0.000    0.000 
#    0.000    0.000    0.000    0.000    0.000    0.000 
#
# Total GULP energy -111488.825424 kJ/mol
# GULP energy per Si atom -5574.441271 kJ/mol
# Density = 2.187476 g / cm^3
# Si number density = 21.924657 Si / 1000 Ang^3
#
#
#
# Elastic Constant Matrix: (Units=GPa)
#
#
# Indices 1 2 3 4 5 6 
#
# 1 108.1297 21.9229 45.4404 0.0000 0.0000 0.0000
# 2 21.9229 99.1971 52.6413 0.0000 0.0000 0.0000
# 3 45.4404 52.6413 217.2925 0.0000 0.0000 0.0000
# 4 0.0000 0.0000 0.0000 13.8004 0.0000 0.0000
# 5 0.0000 0.0000 0.0000 0.0000 -35.5775 0.0000
# 6 0.0000 0.0000 0.0000 0.0000 0.0000 41.1066
#
#
#
# Elastic Compliance Matrix: (Units=1/GPa)
#
#
# Indices 1 2 3 4 5 6 
#
# 1 0.010283 -0.001298 -0.001836 0.000000 0.000000 0.000000
# 2 -0.001298 0.011732 -0.002571 0.000000 0.000000 0.000000
# 3 -0.001836 -0.002571 0.005609 0.000000 0.000000 0.000000
# 4 0.000000 0.000000 0.000000 0.072461 0.000000 0.000000
# 5 0.000000 0.000000 0.000000 0.000000 -0.028108 0.000000
# 6 0.000000 0.000000 0.000000 0.000000 0.000000 0.024327
#
#
# Mechanical properties :
#
#
# Convention : Reuss Voigt Hill
#
# Bulk Modulus (GPa) = 61.67505 73.84761 67.76133
# Shear Modulus (GPa) = 44.20127 24.17356 34.18742
#
# Velocity S-wave (km/s) = 4.49492 3.32411 3.95310
# Velocity P-wave (km/s) = 7.42500 6.96337 7.19788
#
# Compressibility (1/GPa) = 0.01621401
#
# Stress axis : x y z
#
# Youngs Moduli (GPa) = 97.24906 85.23643 178.29186
#
# Poissons Ratio (x) = 0.11066 0.32731
# Poissons Ratio (y) = 0.12626 0.45834
# Poissons Ratio (z) = 0.17853 0.21912
#
# Static dielectric constant tensor:
#      x y z
#    x 1.829560 0.000000 0.000000 
#    y 0.000000 1.853550 0.000000 
#    z 0.000000 0.000000 1.788680 
# 
# From -- ./inp_files/3107.got.cif
#   From: 2010.05.17/outbox.cif.g08.bks.cpg/sg30_2_cif.got.tgz:3107.got - 2010.06.03 17:03:02.
