data_PCOD9342437
_publ_section_title
;
Structure prediction by ZEFSAII (Michael W. Deem and Ramdas Pophale) SiO2 
 PCOD9342437
Probable space group: P N C 2
;
_chemical_formula_sum "Si O2"
_cell_formula_units_Z 32
_cell_length_a 8.129462
_cell_length_b 15.965826
_cell_length_c 12.560983
_cell_angle_alpha 90.000000
_cell_angle_beta 90.000000
_cell_angle_gamma 90.000000
_cell_volume 1630.334899
_symmetry_space_group_name_H-M "P N C 2"
_symmetry_group_IT_number 30
_symmetry_cell_setting 'orthorhombic'
loop_
_space_group_symop_operation_xyz
x,y,z
-x,-y,z
-x,1/2+y,1/2+z
x,1/2-y,1/2+z
loop_
_atom_site_type_symbol
_atom_site_label
_atom_site_fract_x
_atom_site_fract_y
_atom_site_fract_z
Si Si1 0.346137 0.321728 0.961460
Si Si2 0.364948 0.764778 0.097097
Si Si3 0.190094 0.087339 0.657096
Si Si4 0.549139 0.597438 0.743025
Si Si5 0.320715 0.458704 0.546340
Si Si6 0.202669 0.601112 0.203930
Si Si7 0.209231 0.160158 0.879212
Si Si8 0.841369 0.384689 0.448531
O O1 0.420556 0.369009 0.860478
O O2 0.222515 0.255897 0.908689
O O3 0.484339 0.271789 0.028053
O O4 0.250195 0.378312 0.045421
O O5 0.428812 0.836376 0.180863
O O6 0.282968 0.683333 0.152274
O O7 0.237367 0.810138 0.017090
O O8 0.252090 0.141466 0.757532
O O9 0.992677 0.096963 0.674186
O O10 0.254188 0.992220 0.668773
O O11 0.500000 0.500000 0.757852
O O12 0.701704 0.588149 0.659110
O O13 0.500000 0.500000 0.551430
O O14 0.330578 0.392453 0.452502
O O15 0.194582 0.531223 0.515145
O O16 0.234591 0.606080 0.330587
O O17 0.031362 0.128388 0.918450
#
# Coordination Sequence:
#
# PCOD9342437 Si02
#       8
#     4   4   4   4   4   4   4   4
#     4  12  25  40  65  94 131 175 217 267 342 394
#     4  12  23  41  65  97 128 173 222 273 328 401
#     4  10  23  44  65  92 131 167 213 281 324 395
#     4  11  24  43  63  92 141 172 216 278 333 401
#     4  11  20  40  65  93 128 163 211 273 324 382
#     4  10  23  42  65  94 127 166 222 268 332 391
#     4  11  22  40  69  97 123 162 222 274 330 391
#     4  11  21  41  68  94 125 168 214 277 331 388
#
# _framework density 19.627867999999999
#
# number of rings (size 3 to 8) (size 9 to 14) (size 15 to 20)
#    0.000    1.000    5.000    2.625    1.750    1.000 
#    0.000    0.000    5.500    0.000    0.000    0.000 
#    0.000    0.000    0.000    0.000    0.000    0.000 
#
# Total GULP energy -178437.775302 kJ/mol
# GULP energy per Si atom -5576.180478 kJ/mol
# Density = 1.958319 g / cm^3
# Si number density = 19.627868 Si / 1000 Ang^3
#
#
#
# Elastic Constant Matrix: (Units=GPa)
#
#
# Indices 1 2 3 4 5 6 
#
# 1 37.0662 32.2583 30.9625 0.0000 0.0000 0.0000
# 2 32.2583 156.9972 82.6062 0.0000 0.0000 0.0000
# 3 30.9625 82.6062 157.5136 0.0000 0.0000 0.0000
# 4 0.0000 0.0000 0.0000 45.4489 0.0000 0.0000
# 5 0.0000 0.0000 0.0000 0.0000 25.9009 0.0000
# 6 0.0000 0.0000 0.0000 0.0000 0.0000 34.4165
#
#
#
# Elastic Compliance Matrix: (Units=1/GPa)
#
#
# Indices 1 2 3 4 5 6 
#
# 1 0.034816 -0.004907 -0.004271 0.000000 0.000000 0.000000
# 2 -0.004907 0.009488 -0.004012 0.000000 0.000000 0.000000
# 3 -0.004271 -0.004012 0.009292 0.000000 0.000000 0.000000
# 4 0.000000 0.000000 0.000000 0.022003 0.000000 0.000000
# 5 0.000000 0.000000 0.000000 0.000000 0.038609 0.000000
# 6 0.000000 0.000000 0.000000 0.000000 0.000000 0.029056
#
#
# Mechanical properties :
#
#
# Convention : Reuss Voigt Hill
#
# Bulk Modulus (GPa) = 36.73904 71.47013 54.10459
# Shear Modulus (GPa) = 27.97751 34.86992 31.42371
#
# Velocity S-wave (km/s) = 3.77954 4.21949 4.00556
# Velocity P-wave (km/s) = 6.14858 7.76082 7.00126
#
# Compressibility (1/GPa) = 0.02721900
#
# Stress axis : x y z
#
# Youngs Moduli (GPa) = 28.72211 105.39084 107.61965
#
# Poissons Ratio (x) = 0.51712 0.45960
# Poissons Ratio (y) = 0.14093 0.43173
# Poissons Ratio (z) = 0.12266 0.42279
#
# Static dielectric constant tensor:
#      x y z
#    x 1.742970 0.000000 0.000000 
#    y 0.000000 1.711410 0.000000 
#    z 0.000000 0.000000 1.706530 
# 
# From -- ./inp_files/3789.got.cif
#   From: 2010.05.17/outbox.cif.g08.bks.cpg/sg30_2_cif.got.tgz:3789.got - 2010.06.03 17:03:02.
