data_PCOD9342946
_publ_section_title
;
Structure prediction by ZEFSAII (Michael W. Deem and Ramdas Pophale) SiO2 
 PCOD9342946
Probable space group: P M N 21
;
_chemical_formula_sum "Si O2"
_cell_formula_units_Z 32
_cell_length_a 8.527986
_cell_length_b 11.810080
_cell_length_c 16.271799
_cell_angle_alpha 90.000000
_cell_angle_beta 90.000000
_cell_angle_gamma 90.000000
_cell_volume 1638.833712
_symmetry_space_group_name_H-M "P M N 21"
_symmetry_group_IT_number 31
_symmetry_cell_setting 'orthorhombic'
loop_
_space_group_symop_operation_xyz
x,y,z
1/2-x,-y,1/2+z
-x,y,z
1/2+x,-y,1/2+z
loop_
_atom_site_type_symbol
_atom_site_label
_atom_site_fract_x
_atom_site_fract_y
_atom_site_fract_z
Si Si1 0.176008 0.097408 0.760200
Si Si2 0.310853 0.062946 0.505620
Si Si3 0.813400 0.821968 0.563582
Si Si4 0.312042 0.567441 0.248678
Si Si5 0.178924 0.751032 0.132431
Si Si6 0.310066 0.308484 0.230451
Si Si7 0.682281 0.721259 0.399716
Si Si8 0.316506 0.885874 0.827645
O O1 0.304727 0.156185 0.704466
O O2 0.182162 0.162075 0.847213
O O3 0.000000 0.116426 0.726850
O O4 0.213172 0.967065 0.769861
O O5 0.500000 0.063398 0.495891
O O6 0.263251 0.176147 0.555501
O O7 0.226482 0.074726 0.418715
O O8 0.264075 0.945612 0.550255
O O9 0.763097 0.755087 0.645905
O O10 0.772464 0.745639 0.483619
O O11 0.000000 0.838781 0.567613
O O12 0.500000 0.568812 0.255056
O O13 0.267711 0.644430 0.170509
O O14 0.259778 0.439206 0.235216
O O15 0.256344 0.628277 0.333572
O O16 0.000000 0.718573 0.117860
O O17 0.500000 0.305202 0.235249
O O18 0.236450 0.239999 0.305965
O O19 0.500000 0.695176 0.419003
O O20 0.500000 0.901882 0.812244
#
# Coordination Sequence:
#
# PCOD9342946 Si02
#       8
#     4   4   4   4   4   4   4   4
#     4  10  19  34  58  85 117 155 189 230 294 357
#     4  11  23  39  58  85 123 159 193 238 299 366
#     4  11  22  36  60  91 120 153 196 249 301 353
#     4   9  20  41  64  83 114 161 204 240 292 357
#     4  10  21  36  59  89 117 150 194 245 290 340
#     4  10  23  43  62  84 120 164 203 243 299 362
#     4   9  18  34  59  86 113 153 196 239 290 348
#     4  12  24  37  58  87 118 153 195 248 299 349
#
# _framework density 19.526081999999999
#
# number of rings (size 3 to 8) (size 9 to 14) (size 15 to 20)
#    0.000    1.750    1.250    4.125    0.000    7.500 
#    2.250    0.000    0.000    0.000    0.000    0.000 
#    0.000    0.000    0.000    0.000    0.000    0.000 
#
# Total GULP energy -178549.236330 kJ/mol
# GULP energy per Si atom -5579.663635 kJ/mol
# Density = 1.948164 g / cm^3
# Si number density = 19.526082 Si / 1000 Ang^3
#
#
#
# Elastic Constant Matrix: (Units=GPa)
#
#
# Indices 1 2 3 4 5 6 
#
# 1 28.9194 16.5813 8.7639 0.0000 0.0000 0.0000
# 2 16.5813 137.9267 29.2480 0.0000 0.0000 0.0000
# 3 8.7639 29.2480 45.9498 0.0000 0.0000 0.0000
# 4 0.0000 0.0000 0.0000 26.0725 0.0000 0.0000
# 5 0.0000 0.0000 0.0000 0.0000 17.4849 0.0000
# 6 0.0000 0.0000 0.0000 0.0000 0.0000 26.0183
#
#
#
# Elastic Compliance Matrix: (Units=1/GPa)
#
#
# Indices 1 2 3 4 5 6 
#
# 1 0.038120 -0.003515 -0.005033 0.000000 0.000000 0.000000
# 2 -0.003515 0.008706 -0.004871 0.000000 0.000000 0.000000
# 3 -0.005033 -0.004871 0.025823 0.000000 0.000000 0.000000
# 4 0.000000 0.000000 0.000000 0.038355 0.000000 0.000000
# 5 0.000000 0.000000 0.000000 0.000000 0.057192 0.000000
# 6 0.000000 0.000000 0.000000 0.000000 0.000000 0.038434
#
#
# Mechanical properties :
#
#
# Convention : Reuss Voigt Hill
#
# Bulk Modulus (GPa) = 21.82918 35.77583 28.80251
# Shear Modulus (GPa) = 20.10145 24.46199 22.28172
#
# Velocity S-wave (km/s) = 3.21201 3.54331 3.38172
# Velocity P-wave (km/s) = 4.99598 5.92469 5.48004
#
# Compressibility (1/GPa) = 0.04581024
#
# Stress axis : x y z
#
# Youngs Moduli (GPa) = 26.23321 114.86668 38.72487
#
# Poissons Ratio (x) = 0.40381 0.19490
# Poissons Ratio (y) = 0.09222 0.18862
# Poissons Ratio (z) = 0.13203 0.55950
#
# Static dielectric constant tensor:
#      x y z
#    x 1.664680 0.000000 0.000000 
#    y 0.000000 1.679590 0.000000 
#    z 0.000000 0.000000 1.715500 
# 
# From -- ./inp_files/5070.got.cif
#   From: 2010.05.17/outbox.cif.g08.bks.cpg/sg31_3_cif.got.tgz:5070.got - 2010.06.03 17:08:30.
