data_PCOD9342225
_publ_section_title
;
Structure prediction by ZEFSAII (Michael W. Deem and Ramdas Pophale) SiO2 
 PCOD9342225
Probable space group: P N C 2
;
_chemical_formula_sum "Si O2"
_cell_formula_units_Z 28
_cell_length_a 9.642365
_cell_length_b 18.726523
_cell_length_c 7.762680
_cell_angle_alpha 90.000000
_cell_angle_beta 90.000000
_cell_angle_gamma 90.000000
_cell_volume 1401.691369
_symmetry_space_group_name_H-M "P N C 2"
_symmetry_group_IT_number 30
_symmetry_cell_setting 'orthorhombic'
loop_
_space_group_symop_operation_xyz
x,y,z
-x,-y,z
-x,1/2+y,1/2+z
x,1/2-y,1/2+z
loop_
_atom_site_type_symbol
_atom_site_label
_atom_site_fract_x
_atom_site_fract_y
_atom_site_fract_z
Si Si1 0.412888 0.669787 0.179170
Si Si2 0.730076 0.839191 0.597293
Si Si3 0.881077 0.732427 0.396118
Si Si4 0.130833 0.032795 0.414867
Si Si5 0.669379 0.331228 0.574674
Si Si6 0.385020 0.562529 0.862617
Si Si7 0.018088 0.847441 0.201232
O O1 0.579656 0.665968 0.177491
O O2 0.358061 0.656137 0.372302
O O3 0.365925 0.748830 0.119118
O O4 0.372578 0.611086 0.034667
O O5 0.749845 0.782414 0.442631
O O6 0.844779 0.815142 0.733819
O O7 0.772283 0.915797 0.526888
O O8 0.004268 0.787954 0.352794
O O9 0.918443 0.682564 0.553325
O O10 0.050646 0.080941 0.274047
O O11 0.236288 0.975297 0.339071
O O12 0.000000 0.000000 0.517058
O O13 0.585081 0.384371 0.702371
O O14 0.828782 0.346604 0.625249
O O15 0.500000 0.500000 0.876735
#
# Coordination Sequence:
#
# PCOD9342225 Si02
#       7
#     4   4   4   4   4   4   4
#     4  12  25  43  73 108 141 186 245 302 368 438
#     4  10  21  40  64  98 133 175 227 282 350 428
#     4   9  20  36  66  95 130 169 223 292 346 406
#     4  11  23  44  68  91 139 191 226 289 362 423
#     4  12  25  43  75 104 142 189 245 300 370 436
#     4  12  27  48  72 102 149 191 239 303 368 444
#     4  10  21  40  64  99 135 177 236 289 349 429
#
# _framework density 19.975867000000001
#
# number of rings (size 3 to 8) (size 9 to 14) (size 15 to 20)
#    0.000    1.143    4.286    1.714    0.000    5.143 
#    2.571    0.714    0.000    0.000    0.000    0.000 
#    0.000    0.000    0.000    0.000    0.000    0.000 
#
# Total GULP energy -156276.634093 kJ/mol
# GULP energy per Si atom -5581.308360 kJ/mol
# Density = 1.993040 g / cm^3
# Si number density = 19.975867 Si / 1000 Ang^3
#
#
#
# Elastic Constant Matrix: (Units=GPa)
#
#
# Indices 1 2 3 4 5 6 
#
# 1 110.8262 45.1493 22.9616 0.0000 0.0000 0.0000
# 2 45.1493 129.4135 56.1403 0.0000 0.0000 0.0000
# 3 22.9616 56.1403 112.5700 0.0000 0.0000 0.0000
# 4 0.0000 0.0000 0.0000 24.3201 0.0000 0.0000
# 5 0.0000 0.0000 0.0000 0.0000 33.5493 0.0000
# 6 0.0000 0.0000 0.0000 0.0000 0.0000 21.9411
#
#
#
# Elastic Compliance Matrix: (Units=1/GPa)
#
#
# Indices 1 2 3 4 5 6 
#
# 1 0.010532 -0.003500 -0.000403 0.000000 0.000000 0.000000
# 2 -0.003500 0.011023 -0.004784 0.000000 0.000000 0.000000
# 3 -0.000403 -0.004784 0.011351 0.000000 0.000000 0.000000
# 4 0.000000 0.000000 0.000000 0.041118 0.000000 0.000000
# 5 0.000000 0.000000 0.000000 0.000000 0.029807 0.000000
# 6 0.000000 0.000000 0.000000 0.000000 0.000000 0.045576
#
#
# Mechanical properties :
#
#
# Convention : Reuss Voigt Hill
#
# Bulk Modulus (GPa) = 64.37383 66.81247 65.59315
# Shear Modulus (GPa) = 29.07666 31.19933 30.13799
#
# Velocity S-wave (km/s) = 3.81936 3.95631 3.88844
# Velocity P-wave (km/s) = 7.19345 7.37490 7.28474
#
# Compressibility (1/GPa) = 0.01553426
#
# Stress axis : x y z
#
# Youngs Moduli (GPa) = 94.94553 90.71712 88.09615
#
# Poissons Ratio (x) = 0.31748 0.03551
# Poissons Ratio (y) = 0.33228 0.42142
# Poissons Ratio (z) = 0.03827 0.43396
#
# Static dielectric constant tensor:
#      x y z
#    x 1.741000 0.000000 0.000000 
#    y 0.000000 1.741040 0.000000 
#    z 0.000000 0.000000 1.736240 
# 
# From -- ./inp_files/2003.got.cif
#   From: 2010.05.17/outbox.cif.g08.bks.cpg/sg30_2_cif.got.tgz:2003.got - 2010.06.03 17:03:02.
