data_PCOD9342617
_publ_section_title
;
Structure prediction by ZEFSAII (Michael W. Deem and Ramdas Pophale) SiO2 
 PCOD9342617
Probable space group: P N C 2
;
_chemical_formula_sum "Si O2"
_cell_formula_units_Z 20
_cell_length_a 16.223973
_cell_length_b 5.200098
_cell_length_c 10.839780
_cell_angle_alpha 90.000000
_cell_angle_beta 90.000000
_cell_angle_gamma 90.000000
_cell_volume 914.511585
_symmetry_space_group_name_H-M "P N C 2"
_symmetry_group_IT_number 30
_symmetry_cell_setting 'orthorhombic'
loop_
_space_group_symop_operation_xyz
x,y,z
-x,-y,z
-x,1/2+y,1/2+z
x,1/2-y,1/2+z
loop_
_atom_site_type_symbol
_atom_site_label
_atom_site_fract_x
_atom_site_fract_y
_atom_site_fract_z
Si Si1 0.165367 0.250005 0.822830
Si Si2 0.057629 0.252520 0.072830
Si Si3 0.404145 0.424085 0.940923
Si Si4 0.279460 0.750006 0.822836
Si Si5 0.404146 0.075920 0.704743
O O1 0.111643 0.235922 0.697869
O O2 0.221226 0.503958 0.807233
O O3 0.221226 0.996054 0.838438
O O4 0.111632 0.264089 0.947780
O O5 0.000000 0.500000 0.072839
O O6 0.000000 0.000000 0.072832
O O7 0.500000 0.500000 0.935448
O O8 0.343541 0.667136 0.929557
O O9 0.387638 0.250004 0.822833
O O10 0.389324 0.294191 0.072833
O O11 0.343539 0.832872 0.716113
O O12 0.500000 0.000000 0.710218
#
# Coordination Sequence:
#
# PCOD9342617 Si02
#       5
#     4   4   4   4   4
#     4  12  28  44  76 112 144 186 236 304 372 434
#     4  12  26  52  78 104 142 186 236 290 370 464
#     4  11  25  45  71 103 149 208 260 308 365 432
#     4  12  26  44  70 110 154 182 250 306 368 416
#     4  11  25  45  71 103 149 208 260 308 365 432
#
# _framework density 21.869596000000001
#
# number of rings (size 3 to 8) (size 9 to 14) (size 15 to 20)
#    0.000    0.400    4.000    3.600    5.600    2.400 
#    0.000    0.000    0.000    0.000    0.000    0.000 
#    0.000    0.000    0.000    0.000    0.000    0.000 
#
# Total GULP energy -111792.281484 kJ/mol
# GULP energy per Si atom -5589.614074 kJ/mol
# Density = 2.181982 g / cm^3
# Si number density = 21.869596 Si / 1000 Ang^3
#
#
#
# Elastic Constant Matrix: (Units=GPa)
#
#
# Indices 1 2 3 4 5 6 
#
# 1 187.1114 101.7500 90.8796 0.0000 0.0000 0.0000
# 2 101.7500 181.8804 72.4312 0.0000 0.0000 0.0000
# 3 90.8796 72.4312 232.8174 0.0000 0.0000 0.0000
# 4 0.0000 0.0000 0.0000 30.6144 0.0000 0.0000
# 5 0.0000 0.0000 0.0000 0.0000 -244.8011 0.0000
# 6 0.0000 0.0000 0.0000 0.0000 0.0000 35.3781
#
#
#
# Elastic Compliance Matrix: (Units=1/GPa)
#
#
# Indices 1 2 3 4 5 6 
#
# 1 0.008492 -0.003916 -0.002097 0.000000 0.000000 0.000000
# 2 -0.003916 0.008081 -0.000986 0.000000 0.000000 0.000000
# 3 -0.002097 -0.000986 0.005420 0.000000 0.000000 0.000000
# 4 0.000000 0.000000 0.000000 0.032664 0.000000 0.000000
# 5 0.000000 0.000000 0.000000 0.000000 -0.004085 0.000000
# 6 0.000000 0.000000 0.000000 0.000000 0.000000 0.028266
#
#
# Mechanical properties :
#
#
# Convention : Reuss Voigt Hill
#
# Bulk Modulus (GPa) = 125.03891 125.77010 125.40451
# Shear Modulus (GPa) = 52.35541 -13.31180 19.52180
#
# Velocity S-wave (km/s) = 4.89814 -2.46984 2.99096
# Velocity P-wave (km/s) = 9.44923 7.03566 8.33032
#
# Compressibility (1/GPa) = 0.00799751
#
# Stress axis : x y z
#
# Youngs Moduli (GPa) = 117.75580 123.74283 184.49304
#
# Poissons Ratio (x) = 0.48456 0.38682
# Poissons Ratio (y) = 0.46111 0.18184
# Poissons Ratio (z) = 0.24689 0.12196
#
# Static dielectric constant tensor:
#      x y z
#    x 1.794770 0.000000 0.000000 
#    y 0.000000 1.801960 0.000000 
#    z 0.000000 0.000000 1.830630 
# 
# From -- ./inp_files/4255.got.cif
#   From: 2010.05.17/outbox.cif.g08.bks.cpg/sg30_3_cif.got.tgz:4255.got - 2010.06.03 17:03:02.
