data_PCOD9342210
_publ_section_title
;
Structure prediction by ZEFSAII (Michael W. Deem and Ramdas Pophale) SiO2 
 PCOD9342210
Probable space group: P N C 2
;
_chemical_formula_sum "Si O2"
_cell_formula_units_Z 24
_cell_length_a 8.184738
_cell_length_b 7.199673
_cell_length_c 15.318741
_cell_angle_alpha 90.000000
_cell_angle_beta 90.000000
_cell_angle_gamma 90.000000
_cell_volume 902.694148
_symmetry_space_group_name_H-M "P N C 2"
_symmetry_group_IT_number 30
_symmetry_cell_setting 'orthorhombic'
loop_
_space_group_symop_operation_xyz
x,y,z
-x,-y,z
-x,1/2+y,1/2+z
x,1/2-y,1/2+z
loop_
_atom_site_type_symbol
_atom_site_label
_atom_site_fract_x
_atom_site_fract_y
_atom_site_fract_z
Si Si1 0.410604 0.315866 0.700210
Si Si2 0.277359 0.277202 0.536152
Si Si3 0.722500 0.353040 0.107603
Si Si4 0.493847 0.227599 0.375280
Si Si5 0.951057 0.204551 0.464854
Si Si6 0.149748 0.850640 0.799173
O O1 0.500000 0.500000 0.729767
O O2 0.280699 0.378313 0.629313
O O3 0.547867 0.210072 0.644118
O O4 0.367412 0.231014 0.793625
O O5 0.419545 0.303314 0.465248
O O6 0.110812 0.320235 0.486802
O O7 0.284239 0.063930 0.572363
O O8 0.797156 0.243768 0.025185
O O9 0.831417 0.337302 0.195142
O O10 0.659970 0.327146 0.338687
O O11 0.500000 0.000000 0.393287
O O12 0.918478 0.192383 0.362897
O O13 0.000000 0.000000 0.495017
O O14 0.000000 0.000000 0.811650
#
# Coordination Sequence:
#
# PCOD9342210 Si02
#       6
#     4   4   4   4   4   4
#     4  10  22  38  60  92 121 158 218 285 342 399
#     4  11  21  38  65  92 125 175 227 271 341 429
#     4  10  22  43  65  88 131 183 224 273 346 434
#     4  10  21  39  64  89 126 178 225 274 343 430
#     4  10  22  39  62  91 128 180 226 270 347 436
#     4  11  23  41  65  98 137 176 232 299 353 402
#
# _framework density 26.58708
#
# number of rings (size 3 to 8) (size 9 to 14) (size 15 to 20)
#    0.000    1.667    0.000    6.000    0.000    5.333 
#    0.000    4.167    0.000    0.000    0.000    0.000 
#    0.000    0.000    0.000    0.000    0.000    0.000 
#
# Total GULP energy -133625.227583 kJ/mol
# GULP energy per Si atom -5567.717816 kJ/mol
# Density = 2.652657 g / cm^3
# Si number density = 26.587080 Si / 1000 Ang^3
#
#
#
# Elastic Constant Matrix: (Units=GPa)
#
#
# Indices 1 2 3 4 5 6 
#
# 1 96.5012 16.3401 45.8481 0.0000 0.0000 0.0000
# 2 16.3401 74.5321 16.6822 0.0000 0.0000 0.0000
# 3 45.8481 16.6822 218.8940 0.0000 0.0000 0.0000
# 4 0.0000 0.0000 0.0000 28.7069 0.0000 0.0000
# 5 0.0000 0.0000 0.0000 0.0000 48.0698 0.0000
# 6 0.0000 0.0000 0.0000 0.0000 0.0000 26.5847
#
#
#
# Elastic Compliance Matrix: (Units=1/GPa)
#
#
# Indices 1 2 3 4 5 6 
#
# 1 0.011814 -0.002072 -0.002317 0.000000 0.000000 0.000000
# 2 -0.002072 0.014013 -0.000634 0.000000 0.000000 0.000000
# 3 -0.002317 -0.000634 0.005102 0.000000 0.000000 0.000000
# 4 0.000000 0.000000 0.000000 0.034835 0.000000 0.000000
# 5 0.000000 0.000000 0.000000 0.000000 0.020803 0.000000
# 6 0.000000 0.000000 0.000000 0.000000 0.000000 0.037616
#
#
# Mechanical properties :
#
#
# Convention : Reuss Voigt Hill
#
# Bulk Modulus (GPa) = 47.88208 60.85203 54.36705
# Shear Modulus (GPa) = 35.41365 41.40940 38.41153
#
# Velocity S-wave (km/s) = 3.65360 3.95080 3.80510
# Velocity P-wave (km/s) = 5.98724 6.61432 6.30858
#
# Compressibility (1/GPa) = 0.02088464
#
# Stress axis : x y z
#
# Youngs Moduli (GPa) = 84.64571 71.36173 196.00294
#
# Poissons Ratio (x) = 0.14783 0.45406
# Poissons Ratio (y) = 0.17535 0.12428
# Poissons Ratio (z) = 0.19609 0.04525
#
# Static dielectric constant tensor:
#      x y z
#    x 2.186340 0.000000 0.000000 
#    y 0.000000 2.687210 0.000000 
#    z 0.000000 0.000000 2.144390 
# 
# From -- ./inp_files/5019.got.cif
#   From: 2010.05.17/outbox.cif.g08.bks.cpg/sg30_3_cif.got.tgz:5019.got - 2010.06.03 17:03:02.
