data_PCOD9342072
_publ_section_title
;
Structure prediction by ZEFSAII (Michael W. Deem and Ramdas Pophale) SiO2 
 PCOD9342072
Probable space group: P N C 2
;
_chemical_formula_sum "Si O2"
_cell_formula_units_Z 20
_cell_length_a 13.216835
_cell_length_b 7.094765
_cell_length_c 9.726783
_cell_angle_alpha 90.000000
_cell_angle_beta 90.000000
_cell_angle_gamma 90.000000
_cell_volume 912.083733
_symmetry_space_group_name_H-M "P N C 2"
_symmetry_group_IT_number 30
_symmetry_cell_setting 'orthorhombic'
loop_
_space_group_symop_operation_xyz
x,y,z
-x,-y,z
-x,1/2+y,1/2+z
x,1/2-y,1/2+z
loop_
_atom_site_type_symbol
_atom_site_label
_atom_site_fract_x
_atom_site_fract_y
_atom_site_fract_z
Si Si1 0.299659 0.279182 0.534580
Si Si2 0.383676 0.041753 0.295608
Si Si3 0.905456 0.886248 0.107028
Si Si4 0.851330 0.484586 0.134100
Si Si5 0.179235 0.656513 0.837828
O O1 0.350443 0.210398 0.396764
O O2 0.367408 0.397258 0.638056
O O3 0.193664 0.387726 0.510788
O O4 0.256659 0.095293 0.616417
O O5 0.500000 0.000000 0.322283
O O6 0.300462 0.879415 0.327210
O O7 0.925569 0.665264 0.135138
O O8 0.000000 0.000000 0.053037
O O9 0.869984 0.985552 0.248636
O O10 0.857530 0.366947 0.992890
O O11 0.851251 0.345272 0.260578
#
# Coordination Sequence:
#
# PCOD9342072 Si02
#       5
#     4   4   4   4   4
#     4   8  20  39  60  93 134 173 232 292 329 426
#     4  10  20  38  64  92 137 183 228 287 351 414
#     4   9  20  41  66  93 134 181 230 292 353 415
#     4   9  21  38  67  94 136 175 222 286 348 407
#     4  10  21  40  61  98 135 178 227 289 341 414
#
# _framework density 21.927810999999998
#
# number of rings (size 3 to 8) (size 9 to 14) (size 15 to 20)
#    1.200    1.600    0.000    0.000    0.000    8.800 
#    3.600    1.000    0.000    0.000    0.000    1.400 
#    0.000    0.000    0.000    0.000    0.000    0.000 
#
# Total GULP energy -111638.796032 kJ/mol
# GULP energy per Si atom -5581.939802 kJ/mol
# Density = 2.187790 g / cm^3
# Si number density = 21.927811 Si / 1000 Ang^3
#
#
#
# Elastic Constant Matrix: (Units=GPa)
#
#
# Indices 1 2 3 4 5 6 
#
# 1 155.1498 47.1844 51.2897 0.0000 0.0000 0.0000
# 2 47.1844 118.7800 62.1096 0.0000 0.0000 0.0000
# 3 51.2897 62.1096 88.7369 0.0000 0.0000 0.0000
# 4 0.0000 0.0000 0.0000 39.8927 0.0000 0.0000
# 5 0.0000 0.0000 0.0000 0.0000 12.8403 0.0000
# 6 0.0000 0.0000 0.0000 0.0000 0.0000 23.0827
#
#
#
# Elastic Compliance Matrix: (Units=1/GPa)
#
#
# Indices 1 2 3 4 5 6 
#
# 1 0.008077 -0.001210 -0.003821 0.000000 0.000000 0.000000
# 2 -0.001210 0.013460 -0.008722 0.000000 0.000000 0.000000
# 3 -0.003821 -0.008722 0.019582 0.000000 0.000000 0.000000
# 4 0.000000 0.000000 0.000000 0.025067 0.000000 0.000000
# 5 0.000000 0.000000 0.000000 0.000000 0.077880 0.000000
# 6 0.000000 0.000000 0.000000 0.000000 0.000000 0.043322
#
#
# Mechanical properties :
#
#
# Convention : Reuss Voigt Hill
#
# Bulk Modulus (GPa) = 73.45880 75.98155 74.72018
# Shear Modulus (GPa) = 22.78601 28.63535 25.71068
#
# Velocity S-wave (km/s) = 3.22706 3.61763 3.42791
# Velocity P-wave (km/s) = 6.88900 7.22327 7.05811
#
# Compressibility (1/GPa) = 0.01361307
#
# Stress axis : x y z
#
# Youngs Moduli (GPa) = 123.81333 74.29291 51.06625
#
# Poissons Ratio (x) = 0.08992 0.19513
# Poissons Ratio (y) = 0.14986 0.44538
# Poissons Ratio (z) = 0.47311 0.64796
#
# Static dielectric constant tensor:
#      x y z
#    x 1.829810 0.000000 0.000000 
#    y 0.000000 1.847050 0.000000 
#    z 0.000000 0.000000 1.754860 
# 
# From -- ./inp_files/2264.got.cif
#   From: 2010.05.17/outbox.cif.g08.bks.cpg/sg30_2_cif.got.tgz:2264.got - 2010.06.03 17:03:02.
