data_PCOD9342449
_publ_section_title
;
Structure prediction by ZEFSAII (Michael W. Deem and Ramdas Pophale) SiO2 
 PCOD9342449
Probable space group: P N C 2
;
_chemical_formula_sum "Si O2"
_cell_formula_units_Z 20
_cell_length_a 4.894629
_cell_length_b 15.445470
_cell_length_c 10.089658
_cell_angle_alpha 90.000000
_cell_angle_beta 90.000000
_cell_angle_gamma 90.000000
_cell_volume 762.776585
_symmetry_space_group_name_H-M "P N C 2"
_symmetry_group_IT_number 30
_symmetry_cell_setting 'orthorhombic'
loop_
_space_group_symop_operation_xyz
x,y,z
-x,-y,z
-x,1/2+y,1/2+z
x,1/2-y,1/2+z
loop_
_atom_site_type_symbol
_atom_site_label
_atom_site_fract_x
_atom_site_fract_y
_atom_site_fract_z
Si Si1 0.701984 0.925668 0.530600
Si Si2 0.123670 0.256652 0.747135
Si Si3 0.183504 0.681459 0.989706
Si Si4 0.235397 0.060650 0.133810
Si Si5 0.698428 0.581520 0.336151
O O1 0.992020 0.903432 0.469841
O O2 0.774546 0.943139 0.684835
O O3 0.496540 0.842879 0.515313
O O4 0.500000 0.000000 0.480830
O O5 0.894097 0.265740 0.860336
O O6 0.955536 0.224731 0.618361
O O7 0.261512 0.347841 0.708438
O O8 0.331120 0.184134 0.805051
O O9 0.500000 0.000000 0.139981
O O10 0.155275 0.082414 0.979609
O O11 0.000000 0.000000 0.189453
O O12 0.500000 0.500000 0.361695
#
# Coordination Sequence:
#
# PCOD9342449 Si02
#       5
#     4   4   4   4   4
#     4  10  23  43  69 105 138 193 244 316 369 454
#     4  11  24  48  71 115 149 209 253 327 387 471
#     4  11  25  42  71 101 146 190 251 302 386 448
#     4  11  26  46  73 113 158 208 262 326 396 475
#     4   9  21  45  75 106 149 200 261 311 385 470
#
# _framework density 26.219995999999998
#
# number of rings (size 3 to 8) (size 9 to 14) (size 15 to 20)
#    0.000    1.600    2.000    0.600    0.000   20.000 
#    0.000    0.000    0.000    0.000    0.000    0.000 
#    0.000    0.000    0.000    0.000    0.000    0.000 
#
# Total GULP energy -111480.335628 kJ/mol
# GULP energy per Si atom -5574.016781 kJ/mol
# Density = 2.616032 g / cm^3
# Si number density = 26.219996 Si / 1000 Ang^3
#
#
#
# Elastic Constant Matrix: (Units=GPa)
#
#
# Indices 1 2 3 4 5 6 
#
# 1 139.6220 60.1870 22.9141 0.0000 0.0000 0.0000
# 2 60.1870 194.0604 42.9191 0.0000 0.0000 0.0000
# 3 22.9141 42.9191 168.7531 0.0000 0.0000 0.0000
# 4 0.0000 0.0000 0.0000 66.6334 0.0000 0.0000
# 5 0.0000 0.0000 0.0000 0.0000 -6.6550 0.0000
# 6 0.0000 0.0000 0.0000 0.0000 0.0000 37.0762
#
#
#
# Elastic Compliance Matrix: (Units=1/GPa)
#
#
# Indices 1 2 3 4 5 6 
#
# 1 0.008307 -0.002466 -0.000501 0.000000 0.000000 0.000000
# 2 -0.002466 0.006192 -0.001240 0.000000 0.000000 0.000000
# 3 -0.000501 -0.001240 0.006309 0.000000 0.000000 0.000000
# 4 0.000000 0.000000 0.000000 0.015007 0.000000 0.000000
# 5 0.000000 0.000000 0.000000 0.000000 -0.150263 0.000000
# 6 0.000000 0.000000 0.000000 0.000000 0.000000 0.026971
#
#
# Mechanical properties :
#
#
# Convention : Reuss Voigt Hill
#
# Bulk Modulus (GPa) = 80.67583 83.83066 82.25325
# Shear Modulus (GPa) = -66.72867 44.50527 -11.11170
#
# Velocity S-wave (km/s) = -5.05023 4.12440 -2.06084
# Velocity P-wave (km/s) = 1.78066 7.39745 5.07698
#
# Compressibility (1/GPa) = 0.01239529
#
# Stress axis : x y z
#
# Youngs Moduli (GPa) = 120.37625 161.49863 158.49853
#
# Poissons Ratio (x) = 0.39821 0.07939
# Poissons Ratio (y) = 0.29681 0.19654
# Poissons Ratio (z) = 0.06030 0.20026
#
# Static dielectric constant tensor:
#      x y z
#    x 1.986590 0.000000 0.000000 
#    y 0.000000 1.747910 0.000000 
#    z 0.000000 0.000000 2.099840 
# 
# From -- ./inp_files/3065.got.cif
#   From: 2010.05.17/outbox.cif.g08.bks.cpg/sg30_2_cif.got.tgz:3065.got - 2010.06.03 17:03:02.
