data_PCOD9342199
_publ_section_title
;
Structure prediction by ZEFSAII (Michael W. Deem and Ramdas Pophale) SiO2 
 PCOD9342199
Probable space group: P N C 2
;
_chemical_formula_sum "Si O2"
_cell_formula_units_Z 32
_cell_length_a 14.729517
_cell_length_b 12.032840
_cell_length_c 8.671883
_cell_angle_alpha 90.000000
_cell_angle_beta 90.000000
_cell_angle_gamma 90.000000
_cell_volume 1536.986517
_symmetry_space_group_name_H-M "P N C 2"
_symmetry_group_IT_number 30
_symmetry_cell_setting 'orthorhombic'
loop_
_space_group_symop_operation_xyz
x,y,z
-x,-y,z
-x,1/2+y,1/2+z
x,1/2-y,1/2+z
loop_
_atom_site_type_symbol
_atom_site_label
_atom_site_fract_x
_atom_site_fract_y
_atom_site_fract_z
Si Si1 0.238454 0.338820 0.875000
Si Si2 0.402848 0.960129 0.756192
Si Si3 0.769836 0.600450 0.237881
Si Si4 0.905912 0.435655 0.104045
Si Si5 0.891652 0.009976 0.249624
Si Si6 0.302783 0.755805 0.301881
Si Si7 0.172577 0.714575 0.556571
Si Si8 0.395941 0.512620 0.884302
O O1 0.223272 0.209542 0.841023
O O2 0.164937 0.396987 0.761447
O O3 0.334511 0.403714 0.846292
O O4 0.227886 0.358896 0.058862
O O5 0.376410 0.840164 0.822004
O O6 0.402467 0.966076 0.568922
O O7 0.500000 0.000000 0.812186
O O8 0.322633 0.044228 0.794051
O O9 0.841849 0.499393 0.225285
O O10 0.904221 0.302273 0.109509
O O11 0.000000 0.500000 0.116172
O O12 0.874386 0.449949 0.926043
O O13 0.853085 0.095213 0.123810
O O14 0.000000 0.000000 0.228986
O O15 0.205957 0.726362 0.382340
O O16 0.269747 0.748053 0.126168
O O17 0.342885 0.878134 0.325693
O O18 0.500000 0.500000 0.827957
#
# Coordination Sequence:
#
# PCOD9342199 Si02
#       8
#     4   4   4   4   4   4   4   4
#     4  10  21  39  58  83 120 158 192 244 305 355
#     4  10  22  40  63  88 122 162 203 253 309 364
#     4  10  21  39  58  83 120 158 192 244 305 355
#     4  10  21  39  62  88 122 164 202 247 312 366
#     4  10  22  40  63  88 122 162 203 253 309 364
#     4  12  21  40  66  91 121 162 211 258 308 370
#     4  12  21  40  66  91 121 162 211 258 308 370
#     4  10  21  39  62  88 122 164 202 247 312 366
#
# _framework density 20.819962
#
# number of rings (size 3 to 8) (size 9 to 14) (size 15 to 20)
#    0.000    1.500    5.000    0.750    3.500    1.000 
#    0.000    1.250    0.000    0.000    0.000    0.000 
#    0.000    0.000    0.000    0.000    0.000    0.000 
#
# Total GULP energy -178168.852361 kJ/mol
# GULP energy per Si atom -5567.776636 kJ/mol
# Density = 2.077257 g / cm^3
# Si number density = 20.819962 Si / 1000 Ang^3
#
#
#
# Elastic Constant Matrix: (Units=GPa)
#
#
# Indices 1 2 3 4 5 6 
#
# 1 61.0465 -2.6499 4.3398 0.0000 0.0000 0.0000
# 2 -2.6499 66.8205 9.1304 0.0000 0.0000 0.0000
# 3 4.3398 9.1304 13.7596 0.0000 0.0000 0.0000
# 4 0.0000 0.0000 0.0000 27.7923 0.0000 0.0000
# 5 0.0000 0.0000 0.0000 0.0000 -6.3270 0.0000
# 6 0.0000 0.0000 0.0000 0.0000 0.0000 27.6894
#
#
#
# Elastic Compliance Matrix: (Units=1/GPa)
#
#
# Indices 1 2 3 4 5 6 
#
# 1 0.016899 0.001538 -0.006350 0.000000 0.000000 0.000000
# 2 0.001538 0.016598 -0.011499 0.000000 0.000000 0.000000
# 3 -0.006350 -0.011499 0.082309 0.000000 0.000000 0.000000
# 4 0.000000 0.000000 0.000000 0.035981 0.000000 0.000000
# 5 0.000000 0.000000 0.000000 0.000000 -0.158052 0.000000
# 6 0.000000 0.000000 0.000000 0.000000 0.000000 0.036115
#
#
# Mechanical properties :
#
#
# Convention : Reuss Voigt Hill
#
# Bulk Modulus (GPa) = 12.02158 18.14080 15.08119
# Shear Modulus (GPa) = 55.43221 18.55135 36.99178
#
# Velocity S-wave (km/s) = 5.16550 2.98826 4.21972
# Velocity P-wave (km/s) = 6.43141 4.54295 5.56783
#
# Compressibility (1/GPa) = 0.08318376
#
# Stress axis : x y z
#
# Youngs Moduli (GPa) = 59.17453 60.24955 12.14929
#
# Poissons Ratio (x) = -0.09266 0.07715
# Poissons Ratio (y) = -0.09100 0.13970
# Poissons Ratio (z) = 0.37578 0.69279
#
# Static dielectric constant tensor:
#      x y z
#    x 1.761390 0.000000 0.000000 
#    y 0.000000 1.791710 0.000000 
#    z 0.000000 0.000000 1.743420 
# 
# From -- ./inp_files/2695.got.cif
#   From: 2010.05.17/outbox.cif.g08.bks.cpg/sg30_2_cif.got.tgz:2695.got - 2010.06.03 17:03:02.
