data_PCOD9342651
_publ_section_title
;
Structure prediction by ZEFSAII (Michael W. Deem and Ramdas Pophale) SiO2 
 PCOD9342651
Probable space group: P N C 2
;
_chemical_formula_sum "Si O2"
_cell_formula_units_Z 12
_cell_length_a 8.110506
_cell_length_b 7.003665
_cell_length_c 9.026813
_cell_angle_alpha 90.000000
_cell_angle_beta 90.000000
_cell_angle_gamma 90.000000
_cell_volume 512.752469
_symmetry_space_group_name_H-M "P N C 2"
_symmetry_group_IT_number 30
_symmetry_cell_setting 'orthorhombic'
loop_
_space_group_symop_operation_xyz
x,y,z
-x,-y,z
-x,1/2+y,1/2+z
x,1/2-y,1/2+z
loop_
_atom_site_type_symbol
_atom_site_label
_atom_site_fract_x
_atom_site_fract_y
_atom_site_fract_z
Si Si1 0.184473 0.715160 0.273750
Si Si2 0.307062 0.509427 0.551384
Si Si3 0.867818 0.627785 0.099820
O O1 0.217706 0.656282 0.440646
O O2 0.271562 0.903740 0.214005
O O3 0.247077 0.528027 0.180071
O O4 0.992931 0.713225 0.224859
O O5 0.500000 0.500000 0.522577
O O6 0.227587 0.301967 0.531664
O O7 0.000000 0.500000 0.006312
#
# Coordination Sequence:
#
# PCOD9342651 Si02
#       3
#     4   4   4
#     4   9  25  44  72  99 142 199 250 300 372 443
#     4  12  25  45  73 110 155 189 252 316 382 438
#     4   8  23  42  75  99 141 184 262 287 372 432
#
# _framework density 23.403103999999999
#
# number of rings (size 3 to 8) (size 9 to 14) (size 15 to 20)
#    2.000    0.000    0.000    1.000   14.000    2.667 
#    6.000    0.000    0.000    0.000    0.000    0.000 
#    0.000    0.000    0.000    0.000    0.000    0.000 
#
# Total GULP energy -66930.440834 kJ/mol
# GULP energy per Si atom -5577.536736 kJ/mol
# Density = 2.334984 g / cm^3
# Si number density = 23.403104 Si / 1000 Ang^3
#
#
#
# Elastic Constant Matrix: (Units=GPa)
#
#
# Indices 1 2 3 4 5 6 
#
# 1 116.5333 55.2425 9.9906 0.0000 0.0000 0.0000
# 2 55.2425 127.4849 35.1304 0.0000 0.0000 0.0000
# 3 9.9906 35.1304 44.9853 0.0000 0.0000 0.0000
# 4 0.0000 0.0000 0.0000 36.7156 0.0000 0.0000
# 5 0.0000 0.0000 0.0000 0.0000 13.3669 0.0000
# 6 0.0000 0.0000 0.0000 0.0000 0.0000 27.8329
#
#
#
# Elastic Compliance Matrix: (Units=1/GPa)
#
#
# Indices 1 2 3 4 5 6 
#
# 1 0.010891 -0.005164 0.001614 0.000000 0.000000 0.000000
# 2 -0.005164 0.012444 -0.008571 0.000000 0.000000 0.000000
# 3 0.001614 -0.008571 0.028564 0.000000 0.000000 0.000000
# 4 0.000000 0.000000 0.000000 0.027236 0.000000 0.000000
# 5 0.000000 0.000000 0.000000 0.000000 0.074812 0.000000
# 6 0.000000 0.000000 0.000000 0.000000 0.000000 0.035929
#
#
# Mechanical properties :
#
#
# Convention : Reuss Voigt Hill
#
# Bulk Modulus (GPa) = 36.15697 54.41449 45.28573
# Shear Modulus (GPa) = 22.38778 28.15907 25.27342
#
# Velocity S-wave (km/s) = 3.09628 3.47251 3.28978
# Velocity P-wave (km/s) = 5.31655 6.27528 5.81571
#
# Compressibility (1/GPa) = 0.02765719
#
# Stress axis : x y z
#
# Youngs Moduli (GPa) = 91.81985 80.36267 35.00894
#
# Poissons Ratio (x) = 0.41500 -0.05651
# Poissons Ratio (y) = 0.47417 0.30005
# Poissons Ratio (z) = -0.14820 0.68876
#
# Static dielectric constant tensor:
#      x y z
#    x 1.828720 0.000000 0.000000 
#    y 0.000000 1.913530 0.000000 
#    z 0.000000 0.000000 1.978430 
# 
# From -- ./inp_files/1515.got.cif
#   From: 2010.05.17/outbox.cif.g08.bks.cpg/sg30_1_cif.got.tgz:1515.got - 2010.06.03 17:03:02.
