data_PCOD9342661
_publ_section_title
;
Structure prediction by ZEFSAII (Michael W. Deem and Ramdas Pophale) SiO2 
 PCOD9342661
Probable space group: P N C 2
;
_chemical_formula_sum "Si O2"
_cell_formula_units_Z 20
_cell_length_a 4.989098
_cell_length_b 13.798095
_cell_length_c 11.671163
_cell_angle_alpha 90.000000
_cell_angle_beta 90.000000
_cell_angle_gamma 90.000000
_cell_volume 803.443423
_symmetry_space_group_name_H-M "P N C 2"
_symmetry_group_IT_number 30
_symmetry_cell_setting 'orthorhombic'
loop_
_space_group_symop_operation_xyz
x,y,z
-x,-y,z
-x,1/2+y,1/2+z
x,1/2-y,1/2+z
loop_
_atom_site_type_symbol
_atom_site_label
_atom_site_fract_x
_atom_site_fract_y
_atom_site_fract_z
Si Si1 0.500000 0.500000 0.503891
Si Si2 0.000000 0.000000 0.831412
Si Si3 0.147977 0.398026 0.677516
Si Si4 0.647978 0.398026 0.157787
Si Si5 0.841056 0.264842 0.500889
Si Si6 0.341056 0.235158 0.834414
O O1 0.394046 0.419929 0.592595
O O2 0.579509 0.281610 0.424137
O O3 0.894047 0.080070 0.742707
O O4 0.250000 1.000000 0.917651
O O5 0.277270 0.340991 0.782958
O O6 0.000000 0.500000 0.703261
O O7 0.934734 0.330161 0.609385
O O8 0.500000 0.500000 0.132042
O O9 0.777272 0.340991 0.052344
O O10 0.434736 0.330161 0.225918
O O11 0.079509 0.281611 0.411165
#
# Coordination Sequence:
#
# PCOD9342661 Si02
#       6
#     2   2   4   4   4   4
#     4  12  26  46  82 118 154 210 274 342 406 476
#     4  12  26  46  82 118 154 210 274 342 406 476
#     4  12  30  53  84 124 166 217 284 342 408 503
#     4  12  30  53  84 124 166 217 284 342 408 503
#     4  12  30  52  81 120 169 216 269 343 418 487
#     4  12  30  52  81 120 169 216 269 343 418 487
#
# _framework density 24.892852000000001
#
# number of rings (size 3 to 8) (size 9 to 14) (size 15 to 20)
#    0.000    0.000    2.000    4.800   16.800    1.600 
#    0.000    0.000    0.000    0.000    0.000    0.000 
#    0.000    0.000    0.000    0.000    0.000    0.000 
#
# Total GULP energy -111822.999895 kJ/mol
# GULP energy per Si atom -5591.149995 kJ/mol
# Density = 2.483620 g / cm^3
# Si number density = 24.892852 Si / 1000 Ang^3
#
#
#
# Elastic Constant Matrix: (Units=GPa)
#
#
# Indices 1 2 3 4 5 6 
#
# 1 227.0372 49.8894 34.7481 0.0000 0.0000 0.0000
# 2 49.8894 141.8426 37.9901 0.0000 0.0000 0.0000
# 3 34.7481 37.9901 43.8904 0.0000 0.0000 0.0000
# 4 0.0000 0.0000 0.0000 57.8495 0.0000 0.0000
# 5 0.0000 0.0000 0.0000 0.0000 6.7663 0.0000
# 6 0.0000 0.0000 0.0000 0.0000 0.0000 54.3492
#
#
#
# Elastic Compliance Matrix: (Units=1/GPa)
#
#
# Indices 1 2 3 4 5 6 
#
# 1 0.005104 -0.000928 -0.003238 0.000000 0.000000 0.000000
# 2 -0.000928 0.009346 -0.007355 0.000000 0.000000 0.000000
# 3 -0.003238 -0.007355 0.031714 0.000000 0.000000 0.000000
# 4 0.000000 0.000000 0.000000 0.017286 0.000000 0.000000
# 5 0.000000 0.000000 0.000000 0.000000 0.147792 0.000000
# 6 0.000000 0.000000 0.000000 0.000000 0.000000 0.018400
#
#
# Mechanical properties :
#
#
# Convention : Reuss Voigt Hill
#
# Bulk Modulus (GPa) = 43.24810 73.11395 58.18103
# Shear Modulus (GPa) = 19.20193 43.13584 31.16889
#
# Velocity S-wave (km/s) = 2.78039 4.16728 3.54237
# Velocity P-wave (km/s) = 5.26487 7.25191 6.33676
#
# Compressibility (1/GPa) = 0.02312240
#
# Stress axis : x y z
#
# Youngs Moduli (GPa) = 195.92440 106.99232 31.53220
#
# Poissons Ratio (x) = 0.09930 0.10209
# Poissons Ratio (y) = 0.18183 0.23193
# Poissons Ratio (z) = 0.63431 0.78695
#
# Static dielectric constant tensor:
#      x y z
#    x 1.952160 0.000000 0.000000 
#    y 0.000000 2.078570 0.000000 
#    z 0.000000 0.000000 1.905910 
# 
# From -- ./inp_files/4633.got.cif
#   From: 2010.05.17/outbox.cif.g08.bks.cpg/sg30_3_cif.got.tgz:4633.got - 2010.06.03 17:03:02.
