data_PCOD9342233
_publ_section_title
;
Structure prediction by ZEFSAII (Michael W. Deem and Ramdas Pophale) SiO2 
 PCOD9342233
Probable space group: P N C 2
;
_chemical_formula_sum "Si O2"
_cell_formula_units_Z 26
_cell_length_a 8.826804
_cell_length_b 9.348133
_cell_length_c 16.219638
_cell_angle_alpha 90.000000
_cell_angle_beta 90.000000
_cell_angle_gamma 90.000000
_cell_volume 1338.349444
_symmetry_space_group_name_H-M "P N C 2"
_symmetry_group_IT_number 30
_symmetry_cell_setting 'orthorhombic'
loop_
_space_group_symop_operation_xyz
x,y,z
-x,-y,z
-x,1/2+y,1/2+z
x,1/2-y,1/2+z
loop_
_atom_site_type_symbol
_atom_site_label
_atom_site_fract_x
_atom_site_fract_y
_atom_site_fract_z
Si Si1 0.637476 0.197718 0.673070
Si Si2 0.265971 0.478478 0.885345
Si Si3 0.825381 0.537221 0.075259
Si Si4 0.340603 0.327672 0.601910
Si Si5 0.500000 0.000000 0.972651
Si Si6 0.512126 0.256087 0.852305
Si Si7 0.835671 0.032694 0.211653
O O1 0.506155 0.257645 0.613485
O O2 0.551462 0.194624 0.761647
O O3 0.771048 0.313163 0.686752
O O4 0.712878 0.057922 0.632642
O O5 0.346238 0.324650 0.868502
O O6 0.384050 0.607780 0.872188
O O7 0.156414 0.509750 0.809324
O O8 0.204589 0.488967 0.977927
O O9 0.779342 0.702105 0.088934
O O10 0.000000 0.500000 0.094275
O O11 0.363734 0.440619 0.528732
O O12 0.289670 0.420520 0.679743
O O13 0.546591 0.131110 0.915734
O O14 0.000000 0.000000 0.174589
#
# Coordination Sequence:
#
# PCOD9342233 Si02
#       7
#     4   4   4   4   2   4   4
#     4  11  23  42  66  95 126 169 222 268 315 395
#     4  10  21  41  63  93 129 169 220 264 323 391
#     4  12  26  42  64  99 134 172 215 273 339 393
#     4  12  23  40  65  95 126 167 221 269 321 391
#     4  12  22  38  62  98 120 158 214 276 320 364
#     4  10  22  38  64  96 122 165 222 270 315 381
#     4  11  22  40  65  93 131 174 211 267 331 388
#
# _framework density 19.426912999999999
#
# number of rings (size 3 to 8) (size 9 to 14) (size 15 to 20)
#    0.000    0.923    4.615    2.769    4.308    0.000 
#    0.000    0.000    0.000    0.000    0.000    0.000 
#    0.000    0.000    0.000    0.000    0.000    0.000 
#
# Total GULP energy -145051.844548 kJ/mol
# GULP energy per Si atom -5578.917098 kJ/mol
# Density = 1.938270 g / cm^3
# Si number density = 19.426913 Si / 1000 Ang^3
#
#
#
# Elastic Constant Matrix: (Units=GPa)
#
#
# Indices 1 2 3 4 5 6 
#
# 1 73.4706 25.6453 0.6132 0.0000 0.0000 0.0000
# 2 25.6453 110.9882 40.8294 0.0000 0.0000 0.0000
# 3 0.6132 40.8294 82.8307 0.0000 0.0000 0.0000
# 4 0.0000 0.0000 0.0000 40.2620 0.0000 0.0000
# 5 0.0000 0.0000 0.0000 0.0000 -43.8836 0.0000
# 6 0.0000 0.0000 0.0000 0.0000 0.0000 15.0873
#
#
#
# Elastic Compliance Matrix: (Units=1/GPa)
#
#
# Indices 1 2 3 4 5 6 
#
# 1 0.015061 -0.004201 0.001959 0.000000 0.000000 0.000000
# 2 -0.004201 0.012177 -0.005971 0.000000 0.000000 0.000000
# 3 0.001959 -0.005971 0.015002 0.000000 0.000000 0.000000
# 4 0.000000 0.000000 0.000000 0.024837 0.000000 0.000000
# 5 0.000000 0.000000 0.000000 0.000000 -0.022788 0.000000
# 6 0.000000 0.000000 0.000000 0.000000 0.000000 0.066281
#
#
# Mechanical properties :
#
#
# Convention : Reuss Voigt Hill
#
# Bulk Modulus (GPa) = 38.73875 44.60726 41.67300
# Shear Modulus (GPa) = 36.87287 15.63993 26.25640
#
# Velocity S-wave (km/s) = 4.36137 2.84044 3.68033
# Velocity P-wave (km/s) = 6.73395 5.81110 6.28948
#
# Compressibility (1/GPa) = 0.02581394
#
# Stress axis : x y z
#
# Youngs Moduli (GPa) = 66.39748 82.11988 66.65871
#
# Poissons Ratio (x) = 0.34496 -0.13059
# Poissons Ratio (y) = 0.27892 0.39805
# Poissons Ratio (z) = -0.13008 0.49037
#
# Static dielectric constant tensor:
#      x y z
#    x 1.761780 0.000000 0.000000 
#    y 0.000000 1.667610 0.000000 
#    z 0.000000 0.000000 1.715780 
# 
# From -- ./inp_files/6324.got.cif
#   From: 2010.05.17/outbox.cif.g08.bks.cpg/sg30_4_cif.got.tgz:6324.got - 2010.06.03 17:03:02.
