data_PCOD9342860
_publ_section_title
;
Structure prediction by ZEFSAII (Michael W. Deem and Ramdas Pophale) SiO2 
 PCOD9342860
Probable space group: P M N 21
;
_chemical_formula_sum "Si O2"
_cell_formula_units_Z 32
_cell_length_a 9.035537
_cell_length_b 14.834111
_cell_length_c 14.323011
_cell_angle_alpha 90.000000
_cell_angle_beta 90.000000
_cell_angle_gamma 90.000000
_cell_volume 1919.772731
_symmetry_space_group_name_H-M "P M N 21"
_symmetry_group_IT_number 31
_symmetry_cell_setting 'orthorhombic'
loop_
_space_group_symop_operation_xyz
x,y,z
1/2-x,-y,1/2+z
-x,y,z
1/2+x,-y,1/2+z
loop_
_atom_site_type_symbol
_atom_site_label
_atom_site_fract_x
_atom_site_fract_y
_atom_site_fract_z
Si Si1 0.321484 0.350202 0.172310
Si Si2 0.324978 0.008208 0.286770
Si Si3 0.675022 0.892968 0.453580
Si Si4 0.823953 0.825171 0.280386
Si Si5 0.677730 0.515722 0.041891
Si Si6 0.177136 0.154849 0.162639
Si Si7 0.823049 0.519874 0.841880
Si Si8 0.677870 0.646406 0.209321
O O1 0.500000 0.338327 0.169180
O O2 0.279531 0.421260 0.091153
O O3 0.241087 0.255439 0.163560
O O4 0.284529 0.400510 0.269485
O O5 0.500000 0.010396 0.268583
O O6 0.248131 0.095053 0.244295
O O7 0.303958 0.987488 0.397821
O O8 0.250317 0.917977 0.243816
O O9 0.500000 0.870803 0.445275
O O10 0.767835 0.824552 0.388575
O O11 0.714996 0.888823 0.561522
O O12 0.761406 0.738846 0.227763
O O13 0.000000 0.830356 0.276234
O O14 0.500000 0.515331 0.035733
O O15 0.717916 0.596159 0.113054
O O16 0.746660 0.527070 0.941012
O O17 0.000000 0.155784 0.171611
O O18 0.786300 0.425842 0.790455
O O19 0.000000 0.521795 0.853298
O O20 0.500000 0.660712 0.210332
#
# Coordination Sequence:
#
# PCOD9342860 Si02
#       8
#     4   4   4   4   4   4   4   4
#     4   9  20  37  53  78 111 146 180 218 275 329
#     4   9  19  37  55  75 107 143 170 212 275 323
#     4   8  19  36  53  76 108 139 169 209 270 320
#     4  10  19  32  53  80 104 130 174 222 256 308
#     4   9  19  34  53  76 105 141 183 224 264 317
#     4  11  21  35  57  84 109 139 182 227 263 317
#     4   9  19  35  54  74 106 145 179 218 269 322
#     4   9  18  34  52  73 106 143 173 214 274 324
#
# _framework density 16.668638999999999
#
# number of rings (size 3 to 8) (size 9 to 14) (size 15 to 20)
#    0.750    2.000    0.000    3.000    1.750    3.000 
#    0.000    3.750    0.000    1.500    0.000    0.000 
#    0.000    0.000    0.000    0.000    0.000    0.000 
#
# Total GULP energy -178166.087315 kJ/mol
# GULP energy per Si atom -5567.690229 kJ/mol
# Density = 1.663070 g / cm^3
# Si number density = 16.668639 Si / 1000 Ang^3
#
#
#
# Elastic Constant Matrix: (Units=GPa)
#
#
# Indices 1 2 3 4 5 6 
#
# 1 43.8495 27.4567 31.1272 0.0000 0.0000 0.0000
# 2 27.4567 61.4843 27.3106 0.0000 0.0000 0.0000
# 3 31.1272 27.3106 94.3472 0.0000 0.0000 0.0000
# 4 0.0000 0.0000 0.0000 9.6767 0.0000 0.0000
# 5 0.0000 0.0000 0.0000 0.0000 27.7509 0.0000
# 6 0.0000 0.0000 0.0000 0.0000 0.0000 21.0712
#
#
#
# Elastic Compliance Matrix: (Units=1/GPa)
#
#
# Indices 1 2 3 4 5 6 
#
# 1 0.036725 -0.012644 -0.008456 0.000000 0.000000 0.000000
# 2 -0.012644 0.023017 -0.002491 0.000000 0.000000 0.000000
# 3 -0.008456 -0.002491 0.014110 0.000000 0.000000 0.000000
# 4 0.000000 0.000000 0.000000 0.103341 0.000000 0.000000
# 5 0.000000 0.000000 0.000000 0.000000 0.036035 0.000000
# 6 0.000000 0.000000 0.000000 0.000000 0.000000 0.047458
#
#
# Mechanical properties :
#
#
# Convention : Reuss Voigt Hill
#
# Bulk Modulus (GPa) = 37.49604 41.27444 39.38524
# Shear Modulus (GPa) = 15.78480 19.28552 17.53516
#
# Velocity S-wave (km/s) = 3.08064 3.40515 3.24695
# Velocity P-wave (km/s) = 5.93275 6.34630 6.14301
#
# Compressibility (1/GPa) = 0.02666949
#
# Stress axis : x y z
#
# Youngs Moduli (GPa) = 27.22912 43.44571 70.87034
#
# Poissons Ratio (x) = 0.54933 0.59931
# Poissons Ratio (y) = 0.34428 0.17656
# Poissons Ratio (z) = 0.23026 0.10823
#
# Static dielectric constant tensor:
#      x y z
#    x 1.550710 0.000000 0.000000 
#    y 0.000000 1.547480 0.000000 
#    z 0.000000 0.000000 1.565850 
# 
# From -- ./inp_files/5129.got.cif
#   From: 2010.05.17/outbox.cif.g08.bks.cpg/sg31_3_cif.got.tgz:5129.got - 2010.06.03 17:08:30.
