data_PCOD9342980
_publ_section_title
;
Structure prediction by ZEFSAII (Michael W. Deem and Ramdas Pophale) SiO2 
 PCOD9342980
Probable space group: P M N 21
;
_chemical_formula_sum "Si O2"
_cell_formula_units_Z 32
_cell_length_a 14.107631
_cell_length_b 9.523566
_cell_length_c 11.907616
_cell_angle_alpha 90.000000
_cell_angle_beta 90.000000
_cell_angle_gamma 90.000000
_cell_volume 1599.847211
_symmetry_space_group_name_H-M "P M N 21"
_symmetry_group_IT_number 31
_symmetry_cell_setting 'orthorhombic'
loop_
_space_group_symop_operation_xyz
x,y,z
1/2-x,-y,1/2+z
-x,y,z
1/2+x,-y,1/2+z
loop_
_atom_site_type_symbol
_atom_site_label
_atom_site_fract_x
_atom_site_fract_y
_atom_site_fract_z
Si Si1 0.109302 0.031545 0.973550
Si Si2 0.887567 0.349452 0.031035
Si Si3 0.112180 0.287965 0.293190
Si Si4 0.768907 0.606724 0.950742
Si Si5 0.887275 0.962363 0.587994
Si Si6 0.268501 0.163889 0.635816
Si Si7 0.386673 0.042332 0.825498
Si Si8 0.389513 0.196167 0.290849
O O1 0.000000 0.011614 0.010048
O O2 0.120027 0.952652 0.855642
O O3 0.127156 0.195817 0.978025
O O4 0.174464 0.948000 0.059141
O O5 0.871445 0.338434 0.165605
O O6 0.000000 0.387280 0.015543
O O7 0.815852 0.457912 0.974762
O O8 0.168688 0.375881 0.387140
O O9 0.000000 0.294992 0.315311
O O10 0.138056 0.121435 0.299869
O O11 0.835330 0.691190 0.863698
O O12 0.770356 0.690726 0.068964
O O13 0.836804 0.102411 0.631708
O O14 0.000000 0.974835 0.602287
O O15 0.868559 0.939451 0.457366
O O16 0.854144 0.833240 0.665574
O O17 0.322474 0.147745 0.753249
O O18 0.500000 0.060748 0.803594
O O19 0.500000 0.233561 0.288527
#
# Coordination Sequence:
#
# PCOD9342980 Si02
#       8
#     4   4   4   4   4   4   4   4
#     4   9  18  34  58  87 115 150 193 243 293 354
#     4  10  21  39  62  86 116 159 205 246 299 365
#     4  10  20  39  63  85 120 164 206 247 298 365
#     4  11  22  37  60  93 120 152 195 256 310 352
#     4  10  21  35  54  85 123 158 193 239 299 358
#     4  11  20  32  59  90 118 145 195 247 302 352
#     4  10  19  35  59  88 117 154 202 247 290 355
#     4   9  19  35  57  88 125 154 189 245 307 357
#
# _framework density 20.001909000000001
#
# number of rings (size 3 to 8) (size 9 to 14) (size 15 to 20)
#    0.000    2.000    2.500    1.500    1.750    1.500 
#    2.250    0.000    0.000    3.750    0.000    0.000 
#    0.000    0.000    0.000    0.000    0.000    0.000 
#
# Total GULP energy -178708.155090 kJ/mol
# GULP energy per Si atom -5584.629847 kJ/mol
# Density = 1.995638 g / cm^3
# Si number density = 20.001909 Si / 1000 Ang^3
#
#
#
# Elastic Constant Matrix: (Units=GPa)
#
#
# Indices 1 2 3 4 5 6 
#
# 1 71.0110 25.1924 31.5567 0.0000 0.0000 0.0000
# 2 25.1924 52.3699 10.1603 0.0000 0.0000 0.0000
# 3 31.5567 10.1603 70.3996 0.0000 0.0000 0.0000
# 4 0.0000 0.0000 0.0000 11.7202 0.0000 0.0000
# 5 0.0000 0.0000 0.0000 0.0000 30.7572 0.0000
# 6 0.0000 0.0000 0.0000 0.0000 0.0000 20.4447
#
#
#
# Elastic Compliance Matrix: (Units=1/GPa)
#
#
# Indices 1 2 3 4 5 6 
#
# 1 0.020619 -0.008360 -0.008036 0.000000 0.000000 0.000000
# 2 -0.008360 0.023034 0.000423 0.000000 0.000000 0.000000
# 3 -0.008036 0.000423 0.017746 0.000000 0.000000 0.000000
# 4 0.000000 0.000000 0.000000 0.085323 0.000000 0.000000
# 5 0.000000 0.000000 0.000000 0.000000 0.032513 0.000000
# 6 0.000000 0.000000 0.000000 0.000000 0.000000 0.048912
#
#
# Mechanical properties :
#
#
# Convention : Reuss Voigt Hill
#
# Bulk Modulus (GPa) = 33.95191 36.39994 35.17592
# Shear Modulus (GPa) = 18.52460 21.04249 19.78354
#
# Velocity S-wave (km/s) = 3.04656 3.24701 3.14838
# Velocity P-wave (km/s) = 5.42094 5.68288 5.55345
#
# Compressibility (1/GPa) = 0.02945343
#
# Stress axis : x y z
#
# Youngs Moduli (GPa) = 48.49826 43.41343 56.35140
#
# Poissons Ratio (x) = 0.36293 0.45285
# Poissons Ratio (y) = 0.40544 -0.02383
# Poissons Ratio (z) = 0.38974 -0.01836
#
# Static dielectric constant tensor:
#      x y z
#    x 1.779750 0.000000 0.000000 
#    y 0.000000 1.671790 0.000000 
#    z 0.000000 0.000000 1.735090 
# 
# From -- ./inp_files/4294.got.cif
#   From: 2010.05.17/outbox.cif.g08.bks.cpg/sg31_3_cif.got.tgz:4294.got - 2010.06.03 17:08:30.
