data_PCOD9342679
_publ_section_title
;
Structure prediction by ZEFSAII (Michael W. Deem and Ramdas Pophale) SiO2 
 PCOD9342679
Probable space group: P M N 21
;
_chemical_formula_sum "Si O2"
_cell_formula_units_Z 32
_cell_length_a 21.841478
_cell_length_b 8.941084
_cell_length_c 9.180759
_cell_angle_alpha 90.000000
_cell_angle_beta 90.000000
_cell_angle_gamma 90.000000
_cell_volume 1792.878196
_symmetry_space_group_name_H-M "P M N 21"
_symmetry_group_IT_number 31
_symmetry_cell_setting 'orthorhombic'
loop_
_space_group_symop_operation_xyz
x,y,z
1/2-x,-y,1/2+z
-x,y,z
1/2+x,-y,1/2+z
loop_
_atom_site_type_symbol
_atom_site_label
_atom_site_fract_x
_atom_site_fract_y
_atom_site_fract_z
Si Si1 0.673175 0.755174 0.154910
Si Si2 0.071531 0.232830 0.078694
Si Si3 0.330755 0.978485 0.417132
Si Si4 0.259142 0.199877 0.082209
Si Si5 0.248783 0.552197 0.336785
Si Si6 0.430218 0.558155 0.307870
Si Si7 0.336655 0.709128 0.822029
Si Si8 0.848607 0.706361 0.802328
O O1 0.673519 0.901196 0.257364
O O2 0.732501 0.655138 0.199173
O O3 0.616052 0.654443 0.209727
O O4 0.666115 0.773677 0.983803
O O5 0.100388 0.269387 0.235459
O O6 0.000000 0.190474 0.084310
O O7 0.115518 0.109045 0.003369
O O8 0.076968 0.375976 0.971202
O O9 0.265982 0.942743 0.495400
O O10 0.345527 0.151981 0.406827
O O11 0.214623 0.212556 0.221235
O O12 0.326179 0.227410 0.146654
O O13 0.246375 0.339126 0.974722
O O14 0.185056 0.464392 0.328555
O O15 0.299621 0.421884 0.345658
O O16 0.500000 0.582056 0.263656
O O17 0.411061 0.385380 0.298732
#
# Coordination Sequence:
#
# PCOD9342679 Si02
#       8
#     4   4   4   4   4   4   4   4
#     4   9  18  30  48  72  98 128 160 199 246 296
#     4   9  19  35  52  70  97 132 168 206 246 291
#     4   9  19  34  49  71 102 132 165 199 241 297
#     4   9  19  33  47  70 104 132 157 195 245 302
#     4   9  17  31  48  70 100 130 158 193 243 298
#     4   9  18  33  50  70  95 125 165 207 245 291
#     4  10  16  27  50  74  93 124 165 200 237 287
#     4  10  18  29  52  77  95 125 168 205 239 282
#
# _framework density 17.848396000000001
#
# number of rings (size 3 to 8) (size 9 to 14) (size 15 to 20)
#    0.000    2.750    0.000    4.500    0.000    4.000 
#    0.000    1.250    0.000   12.000    0.000    0.000 
#    0.000    0.000    0.000    0.000    0.000    0.000 
#
# Total GULP energy -178296.285492 kJ/mol
# GULP energy per Si atom -5571.758922 kJ/mol
# Density = 1.780777 g / cm^3
# Si number density = 17.848396 Si / 1000 Ang^3
#
#
#
# Elastic Constant Matrix: (Units=GPa)
#
#
# Indices 1 2 3 4 5 6 
#
# 1 46.0436 5.1448 19.0603 0.0000 0.0000 0.0000
# 2 5.1448 72.0995 14.8235 0.0000 0.0000 0.0000
# 3 19.0603 14.8235 116.4309 0.0000 0.0000 0.0000
# 4 0.0000 0.0000 0.0000 10.2964 0.0000 0.0000
# 5 0.0000 0.0000 0.0000 0.0000 21.8873 0.0000
# 6 0.0000 0.0000 0.0000 0.0000 0.0000 12.0202
#
#
#
# Elastic Compliance Matrix: (Units=1/GPa)
#
#
# Indices 1 2 3 4 5 6 
#
# 1 0.023355 -0.000904 -0.003708 0.000000 0.000000 0.000000
# 2 -0.000904 0.014278 -0.001670 0.000000 0.000000 0.000000
# 3 -0.003708 -0.001670 0.009408 0.000000 0.000000 0.000000
# 4 0.000000 0.000000 0.000000 0.097122 0.000000 0.000000
# 5 0.000000 0.000000 0.000000 0.000000 0.045689 0.000000
# 6 0.000000 0.000000 0.000000 0.000000 0.000000 0.083194
#
#
# Mechanical properties :
#
#
# Convention : Reuss Voigt Hill
#
# Bulk Modulus (GPa) = 29.00523 34.73677 31.87100
# Shear Modulus (GPa) = 16.82933 21.87713 19.35323
#
# Velocity S-wave (km/s) = 3.07401 3.50483 3.29646
# Velocity P-wave (km/s) = 5.37452 5.99022 5.69071
#
# Compressibility (1/GPa) = 0.03447654
#
# Stress axis : x y z
#
# Youngs Moduli (GPa) = 42.81809 70.04008 106.28782
#
# Poissons Ratio (x) = 0.06332 0.39413
# Poissons Ratio (y) = 0.03871 0.17747
# Poissons Ratio (z) = 0.15878 0.11695
#
# Static dielectric constant tensor:
#      x y z
#    x 1.641610 0.000000 0.000000 
#    y 0.000000 1.639690 0.000000 
#    z 0.000000 0.000000 1.635240 
# 
# From -- ./inp_files/3099.got.cif
#   From: 2010.05.17/outbox.cif.g08.bks.cpg/sg31_2_cif.got.tgz:3099.got - 2010.06.03 17:08:30.
