data_PCOD9342536
_publ_section_title
;
Structure prediction by ZEFSAII (Michael W. Deem and Ramdas Pophale) SiO2 
 PCOD9342536
Probable space group: P N C 2
;
_chemical_formula_sum "Si O2"
_cell_formula_units_Z 12
_cell_length_a 5.260134
_cell_length_b 5.277251
_cell_length_c 17.741931
_cell_angle_alpha 90.000000
_cell_angle_beta 90.000000
_cell_angle_gamma 90.000000
_cell_volume 492.499104
_symmetry_space_group_name_H-M "P N C 2"
_symmetry_group_IT_number 30
_symmetry_cell_setting 'orthorhombic'
loop_
_space_group_symop_operation_xyz
x,y,z
-x,-y,z
-x,1/2+y,1/2+z
x,1/2-y,1/2+z
loop_
_atom_site_type_symbol
_atom_site_label
_atom_site_fract_x
_atom_site_fract_y
_atom_site_fract_z
Si Si1 0.737493 0.843883 0.101160
Si Si2 0.500000 0.000000 0.956831
Si Si3 0.659075 0.244457 0.813893
Si Si4 0.000000 0.500000 0.206860
O O1 0.787960 0.596075 0.148839
O O2 0.500000 0.000000 0.134491
O O3 0.000000 0.000000 0.104056
O O4 0.657255 0.821115 0.013674
O O5 0.680575 0.165560 0.902136
O O6 0.500000 0.500000 0.808819
O O7 0.909160 0.221524 0.763449
O O8 0.500000 0.000000 0.786171
#
# Coordination Sequence:
#
# PCOD9342536 Si02
#       4
#     4   2   4   2
#     4  10  26  46  76 114 156 210 269 343 401 488
#     4   8  24  48  74 114 160 212 278 328 404 490
#     4  10  26  47  79 111 161 212 267 332 404 489
#     4  12  28  44  84 118 166 210 278 336 422 474
#
# _framework density 24.365527
#
# number of rings (size 3 to 8) (size 9 to 14) (size 15 to 20)
#    2.000    0.000    0.000    0.000   11.667    2.667 
#    0.000    0.000    0.000    0.000    0.000    0.000 
#    0.000    0.000    0.000    0.000    0.000    0.000 
#
# Total GULP energy -66942.734587 kJ/mol
# GULP energy per Si atom -5578.561216 kJ/mol
# Density = 2.431007 g / cm^3
# Si number density = 24.365527 Si / 1000 Ang^3
#
#
#
# Elastic Constant Matrix: (Units=GPa)
#
#
# Indices 1 2 3 4 5 6 
#
# 1 108.5939 37.1313 51.7012 0.0000 0.0000 0.0000
# 2 37.1313 129.3981 55.4505 0.0000 0.0000 0.0000
# 3 51.7012 55.4505 220.8043 0.0000 0.0000 0.0000
# 4 0.0000 0.0000 0.0000 22.8161 0.0000 0.0000
# 5 0.0000 0.0000 0.0000 0.0000 80.1776 0.0000
# 6 0.0000 0.0000 0.0000 0.0000 0.0000 47.4671
#
#
#
# Elastic Compliance Matrix: (Units=1/GPa)
#
#
# Indices 1 2 3 4 5 6 
#
# 1 0.010936 -0.002287 -0.001986 0.000000 0.000000 0.000000
# 2 -0.002287 0.009138 -0.001759 0.000000 0.000000 0.000000
# 3 -0.001986 -0.001759 0.005436 0.000000 0.000000 0.000000
# 4 0.000000 0.000000 0.000000 0.043829 0.000000 0.000000
# 5 0.000000 0.000000 0.000000 0.000000 0.012472 0.000000
# 6 0.000000 0.000000 0.000000 0.000000 0.000000 0.021067
#
#
# Mechanical properties :
#
#
# Convention : Reuss Voigt Hill
#
# Bulk Modulus (GPa) = 74.37773 83.04025 78.70899
# Shear Modulus (GPa) = 41.86696 51.05972 46.46334
#
# Velocity S-wave (km/s) = 4.14972 4.58271 4.37158
# Velocity P-wave (km/s) = 7.31794 7.88395 7.60621
#
# Compressibility (1/GPa) = 0.01344488
#
# Stress axis : x y z
#
# Youngs Moduli (GPa) = 91.43836 109.42954 183.96388
#
# Poissons Ratio (x) = 0.25026 0.36543
# Poissons Ratio (y) = 0.20912 0.32367
# Poissons Ratio (z) = 0.18163 0.19253
#
# Static dielectric constant tensor:
#      x y z
#    x 1.694550 0.000000 0.000000 
#    y 0.000000 1.905180 0.000000 
#    z 0.000000 0.000000 1.936330 
# 
# From -- ./inp_files/5726.got.cif
#   From: 2010.05.17/outbox.cif.g08.bks.cpg/sg30_3_cif.got.tgz:5726.got - 2010.06.03 17:03:02.
