data_PCOD9342634
_publ_section_title
;
Structure prediction by ZEFSAII (Michael W. Deem and Ramdas Pophale) SiO2 
 PCOD9342634
Probable space group: P N C 2
;
_chemical_formula_sum "Si O2"
_cell_formula_units_Z 24
_cell_length_a 5.617204
_cell_length_b 22.017252
_cell_length_c 7.612661
_cell_angle_alpha 90.000000
_cell_angle_beta 90.000000
_cell_angle_gamma 90.000000
_cell_volume 941.498864
_symmetry_space_group_name_H-M "P N C 2"
_symmetry_group_IT_number 30
_symmetry_cell_setting 'orthorhombic'
loop_
_space_group_symop_operation_xyz
x,y,z
-x,-y,z
-x,1/2+y,1/2+z
x,1/2-y,1/2+z
loop_
_atom_site_type_symbol
_atom_site_label
_atom_site_fract_x
_atom_site_fract_y
_atom_site_fract_z
Si Si1 0.978978 0.245356 0.013350
Si Si2 0.099787 0.380579 0.021208
Si Si3 0.305763 0.354809 0.673425
Si Si4 0.471273 0.105185 0.822614
Si Si5 0.367340 0.756406 0.759706
Si Si6 0.259079 0.967578 0.572059
O O1 0.690728 0.251333 0.040768
O O2 0.108116 0.182872 0.059683
O O3 0.111210 0.308254 0.035713
O O4 0.921236 0.246672 0.796599
O O5 0.212633 0.394393 0.833524
O O6 0.825186 0.401666 0.000416
O O7 0.246224 0.404720 0.190494
O O8 0.426918 0.396374 0.528140
O O9 0.467861 0.302364 0.760209
O O10 0.546983 0.175148 0.787640
O O11 0.663916 0.055030 0.765734
O O12 0.500000 0.000000 0.502372
O O13 0.000000 0.000000 0.554781
#
# Coordination Sequence:
#
# PCOD9342634 Si02
#       6
#     4   4   4   4   4   4
#     4  12  22  38  65 109 162 199 235 287 367 470
#     4  12  25  45  77 107 154 205 252 312 386 451
#     4  12  26  41  70 120 158 193 246 296 370 482
#     4  12  25  45  77 107 154 205 252 312 386 451
#     4  12  22  38  65 109 162 199 235 287 367 470
#     4  12  28  53  84 106 144 203 268 338 398 442
#
# _framework density 25.491267000000001
#
# number of rings (size 3 to 8) (size 9 to 14) (size 15 to 20)
#    0.000    0.000    8.333    3.000    0.000    0.000 
#    0.000    0.000    7.333    0.000    0.000    0.000 
#    0.000    0.000    0.000    0.000    0.000    0.000 
#
# Total GULP energy -133684.729282 kJ/mol
# GULP energy per Si atom -5570.197053 kJ/mol
# Density = 2.543325 g / cm^3
# Si number density = 25.491267 Si / 1000 Ang^3
#
#
#
# Elastic Constant Matrix: (Units=GPa)
#
#
# Indices 1 2 3 4 5 6 
#
# 1 116.4447 36.3444 56.9200 0.0000 0.0000 0.0000
# 2 36.3444 44.0203 31.7679 0.0000 0.0000 0.0000
# 3 56.9200 31.7679 -25.2873 0.0000 0.0000 0.0000
# 4 0.0000 0.0000 0.0000 30.8323 0.0000 0.0000
# 5 0.0000 0.0000 0.0000 0.0000 61.3190 0.0000
# 6 0.0000 0.0000 0.0000 0.0000 0.0000 70.4697
#
#
#
# Elastic Compliance Matrix: (Units=1/GPa)
#
#
# Indices 1 2 3 4 5 6 
#
# 1 0.009436 -0.012126 0.006007 0.000000 0.000000 0.000000
# 2 -0.012126 0.027497 0.007249 0.000000 0.000000 0.000000
# 3 0.006007 0.007249 -0.016917 0.000000 0.000000 0.000000
# 4 0.000000 0.000000 0.000000 0.032434 0.000000 0.000000
# 5 0.000000 0.000000 0.000000 0.000000 0.016308 0.000000
# 6 0.000000 0.000000 0.000000 0.000000 0.000000 0.014191
#
#
# Mechanical properties :
#
#
# Convention : Reuss Voigt Hill
#
# Bulk Modulus (GPa) = 44.89100 42.80469 43.84785
# Shear Modulus (GPa) = 56.74596 33.20055 44.97326
#
# Velocity S-wave (km/s) = 4.72327 3.61283 4.20487
# Velocity P-wave (km/s) = 6.88435 5.85079 6.38851
#
# Compressibility (1/GPa) = 0.02227618
#
# Stress axis : x y z
#
# Youngs Moduli (GPa) = 105.97556 36.36820 -59.11079
#
# Poissons Ratio (x) = 0.44099 0.35507
# Poissons Ratio (y) = 1.28503 0.42851
# Poissons Ratio (z) = -0.63658 -0.26364
#
# Static dielectric constant tensor:
#      x y z
#    x 2.092260 0.000000 0.000000 
#    y 0.000000 2.093340 0.000000 
#    z 0.000000 0.000000 2.436870 
# 
# From -- ./inp_files/1392.got.cif
#   From: 2010.05.17/outbox.cif.g08.bks.cpg/sg30_1_cif.got.tgz:1392.got - 2010.06.03 17:03:02.
