data_PCOD9342318
_publ_section_title
;
Structure prediction by ZEFSAII (Michael W. Deem and Ramdas Pophale) SiO2 
 PCOD9342318
Probable space group: P N C 2
;
_chemical_formula_sum "Si O2"
_cell_formula_units_Z 30
_cell_length_a 19.462121
_cell_length_b 5.433212
_cell_length_c 12.508371
_cell_angle_alpha 90.000000
_cell_angle_beta 90.000000
_cell_angle_gamma 90.000000
_cell_volume 1322.658032
_symmetry_space_group_name_H-M "P N C 2"
_symmetry_group_IT_number 30
_symmetry_cell_setting 'orthorhombic'
loop_
_space_group_symop_operation_xyz
x,y,z
-x,-y,z
-x,1/2+y,1/2+z
x,1/2-y,1/2+z
loop_
_atom_site_type_symbol
_atom_site_label
_atom_site_fract_x
_atom_site_fract_y
_atom_site_fract_z
Si Si1 0.890870 0.685919 0.755010
Si Si2 0.000000 0.500000 0.126384
Si Si3 0.419034 0.479658 0.400476
Si Si4 0.678343 0.985205 0.711549
Si Si5 0.581265 0.479866 0.023691
Si Si6 0.889734 0.051176 0.468800
Si Si7 0.212960 0.565316 0.368943
Si Si8 0.211067 0.167491 0.087886
O O1 0.952788 0.821140 0.695392
O O2 0.920731 0.567185 0.861983
O O3 0.835118 0.875326 0.804752
O O4 0.842513 0.533433 0.670573
O O5 0.051532 0.645407 0.047516
O O6 0.500000 0.500000 0.375631
O O7 0.375515 0.393616 0.298951
O O8 0.405007 0.759833 0.439176
O O9 0.405306 0.259402 0.484546
O O10 0.729797 0.148370 0.784457
O O11 0.727203 0.786062 0.654521
O O12 0.631072 0.095831 0.620089
O O13 0.500000 0.500000 0.051675
O O14 0.837842 0.237978 0.416283
O O15 0.841326 0.869395 0.537663
O O16 0.241675 0.455585 0.480715
#
# Coordination Sequence:
#
# PCOD9342318 Si02
#       8
#     4   2   4   4   4   4   4   4
#     4   9  21  41  61  89 127 163 211 265 332 399
#     4  10  22  40  66  94 126 168 218 266 344 410
#     4  10  23  44  68 102 144 183 237 294 343 415
#     4  11  22  40  68  96 130 182 228 276 352 413
#     4  10  23  44  67  99 141 183 235 293 346 411
#     4  10  22  41  61  93 126 164 216 272 328 403
#     4  10  22  41  63  90 127 170 216 274 332 403
#     4   9  21  42  59  88 131 166 210 276 326 404
#
# _framework density 22.6816
#
# number of rings (size 3 to 8) (size 9 to 14) (size 15 to 20)
#    0.000    2.133    0.000    1.200    3.733    4.267 
#    9.600    5.333    0.000    0.000    0.000    0.000 
#    0.000    0.000    0.000    0.000    0.000    0.000 
#
# Total GULP energy -167192.122216 kJ/mol
# GULP energy per Si atom -5573.070741 kJ/mol
# Density = 2.262998 g / cm^3
# Si number density = 22.681600 Si / 1000 Ang^3
#
#
#
# Elastic Constant Matrix: (Units=GPa)
#
#
# Indices 1 2 3 4 5 6 
#
# 1 110.3286 24.6496 84.8990 0.0000 0.0000 0.0000
# 2 24.6496 46.0144 28.8594 0.0000 0.0000 0.0000
# 3 84.8990 28.8594 144.8275 0.0000 0.0000 0.0000
# 4 0.0000 0.0000 0.0000 -33.0764 0.0000 0.0000
# 5 0.0000 0.0000 0.0000 0.0000 1.5369 0.0000
# 6 0.0000 0.0000 0.0000 0.0000 0.0000 -2.8014
#
#
#
# Elastic Compliance Matrix: (Units=1/GPa)
#
#
# Indices 1 2 3 4 5 6 
#
# 1 0.016928 -0.003251 -0.009275 0.000000 0.000000 0.000000
# 2 -0.003251 0.025461 -0.003168 0.000000 0.000000 0.000000
# 3 -0.009275 -0.003168 0.012973 0.000000 0.000000 0.000000
# 4 0.000000 0.000000 0.000000 -0.030233 0.000000 0.000000
# 5 0.000000 0.000000 0.000000 0.000000 0.650679 0.000000
# 6 0.000000 0.000000 0.000000 0.000000 0.000000 -0.356958
#
#
# Mechanical properties :
#
#
# Convention : Reuss Voigt Hill
#
# Bulk Modulus (GPa) = 41.71249 64.22072 52.96661
# Shear Modulus (GPa) = 13.95758 3.98264 8.97011
#
# Velocity S-wave (km/s) = 2.48336 1.32654 1.99082
# Velocity P-wave (km/s) = 5.16267 5.54272 5.35607
#
# Compressibility (1/GPa) = 0.02397363
#
# Stress axis : x y z
#
# Youngs Moduli (GPa) = 59.07526 39.27646 77.08147
#
# Poissons Ratio (x) = 0.12768 0.71496
# Poissons Ratio (y) = 0.19204 0.24418
# Poissons Ratio (z) = 0.54794 0.12442
#
# Static dielectric constant tensor:
#      x y z
#    x 1.900880 0.000000 0.000000 
#    y 0.000000 1.959370 0.000000 
#    z 0.000000 0.000000 1.988970 
# 
# From -- ./inp_files/4486.got.cif
#   From: 2010.05.17/outbox.cif.g08.bks.cpg/sg30_3_cif.got.tgz:4486.got - 2010.06.03 17:03:02.
