data_PCOD9342632
_publ_section_title
;
Structure prediction by ZEFSAII (Michael W. Deem and Ramdas Pophale) SiO2 
 PCOD9342632
Probable space group: P N C 2
;
_chemical_formula_sum "Si O2"
_cell_formula_units_Z 18
_cell_length_a 9.633194
_cell_length_b 10.174015
_cell_length_c 9.268959
_cell_angle_alpha 90.000000
_cell_angle_beta 90.000000
_cell_angle_gamma 90.000000
_cell_volume 908.434546
_symmetry_space_group_name_H-M "P N C 2"
_symmetry_group_IT_number 30
_symmetry_cell_setting 'orthorhombic'
loop_
_space_group_symop_operation_xyz
x,y,z
-x,-y,z
-x,1/2+y,1/2+z
x,1/2-y,1/2+z
loop_
_atom_site_type_symbol
_atom_site_label
_atom_site_fract_x
_atom_site_fract_y
_atom_site_fract_z
Si Si1 0.031292 0.280068 0.773200
Si Si2 0.000000 0.500000 0.552554
Si Si3 0.115802 0.404847 0.033253
Si Si4 0.363188 0.590728 0.116098
Si Si5 0.238608 0.686675 0.408046
O O1 0.064988 0.392968 0.659851
O O2 0.056430 0.149371 0.682406
O O3 0.871678 0.279830 0.823719
O O4 0.127351 0.292433 0.913236
O O5 0.127267 0.578429 0.472662
O O6 0.247100 0.489707 0.063950
O O7 0.000000 0.500000 0.967835
O O8 0.500000 0.500000 0.098200
O O9 0.336367 0.626346 0.284117
O O10 0.327201 0.724387 0.022063
#
# Coordination Sequence:
#
# PCOD9342632 Si02
#       5
#     4   2   4   4   4
#     4  12  21  36  70 106 131 167 230 290 355 387
#     4  12  20  36  74 102 132 170 228 302 332 402
#     4  12  22  39  67 102 134 177 230 293 339 405
#     4  12  28  47  68  97 148 183 228 281 344 430
#     4  12  22  45  71 103 134 184 228 284 349 403
#
# _framework density 19.814305999999998
#
# number of rings (size 3 to 8) (size 9 to 14) (size 15 to 20)
#    0.000    0.000   10.000    1.333    0.000    1.778 
#    0.000    1.111    0.000    0.000    0.000    0.000 
#    0.000    0.000    0.000    0.000    0.000    0.000 
#
# Total GULP energy -100235.485704 kJ/mol
# GULP energy per Si atom -5568.638095 kJ/mol
# Density = 1.976921 g / cm^3
# Si number density = 19.814306 Si / 1000 Ang^3
#
#
#
# Elastic Constant Matrix: (Units=GPa)
#
#
# Indices 1 2 3 4 5 6 
#
# 1 106.1940 48.0790 46.7460 0.0000 0.0000 0.0000
# 2 48.0790 89.8065 57.4886 0.0000 0.0000 0.0000
# 3 46.7460 57.4886 131.6721 0.0000 0.0000 0.0000
# 4 0.0000 0.0000 0.0000 53.6641 0.0000 0.0000
# 5 0.0000 0.0000 0.0000 0.0000 13.6294 0.0000
# 6 0.0000 0.0000 0.0000 0.0000 0.0000 36.7356
#
#
#
# Elastic Compliance Matrix: (Units=1/GPa)
#
#
# Indices 1 2 3 4 5 6 
#
# 1 0.012859 -0.005499 -0.002164 0.000000 0.000000 0.000000
# 2 -0.005499 0.017806 -0.005822 0.000000 0.000000 0.000000
# 3 -0.002164 -0.005822 0.010905 0.000000 0.000000 0.000000
# 4 0.000000 0.000000 0.000000 0.018634 0.000000 0.000000
# 5 0.000000 0.000000 0.000000 0.000000 0.073371 0.000000
# 6 0.000000 0.000000 0.000000 0.000000 0.000000 0.027222
#
#
# Mechanical properties :
#
#
# Convention : Reuss Voigt Hill
#
# Bulk Modulus (GPa) = 68.49530 70.25553 69.37541
# Shear Modulus (GPa) = 25.95609 32.49641 29.22625
#
# Velocity S-wave (km/s) = 3.62327 4.05414 3.84475
# Velocity P-wave (km/s) = 7.22134 7.57949 7.40258
#
# Compressibility (1/GPa) = 0.01459954
#
# Stress axis : x y z
#
# Youngs Moduli (GPa) = 77.76649 56.16190 91.70196
#
# Poissons Ratio (x) = 0.30882 0.19848
# Poissons Ratio (y) = 0.42761 0.53388
# Poissons Ratio (z) = 0.16832 0.32697
#
# Static dielectric constant tensor:
#      x y z
#    x 1.677700 0.000000 0.000000 
#    y 0.000000 1.694120 0.000000 
#    z 0.000000 0.000000 1.732090 
# 
# From -- ./inp_files/1666.got.cif
#   From: 2010.05.17/outbox.cif.g08.bks.cpg/sg30_1_cif.got.tgz:1666.got - 2010.06.03 17:03:02.
