data_PCOD9342099
_publ_section_title
;
Structure prediction by ZEFSAII (Michael W. Deem and Ramdas Pophale) SiO2 
 PCOD9342099
Probable space group: P N C 2
;
_chemical_formula_sum "Si O2"
_cell_formula_units_Z 22
_cell_length_a 14.408996
_cell_length_b 6.031615
_cell_length_c 10.794073
_cell_angle_alpha 90.000000
_cell_angle_beta 90.000000
_cell_angle_gamma 90.000000
_cell_volume 938.107665
_symmetry_space_group_name_H-M "P N C 2"
_symmetry_group_IT_number 30
_symmetry_cell_setting 'orthorhombic'
loop_
_space_group_symop_operation_xyz
x,y,z
-x,-y,z
-x,1/2+y,1/2+z
x,1/2-y,1/2+z
loop_
_atom_site_type_symbol
_atom_site_label
_atom_site_fract_x
_atom_site_fract_y
_atom_site_fract_z
Si Si1 0.595265 0.884753 0.241510
Si Si2 0.500000 0.500000 0.090188
Si Si3 0.342386 0.694490 0.522057
Si Si4 0.757167 0.682201 0.377782
Si Si5 0.151280 0.926874 0.494694
Si Si6 0.095913 0.613552 0.262810
O O1 0.565826 0.653308 0.176135
O O2 0.679759 0.854265 0.334375
O O3 0.500000 0.000000 0.281063
O O4 0.637850 0.047942 0.141053
O O5 0.564384 0.335882 0.011292
O O6 0.309119 0.515984 0.423018
O O7 0.252762 0.843734 0.534459
O O8 0.822676 0.568848 0.276849
O O9 0.829075 0.812179 0.467970
O O10 0.119553 0.808155 0.364200
O O11 0.091021 0.847203 0.613628
O O12 0.000000 0.500000 0.301277
#
# Coordination Sequence:
#
# PCOD9342099 Si02
#       6
#     4   2   4   4   4   4
#     4  10  22  42  62  96 139 194 248 303 365 439
#     4  10  20  40  60  92 144 188 248 310 350 442
#     4  10  21  40  66  96 135 192 242 294 376 426
#     4  11  23  43  70 104 143 194 241 309 376 446
#     4  11  25  49  74 104 154 191 241 313 375 456
#     4  11  27  46  76 112 144 193 250 305 387 458
#
# _framework density 23.451466
#
# number of rings (size 3 to 8) (size 9 to 14) (size 15 to 20)
#    0.000    1.455    0.000    4.364    2.545    5.818 
#   21.273    0.000    0.000    0.000    0.000    0.000 
#    0.000    0.000    0.000    0.000    0.000    0.000 
#
# Total GULP energy -122750.455290 kJ/mol
# GULP energy per Si atom -5579.566150 kJ/mol
# Density = 2.339809 g / cm^3
# Si number density = 23.451466 Si / 1000 Ang^3
#
#
#
# Elastic Constant Matrix: (Units=GPa)
#
#
# Indices 1 2 3 4 5 6 
#
# 1 103.5858 20.9098 29.8211 0.0000 0.0000 0.0000
# 2 20.9098 82.3043 32.1727 0.0000 0.0000 0.0000
# 3 29.8211 32.1727 96.5818 0.0000 0.0000 0.0000
# 4 0.0000 0.0000 0.0000 21.7709 0.0000 0.0000
# 5 0.0000 0.0000 0.0000 0.0000 28.4920 0.0000
# 6 0.0000 0.0000 0.0000 0.0000 0.0000 18.4746
#
#
#
# Elastic Compliance Matrix: (Units=1/GPa)
#
#
# Indices 1 2 3 4 5 6 
#
# 1 0.010788 -0.001654 -0.002780 0.000000 0.000000 0.000000
# 2 -0.001654 0.014223 -0.004227 0.000000 0.000000 0.000000
# 3 -0.002780 -0.004227 0.012620 0.000000 0.000000 0.000000
# 4 0.000000 0.000000 0.000000 0.045933 0.000000 0.000000
# 5 0.000000 0.000000 0.000000 0.000000 0.035098 0.000000
# 6 0.000000 0.000000 0.000000 0.000000 0.000000 0.054128
#
#
# Mechanical properties :
#
#
# Convention : Reuss Voigt Hill
#
# Bulk Modulus (GPa) = 49.23957 49.80878 49.52418
# Shear Modulus (GPa) = 25.39600 27.05207 26.22403
#
# Velocity S-wave (km/s) = 3.29434 3.40006 3.34762
# Velocity P-wave (km/s) = 5.95921 6.05797 6.00880
#
# Compressibility (1/GPa) = 0.02030887
#
# Stress axis : x y z
#
# Youngs Moduli (GPa) = 92.69526 70.31064 79.23712
#
# Poissons Ratio (x) = 0.11630 0.22028
# Poissons Ratio (y) = 0.15332 0.33494
# Poissons Ratio (z) = 0.25769 0.29720
#
# Static dielectric constant tensor:
#      x y z
#    x 1.663150 0.000000 0.000000 
#    y 0.000000 1.976180 0.000000 
#    z 0.000000 0.000000 1.960150 
# 
# From -- ./inp_files/4292.got.cif
#   From: 2010.05.17/outbox.cif.g08.bks.cpg/sg30_3_cif.got.tgz:4292.got - 2010.06.03 17:03:02.
