data_PCOD9342608
_publ_section_title
;
Structure prediction by ZEFSAII (Michael W. Deem and Ramdas Pophale) SiO2 
 PCOD9342608
Probable space group: P N C 2
;
_chemical_formula_sum "Si O2"
_cell_formula_units_Z 18
_cell_length_a 11.283537
_cell_length_b 5.892881
_cell_length_c 11.502290
_cell_angle_alpha 90.000000
_cell_angle_beta 90.000000
_cell_angle_gamma 90.000000
_cell_volume 764.816487
_symmetry_space_group_name_H-M "P N C 2"
_symmetry_group_IT_number 30
_symmetry_cell_setting 'orthorhombic'
loop_
_space_group_symop_operation_xyz
x,y,z
-x,-y,z
-x,1/2+y,1/2+z
x,1/2-y,1/2+z
loop_
_atom_site_type_symbol
_atom_site_label
_atom_site_fract_x
_atom_site_fract_y
_atom_site_fract_z
Si Si1 0.000000 0.500000 0.917480
Si Si2 0.303327 0.592806 0.157791
Si Si3 0.500000 0.000000 0.469143
Si Si4 0.125611 0.126177 0.809838
Si Si5 0.875239 0.102283 0.051813
Si Si6 0.500000 0.000000 0.848657
O O1 0.095249 0.381203 0.836452
O O2 0.074405 0.666713 0.996640
O O3 0.205151 0.412510 0.198509
O O4 0.230984 0.825462 0.135829
O O5 0.392397 0.577299 0.265578
O O6 0.382463 0.539592 0.046564
O O7 0.522728 0.746563 0.411660
O O8 0.000000 0.000000 0.791145
O O9 0.168777 0.032308 0.936301
O O10 0.000000 0.000000 0.096782
#
# Coordination Sequence:
#
# PCOD9342608 Si02
#       6
#     2   4   2   4   4   2
#     4   8  18  38  62  94 150 176 228 302 370 444
#     4  11  24  44  80 109 143 212 256 315 401 473
#     4  11  28  55  74 110 156 201 274 335 388 448
#     4   9  20  42  62 105 146 186 234 306 374 460
#     4   9  20  42  65 102 147 187 236 309 374 460
#     4  11  28  55  74 112 154 203 272 339 382 452
#
# _framework density 23.535056999999998
#
# number of rings (size 3 to 8) (size 9 to 14) (size 15 to 20)
#    0.000    2.667    0.000    1.333    4.667    3.556 
#   24.000    0.000    0.000    0.000    0.000    0.000 
#    0.000    0.000    0.000    0.000    0.000    0.000 
#
# Total GULP energy -100345.184596 kJ/mol
# GULP energy per Si atom -5574.732478 kJ/mol
# Density = 2.348149 g / cm^3
# Si number density = 23.535057 Si / 1000 Ang^3
#
#
#
# Elastic Constant Matrix: (Units=GPa)
#
#
# Indices 1 2 3 4 5 6 
#
# 1 132.3773 55.1205 66.8391 0.0000 0.0000 0.0000
# 2 55.1205 141.4591 77.2427 0.0000 0.0000 0.0000
# 3 66.8391 77.2427 113.3735 0.0000 0.0000 0.0000
# 4 0.0000 0.0000 0.0000 22.3128 0.0000 0.0000
# 5 0.0000 0.0000 0.0000 0.0000 39.6095 0.0000
# 6 0.0000 0.0000 0.0000 0.0000 0.0000 39.2334
#
#
#
# Elastic Compliance Matrix: (Units=1/GPa)
#
#
# Indices 1 2 3 4 5 6 
#
# 1 0.010877 -0.001173 -0.005613 0.000000 0.000000 0.000000
# 2 -0.001173 0.011384 -0.007064 0.000000 0.000000 0.000000
# 3 -0.005613 -0.007064 0.016942 0.000000 0.000000 0.000000
# 4 0.000000 0.000000 0.000000 0.044817 0.000000 0.000000
# 5 0.000000 0.000000 0.000000 0.000000 0.025246 0.000000
# 6 0.000000 0.000000 0.000000 0.000000 0.000000 0.025488
#
#
# Mechanical properties :
#
#
# Convention : Reuss Voigt Hill
#
# Bulk Modulus (GPa) = 86.94112 87.29050 87.11581
# Shear Modulus (GPa) = 30.06796 32.76500 31.41648
#
# Velocity S-wave (km/s) = 3.57821 3.73524 3.65756
# Velocity P-wave (km/s) = 7.35477 7.46812 7.41166
#
# Compressibility (1/GPa) = 0.01150204
#
# Stress axis : x y z
#
# Youngs Moduli (GPa) = 91.93885 87.84510 59.02340
#
# Poissons Ratio (x) = 0.10307 0.33130
# Poissons Ratio (y) = 0.10787 0.41695
# Poissons Ratio (z) = 0.51606 0.62055
#
# Static dielectric constant tensor:
#      x y z
#    x 1.936980 0.000000 0.000000 
#    y 0.000000 1.881660 0.000000 
#    z 0.000000 0.000000 1.929730 
# 
# From -- ./inp_files/3993.got.cif
#   From: 2010.05.17/outbox.cif.g08.bks.cpg/sg30_2_cif.got.tgz:3993.got - 2010.06.03 17:03:02.
