data_PCOD9342409
_publ_section_title
;
Structure prediction by ZEFSAII (Michael W. Deem and Ramdas Pophale) SiO2 
 PCOD9342409
Probable space group: P N C 2
;
_chemical_formula_sum "Si O2"
_cell_formula_units_Z 22
_cell_length_a 12.679035
_cell_length_b 5.908333
_cell_length_c 12.903036
_cell_angle_alpha 90.000000
_cell_angle_beta 90.000000
_cell_angle_gamma 90.000000
_cell_volume 966.591728
_symmetry_space_group_name_H-M "P N C 2"
_symmetry_group_IT_number 30
_symmetry_cell_setting 'orthorhombic'
loop_
_space_group_symop_operation_xyz
x,y,z
-x,-y,z
-x,1/2+y,1/2+z
x,1/2-y,1/2+z
loop_
_atom_site_type_symbol
_atom_site_label
_atom_site_fract_x
_atom_site_fract_y
_atom_site_fract_z
Si Si1 0.720736 0.898567 0.219150
Si Si2 0.727263 0.399608 0.506950
Si Si3 0.500000 0.500000 0.813072
Si Si4 0.000000 0.500000 0.250555
Si Si5 0.863157 0.751007 0.396993
Si Si6 0.812582 0.511826 0.097687
Si Si7 0.500000 0.000000 0.927919
O O1 0.605819 0.987080 0.245832
O O2 0.789650 0.898786 0.322067
O O3 0.730357 0.647113 0.170666
O O4 0.766049 0.035104 0.122299
O O5 0.799208 0.517340 0.420786
O O6 0.741426 0.135065 0.519501
O O7 0.609301 0.487672 0.490661
O O8 0.499716 0.250043 0.870555
O O9 0.035733 0.302211 0.328288
O O10 0.098036 0.566663 0.178003
O O11 0.878364 0.845876 0.511661
#
# Coordination Sequence:
#
# PCOD9342409 Si02
#       7
#     4   4   2   2   4   4   2
#     4  10  23  44  66 101 144 188 245 311 374 451
#     4  11  24  44  71 100 143 198 247 319 376 466
#     4  12  25  44  73 108 146 200 249 306 385 458
#     4  10  24  42  72 110 140 200 250 306 404 456
#     4  10  22  46  66 101 148 185 244 316 373 464
#     4  10  24  44  69 105 149 192 255 313 381 463
#     4  12  27  44  75 108 146 200 255 308 393 454
#
# _framework density 22.760384999999999
#
# number of rings (size 3 to 8) (size 9 to 14) (size 15 to 20)
#    0.000    1.455    1.818    1.636    7.636    2.909 
#    0.000    1.818    0.000    0.000    0.000    0.000 
#    0.000    0.000    0.000    0.000    0.000    0.000 
#
# Total GULP energy -122520.671254 kJ/mol
# GULP energy per Si atom -5569.121421 kJ/mol
# Density = 2.270858 g / cm^3
# Si number density = 22.760385 Si / 1000 Ang^3
#
#
#
# Elastic Constant Matrix: (Units=GPa)
#
#
# Indices 1 2 3 4 5 6 
#
# 1 101.8022 39.3557 43.1946 0.0000 0.0000 0.0000
# 2 39.3557 64.3168 44.2708 0.0000 0.0000 0.0000
# 3 43.1946 44.2708 156.3161 0.0000 0.0000 0.0000
# 4 0.0000 0.0000 0.0000 -26.5280 0.0000 0.0000
# 5 0.0000 0.0000 0.0000 0.0000 33.8227 0.0000
# 6 0.0000 0.0000 0.0000 0.0000 0.0000 28.3823
#
#
#
# Elastic Compliance Matrix: (Units=1/GPa)
#
#
# Indices 1 2 3 4 5 6 
#
# 1 0.013217 -0.006923 -0.001691 0.000000 0.000000 0.000000
# 2 -0.006923 0.022940 -0.004584 0.000000 0.000000 0.000000
# 3 -0.001691 -0.004584 0.008163 0.000000 0.000000 0.000000
# 4 0.000000 0.000000 0.000000 -0.037696 0.000000 0.000000
# 5 0.000000 0.000000 0.000000 0.000000 0.029566 0.000000
# 6 0.000000 0.000000 0.000000 0.000000 0.000000 0.035233
#
#
# Mechanical properties :
#
#
# Convention : Reuss Voigt Hill
#
# Bulk Modulus (GPa) = 55.79567 64.00860 59.90213
# Shear Modulus (GPa) = 48.17244 20.17634 34.17439
#
# Velocity S-wave (km/s) = 4.60554 2.98059 3.87910
# Velocity P-wave (km/s) = 7.26973 6.32685 6.81462
#
# Compressibility (1/GPa) = 0.01792254
#
# Stress axis : x y z
#
# Youngs Moduli (GPa) = 75.65914 43.59288 122.50614
#
# Poissons Ratio (x) = 0.30181 0.20722
# Poissons Ratio (y) = 0.52381 0.56153
# Poissons Ratio (z) = 0.12798 0.19982
#
# Static dielectric constant tensor:
#      x y z
#    x 1.814320 0.000000 0.000000 
#    y 0.000000 2.218700 0.000000 
#    z 0.000000 0.000000 1.810210 
# 
# From -- ./inp_files/4308.got.cif
#   From: 2010.05.17/outbox.cif.g08.bks.cpg/sg30_3_cif.got.tgz:4308.got - 2010.06.03 17:03:02.
