data_PCOD9342626
_publ_section_title
;
Structure prediction by ZEFSAII (Michael W. Deem and Ramdas Pophale) SiO2 
 PCOD9342626
Probable space group: P N C 2
;
_chemical_formula_sum "Si O2"
_cell_formula_units_Z 18
_cell_length_a 5.065165
_cell_length_b 5.218402
_cell_length_c 25.864727
_cell_angle_alpha 90.000000
_cell_angle_beta 90.000000
_cell_angle_gamma 90.000000
_cell_volume 683.658201
_symmetry_space_group_name_H-M "P N C 2"
_symmetry_group_IT_number 30
_symmetry_cell_setting 'orthorhombic'
loop_
_space_group_symop_operation_xyz
x,y,z
-x,-y,z
-x,1/2+y,1/2+z
x,1/2-y,1/2+z
loop_
_atom_site_type_symbol
_atom_site_label
_atom_site_fract_x
_atom_site_fract_y
_atom_site_fract_z
Si Si1 0.184107 0.750348 0.682610
Si Si2 0.263661 0.672430 0.796923
Si Si3 0.184107 0.750348 0.072368
Si Si4 0.500000 0.500000 0.377489
Si Si5 0.263662 0.672429 0.958055
O O1 0.000000 0.500000 0.681078
O O2 0.328836 0.736554 0.737197
O O3 0.333930 0.750000 0.627489
O O4 0.000000 0.000000 0.685041
O O5 0.500000 0.500000 0.819215
O O6 0.000000 0.500000 0.799254
O O7 0.285069 0.920349 0.831978
O O8 0.000000 0.500000 0.073899
O O9 0.328837 0.736553 0.017781
O O10 0.000000 0.000000 0.069937
O O11 0.714931 0.420351 0.423000
O O12 0.500000 0.500000 0.935762
O O13 0.000000 0.500000 0.955724
#
# Coordination Sequence:
#
# PCOD9342626 Si02
#       5
#     4   4   4   2   4
#     4   9  20  43  74 108 148 191 244 308 378 448
#     4  11  27  48  71 109 147 195 255 311 378 452
#     4   9  20  43  74 108 148 191 244 308 378 448
#     4  12  28  46  80 100 154 200 256 306 380 446
#     4  11  27  48  71 109 147 195 255 311 378 452
#
# _framework density 26.328949000000001
#
# number of rings (size 3 to 8) (size 9 to 14) (size 15 to 20)
#    0.000    1.778    0.000    1.333   12.444    1.778 
#    4.000    2.222    0.000    0.000    0.000    0.000 
#    0.000    0.000    0.000    0.000    0.000    0.000 
#
# Total GULP energy -100230.898265 kJ/mol
# GULP energy per Si atom -5568.383237 kJ/mol
# Density = 2.626902 g / cm^3
# Si number density = 26.328949 Si / 1000 Ang^3
#
#
#
# Elastic Constant Matrix: (Units=GPa)
#
#
# Indices 1 2 3 4 5 6 
#
# 1 121.7081 41.7472 26.9947 0.0000 0.0000 0.0000
# 2 41.7472 140.1106 6.3864 0.0000 0.0000 0.0000
# 3 26.9947 6.3864 309.9717 0.0000 0.0000 0.0000
# 4 0.0000 0.0000 0.0000 41.8484 0.0000 0.0000
# 5 0.0000 0.0000 0.0000 0.0000 40.5928 0.0000
# 6 0.0000 0.0000 0.0000 0.0000 0.0000 55.9650
#
#
#
# Elastic Compliance Matrix: (Units=1/GPa)
#
#
# Indices 1 2 3 4 5 6 
#
# 1 0.009325 -0.002744 -0.000756 0.000000 0.000000 0.000000
# 2 -0.002744 0.007951 0.000075 0.000000 0.000000 0.000000
# 3 -0.000756 0.000075 0.003290 0.000000 0.000000 0.000000
# 4 0.000000 0.000000 0.000000 0.023896 0.000000 0.000000
# 5 0.000000 0.000000 0.000000 0.000000 0.024635 0.000000
# 6 0.000000 0.000000 0.000000 0.000000 0.000000 0.017868
#
#
# Mechanical properties :
#
#
# Convention : Reuss Voigt Hill
#
# Bulk Modulus (GPa) = 72.89709 80.22742 76.56225
# Shear Modulus (GPa) = 50.81936 60.79204 55.80570
#
# Velocity S-wave (km/s) = 4.39814 4.81036 4.60886
# Velocity P-wave (km/s) = 7.31701 7.83518 7.58052
#
# Compressibility (1/GPa) = 0.01371797
#
# Stress axis : x y z
#
# Youngs Moduli (GPa) = 107.23616 125.76370 303.91872
#
# Poissons Ratio (x) = 0.34511 0.22963
# Poissons Ratio (y) = 0.29427 -0.02284
# Poissons Ratio (z) = 0.08102 -0.00945
#
# Static dielectric constant tensor:
#      x y z
#    x 2.026130 0.000000 0.000000 
#    y 0.000000 2.491550 0.000000 
#    z 0.000000 0.000000 2.092260 
# 
# From -- ./inp_files/7430.got.cif
#   From: 2010.05.17/outbox.cif.g08.bks.cpg/sg30_4_cif.got.tgz:7430.got - 2010.06.03 17:03:02.
