data_PCOD9342234
_publ_section_title
;
Structure prediction by ZEFSAII (Michael W. Deem and Ramdas Pophale) SiO2 
 PCOD9342234
Probable space group: P N C 2
;
_chemical_formula_sum "Si O2"
_cell_formula_units_Z 26
_cell_length_a 12.360789
_cell_length_b 5.214882
_cell_length_c 19.011106
_cell_angle_alpha 90.000000
_cell_angle_beta 90.000000
_cell_angle_gamma 90.000000
_cell_volume 1225.456959
_symmetry_space_group_name_H-M "P N C 2"
_symmetry_group_IT_number 30
_symmetry_cell_setting 'orthorhombic'
loop_
_space_group_symop_operation_xyz
x,y,z
-x,-y,z
-x,1/2+y,1/2+z
x,1/2-y,1/2+z
loop_
_atom_site_type_symbol
_atom_site_label
_atom_site_fract_x
_atom_site_fract_y
_atom_site_fract_z
Si Si1 0.309695 0.830609 0.557740
Si Si2 0.934701 0.245355 0.045809
Si Si3 0.379217 0.380488 0.192819
Si Si4 0.379617 0.057325 0.416144
Si Si5 0.306198 0.921686 0.840266
Si Si6 0.064216 0.753923 0.875584
Si Si7 0.500000 0.500000 0.615091
O O1 0.191336 0.708852 0.564683
O O2 0.421144 0.665687 0.564324
O O3 0.320602 0.016504 0.623910
O O4 0.307711 0.977443 0.483117
O O5 0.000000 0.500000 0.069436
O O6 0.937405 0.251544 0.960524
O O7 0.000000 0.000000 0.070995
O O8 0.500000 0.500000 0.196010
O O9 0.320753 0.457567 0.263546
O O10 0.408409 0.094464 0.170469
O O11 0.346532 0.343185 0.390948
O O12 0.500000 0.000000 0.442003
O O13 0.371601 0.840627 0.354900
O O14 0.186220 0.814940 0.853317
O O15 0.000000 0.500000 0.851562
O O16 0.000000 0.000000 0.850204
#
# Coordination Sequence:
#
# PCOD9342234 Si02
#       7
#     4   4   4   4   4   4   2
#     4  11  25  43  70 101 137 183 234 283 358 414
#     4  10  23  40  67  99 133 175 227 286 342 402
#     4  10  24  44  66  96 139 191 219 276 353 433
#     4  12  26  40  66 105 138 172 233 296 344 411
#     4  12  26  43  69 100 139 182 230 289 347 420
#     4  10  21  41  64  95 133 175 226 285 347 398
#     4  10  24  44  68  96 146 184 234 276 364 430
#
# _framework density 21.216574999999999
#
# number of rings (size 3 to 8) (size 9 to 14) (size 15 to 20)
#    0.000    1.231    1.538    3.692   16.154    0.000 
#    0.000    1.538    0.000    0.000    0.000    0.000 
#    0.000    0.000    0.000    0.000    0.000    0.000 
#
# Total GULP energy -144842.883834 kJ/mol
# GULP energy per Si atom -5570.880147 kJ/mol
# Density = 2.116829 g / cm^3
# Si number density = 21.216575 Si / 1000 Ang^3
#
#
#
# Elastic Constant Matrix: (Units=GPa)
#
#
# Indices 1 2 3 4 5 6 
#
# 1 112.3476 46.0851 1.8782 0.0000 0.0000 0.0000
# 2 46.0851 119.1302 22.9666 0.0000 0.0000 0.0000
# 3 1.8782 22.9666 65.5621 0.0000 0.0000 0.0000
# 4 0.0000 0.0000 0.0000 15.6029 0.0000 0.0000
# 5 0.0000 0.0000 0.0000 0.0000 16.4054 0.0000
# 6 0.0000 0.0000 0.0000 0.0000 0.0000 35.2156
#
#
#
# Elastic Compliance Matrix: (Units=1/GPa)
#
#
# Indices 1 2 3 4 5 6 
#
# 1 0.010670 -0.004364 0.001223 0.000000 0.000000 0.000000
# 2 -0.004364 0.010787 -0.003654 0.000000 0.000000 0.000000
# 3 0.001223 -0.003654 0.016498 0.000000 0.000000 0.000000
# 4 0.000000 0.000000 0.000000 0.064090 0.000000 0.000000
# 5 0.000000 0.000000 0.000000 0.000000 0.060956 0.000000
# 6 0.000000 0.000000 0.000000 0.000000 0.000000 0.028396
#
#
# Mechanical properties :
#
#
# Convention : Reuss Voigt Hill
#
# Bulk Modulus (GPa) = 41.04070 48.76662 44.90366
# Shear Modulus (GPa) = 23.46232 28.51878 25.99055
#
# Velocity S-wave (km/s) = 3.32904 3.67028 3.50381
# Velocity P-wave (km/s) = 5.84486 6.40283 6.13020
#
# Compressibility (1/GPa) = 0.02436606
#
# Stress axis : x y z
#
# Youngs Moduli (GPa) = 93.71675 92.70794 60.61511
#
# Poissons Ratio (x) = 0.40454 -0.07413
# Poissons Ratio (y) = 0.40894 0.22146
# Poissons Ratio (z) = -0.11460 0.33871
#
# Static dielectric constant tensor:
#      x y z
#    x 2.303130 0.000000 0.000000 
#    y 0.000000 1.925530 0.000000 
#    z 0.000000 0.000000 1.740800 
# 
# From -- ./inp_files/6507.got.cif
#   From: 2010.05.17/outbox.cif.g08.bks.cpg/sg30_4_cif.got.tgz:6507.got - 2010.06.03 17:03:02.
