data_PCOD9342857
_publ_section_title
;
Structure prediction by ZEFSAII (Michael W. Deem and Ramdas Pophale) SiO2 
 PCOD9342857
Probable space group: P M N 21
;
_chemical_formula_sum "Si O2"
_cell_formula_units_Z 32
_cell_length_a 7.619084
_cell_length_b 19.603501
_cell_length_c 10.676751
_cell_angle_alpha 90.000000
_cell_angle_beta 90.000000
_cell_angle_gamma 90.000000
_cell_volume 1594.687225
_symmetry_space_group_name_H-M "P M N 21"
_symmetry_group_IT_number 31
_symmetry_cell_setting 'orthorhombic'
loop_
_space_group_symop_operation_xyz
x,y,z
1/2-x,-y,1/2+z
-x,y,z
1/2+x,-y,1/2+z
loop_
_atom_site_type_symbol
_atom_site_label
_atom_site_fract_x
_atom_site_fract_y
_atom_site_fract_z
Si Si1 0.284018 0.843566 0.933450
Si Si2 0.209056 0.707072 0.553673
Si Si3 0.203611 0.297127 0.336010
Si Si4 0.210919 0.153020 0.940162
Si Si5 0.212243 0.450459 0.314958
Si Si6 0.289720 0.924001 0.687263
Si Si7 0.789002 0.083958 0.686500
Si Si8 0.209940 0.553682 0.527593
O O1 0.500000 0.842778 0.932551
O O2 0.222822 0.765635 0.915218
O O3 0.225857 0.887575 0.813544
O O4 0.225264 0.878895 0.061076
O O5 0.287624 0.724206 0.689868
O O6 0.249246 0.767392 0.458243
O O7 0.274665 0.631804 0.516059
O O8 0.000000 0.703052 0.570617
O O9 0.279970 0.373429 0.341116
O O10 0.000000 0.303560 0.372231
O O11 0.278331 0.119974 0.812371
O O12 0.000000 0.145822 0.939437
O O13 0.278900 0.112920 0.062387
O O14 0.277160 0.503194 0.419870
O O15 0.254920 0.468543 0.170930
O O16 0.000000 0.448165 0.321510
O O17 0.500000 0.915861 0.686802
O O18 0.251420 0.003994 0.686132
O O19 0.000000 0.090534 0.686262
O O20 0.000000 0.555751 0.512516
#
# Coordination Sequence:
#
# PCOD9342857 Si02
#       8
#     4   4   4   4   4   4   4   4
#     4   9  17  32  52  72  98 128 161 205 251 289
#     4  10  19  32  53  76 103 136 171 210 250 296
#     4   9  16  32  56  75  97 132 174 210 248 298
#     4  10  20  35  52  74 103 132 169 212 249 295
#     4   9  18  33  55  79 104 138 175 212 256 310
#     4  10  19  33  53  71  96 133 166 205 253 300
#     4  10  21  34  49  74 103 129 162 209 254 298
#     4   9  19  35  52  79 112 136 170 217 259 304
#
# _framework density 20.06663
#
# number of rings (size 3 to 8) (size 9 to 14) (size 15 to 20)
#    0.000    2.500    1.250    1.125    0.000    2.000 
#    2.250    0.625    0.000    0.000    0.000    0.000 
#    0.000    0.000    0.000    0.000    0.000    0.000 
#
# Total GULP energy -178582.702973 kJ/mol
# GULP energy per Si atom -5580.709468 kJ/mol
# Density = 2.002096 g / cm^3
# Si number density = 20.066630 Si / 1000 Ang^3
#
#
#
# Elastic Constant Matrix: (Units=GPa)
#
#
# Indices 1 2 3 4 5 6 
#
# 1 39.9638 -2.3195 5.2920 0.0000 0.0000 0.0000
# 2 -2.3195 148.9660 107.4693 0.0000 0.0000 0.0000
# 3 5.2920 107.4693 169.5006 0.0000 0.0000 0.0000
# 4 0.0000 0.0000 0.0000 32.2882 0.0000 0.0000
# 5 0.0000 0.0000 0.0000 0.0000 -4.9133 0.0000
# 6 0.0000 0.0000 0.0000 0.0000 0.0000 19.0109
#
#
#
# Elastic Compliance Matrix: (Units=1/GPa)
#
#
# Indices 1 2 3 4 5 6 
#
# 1 0.025381 0.001782 -0.001922 0.000000 0.000000 0.000000
# 2 0.001782 0.012497 -0.007979 0.000000 0.000000 0.000000
# 3 -0.001922 -0.007979 0.011019 0.000000 0.000000 0.000000
# 4 0.000000 0.000000 0.000000 0.030971 0.000000 0.000000
# 5 0.000000 0.000000 0.000000 0.000000 -0.203530 0.000000
# 6 0.000000 0.000000 0.000000 0.000000 0.000000 0.052601
#
#
# Mechanical properties :
#
#
# Convention : Reuss Voigt Hill
#
# Bulk Modulus (GPa) = 30.62080 64.36822 47.49451
# Shear Modulus (GPa) = -113.80155 25.80974 -43.99591
#
# Velocity S-wave (km/s) = -7.53890 3.59026 -4.68748
# Velocity P-wave (km/s) = 7.77735 7.02378 2.36154
#
# Compressibility (1/GPa) = 0.03265754
#
# Stress axis : x y z
#
# Youngs Moduli (GPa) = 39.40014 80.01751 90.75332
#
# Poissons Ratio (x) = -0.14259 0.17445
# Poissons Ratio (y) = -0.07021 0.72415
# Poissons Ratio (z) = 0.07574 0.63849
#
# Static dielectric constant tensor:
#      x y z
#    x 1.750070 0.000000 0.000000 
#    y 0.000000 1.707250 0.000000 
#    z 0.000000 0.000000 1.683400 
# 
# From -- ./inp_files/3777.got.cif
#   From: 2010.05.17/outbox.cif.g08.bks.cpg/sg31_2_cif.got.tgz:3777.got - 2010.06.03 17:08:30.
