data_PCOD9342948
_publ_section_title
;
Structure prediction by ZEFSAII (Michael W. Deem and Ramdas Pophale) SiO2 
 PCOD9342948
Probable space group: P M N 21
;
_chemical_formula_sum "Si O2"
_cell_formula_units_Z 32
_cell_length_a 8.753281
_cell_length_b 9.355656
_cell_length_c 21.498029
_cell_angle_alpha 90.000000
_cell_angle_beta 90.000000
_cell_angle_gamma 90.000000
_cell_volume 1760.531337
_symmetry_space_group_name_H-M "P M N 21"
_symmetry_group_IT_number 31
_symmetry_cell_setting 'orthorhombic'
loop_
_space_group_symop_operation_xyz
x,y,z
1/2-x,-y,1/2+z
-x,y,z
1/2+x,-y,1/2+z
loop_
_atom_site_type_symbol
_atom_site_label
_atom_site_fract_x
_atom_site_fract_y
_atom_site_fract_z
Si Si1 0.683045 0.666818 0.722270
Si Si2 0.182618 0.668822 0.216215
Si Si3 0.184029 0.653944 0.988305
Si Si4 0.681896 0.333704 0.990781
Si Si5 0.183501 0.151781 0.102349
Si Si6 0.818619 0.644283 0.353173
Si Si7 0.320111 0.331051 0.351345
Si Si8 0.818655 0.164499 0.601075
O O1 0.500000 0.668365 0.724189
O O2 0.726490 0.499590 0.713893
O O3 0.733392 0.759472 0.663479
O O4 0.741664 0.723518 0.788618
O O5 0.210836 0.719558 0.287329
O O6 0.270519 0.757065 0.164683
O O7 0.000000 0.678493 0.204332
O O8 0.258168 0.496752 0.994581
O O9 0.240505 0.751549 0.044205
O O10 0.000000 0.639091 0.989646
O O11 0.227923 0.718096 0.920429
O O12 0.500000 0.331699 0.001642
O O13 0.765624 0.238605 0.041538
O O14 0.709760 0.282653 0.919447
O O15 0.000000 0.139100 0.103652
O O16 0.258057 0.996627 0.102418
O O17 0.720988 0.499571 0.352818
O O18 0.000000 0.604215 0.352179
O O19 0.500000 0.310234 0.345379
O O20 0.000000 0.167653 0.593438
#
# Coordination Sequence:
#
# PCOD9342948 Si02
#       8
#     4   4   4   4   4   4   4   4
#     4   9  19  35  57  81 106 139 177 214 262 322
#     4   9  17  34  58  82 108 139 174 214 262 324
#     4  10  20  36  57  82 110 143 179 217 267 325
#     4  10  19  34  58  87 112 138 177 224 265 310
#     4  11  23  39  56  76 107 148 184 219 268 326
#     4   8  16  31  53  80 110 139 170 211 263 318
#     4   9  17  29  52  83 110 134 169 218 265 308
#     4  12  25  38  53  77 107 142 184 231 272 311
#
# _framework density 18.176331000000001
#
# number of rings (size 3 to 8) (size 9 to 14) (size 15 to 20)
#    0.000    2.250    0.000    4.125    0.000    6.000 
#    0.000    1.250    0.000    1.500    0.000    0.000 
#    0.000    0.000    0.000    0.000    0.000    0.000 
#
# Total GULP energy -178470.599484 kJ/mol
# GULP energy per Si atom -5577.206234 kJ/mol
# Density = 1.813496 g / cm^3
# Si number density = 18.176331 Si / 1000 Ang^3
#
#
#
# Elastic Constant Matrix: (Units=GPa)
#
#
# Indices 1 2 3 4 5 6 
#
# 1 31.2039 12.6856 25.1571 0.0000 0.0000 0.0000
# 2 12.6856 60.2097 53.4624 0.0000 0.0000 0.0000
# 3 25.1571 53.4624 149.2967 0.0000 0.0000 0.0000
# 4 0.0000 0.0000 0.0000 -8.2305 0.0000 0.0000
# 5 0.0000 0.0000 0.0000 0.0000 24.2020 0.0000
# 6 0.0000 0.0000 0.0000 0.0000 0.0000 24.3574
#
#
#
# Elastic Compliance Matrix: (Units=1/GPa)
#
#
# Indices 1 2 3 4 5 6 
#
# 1 0.037544 -0.003362 -0.005122 0.000000 0.000000 0.000000
# 2 -0.003362 0.024653 -0.008262 0.000000 0.000000 0.000000
# 3 -0.005122 -0.008262 0.010520 0.000000 0.000000 0.000000
# 4 0.000000 0.000000 0.000000 -0.121499 0.000000 0.000000
# 5 0.000000 0.000000 0.000000 0.000000 0.041319 0.000000
# 6 0.000000 0.000000 0.000000 0.000000 0.000000 0.041055
#
#
# Mechanical properties :
#
#
# Convention : Reuss Voigt Hill
#
# Bulk Modulus (GPa) = 25.49418 47.03560 36.26489
# Shear Modulus (GPa) = 62.37739 18.02612 40.20176
#
# Velocity S-wave (km/s) = 5.86451 3.15260 4.70804
# Velocity P-wave (km/s) = 7.74035 6.25983 7.03912
#
# Compressibility (1/GPa) = 0.03922464
#
# Stress axis : x y z
#
# Youngs Moduli (GPa) = 26.63558 40.56370 95.06040
#
# Poissons Ratio (x) = 0.13636 0.48694
# Poissons Ratio (y) = 0.08954 0.78534
# Poissons Ratio (z) = 0.13644 0.33512
#
# Static dielectric constant tensor:
#      x y z
#    x 1.612540 0.000000 0.000000 
#    y 0.000000 1.583210 0.000000 
#    z 0.000000 0.000000 1.661270 
# 
# From -- ./inp_files/6237.got.cif
#   From: 2010.05.17/outbox.cif.g08.bks.cpg/sg31_4_cif.got.tgz:6237.got - 2010.06.03 17:08:30.
