data_PCOD9342964
_publ_section_title
;
Structure prediction by ZEFSAII (Michael W. Deem and Ramdas Pophale) SiO2 
 PCOD9342964
Probable space group: P M N 21
;
_chemical_formula_sum "Si O2"
_cell_formula_units_Z 32
_cell_length_a 7.811547
_cell_length_b 11.211073
_cell_length_c 14.345016
_cell_angle_alpha 90.000000
_cell_angle_beta 90.000000
_cell_angle_gamma 90.000000
_cell_volume 1256.276592
_symmetry_space_group_name_H-M "P M N 21"
_symmetry_group_IT_number 31
_symmetry_cell_setting 'orthorhombic'
loop_
_space_group_symop_operation_xyz
x,y,z
1/2-x,-y,1/2+z
-x,y,z
1/2+x,-y,1/2+z
loop_
_atom_site_type_symbol
_atom_site_label
_atom_site_fract_x
_atom_site_fract_y
_atom_site_fract_z
Si Si1 0.305600 0.707145 0.661650
Si Si2 0.790298 0.064778 0.733707
Si Si3 0.707923 0.533323 0.403040
Si Si4 0.695191 0.061525 0.057679
Si Si5 0.205272 0.443946 0.685962
Si Si6 0.699098 0.787095 0.394640
Si Si7 0.201157 0.823793 0.839384
Si Si8 0.196853 0.301052 0.517031
O O1 0.500000 0.723941 0.628865
O O2 0.198793 0.815625 0.618333
O O3 0.249672 0.572898 0.643170
O O4 0.294126 0.728329 0.773137
O O5 0.732081 0.036903 0.628927
O O6 0.744556 0.950462 0.797447
O O7 0.000000 0.068990 0.728818
O O8 0.727421 0.175482 0.794554
O O9 0.500000 0.515323 0.409951
O O10 0.756316 0.546849 0.293901
O O11 0.762727 0.664476 0.439398
O O12 0.789463 0.423064 0.456333
O O13 0.500000 0.032155 0.033986
O O14 0.788009 0.102184 0.964538
O O15 0.272741 0.340670 0.616915
O O16 0.000000 0.430937 0.686834
O O17 0.500000 0.763308 0.377115
O O18 0.230378 0.799007 0.947948
O O19 0.000000 0.809369 0.822287
O O20 0.000000 0.268782 0.532730
#
# Coordination Sequence:
#
# PCOD9342964 Si02
#       8
#     4   4   4   4   4   4   4   4
#     4  11  20  32  55  84 110 144 190 237 276 326
#     4   8  18  37  59  81 110 148 189 230 281 341
#     4  10  21  37  58  81 112 154 189 227 287 347
#     4  10  20  36  58  86 115 152 191 234 291 342
#     4  10  21  36  52  78 116 154 184 225 287 345
#     4  10  20  38  61  85 112 149 197 240 280 340
#     4  10  19  35  57  78 108 147 185 231 289 338
#     4  11  22  35  54  83 115 146 187 236 279 337
#
# _framework density 25.472094999999999
#
# number of rings (size 3 to 8) (size 9 to 14) (size 15 to 20)
#    0.000    2.000    1.250    3.750    0.000    3.500 
#    2.250    3.750    0.000    0.000    0.000    0.000 
#    0.000    0.000    0.000    0.000    0.000    0.000 
#
# Total GULP energy -178886.456502 kJ/mol
# GULP energy per Si atom -5590.201766 kJ/mol
# Density = 2.541412 g / cm^3
# Si number density = 25.472095 Si / 1000 Ang^3
#
#
#
# Elastic Constant Matrix: (Units=GPa)
#
#
# Indices 1 2 3 4 5 6 
#
# 1 37.4400 -2.8481 -0.9121 0.0000 0.0000 0.0000
# 2 -2.8481 70.6005 28.8170 0.0000 0.0000 0.0000
# 3 -0.9121 28.8170 112.9360 0.0000 0.0000 0.0000
# 4 0.0000 0.0000 0.0000 57.6839 0.0000 0.0000
# 5 0.0000 0.0000 0.0000 0.0000 20.0264 0.0000
# 6 0.0000 0.0000 0.0000 0.0000 0.0000 9.3205
#
#
#
# Elastic Compliance Matrix: (Units=1/GPa)
#
#
# Indices 1 2 3 4 5 6 
#
# 1 0.026792 0.001108 -0.000066 0.000000 0.000000 0.000000
# 2 0.001108 0.015857 -0.004037 0.000000 0.000000 0.000000
# 3 -0.000066 -0.004037 0.009884 0.000000 0.000000 0.000000
# 4 0.000000 0.000000 0.000000 0.017336 0.000000 0.000000
# 5 0.000000 0.000000 0.000000 0.000000 0.049934 0.000000
# 6 0.000000 0.000000 0.000000 0.000000 0.000000 0.107291
#
#
# Mechanical properties :
#
#
# Convention : Reuss Voigt Hill
#
# Bulk Modulus (GPa) = 21.48601 30.12112 25.80356
# Shear Modulus (GPa) = 20.11273 30.46747 25.29010
#
# Velocity S-wave (km/s) = 2.81303 3.46224 3.15438
# Velocity P-wave (km/s) = 4.35939 5.27576 4.83931
#
# Compressibility (1/GPa) = 0.04654192
#
# Stress axis : x y z
#
# Youngs Moduli (GPa) = 37.32449 63.06475 101.17209
#
# Poissons Ratio (x) = -0.06987 0.00671
# Poissons Ratio (y) = -0.04135 0.40844
# Poissons Ratio (z) = 0.00247 0.25460
#
# Static dielectric constant tensor:
#      x y z
#    x 1.905760 0.000000 0.000000 
#    y 0.000000 2.041560 0.000000 
#    z 0.000000 0.000000 2.080570 
# 
# From -- ./inp_files/4971.got.cif
#   From: 2010.05.17/outbox.cif.g08.bks.cpg/sg31_3_cif.got.tgz:4971.got - 2010.06.03 17:08:30.
