data_PCOD9342413
_publ_section_title
;
Structure prediction by ZEFSAII (Michael W. Deem and Ramdas Pophale) SiO2 
 PCOD9342413
Probable space group: P N C 2
;
_chemical_formula_sum "Si O2"
_cell_formula_units_Z 26
_cell_length_a 5.883596
_cell_length_b 11.054881
_cell_length_c 18.114888
_cell_angle_alpha 90.000000
_cell_angle_beta 90.000000
_cell_angle_gamma 90.000000
_cell_volume 1178.236763
_symmetry_space_group_name_H-M "P N C 2"
_symmetry_group_IT_number 30
_symmetry_cell_setting 'orthorhombic'
loop_
_space_group_symop_operation_xyz
x,y,z
-x,-y,z
-x,1/2+y,1/2+z
x,1/2-y,1/2+z
loop_
_atom_site_type_symbol
_atom_site_label
_atom_site_fract_x
_atom_site_fract_y
_atom_site_fract_z
Si Si1 0.685293 0.817160 0.572880
Si Si2 0.640037 0.822533 0.299112
Si Si3 0.000000 0.500000 0.872368
Si Si4 0.314707 0.682840 0.671856
Si Si5 0.074176 0.127400 0.713981
Si Si6 0.359964 0.677467 0.945624
Si Si7 0.925825 0.372600 0.530754
O O1 0.499999 0.750001 0.622368
O O2 0.815881 0.898588 0.632870
O O3 0.544254 0.869661 0.504997
O O4 0.864198 0.718249 0.543636
O O5 0.455748 0.869662 0.239738
O O6 0.752656 0.703060 0.264165
O O7 0.499999 0.794359 0.372368
O O8 0.838010 0.915974 0.321898
O O9 0.161991 0.584026 0.922837
O O10 0.135801 0.781749 0.701101
O O11 0.184121 0.601412 0.611865
O O12 0.000000 0.000000 0.746748
O O13 0.247343 0.796939 0.980571
O O14 0.000000 0.500000 0.497987
#
# Coordination Sequence:
#
# PCOD9342413 Si02
#       7
#     4   4   2   4   4   4   4
#     4   9  21  44  65 100 139 179 231 278 349 406
#     4  11  24  46  67 100 143 187 232 292 357 414
#     4  12  26  48  66 102 140 188 242 284 348 430
#     4   9  21  44  65 100 139 179 231 278 349 406
#     4  10  22  46  71 104 139 182 234 287 348 426
#     4  11  24  46  67 100 143 187 232 292 357 414
#     4  10  22  46  71 104 139 182 234 287 348 426
#
# _framework density 22.066873999999999
#
# number of rings (size 3 to 8) (size 9 to 14) (size 15 to 20)
#    0.000    1.846    0.000    2.308    0.000    4.923 
#   66.462   11.538    0.000    0.000    0.000    0.000 
#    0.000    0.000    0.000    0.000    0.000    0.000 
#
# Total GULP energy -145348.467696 kJ/mol
# GULP energy per Si atom -5590.325681 kJ/mol
# Density = 2.201665 g / cm^3
# Si number density = 22.066874 Si / 1000 Ang^3
#
#
#
# Elastic Constant Matrix: (Units=GPa)
#
#
# Indices 1 2 3 4 5 6 
#
# 1 141.7869 52.8379 83.1252 0.0000 0.0000 0.0000
# 2 52.8379 116.6589 65.3136 0.0000 0.0000 0.0000
# 3 83.1252 65.3136 155.9589 0.0000 0.0000 0.0000
# 4 0.0000 0.0000 0.0000 19.7989 0.0000 0.0000
# 5 0.0000 0.0000 0.0000 0.0000 53.0126 0.0000
# 6 0.0000 0.0000 0.0000 0.0000 0.0000 25.7162
#
#
#
# Elastic Compliance Matrix: (Units=1/GPa)
#
#
# Indices 1 2 3 4 5 6 
#
# 1 0.010656 -0.002151 -0.004779 0.000000 0.000000 0.000000
# 2 -0.002151 0.011632 -0.003725 0.000000 0.000000 0.000000
# 3 -0.004779 -0.003725 0.010519 0.000000 0.000000 0.000000
# 4 0.000000 0.000000 0.000000 0.050508 0.000000 0.000000
# 5 0.000000 0.000000 0.000000 0.000000 0.018863 0.000000
# 6 0.000000 0.000000 0.000000 0.000000 0.000000 0.038886
#
#
# Mechanical properties :
#
#
# Convention : Reuss Voigt Hill
#
# Bulk Modulus (GPa) = 86.97480 90.77311 88.87396
# Shear Modulus (GPa) = 30.08329 33.91408 31.99869
#
# Velocity S-wave (km/s) = 3.69627 3.92456 3.81212
# Velocity P-wave (km/s) = 7.59712 7.85881 7.72908
#
# Compressibility (1/GPa) = 0.01149758
#
# Stress axis : x y z
#
# Youngs Moduli (GPa) = 93.84308 85.97309 95.06673
#
# Poissons Ratio (x) = 0.18492 0.45431
# Poissons Ratio (y) = 0.20185 0.35410
# Poissons Ratio (z) = 0.44846 0.32023
#
# Static dielectric constant tensor:
#      x y z
#    x 1.905540 0.000000 0.000000 
#    y 0.000000 1.758930 0.000000 
#    z 0.000000 0.000000 1.835790 
# 
# From -- ./inp_files/5943.got.cif
#   From: 2010.05.17/outbox.cif.g08.bks.cpg/sg30_3_cif.got.tgz:5943.got - 2010.06.03 17:03:02.
