data_PCOD9342931
_publ_section_title
;
Structure prediction by ZEFSAII (Michael W. Deem and Ramdas Pophale) SiO2 
 PCOD9342931
Probable space group: P M N 21
;
_chemical_formula_sum "Si O2"
_cell_formula_units_Z 32
_cell_length_a 8.878039
_cell_length_b 11.635909
_cell_length_c 16.562833
_cell_angle_alpha 90.000000
_cell_angle_beta 90.000000
_cell_angle_gamma 90.000000
_cell_volume 1711.007793
_symmetry_space_group_name_H-M "P M N 21"
_symmetry_group_IT_number 31
_symmetry_cell_setting 'orthorhombic'
loop_
_space_group_symop_operation_xyz
x,y,z
1/2-x,-y,1/2+z
-x,y,z
1/2+x,-y,1/2+z
loop_
_atom_site_type_symbol
_atom_site_label
_atom_site_fract_x
_atom_site_fract_y
_atom_site_fract_z
Si Si1 0.172275 0.707511 0.979360
Si Si2 0.319507 0.338783 0.774465
Si Si3 0.177058 0.439812 0.611247
Si Si4 0.325578 0.443536 0.320156
Si Si5 0.316717 0.926419 0.636928
Si Si6 0.319367 0.023754 0.462123
Si Si7 0.319605 0.661352 0.660651
Si Si8 0.318036 0.071881 0.796015
O O1 0.177290 0.638886 0.896288
O O2 0.000000 0.701301 0.011989
O O3 0.208707 0.840167 0.966343
O O4 0.283520 0.643967 0.038896
O O5 0.500000 0.347459 0.773991
O O6 0.253574 0.381985 0.689421
O O7 0.250325 0.432685 0.835421
O O8 0.277547 0.206537 0.788313
O O9 0.249459 0.566222 0.601159
O O10 0.000000 0.450934 0.621931
O O11 0.500000 0.461363 0.297259
O O12 0.238402 0.380331 0.247885
O O13 0.500000 0.932146 0.637081
O O14 0.267895 0.971750 0.548602
O O15 0.273351 0.792864 0.646193
O O16 0.267831 0.001162 0.715462
O O17 0.500000 0.005689 0.456544
O O18 0.245983 0.974977 0.380540
O O19 0.500000 0.654758 0.657192
O O20 0.500000 0.063942 0.798423
#
# Coordination Sequence:
#
# PCOD9342931 Si02
#       8
#     4   4   4   4   4   4   4   4
#     4  10  21  37  56  78 108 145 181 222 277 333
#     4  10  20  36  57  79 109 147 182 220 274 334
#     4  11  22  35  55  81 108 139 180 231 275 320
#     4  10  20  34  54  80 108 139 179 227 273 323
#     4   9  19  36  58  81 109 148 185 221 271 333
#     4  10  21  38  59  83 111 145 188 231 274 331
#     4  10  19  34  56  79 106 141 179 218 271 333
#     4  10  21  38  59  83 113 148 186 228 275 329
#
# _framework density 18.702428000000001
#
# number of rings (size 3 to 8) (size 9 to 14) (size 15 to 20)
#    0.000    2.000    0.000    5.250    0.000    5.500 
#    0.000    6.250    0.000    0.000    0.000    0.000 
#    0.000    0.000    0.000    0.000    0.000    0.000 
#
# Total GULP energy -178550.123986 kJ/mol
# GULP energy per Si atom -5579.691375 kJ/mol
# Density = 1.865986 g / cm^3
# Si number density = 18.702428 Si / 1000 Ang^3
#
#
#
# Elastic Constant Matrix: (Units=GPa)
#
#
# Indices 1 2 3 4 5 6 
#
# 1 54.3527 63.3951 33.3607 0.0000 0.0000 0.0000
# 2 63.3951 184.2658 77.3944 0.0000 0.0000 0.0000
# 3 33.3607 77.3944 104.9978 0.0000 0.0000 0.0000
# 4 0.0000 0.0000 0.0000 29.8605 0.0000 0.0000
# 5 0.0000 0.0000 0.0000 0.0000 29.9882 0.0000
# 6 0.0000 0.0000 0.0000 0.0000 0.0000 22.7696
#
#
#
# Elastic Compliance Matrix: (Units=1/GPa)
#
#
# Indices 1 2 3 4 5 6 
#
# 1 0.031332 -0.009557 -0.002910 0.000000 0.000000 0.000000
# 2 -0.009557 0.010776 -0.004906 0.000000 0.000000 0.000000
# 3 -0.002910 -0.004906 0.014065 0.000000 0.000000 0.000000
# 4 0.000000 0.000000 0.000000 0.033489 0.000000 0.000000
# 5 0.000000 0.000000 0.000000 0.000000 0.033346 0.000000
# 6 0.000000 0.000000 0.000000 0.000000 0.000000 0.043918
#
#
# Mechanical properties :
#
#
# Convention : Reuss Voigt Hill
#
# Bulk Modulus (GPa) = 46.67418 76.87963 61.77690
# Shear Modulus (GPa) = 23.94461 27.82140 25.88301
#
# Velocity S-wave (km/s) = 3.58200 3.86110 3.72417
# Velocity P-wave (km/s) = 6.48984 7.81495 7.18302
#
# Compressibility (1/GPa) = 0.02142512
#
# Stress axis : x y z
#
# Youngs Moduli (GPa) = 31.91659 92.80182 71.09755
#
# Poissons Ratio (x) = 0.88690 0.20693
# Poissons Ratio (y) = 0.30503 0.34882
# Poissons Ratio (z) = 0.09289 0.45531
#
# Static dielectric constant tensor:
#      x y z
#    x 1.640330 0.000000 0.000000 
#    y 0.000000 1.644250 0.000000 
#    z 0.000000 0.000000 1.653790 
# 
# From -- ./inp_files/5025.got.cif
#   From: 2010.05.17/outbox.cif.g08.bks.cpg/sg31_3_cif.got.tgz:5025.got - 2010.06.03 17:08:30.
