data_PCOD9342678
_publ_section_title
;
Structure prediction by ZEFSAII (Michael W. Deem and Ramdas Pophale) SiO2 
 PCOD9342678
Probable space group: P M N 21
;
_chemical_formula_sum "Si O2"
_cell_formula_units_Z 28
_cell_length_a 20.544504
_cell_length_b 13.081116
_cell_length_c 5.450808
_cell_angle_alpha 90.000000
_cell_angle_beta 90.000000
_cell_angle_gamma 90.000000
_cell_volume 1464.877614
_symmetry_space_group_name_H-M "P M N 21"
_symmetry_group_IT_number 31
_symmetry_cell_setting 'orthorhombic'
loop_
_space_group_symop_operation_xyz
x,y,z
1/2-x,-y,1/2+z
-x,y,z
1/2+x,-y,1/2+z
loop_
_atom_site_type_symbol
_atom_site_label
_atom_site_fract_x
_atom_site_fract_y
_atom_site_fract_z
Si Si1 0.927288 0.686467 0.933180
Si Si2 0.874346 0.954863 0.433281
Si Si3 0.268998 0.225860 0.933261
Si Si4 0.214025 0.532354 0.433523
Si Si5 0.379291 0.094808 0.433277
Si Si6 0.268032 0.869136 0.933260
Si Si7 0.073596 0.554914 0.433173
O O1 0.921635 0.620862 0.684881
O O2 0.000000 0.731331 0.933291
O O3 0.879895 0.782182 0.933264
O O4 0.921611 0.620771 0.181340
O O5 0.830922 0.850502 0.433268
O O6 0.910894 0.948161 0.178043
O O7 0.825914 0.050188 0.433288
O O8 0.910898 0.948154 0.688508
O O9 0.288238 0.344011 0.933308
O O10 0.231859 0.197026 0.184446
O O11 0.231867 0.197041 0.682054
O O12 0.250050 0.499939 0.183670
O O13 0.139893 0.490223 0.433341
O O14 0.301520 0.069272 0.433264
O O15 0.000000 0.509796 0.433187
#
# Coordination Sequence:
#
# PCOD9342678 Si02
#       7
#     4   4   4   4   4   4   4
#     4  10  19  31  50  74 100 137 181 211 254 326
#     4  10  18  27  45  70  96 127 165 200 242 299
#     4  10  18  30  46  65 100 135 159 203 258 306
#     4  12  24  37  53  79 113 144 178 221 275 333
#     4  10  16  25  39  62  97 126 152 193 238 283
#     4  10  17  28  46  70  96 126 165 200 245 300
#     4  10  20  36  55  74 100 139 181 222 266 323
#
# _framework density 19.114224
#
# number of rings (size 3 to 8) (size 9 to 14) (size 15 to 20)
#    0.000    1.714    0.000   10.286    0.000    0.000 
#    0.000    0.000    0.000    0.000    0.000    0.000 
#    0.000   38.857    0.000    0.000    0.000    0.000 
#
# Total GULP energy -156140.229953 kJ/mol
# GULP energy per Si atom -5576.436784 kJ/mol
# Density = 1.907072 g / cm^3
# Si number density = 19.114224 Si / 1000 Ang^3
#
#
#
# Elastic Constant Matrix: (Units=GPa)
#
#
# Indices 1 2 3 4 5 6 
#
# 1 83.7295 11.4637 30.3373 0.0000 0.0000 0.0000
# 2 11.4637 43.6829 15.2442 0.0000 0.0000 0.0000
# 3 30.3373 15.2442 199.0277 0.0000 0.0000 0.0000
# 4 0.0000 0.0000 0.0000 30.9992 0.0000 0.0000
# 5 0.0000 0.0000 0.0000 0.0000 19.5043 0.0000
# 6 0.0000 0.0000 0.0000 0.0000 0.0000 10.9644
#
#
#
# Elastic Compliance Matrix: (Units=1/GPa)
#
#
# Indices 1 2 3 4 5 6 
#
# 1 0.012963 -0.002787 -0.001763 0.000000 0.000000 0.000000
# 2 -0.002787 0.024120 -0.001423 0.000000 0.000000 0.000000
# 3 -0.001763 -0.001423 0.005402 0.000000 0.000000 0.000000
# 4 0.000000 0.000000 0.000000 0.032259 0.000000 0.000000
# 5 0.000000 0.000000 0.000000 0.000000 0.051271 0.000000
# 6 0.000000 0.000000 0.000000 0.000000 0.000000 0.091204
#
#
# Mechanical properties :
#
#
# Convention : Reuss Voigt Hill
#
# Bulk Modulus (GPa) = 32.74244 48.94784 40.84514
# Shear Modulus (GPa) = 20.89046 30.25325 25.57185
#
# Velocity S-wave (km/s) = 3.30953 3.98271 3.66162
# Velocity P-wave (km/s) = 5.63658 6.84200 6.26833
#
# Compressibility (1/GPa) = 0.03054140
#
# Stress axis : x y z
#
# Youngs Moduli (GPa) = 77.14030 41.45922 185.11498
#
# Poissons Ratio (x) = 0.11554 0.32627
# Poissons Ratio (y) = 0.21498 0.26335
# Poissons Ratio (z) = 0.13596 0.05898
#
# Static dielectric constant tensor:
#      x y z
#    x 1.734080 0.000000 0.000000 
#    y 0.000000 1.630210 0.000000 
#    z 0.000000 0.000000 1.787540 
# 
# From -- ./inp_files/968.got.cif
#   From: 2010.05.17/outbox.cif.g08.bks.cpg/sg31_1_cif.got.tgz:968.got - 2010.06.03 17:08:30.
