data_PCOD9342251
_publ_section_title
;
Structure prediction by ZEFSAII (Michael W. Deem and Ramdas Pophale) SiO2 
 PCOD9342251
Probable space group: P N C 2
;
_chemical_formula_sum "Si O2"
_cell_formula_units_Z 24
_cell_length_a 10.124772
_cell_length_b 8.523091
_cell_length_c 12.428794
_cell_angle_alpha 90.000000
_cell_angle_beta 90.000000
_cell_angle_gamma 90.000000
_cell_volume 1072.534738
_symmetry_space_group_name_H-M "P N C 2"
_symmetry_group_IT_number 30
_symmetry_cell_setting 'orthorhombic'
loop_
_space_group_symop_operation_xyz
x,y,z
-x,-y,z
-x,1/2+y,1/2+z
x,1/2-y,1/2+z
loop_
_atom_site_type_symbol
_atom_site_label
_atom_site_fract_x
_atom_site_fract_y
_atom_site_fract_z
Si Si1 0.361033 0.410432 0.541140
Si Si2 0.655352 0.028331 0.264903
Si Si3 0.221128 0.657176 0.174426
Si Si4 0.140626 0.927887 0.897201
Si Si5 0.723160 0.596931 0.994138
Si Si6 0.007213 0.686544 0.015497
O O1 0.500000 0.500000 0.540857
O O2 0.307522 0.419916 0.663230
O O3 0.262728 0.509841 0.465222
O O4 0.387232 0.230598 0.507229
O O5 0.688309 0.205559 0.224372
O O6 0.500000 0.000000 0.283088
O O7 0.722217 0.974716 0.375422
O O8 0.172496 0.550043 0.272878
O O9 0.280386 0.541409 0.083019
O O10 0.090667 0.735125 0.120315
O O11 0.099230 0.748488 0.919773
O O12 0.000000 0.000000 0.931505
O O13 0.851358 0.712372 0.009217
O O14 0.000000 0.500000 0.016127
#
# Coordination Sequence:
#
# PCOD9342251 Si02
#       6
#     4   4   4   4   4   4
#     4  11  27  48  70 108 152 195 254 305 379 447
#     4  11  27  47  72 106 153 199 255 308 379 454
#     4  11  24  44  75 107 148 188 251 311 379 436
#     4  12  23  44  72 106 148 192 243 309 371 446
#     4  11  25  46  76 109 149 199 251 304 382 460
#     4  10  21  42  67 107 141 189 239 302 370 439
#
# _framework density 22.376895999999999
#
# number of rings (size 3 to 8) (size 9 to 14) (size 15 to 20)
#    0.000    1.000    3.333    3.500    4.667    2.667 
#    0.000    2.500    0.000    0.000    0.000    0.000 
#    0.000    0.000    0.000    0.000    0.000    0.000 
#
# Total GULP energy -133824.204138 kJ/mol
# GULP energy per Si atom -5576.008506 kJ/mol
# Density = 2.232597 g / cm^3
# Si number density = 22.376896 Si / 1000 Ang^3
#
#
#
# Elastic Constant Matrix: (Units=GPa)
#
#
# Indices 1 2 3 4 5 6 
#
# 1 96.6161 41.9789 48.8869 0.0000 0.0000 0.0000
# 2 41.9789 100.4811 36.7125 0.0000 0.0000 0.0000
# 3 48.8869 36.7125 161.2136 0.0000 0.0000 0.0000
# 4 0.0000 0.0000 0.0000 28.7415 0.0000 0.0000
# 5 0.0000 0.0000 0.0000 0.0000 18.6001 0.0000
# 6 0.0000 0.0000 0.0000 0.0000 0.0000 34.9477
#
#
#
# Elastic Compliance Matrix: (Units=1/GPa)
#
#
# Indices 1 2 3 4 5 6 
#
# 1 0.013993 -0.004686 -0.003176 0.000000 0.000000 0.000000
# 2 -0.004686 0.012424 -0.001408 0.000000 0.000000 0.000000
# 3 -0.003176 -0.001408 0.007487 0.000000 0.000000 0.000000
# 4 0.000000 0.000000 0.000000 0.034793 0.000000 0.000000
# 5 0.000000 0.000000 0.000000 0.000000 0.053763 0.000000
# 6 0.000000 0.000000 0.000000 0.000000 0.000000 0.028614
#
#
# Mechanical properties :
#
#
# Convention : Reuss Voigt Hill
#
# Bulk Modulus (GPa) = 65.08851 68.16305 66.62578
# Shear Modulus (GPa) = 28.61449 31.84003 30.22726
#
# Velocity S-wave (km/s) = 3.57984 3.77622 3.67934
# Velocity P-wave (km/s) = 6.79982 7.03851 6.92019
#
# Compressibility (1/GPa) = 0.01536370
#
# Stress axis : x y z
#
# Youngs Moduli (GPa) = 71.46284 80.48772 133.56672
#
# Poissons Ratio (x) = 0.37713 0.42425
# Poissons Ratio (y) = 0.33484 0.18812
# Poissons Ratio (z) = 0.22699 0.11336
#
# Static dielectric constant tensor:
#      x y z
#    x 2.080320 0.000000 0.000000 
#    y 0.000000 2.002980 0.000000 
#    z 0.000000 0.000000 1.820480 
# 
# From -- ./inp_files/4057.got.cif
#   From: 2010.05.17/outbox.cif.g08.bks.cpg/sg30_3_cif.got.tgz:4057.got - 2010.06.03 17:03:02.
