data_PCOD9342227
_publ_section_title
;
Structure prediction by ZEFSAII (Michael W. Deem and Ramdas Pophale) SiO2 
 PCOD9342227
Probable space group: P N C 2
;
_chemical_formula_sum "Si O2"
_cell_formula_units_Z 30
_cell_length_a 11.257652
_cell_length_b 9.478939
_cell_length_c 13.663511
_cell_angle_alpha 90.000000
_cell_angle_beta 90.000000
_cell_angle_gamma 90.000000
_cell_volume 1458.041410
_symmetry_space_group_name_H-M "P N C 2"
_symmetry_group_IT_number 30
_symmetry_cell_setting 'orthorhombic'
loop_
_space_group_symop_operation_xyz
x,y,z
-x,-y,z
-x,1/2+y,1/2+z
x,1/2-y,1/2+z
loop_
_atom_site_type_symbol
_atom_site_label
_atom_site_fract_x
_atom_site_fract_y
_atom_site_fract_z
Si Si1 0.998998 0.829783 0.774640
Si Si2 0.583529 0.640314 0.291142
Si Si3 0.366175 0.708406 0.755212
Si Si4 0.200281 0.882068 0.625017
Si Si5 0.215786 0.209499 0.647149
Si Si6 0.716663 0.919758 0.983216
Si Si7 0.816145 0.229791 0.923724
Si Si8 0.500000 0.500000 0.613817
O O1 0.095111 0.812387 0.688057
O O2 0.053583 0.773951 0.875459
O O3 0.878778 0.761254 0.734113
O O4 0.000000 0.000000 0.788088
O O5 0.500000 0.500000 0.285861
O O6 0.485754 0.756663 0.313293
O O7 0.652744 0.690627 0.193971
O O8 0.682086 0.630613 0.374801
O O9 0.318783 0.833527 0.683095
O O10 0.266454 0.705338 0.838121
O O11 0.407222 0.584332 0.683029
O O12 0.196850 0.823345 0.517832
O O13 0.184324 0.048968 0.619700
O O14 0.210197 0.317573 0.556393
O O15 0.590277 0.924990 0.039333
O O16 0.774374 0.073007 0.959594
#
# Coordination Sequence:
#
# PCOD9342227 Si02
#       8
#     4   4   4   4   4   4   4   2
#     4   9  21  42  66  90 123 170 220 272 330 394
#     4  12  21  38  63  89 126 179 211 256 326 400
#     4  11  22  38  62  93 133 174 220 264 331 390
#     4  10  21  40  66  89 128 176 217 265 332 399
#     4  11  24  42  65  97 132 168 223 277 327 389
#     4  12  23  38  67  98 129 172 229 271 320 404
#     4  11  22  41  69  91 126 177 221 264 338 403
#     4  12  22  38  62  98 140 168 220 286 318 390
#
# _framework density 20.575545999999999
#
# number of rings (size 3 to 8) (size 9 to 14) (size 15 to 20)
#    0.000    1.067    6.000    1.600    0.000    3.200 
#    0.000    0.000    0.000    1.600    0.000    0.000 
#    0.000    0.000    0.000    0.000    0.000    0.000 
#
# Total GULP energy -167092.795431 kJ/mol
# GULP energy per Si atom -5569.759848 kJ/mol
# Density = 2.052872 g / cm^3
# Si number density = 20.575546 Si / 1000 Ang^3
#
#
#
# Elastic Constant Matrix: (Units=GPa)
#
#
# Indices 1 2 3 4 5 6 
#
# 1 71.9101 9.2738 25.9003 0.0000 0.0000 0.0000
# 2 9.2738 21.3056 26.5770 0.0000 0.0000 0.0000
# 3 25.9003 26.5770 110.1686 0.0000 0.0000 0.0000
# 4 0.0000 0.0000 0.0000 1276.9152 0.0000 0.0000
# 5 0.0000 0.0000 0.0000 0.0000 1381.3851 0.0000
# 6 0.0000 0.0000 0.0000 0.0000 0.0000 14.7822
#
#
#
# Elastic Compliance Matrix: (Units=1/GPa)
#
#
# Indices 1 2 3 4 5 6 
#
# 1 0.015336 -0.003115 -0.002854 0.000000 0.000000 0.000000
# 2 -0.003115 0.067773 -0.015617 0.000000 0.000000 0.000000
# 3 -0.002854 -0.015617 0.013515 0.000000 0.000000 0.000000
# 4 0.000000 0.000000 0.000000 0.000783 0.000000 0.000000
# 5 0.000000 0.000000 0.000000 0.000000 0.000724 0.000000
# 6 0.000000 0.000000 0.000000 0.000000 0.000000 0.067649
#
#
# Mechanical properties :
#
#
# Convention : Reuss Voigt Hill
#
# Bulk Modulus (GPa) = 18.70847 36.32072 27.51460
# Shear Modulus (GPa) = 22.04872 544.05871 283.05372
#
# Velocity S-wave (km/s) = 3.27708 16.27864 11.74166
# Velocity P-wave (km/s) = 4.84059 19.26178 14.04364
#
# Compressibility (1/GPa) = 0.05345173
#
# Stress axis : x y z
#
# Youngs Moduli (GPa) = 65.20632 14.75510 73.98970
#
# Poissons Ratio (x) = 0.04597 0.21116
# Poissons Ratio (y) = 0.20314 1.15551
# Poissons Ratio (z) = 0.18609 0.23043
#
# Static dielectric constant tensor:
#      x y z
#    x 1.668280 0.000000 0.000000 
#    y 0.000000 1.646350 0.000000 
#    z 0.000000 0.000000 1.709710 
# 
# From -- ./inp_files/5470.got.cif
#   From: 2010.05.17/outbox.cif.g08.bks.cpg/sg30_3_cif.got.tgz:5470.got - 2010.06.03 17:03:02.
