data_PCOD9342458
_publ_section_title
;
Structure prediction by ZEFSAII (Michael W. Deem and Ramdas Pophale) SiO2 
 PCOD9342458
Probable space group: P N C 2
;
_chemical_formula_sum "Si O2"
_cell_formula_units_Z 32
_cell_length_a 8.431774
_cell_length_b 12.331492
_cell_length_c 15.588977
_cell_angle_alpha 90.000000
_cell_angle_beta 90.000000
_cell_angle_gamma 90.000000
_cell_volume 1620.884985
_symmetry_space_group_name_H-M "P N C 2"
_symmetry_group_IT_number 30
_symmetry_cell_setting 'orthorhombic'
loop_
_space_group_symop_operation_xyz
x,y,z
-x,-y,z
-x,1/2+y,1/2+z
x,1/2-y,1/2+z
loop_
_atom_site_type_symbol
_atom_site_label
_atom_site_fract_x
_atom_site_fract_y
_atom_site_fract_z
Si Si1 0.187400 0.767501 0.299130
Si Si2 0.687824 0.786487 0.985344
Si Si3 0.812600 0.732501 0.799131
Si Si4 0.691505 0.374285 0.138953
Si Si5 0.312177 0.713512 0.485342
Si Si6 0.818908 0.000001 0.065141
Si Si7 0.308495 0.125714 0.638954
Si Si8 0.316234 0.000000 0.247186
O O1 0.240876 0.691698 0.219906
O O2 0.275625 0.739142 0.387109
O O3 0.232119 0.891075 0.277919
O O4 0.000000 0.756140 0.311050
O O5 0.724378 0.760856 0.887111
O O6 0.500000 0.806899 0.996154
O O7 0.731943 0.689617 0.051178
O O8 0.784783 0.892613 0.011613
O O9 0.759123 0.808307 0.719908
O O10 0.767879 0.608928 0.777915
O O11 0.743333 0.499999 0.137772
O O12 0.500000 0.373208 0.146024
O O13 0.731942 0.310383 0.051175
O O14 0.215216 0.607387 0.511611
O O15 0.699735 0.000003 0.144745
O O16 0.000000 0.000000 0.097093
O O17 0.500000 0.000000 0.273608
#
# Coordination Sequence:
#
# PCOD9342458 Si02
#       8
#     4   4   4   4   4   4   4   4
#     4  12  26  43  66  99 135 172 218 275 333 387
#     4  11  24  43  69  97 130 176 222 267 326 396
#     4  12  26  43  66  99 135 172 218 275 333 387
#     4  10  23  44  68  95 129 173 223 268 322 394
#     4  11  24  43  69  97 130 176 222 267 326 396
#     4  12  24  42  68  99 132 167 218 280 336 386
#     4  10  23  44  68  95 129 173 223 268 322 394
#     4  12  24  44  70  95 128 173 224 272 330 402
#
# _framework density 19.7423
#
# number of rings (size 3 to 8) (size 9 to 14) (size 15 to 20)
#    0.000    0.750    2.500    5.250    3.500    1.500 
#    0.000    0.000    0.000    0.000    0.000    0.000 
#    0.000    0.000    0.000    0.000    0.000    0.000 
#
# Total GULP energy -179010.658559 kJ/mol
# GULP energy per Si atom -5594.083080 kJ/mol
# Density = 1.969737 g / cm^3
# Si number density = 19.742300 Si / 1000 Ang^3
#
#
#
# Elastic Constant Matrix: (Units=GPa)
#
#
# Indices 1 2 3 4 5 6 
#
# 1 62.4308 21.0642 3.7580 0.0000 0.0000 0.0000
# 2 21.0642 105.0193 -1.9344 0.0000 0.0000 0.0000
# 3 3.7580 -1.9344 69.7660 0.0000 0.0000 0.0000
# 4 0.0000 0.0000 0.0000 15.7683 0.0000 0.0000
# 5 0.0000 0.0000 0.0000 0.0000 16.1874 0.0000
# 6 0.0000 0.0000 0.0000 0.0000 0.0000 41.9038
#
#
#
# Elastic Compliance Matrix: (Units=1/GPa)
#
#
# Indices 1 2 3 4 5 6 
#
# 1 0.017253 -0.003479 -0.001026 0.000000 0.000000 0.000000
# 2 -0.003479 0.010229 0.000471 0.000000 0.000000 0.000000
# 3 -0.001026 0.000471 0.014402 0.000000 0.000000 0.000000
# 4 0.000000 0.000000 0.000000 0.063419 0.000000 0.000000
# 5 0.000000 0.000000 0.000000 0.000000 0.061776 0.000000
# 6 0.000000 0.000000 0.000000 0.000000 0.000000 0.023864
#
#
# Mechanical properties :
#
#
# Convention : Reuss Voigt Hill
#
# Bulk Modulus (GPa) = 29.57230 31.44351 30.50791
# Shear Modulus (GPa) = 23.77740 29.06044 26.41892
#
# Velocity S-wave (km/s) = 3.47419 3.84081 3.66209
# Velocity P-wave (km/s) = 5.57719 5.96914 5.77649
#
# Compressibility (1/GPa) = 0.03381543
#
# Stress axis : x y z
#
# Youngs Moduli (GPa) = 57.95933 97.76475 69.43502
#
# Poissons Ratio (x) = 0.34017 0.07123
# Poissons Ratio (y) = 0.20167 -0.03271
# Poissons Ratio (z) = 0.05946 -0.04605
#
# Static dielectric constant tensor:
#      x y z
#    x 1.661330 0.000000 0.000000 
#    y 0.000000 1.648370 0.000000 
#    z 0.000000 0.000000 1.684180 
# 
# From -- ./inp_files/5203.got.cif
#   From: 2010.05.17/outbox.cif.g08.bks.cpg/sg30_3_cif.got.tgz:5203.got - 2010.06.03 17:03:02.
