data_PCOD9342145
_publ_section_title
;
Structure prediction by ZEFSAII (Michael W. Deem and Ramdas Pophale) SiO2 
 PCOD9342145
Probable space group: P N C 2
;
_chemical_formula_sum "Si O2"
_cell_formula_units_Z 26
_cell_length_a 12.089041
_cell_length_b 12.147265
_cell_length_c 8.749807
_cell_angle_alpha 90.000000
_cell_angle_beta 90.000000
_cell_angle_gamma 90.000000
_cell_volume 1284.898524
_symmetry_space_group_name_H-M "P N C 2"
_symmetry_group_IT_number 30
_symmetry_cell_setting 'orthorhombic'
loop_
_space_group_symop_operation_xyz
x,y,z
-x,-y,z
-x,1/2+y,1/2+z
x,1/2-y,1/2+z
loop_
_atom_site_type_symbol
_atom_site_label
_atom_site_fract_x
_atom_site_fract_y
_atom_site_fract_z
Si Si1 0.909692 0.835321 0.137750
Si Si2 0.000000 0.000000 0.897010
Si Si3 0.432512 0.611273 0.142170
Si Si4 0.774914 0.511488 0.210329
Si Si5 0.921497 0.605815 0.989085
Si Si6 0.450899 0.655966 0.495347
Si Si7 0.319230 0.059786 0.024626
O O1 0.930416 0.857264 0.314973
O O2 0.938196 0.709097 0.101003
O O3 0.785331 0.883630 0.107033
O O4 0.982486 0.900115 0.013844
O O5 0.890788 0.014247 0.794313
O O6 0.500000 0.500000 0.096094
O O7 0.302732 0.587394 0.163421
O O8 0.468290 0.640103 0.314565
O O9 0.440514 0.716792 0.035482
O O10 0.709186 0.575636 0.343747
O O11 0.801160 0.570546 0.050900
O O12 0.000000 0.500000 0.004172
O O13 0.565677 0.615396 0.569398
O O14 0.349745 0.571728 0.539813
#
# Coordination Sequence:
#
# PCOD9342145 Si02
#       7
#     4   2   4   4   4   4   4
#     4  11  24  43  71  97 138 179 231 284 343 410
#     4  10  20  44  70  98 130 184 222 282 344 406
#     4  11  23  44  66 100 138 180 224 283 343 404
#     4  10  21  43  66  95 137 172 227 276 339 399
#     4  12  26  46  66 102 133 180 233 282 344 415
#     4  10  21  43  67  97 139 176 222 286 342 406
#     4   9  20  43  69  94 133 178 228 280 345 402
#
# _framework density 20.235063
#
# number of rings (size 3 to 8) (size 9 to 14) (size 15 to 20)
#    0.000    1.538    4.615    1.846    2.154    2.462 
#   13.846    0.000    0.000    0.000    0.000    0.000 
#    0.000    0.000    0.000    0.000    0.000    0.000 
#
# Total GULP energy -144742.262432 kJ/mol
# GULP energy per Si atom -5567.010094 kJ/mol
# Density = 2.018901 g / cm^3
# Si number density = 20.235063 Si / 1000 Ang^3
#
#
#
# Elastic Constant Matrix: (Units=GPa)
#
#
# Indices 1 2 3 4 5 6 
#
# 1 79.9993 54.1282 30.8082 0.0000 0.0000 0.0000
# 2 54.1282 148.8638 53.1787 0.0000 0.0000 0.0000
# 3 30.8082 53.1787 94.9722 0.0000 0.0000 0.0000
# 4 0.0000 0.0000 0.0000 18.9610 0.0000 0.0000
# 5 0.0000 0.0000 0.0000 0.0000 3.1691 0.0000
# 6 0.0000 0.0000 0.0000 0.0000 0.0000 16.3280
#
#
#
# Elastic Compliance Matrix: (Units=1/GPa)
#
#
# Indices 1 2 3 4 5 6 
#
# 1 0.017069 -0.005286 -0.002577 0.000000 0.000000 0.000000
# 2 -0.005286 0.010034 -0.003904 0.000000 0.000000 0.000000
# 3 -0.002577 -0.003904 0.013551 0.000000 0.000000 0.000000
# 4 0.000000 0.000000 0.000000 0.052740 0.000000 0.000000
# 5 0.000000 0.000000 0.000000 0.000000 0.315546 0.000000
# 6 0.000000 0.000000 0.000000 0.000000 0.000000 0.061245
#
#
# Mechanical properties :
#
#
# Convention : Reuss Voigt Hill
#
# Bulk Modulus (GPa) = 58.40902 66.67395 62.54149
# Shear Modulus (GPa) = 10.01150 20.07296 15.04223
#
# Velocity S-wave (km/s) = 2.22673 3.15300 2.72945
# Velocity P-wave (km/s) = 5.96146 6.80268 6.39592
#
# Compressibility (1/GPa) = 0.01712064
#
# Stress axis : x y z
#
# Youngs Moduli (GPa) = 58.58558 99.66058 73.79325
#
# Poissons Ratio (x) = 0.52678 0.19019
# Poissons Ratio (y) = 0.30967 0.28808
# Poissons Ratio (z) = 0.15100 0.38906
#
# Static dielectric constant tensor:
#      x y z
#    x 1.792700 0.000000 0.000000 
#    y 0.000000 1.936310 0.000000 
#    z 0.000000 0.000000 1.724890 
# 
# From -- ./inp_files/2371.got.cif
#   From: 2010.05.17/outbox.cif.g08.bks.cpg/sg30_2_cif.got.tgz:2371.got - 2010.06.03 17:03:02.
