data_PCOD9342216
_publ_section_title
;
Structure prediction by ZEFSAII (Michael W. Deem and Ramdas Pophale) SiO2 
 PCOD9342216
Probable space group: P N C 2
;
_chemical_formula_sum "Si O2"
_cell_formula_units_Z 18
_cell_length_a 9.141345
_cell_length_b 6.284794
_cell_length_c 16.324813
_cell_angle_alpha 90.000000
_cell_angle_beta 90.000000
_cell_angle_gamma 90.000000
_cell_volume 937.884508
_symmetry_space_group_name_H-M "P N C 2"
_symmetry_group_IT_number 30
_symmetry_cell_setting 'orthorhombic'
loop_
_space_group_symop_operation_xyz
x,y,z
-x,-y,z
-x,1/2+y,1/2+z
x,1/2-y,1/2+z
loop_
_atom_site_type_symbol
_atom_site_label
_atom_site_fract_x
_atom_site_fract_y
_atom_site_fract_z
Si Si1 0.000000 0.500000 0.439150
Si Si2 0.106472 0.803730 0.296555
Si Si3 0.351630 0.621517 0.911107
Si Si4 0.227633 0.275432 0.036984
Si Si5 0.000000 0.000000 0.658639
Si Si6 0.500000 0.500000 0.509166
O O1 0.946806 0.317206 0.378225
O O2 0.872193 0.599038 0.492904
O O3 0.267480 0.863234 0.325315
O O4 0.090381 0.655137 0.218366
O O5 0.000000 0.000000 0.282916
O O6 0.500000 0.500000 0.895182
O O7 0.400723 0.843261 0.952976
O O8 0.263130 0.471374 0.975129
O O9 0.121218 0.372304 0.106304
O O10 0.383011 0.155431 0.055751
#
# Coordination Sequence:
#
# PCOD9342216 Si02
#       6
#     2   4   4   4   2   2
#     4  11  20  36  72  91 120 160 230 271 310 380
#     4  11  22  41  63  96 126 169 215 270 328 389
#     4  10  21  39  70  94 122 164 226 273 318 389
#     4  11  22  41  65 101 122 174 222 277 325 395
#     4  11  28  36  66  93 140 170 216 271 342 396
#     4  10  22  38  74  90 128 164 224 276 332 380
#
# _framework density 19.192128
#
# number of rings (size 3 to 8) (size 9 to 14) (size 15 to 20)
#    0.000    1.333    4.444    1.333    1.556    0.000 
#    0.000    0.000   31.778    0.000    0.000    0.000 
#    0.000    0.000    0.000    0.000    0.000    0.000 
#
# Total GULP energy -100361.060132 kJ/mol
# GULP energy per Si atom -5575.614452 kJ/mol
# Density = 1.914845 g / cm^3
# Si number density = 19.192128 Si / 1000 Ang^3
#
#
#
# Elastic Constant Matrix: (Units=GPa)
#
#
# Indices 1 2 3 4 5 6 
#
# 1 118.7806 52.1728 73.4372 0.0000 0.0000 0.0000
# 2 52.1728 103.3095 41.2690 0.0000 0.0000 0.0000
# 3 73.4372 41.2690 94.0095 0.0000 0.0000 0.0000
# 4 0.0000 0.0000 0.0000 -42.4404 0.0000 0.0000
# 5 0.0000 0.0000 0.0000 0.0000 22.7885 0.0000
# 6 0.0000 0.0000 0.0000 0.0000 0.0000 30.5261
#
#
#
# Elastic Compliance Matrix: (Units=1/GPa)
#
#
# Indices 1 2 3 4 5 6 
#
# 1 0.017621 -0.004123 -0.011955 0.000000 0.000000 0.000000
# 2 -0.004123 0.012703 -0.002355 0.000000 0.000000 0.000000
# 3 -0.011955 -0.002355 0.021010 0.000000 0.000000 0.000000
# 4 0.000000 0.000000 0.000000 -0.023562 0.000000 0.000000
# 5 0.000000 0.000000 0.000000 0.000000 0.043882 0.000000
# 6 0.000000 0.000000 0.000000 0.000000 0.000000 0.032759
#
#
# Mechanical properties :
#
#
# Convention : Reuss Voigt Hill
#
# Bulk Modulus (GPa) = 69.12431 72.20641 70.66536
# Shear Modulus (GPa) = 34.22249 12.12289 23.17269
#
# Velocity S-wave (km/s) = 4.22732 2.51601 3.47854
# Velocity P-wave (km/s) = 7.74094 6.79301 7.28242
#
# Compressibility (1/GPa) = 0.01446669
#
# Stress axis : x y z
#
# Youngs Moduli (GPa) = 56.74922 78.72214 47.59589
#
# Poissons Ratio (x) = 0.32460 0.56902
# Poissons Ratio (y) = 0.23400 0.11211
# Poissons Ratio (z) = 0.67845 0.18542
#
# Static dielectric constant tensor:
#      x y z
#    x 1.552650 0.000000 0.000000 
#    y 0.000000 1.717800 0.000000 
#    z 0.000000 0.000000 1.633530 
# 
# From -- ./inp_files/6150.got.cif
#   From: 2010.05.17/outbox.cif.g08.bks.cpg/sg30_4_cif.got.tgz:6150.got - 2010.06.03 17:03:02.
