data_PCOD9342954
_publ_section_title
;
Structure prediction by ZEFSAII (Michael W. Deem and Ramdas Pophale) SiO2 
 PCOD9342954
Probable space group: P M N 21
;
_chemical_formula_sum "Si O2"
_cell_formula_units_Z 28
_cell_length_a 24.266396
_cell_length_b 10.235105
_cell_length_c 5.224702
_cell_angle_alpha 90.000000
_cell_angle_beta 90.000000
_cell_angle_gamma 90.000000
_cell_volume 1297.654591
_symmetry_space_group_name_H-M "P M N 21"
_symmetry_group_IT_number 31
_symmetry_cell_setting 'orthorhombic'
loop_
_space_group_symop_operation_xyz
x,y,z
1/2-x,-y,1/2+z
-x,y,z
1/2+x,-y,1/2+z
loop_
_atom_site_type_symbol
_atom_site_label
_atom_site_fract_x
_atom_site_fract_y
_atom_site_fract_z
Si Si1 0.564823 0.392246 0.076710
Si Si2 0.118675 0.978589 0.977310
Si Si3 0.830830 0.476695 0.360400
Si Si4 0.063071 0.899968 0.445587
Si Si5 0.150206 0.706611 0.971675
Si Si6 0.246033 0.673063 0.594249
Si Si7 0.768966 0.076637 0.832610
O O1 0.500000 0.428431 0.096980
O O2 0.568112 0.258980 0.906107
O O3 0.593210 0.338781 0.336108
O O4 0.608209 0.504864 0.984655
O O5 0.074327 0.993748 0.201215
O O6 0.167580 0.076636 0.926011
O O7 0.096786 0.940909 0.697186
O O8 0.145375 0.847159 0.098945
O O9 0.782544 0.532752 0.542038
O O10 0.804280 0.348373 0.236470
O O11 0.833385 0.585786 0.141570
O O12 0.000000 0.916467 0.520808
O O13 0.197806 0.733526 0.765394
O O14 0.252223 0.771719 0.358043
O O15 0.738441 0.990421 0.055191
#
# Coordination Sequence:
#
# PCOD9342954 Si02
#       7
#     4   4   4   4   4   4   4
#     4   9  20  33  53  83 114 150 195 245 298 352
#     4  11  20  36  56  84 119 152 191 246 300 355
#     4  11  20  36  59  84 120 153 192 249 300 366
#     4  10  20  35  58  85 113 149 198 252 305 348
#     4  10  19  35  53  81 119 151 190 241 302 354
#     4  11  23  36  58  89 119 163 197 240 307 364
#     4  12  25  39  60  88 125 164 201 245 296 367
#
# _framework density 21.577390000000001
#
# number of rings (size 3 to 8) (size 9 to 14) (size 15 to 20)
#    0.000    1.429    4.286    2.143    2.000    1.143 
#    0.000    0.000    0.000    1.714    0.000    0.000 
#    0.000    0.000    0.000    0.000    0.000    0.000 
#
# Total GULP energy -155878.800915 kJ/mol
# GULP energy per Si atom -5567.100033 kJ/mol
# Density = 2.152828 g / cm^3
# Si number density = 21.577390 Si / 1000 Ang^3
#
#
#
# Elastic Constant Matrix: (Units=GPa)
#
#
# Indices 1 2 3 4 5 6 
#
# 1 130.2383 24.6448 7.8778 0.0000 0.0000 0.0000
# 2 24.6448 29.2254 0.7274 0.0000 0.0000 0.0000
# 3 7.8778 0.7274 47.6422 0.0000 0.0000 0.0000
# 4 0.0000 0.0000 0.0000 16.4225 0.0000 0.0000
# 5 0.0000 0.0000 0.0000 0.0000 -2.2895 0.0000
# 6 0.0000 0.0000 0.0000 0.0000 0.0000 21.2770
#
#
#
# Elastic Compliance Matrix: (Units=1/GPa)
#
#
# Indices 1 2 3 4 5 6 
#
# 1 0.009230 -0.007748 -0.001408 0.000000 0.000000 0.000000
# 2 -0.007748 0.040734 0.000659 0.000000 0.000000 0.000000
# 3 -0.001408 0.000659 0.021213 0.000000 0.000000 0.000000
# 4 0.000000 0.000000 0.000000 0.060892 0.000000 0.000000
# 5 0.000000 0.000000 0.000000 0.000000 -0.436769 0.000000
# 6 0.000000 0.000000 0.000000 0.000000 0.000000 0.046999
#
#
# Mechanical properties :
#
#
# Convention : Reuss Voigt Hill
#
# Bulk Modulus (GPa) = 18.45597 30.40062 24.42830
# Shear Modulus (GPa) = -22.45704 18.67237 -1.89233
#
# Velocity S-wave (km/s) = -3.22959 2.94490 -0.93750
# Velocity P-wave (km/s) = 2.30978 5.06784 3.18966
#
# Compressibility (1/GPa) = 0.05418301
#
# Stress axis : x y z
#
# Youngs Moduli (GPa) = 108.34810 24.54955 47.14193
#
# Poissons Ratio (x) = 0.19021 0.06637
# Poissons Ratio (y) = 0.83947 -0.03108
# Poissons Ratio (z) = 0.15254 -0.01618
#
# Static dielectric constant tensor:
#      x y z
#    x 2.027090 0.000000 0.000000 
#    y 0.000000 1.830170 0.000000 
#    z 0.000000 0.000000 1.929430 
# 
# From -- ./inp_files/980.got.cif
#   From: 2010.05.17/outbox.cif.g08.bks.cpg/sg31_1_cif.got.tgz:980.got - 2010.06.03 17:08:30.
