data_PCOD9342213
_publ_section_title
;
Structure prediction by ZEFSAII (Michael W. Deem and Ramdas Pophale) SiO2 
 PCOD9342213
Probable space group: P N C 2
;
_chemical_formula_sum "Si O2"
_cell_formula_units_Z 26
_cell_length_a 8.316818
_cell_length_b 17.073739
_cell_length_c 9.510446
_cell_angle_alpha 90.000000
_cell_angle_beta 90.000000
_cell_angle_gamma 90.000000
_cell_volume 1350.475532
_symmetry_space_group_name_H-M "P N C 2"
_symmetry_group_IT_number 30
_symmetry_cell_setting 'orthorhombic'
loop_
_space_group_symop_operation_xyz
x,y,z
-x,-y,z
-x,1/2+y,1/2+z
x,1/2-y,1/2+z
loop_
_atom_site_type_symbol
_atom_site_label
_atom_site_fract_x
_atom_site_fract_y
_atom_site_fract_z
Si Si1 0.843572 0.055777 0.493740
Si Si2 0.753106 0.780292 0.340641
Si Si3 0.211950 0.687613 0.202735
Si Si4 0.995326 0.593578 0.730260
Si Si5 0.433472 0.324503 0.117613
Si Si6 0.052432 0.698845 0.489985
Si Si7 0.500000 0.500000 0.053965
O O1 0.828976 0.102937 0.638575
O O2 0.882011 0.111763 0.360100
O O3 0.666821 0.018627 0.471948
O O4 0.000000 0.000000 0.507720
O O5 0.835556 0.858069 0.273777
O O6 0.681870 0.722097 0.223635
O O7 0.625703 0.807185 0.459214
O O8 0.891481 0.731187 0.419464
O O9 0.390075 0.707433 0.152143
O O10 0.183547 0.693724 0.367515
O O11 0.094698 0.744602 0.118869
O O12 0.000000 0.500000 0.731892
O O13 0.035768 0.618215 0.572890
O O14 0.451848 0.419192 0.134670
#
# Coordination Sequence:
#
# PCOD9342213 Si02
#       7
#     4   4   4   4   4   4   2
#     4  10  21  39  66  94 135 178 226 278 349 403
#     4  12  22  42  71  94 133 181 229 280 346 427
#     4  11  22  39  62  93 129 175 224 280 333 417
#     4  11  23  40  65 102 130 174 228 286 341 419
#     4  11  24  42  65  99 133 177 229 282 354 403
#     4  12  22  40  64  93 128 173 225 277 334 421
#     4  10  24  42  68 102 136 178 234 294 330 428
#
# _framework density 19.252479000000001
#
# number of rings (size 3 to 8) (size 9 to 14) (size 15 to 20)
#    0.000    0.923    4.615    2.769    2.154    1.846 
#    2.769    0.000    0.000    0.923    0.000    0.000 
#    0.000    0.000    0.000    0.000    0.000    0.000 
#
# Total GULP energy -144878.898564 kJ/mol
# GULP energy per Si atom -5572.265329 kJ/mol
# Density = 1.920866 g / cm^3
# Si number density = 19.252479 Si / 1000 Ang^3
#
#
#
# Elastic Constant Matrix: (Units=GPa)
#
#
# Indices 1 2 3 4 5 6 
#
# 1 112.5589 35.3922 37.2846 0.0000 0.0000 0.0000
# 2 35.3922 94.5189 41.2199 0.0000 0.0000 0.0000
# 3 37.2846 41.2199 119.9667 0.0000 0.0000 0.0000
# 4 0.0000 0.0000 0.0000 37.8133 0.0000 0.0000
# 5 0.0000 0.0000 0.0000 0.0000 28.5070 0.0000
# 6 0.0000 0.0000 0.0000 0.0000 0.0000 37.2976
#
#
#
# Elastic Compliance Matrix: (Units=1/GPa)
#
#
# Indices 1 2 3 4 5 6 
#
# 1 0.010568 -0.002970 -0.002264 0.000000 0.000000 0.000000
# 2 -0.002970 0.013279 -0.003640 0.000000 0.000000 0.000000
# 3 -0.002264 -0.003640 0.010290 0.000000 0.000000 0.000000
# 4 0.000000 0.000000 0.000000 0.026446 0.000000 0.000000
# 5 0.000000 0.000000 0.000000 0.000000 0.035079 0.000000
# 6 0.000000 0.000000 0.000000 0.000000 0.000000 0.026811
#
#
# Mechanical properties :
#
#
# Convention : Reuss Voigt Hill
#
# Bulk Modulus (GPa) = 61.01263 61.64865 61.33064
# Shear Modulus (GPa) = 34.32096 34.93344 34.62720
#
# Velocity S-wave (km/s) = 4.22676 4.26430 4.24557
# Velocity P-wave (km/s) = 7.45521 7.50576 7.48053
#
# Compressibility (1/GPa) = 0.01639005
#
# Stress axis : x y z
#
# Youngs Moduli (GPa) = 94.62541 75.30580 97.18306
#
# Poissons Ratio (x) = 0.22364 0.22003
# Poissons Ratio (y) = 0.28102 0.35372
# Poissons Ratio (z) = 0.21423 0.27409
#
# Static dielectric constant tensor:
#      x y z
#    x 1.707910 0.000000 0.000000 
#    y 0.000000 1.738320 0.000000 
#    z 0.000000 0.000000 1.696710 
# 
# From -- ./inp_files/1961.got.cif
#   From: 2010.05.17/outbox.cif.g08.bks.cpg/sg30_1_cif.got.tgz:1961.got - 2010.06.03 17:03:02.
