data_PCOD9342668
_publ_section_title
;
Structure prediction by ZEFSAII (Michael W. Deem and Ramdas Pophale) SiO2 
 PCOD9342668
Probable space group: P N C 2
;
_chemical_formula_sum "Si O2"
_cell_formula_units_Z 12
_cell_length_a 4.499360
_cell_length_b 15.780601
_cell_length_c 6.416073
_cell_angle_alpha 90.000000
_cell_angle_beta 90.000000
_cell_angle_gamma 90.000000
_cell_volume 455.557896
_symmetry_space_group_name_H-M "P N C 2"
_symmetry_group_IT_number 30
_symmetry_cell_setting 'orthorhombic'
loop_
_space_group_symop_operation_xyz
x,y,z
-x,-y,z
-x,1/2+y,1/2+z
x,1/2-y,1/2+z
loop_
_atom_site_type_symbol
_atom_site_label
_atom_site_fract_x
_atom_site_fract_y
_atom_site_fract_z
Si Si1 0.250000 0.061465 0.325600
Si Si2 0.473997 0.821023 0.974863
Si Si3 0.026004 0.821023 0.676337
O O1 0.395083 0.120277 0.151794
O O2 0.500000 0.000000 0.416815
O O3 0.895084 0.879723 0.499406
O O4 0.000000 0.000000 0.234385
O O5 0.250000 0.871151 0.825600
O O6 0.750000 0.791579 0.825600
O O7 0.250000 0.750000 0.075600
#
# Coordination Sequence:
#
# PCOD9342668 Si02
#       3
#     4   4   4
#     4  12  30  56  84 122 182 228 286 370 442 518
#     4  12  30  51  90 125 169 227 297 365 441 531
#     4  12  30  51  90 125 169 227 297 365 441 531
#
# _framework density 26.341328000000001
#
# number of rings (size 3 to 8) (size 9 to 14) (size 15 to 20)
#    0.000    0.000    0.000    6.000   18.667    5.333 
#    0.000    0.000    0.000    0.000    0.000    0.000 
#    0.000    0.000    0.000    0.000    0.000    0.000 
#
# Total GULP energy -67247.678360 kJ/mol
# GULP energy per Si atom -5603.973197 kJ/mol
# Density = 2.628137 g / cm^3
# Si number density = 26.341328 Si / 1000 Ang^3
#
#
#
# Elastic Constant Matrix: (Units=GPa)
#
#
# Indices 1 2 3 4 5 6 
#
# 1 253.1832 117.2966 135.4546 0.0000 0.0000 0.0000
# 2 117.2966 168.9029 119.5353 0.0000 0.0000 0.0000
# 3 135.4546 119.5353 209.0439 0.0000 0.0000 0.0000
# 4 0.0000 0.0000 0.0000 22.3611 0.0000 0.0000
# 5 0.0000 0.0000 0.0000 0.0000 108.9541 0.0000
# 6 0.0000 0.0000 0.0000 0.0000 0.0000 74.3036
#
#
#
# Elastic Compliance Matrix: (Units=1/GPa)
#
#
# Indices 1 2 3 4 5 6 
#
# 1 0.006683 -0.002648 -0.002816 0.000000 0.000000 0.000000
# 2 -0.002648 0.010995 -0.004571 0.000000 0.000000 0.000000
# 3 -0.002816 -0.004571 0.009222 0.000000 0.000000 0.000000
# 4 0.000000 0.000000 0.000000 0.044720 0.000000 0.000000
# 5 0.000000 0.000000 0.000000 0.000000 0.009178 0.000000
# 6 0.000000 0.000000 0.000000 0.000000 0.000000 0.013458
#
#
# Mechanical properties :
#
#
# Convention : Reuss Voigt Hill
#
# Bulk Modulus (GPa) = 146.42752 152.85588 149.64170
# Shear Modulus (GPa) = 42.87998 58.38001 50.63000
#
# Velocity S-wave (km/s) = 4.03905 4.71286 4.38890
# Velocity P-wave (km/s) = 8.80120 9.36854 9.08930
#
# Compressibility (1/GPa) = 0.00682932
#
# Stress axis : x y z
#
# Youngs Moduli (GPa) = 149.62622 90.95427 108.43197
#
# Poissons Ratio (x) = 0.24086 0.30538
# Poissons Ratio (y) = 0.39623 0.49564
# Poissons Ratio (z) = 0.42140 0.41575
#
# Static dielectric constant tensor:
#      x y z
#    x 2.122870 0.000000 0.000000 
#    y 0.000000 2.047790 0.000000 
#    z 0.000000 0.000000 2.147150 
# 
# From -- ./inp_files/1172.got.cif
#   From: 2010.05.17/outbox.cif.g08.bks.cpg/sg30_1_cif.got.tgz:1172.got - 2010.06.03 17:03:02.
