data_PCOD9342762
_publ_section_title
;
Structure prediction by ZEFSAII (Michael W. Deem and Ramdas Pophale) SiO2 
 PCOD9342762
Probable space group: P M N 21
;
_chemical_formula_sum "Si O2"
_cell_formula_units_Z 32
_cell_length_a 8.016326
_cell_length_b 11.028931
_cell_length_c 14.525253
_cell_angle_alpha 90.000000
_cell_angle_beta 90.000000
_cell_angle_gamma 90.000000
_cell_volume 1284.199498
_symmetry_space_group_name_H-M "P M N 21"
_symmetry_group_IT_number 31
_symmetry_cell_setting 'orthorhombic'
loop_
_space_group_symop_operation_xyz
x,y,z
1/2-x,-y,1/2+z
-x,y,z
1/2+x,-y,1/2+z
loop_
_atom_site_type_symbol
_atom_site_label
_atom_site_fract_x
_atom_site_fract_y
_atom_site_fract_z
Si Si1 0.191418 0.561833 0.112500
Si Si2 0.203349 0.192848 0.061076
Si Si3 0.810052 0.213437 0.719909
Si Si4 0.804716 0.423266 0.281823
Si Si5 0.802891 0.351893 0.899859
Si Si6 0.194493 0.963334 0.939879
Si Si7 0.196559 0.052109 0.231050
Si Si8 0.696712 0.711630 0.950098
O O1 0.197220 0.687891 0.169811
O O2 0.266005 0.463130 0.183245
O O3 0.000000 0.528943 0.093978
O O4 0.276060 0.598775 0.017886
O O5 0.257461 0.307751 0.999750
O O6 0.000000 0.200841 0.059531
O O7 0.255464 0.073351 0.002906
O O8 0.254276 0.163605 0.166011
O O9 0.792907 0.237521 0.829497
O O10 0.000000 0.245353 0.693866
O O11 0.777214 0.074233 0.699603
O O12 0.792368 0.542604 0.346477
O O13 0.732370 0.322153 0.349360
O O14 0.000000 0.393843 0.266546
O O15 0.000000 0.385274 0.903368
O O16 0.276855 0.944835 0.840246
O O17 0.219234 0.832923 0.987414
O O18 0.000000 0.985733 0.923332
O O19 0.000000 0.041715 0.214369
O O20 0.500000 0.733666 0.942519
#
# Coordination Sequence:
#
# PCOD9342762 Si02
#       8
#     4   4   4   4   4   4   4   4
#     4  10  20  37  61  89 115 152 200 245 298 353
#     4   9  19  36  56  81 115 153 189 234 289 346
#     4  10  18  32  56  83 114 150 194 245 289 339
#     4   9  21  40  60  84 117 149 188 246 298 346
#     4   9  17  34  58  80 105 143 190 237 285 341
#     4  11  22  40  61  85 121 159 198 243 293 354
#     4  11  21  34  55  84 119 158 196 238 295 355
#     4  11  23  41  61  86 120 156 197 246 297 350
#
# _framework density 24.918246
#
# number of rings (size 3 to 8) (size 9 to 14) (size 15 to 20)
#    0.000    2.000    1.250    2.625    0.000    3.000 
#    2.250    3.125    0.000    0.000    0.000    0.000 
#    0.000    0.000    0.000    0.000    0.000    0.000 
#
# Total GULP energy -178872.898403 kJ/mol
# GULP energy per Si atom -5589.778075 kJ/mol
# Density = 2.486153 g / cm^3
# Si number density = 24.918246 Si / 1000 Ang^3
#
#
#
# Elastic Constant Matrix: (Units=GPa)
#
#
# Indices 1 2 3 4 5 6 
#
# 1 34.7486 -8.8879 1.6215 0.0000 0.0000 0.0000
# 2 -8.8879 67.2695 17.0956 0.0000 0.0000 0.0000
# 3 1.6215 17.0956 138.7918 0.0000 0.0000 0.0000
# 4 0.0000 0.0000 0.0000 52.5946 0.0000 0.0000
# 5 0.0000 0.0000 0.0000 0.0000 25.7358 0.0000
# 6 0.0000 0.0000 0.0000 0.0000 0.0000 22.2569
#
#
#
# Elastic Compliance Matrix: (Units=1/GPa)
#
#
# Indices 1 2 3 4 5 6 
#
# 1 0.029884 0.004168 -0.000862 0.000000 0.000000 0.000000
# 2 0.004168 0.015927 -0.002011 0.000000 0.000000 0.000000
# 3 -0.000862 -0.002011 0.007463 0.000000 0.000000 0.000000
# 4 0.000000 0.000000 0.000000 0.019013 0.000000 0.000000
# 5 0.000000 0.000000 0.000000 0.000000 0.038856 0.000000
# 6 0.000000 0.000000 0.000000 0.000000 0.000000 0.044930
#
#
# Mechanical properties :
#
#
# Convention : Reuss Voigt Hill
#
# Bulk Modulus (GPa) = 17.90077 28.94092 23.42085
# Shear Modulus (GPa) = 29.05188 35.51616 32.28402
#
# Velocity S-wave (km/s) = 3.41821 3.77942 3.60335
# Velocity P-wave (km/s) = 4.77266 5.53940 5.17026
#
# Compressibility (1/GPa) = 0.05586351
#
# Stress axis : x y z
#
# Youngs Moduli (GPa) = 33.46234 62.78580 133.99878
#
# Poissons Ratio (x) = -0.26167 0.11557
# Poissons Ratio (y) = -0.13946 0.26941
# Poissons Ratio (z) = 0.02886 0.12623
#
# Static dielectric constant tensor:
#      x y z
#    x 1.867500 0.000000 0.000000 
#    y 0.000000 1.991020 0.000000 
#    z 0.000000 0.000000 2.039520 
# 
# From -- ./inp_files/4978.got.cif
#   From: 2010.05.17/outbox.cif.g08.bks.cpg/sg31_3_cif.got.tgz:4978.got - 2010.06.03 17:08:30.
