data_PCOD9342172
_publ_section_title
;
Structure prediction by ZEFSAII (Michael W. Deem and Ramdas Pophale) SiO2 
 PCOD9342172
Probable space group: P N C 2
;
_chemical_formula_sum "Si O2"
_cell_formula_units_Z 32
_cell_length_a 12.824106
_cell_length_b 9.120399
_cell_length_c 13.491703
_cell_angle_alpha 90.000000
_cell_angle_beta 90.000000
_cell_angle_gamma 90.000000
_cell_volume 1578.002583
_symmetry_space_group_name_H-M "P N C 2"
_symmetry_group_IT_number 30
_symmetry_cell_setting 'orthorhombic'
loop_
_space_group_symop_operation_xyz
x,y,z
-x,-y,z
-x,1/2+y,1/2+z
x,1/2-y,1/2+z
loop_
_atom_site_type_symbol
_atom_site_label
_atom_site_fract_x
_atom_site_fract_y
_atom_site_fract_z
Si Si1 0.232950 0.402790 0.899600
Si Si2 0.137982 0.666081 0.030487
Si Si3 0.015201 0.332704 0.869825
Si Si4 0.471307 0.821350 0.409681
Si Si5 0.597669 0.892743 0.240571
Si Si6 0.364867 0.325297 0.523165
Si Si7 0.721764 0.115758 0.922565
Si Si8 0.106346 0.903846 0.757944
O O1 0.137193 0.305927 0.858532
O O2 0.309667 0.451762 0.811169
O O3 0.186812 0.537865 0.961784
O O4 0.294092 0.300450 0.975674
O O5 0.136909 0.615179 0.143469
O O6 0.203291 0.812119 0.006365
O O7 0.022829 0.689808 0.983457
O O8 0.000000 0.500000 0.843700
O O9 0.936677 0.247562 0.801070
O O10 0.500000 0.500000 0.715503
O O11 0.540026 0.778116 0.313236
O O12 0.519269 0.735166 0.502088
O O13 0.358310 0.748378 0.395638
O O14 0.647237 0.839768 0.139927
O O15 0.500000 0.000000 0.421251
O O16 0.338822 0.477317 0.468300
O O17 0.795254 0.064621 0.830437
O O18 0.000000 0.000000 0.766675
#
# Coordination Sequence:
#
# PCOD9342172 Si02
#       8
#     4   4   4   4   4   4   4   4
#     4  10  21  40  61  85 117 160 203 242 298 372
#     4  10  22  39  61  85 120 162 200 246 305 370
#     4   9  20  39  59  83 117 155 201 250 302 366
#     4  10  22  42  61  84 122 163 203 248 301 370
#     4  10  21  37  59  84 116 156 194 237 294 362
#     4  11  23  38  61  90 121 156 202 257 303 350
#     4  11  23  39  61  92 124 155 201 261 308 351
#     4  11  23  40  62  91 123 159 202 257 307 353
#
# _framework density 20.278801000000001
#
# number of rings (size 3 to 8) (size 9 to 14) (size 15 to 20)
#    0.000    1.750    0.000    5.250    0.000   10.000 
#    0.000    5.000    0.000    0.000    0.000    0.000 
#    0.000    0.000    0.000    0.000    0.000    0.000 
#
# Total GULP energy -178157.032120 kJ/mol
# GULP energy per Si atom -5567.407254 kJ/mol
# Density = 2.023265 g / cm^3
# Si number density = 20.278801 Si / 1000 Ang^3
#
#
#
# Elastic Constant Matrix: (Units=GPa)
#
#
# Indices 1 2 3 4 5 6 
#
# 1 103.4953 19.5136 40.4418 0.0000 0.0000 0.0000
# 2 19.5136 79.3675 40.1210 0.0000 0.0000 0.0000
# 3 40.4418 40.1210 126.4746 0.0000 0.0000 0.0000
# 4 0.0000 0.0000 0.0000 10.9712 0.0000 0.0000
# 5 0.0000 0.0000 0.0000 0.0000 16.1339 0.0000
# 6 0.0000 0.0000 0.0000 0.0000 0.0000 21.2886
#
#
#
# Elastic Compliance Matrix: (Units=1/GPa)
#
#
# Indices 1 2 3 4 5 6 
#
# 1 0.011124 -0.001116 -0.003203 0.000000 0.000000 0.000000
# 2 -0.001116 0.015118 -0.004439 0.000000 0.000000 0.000000
# 3 -0.003203 -0.004439 0.010339 0.000000 0.000000 0.000000
# 4 0.000000 0.000000 0.000000 0.091148 0.000000 0.000000
# 5 0.000000 0.000000 0.000000 0.000000 0.061981 0.000000
# 6 0.000000 0.000000 0.000000 0.000000 0.000000 0.046974
#
#
# Mechanical properties :
#
#
# Convention : Reuss Voigt Hill
#
# Bulk Modulus (GPa) = 52.45106 56.61002 54.53054
# Shear Modulus (GPa) = 19.18980 23.62946 21.40963
#
# Velocity S-wave (km/s) = 3.07953 3.41725 3.25278
# Velocity P-wave (km/s) = 6.21014 6.59898 6.40751
#
# Compressibility (1/GPa) = 0.01906539
#
# Stress axis : x y z
#
# Youngs Moduli (GPa) = 89.89299 66.14670 96.71981
#
# Poissons Ratio (x) = 0.07381 0.30981
# Poissons Ratio (y) = 0.10031 0.42934
# Poissons Ratio (z) = 0.28794 0.29362
#
# Static dielectric constant tensor:
#      x y z
#    x 1.839330 0.000000 0.000000 
#    y 0.000000 1.768000 0.000000 
#    z 0.000000 0.000000 1.705140 
# 
# From -- ./inp_files/4389.got.cif
#   From: 2010.05.17/outbox.cif.g08.bks.cpg/sg30_3_cif.got.tgz:4389.got - 2010.06.03 17:03:02.
