data_PCOD9342448
_publ_section_title
;
Structure prediction by ZEFSAII (Michael W. Deem and Ramdas Pophale) SiO2 
 PCOD9342448
Probable space group: P N C 2
;
_chemical_formula_sum "Si O2"
_cell_formula_units_Z 12
_cell_length_a 8.637463
_cell_length_b 4.871234
_cell_length_c 12.007259
_cell_angle_alpha 90.000000
_cell_angle_beta 90.000000
_cell_angle_gamma 90.000000
_cell_volume 505.206664
_symmetry_space_group_name_H-M "P N C 2"
_symmetry_group_IT_number 30
_symmetry_cell_setting 'orthorhombic'
loop_
_space_group_symop_operation_xyz
x,y,z
-x,-y,z
-x,1/2+y,1/2+z
x,1/2-y,1/2+z
loop_
_atom_site_type_symbol
_atom_site_label
_atom_site_fract_x
_atom_site_fract_y
_atom_site_fract_z
Si Si1 0.293496 0.204060 0.651320
Si Si2 0.696414 0.308518 0.792805
Si Si3 0.500000 0.500000 0.472735
Si Si4 0.000000 0.000000 0.223481
O O1 0.350909 0.384774 0.757666
O O2 0.389311 0.307766 0.547193
O O3 0.113877 0.304712 0.650973
O O4 0.320255 0.891493 0.685273
O O5 0.882690 0.330196 0.800982
O O6 0.613051 0.182602 0.897098
#
# Coordination Sequence:
#
# PCOD9342448 Si02
#       4
#     4   4   2   2
#     4  10  23  43  68  97 146 180 234 297 345 419
#     4  10  23  43  70  99 142 184 235 294 346 424
#     4  12  24  42  74 110 138 188 248 288 362 412
#     4   8  22  48  62  94 146 190 226 300 342 422
#
# _framework density 23.752654
#
# number of rings (size 3 to 8) (size 9 to 14) (size 15 to 20)
#    2.000    0.000    0.000    3.000    0.000    5.333 
#    6.000    0.000    0.000    0.000    0.000    0.000 
#    0.000    0.000    0.000    0.000    0.000    0.000 
#
# Total GULP energy -67022.605675 kJ/mol
# GULP energy per Si atom -5585.217140 kJ/mol
# Density = 2.369859 g / cm^3
# Si number density = 23.752654 Si / 1000 Ang^3
#
#
#
# Elastic Constant Matrix: (Units=GPa)
#
#
# Indices 1 2 3 4 5 6 
#
# 1 169.5342 23.5799 65.5044 0.0000 0.0000 0.0000
# 2 23.5799 101.2650 27.8945 0.0000 0.0000 0.0000
# 3 65.5044 27.8945 103.7312 0.0000 0.0000 0.0000
# 4 0.0000 0.0000 0.0000 27.0424 0.0000 0.0000
# 5 0.0000 0.0000 0.0000 0.0000 25.9933 0.0000
# 6 0.0000 0.0000 0.0000 0.0000 0.0000 51.3959
#
#
#
# Elastic Compliance Matrix: (Units=1/GPa)
#
#
# Indices 1 2 3 4 5 6 
#
# 1 0.007825 -0.000498 -0.004808 0.000000 0.000000 0.000000
# 2 -0.000498 0.010697 -0.002562 0.000000 0.000000 0.000000
# 3 -0.004808 -0.002562 0.013365 0.000000 0.000000 0.000000
# 4 0.000000 0.000000 0.000000 0.036979 0.000000 0.000000
# 5 0.000000 0.000000 0.000000 0.000000 0.038471 0.000000
# 6 0.000000 0.000000 0.000000 0.000000 0.000000 0.019457
#
#
# Mechanical properties :
#
#
# Convention : Reuss Voigt Hill
#
# Bulk Modulus (GPa) = 61.91148 67.60978 64.76063
# Shear Modulus (GPa) = 33.80345 38.05642 35.92993
#
# Velocity S-wave (km/s) = 3.77655 4.00709 3.89353
# Velocity P-wave (km/s) = 6.71849 7.06646 6.89467
#
# Compressibility (1/GPa) = 0.01615209
#
# Stress axis : x y z
#
# Youngs Moduli (GPa) = 127.78978 93.48629 74.82082
#
# Poissons Ratio (x) = 0.04654 0.35972
# Poissons Ratio (y) = 0.06362 0.19170
# Poissons Ratio (z) = 0.61438 0.23952
#
# Static dielectric constant tensor:
#      x y z
#    x 2.025790 0.000000 0.000000 
#    y 0.000000 1.893270 0.000000 
#    z 0.000000 0.000000 1.863350 
# 
# From -- ./inp_files/3351.got.cif
#   From: 2010.05.17/outbox.cif.g08.bks.cpg/sg30_2_cif.got.tgz:3351.got - 2010.06.03 17:03:02.
