data_PCOD9342983
_publ_section_title
;
Structure prediction by ZEFSAII (Michael W. Deem and Ramdas Pophale) SiO2 
 PCOD9342983
Probable space group: P M N 21
;
_chemical_formula_sum "Si O2"
_cell_formula_units_Z 32
_cell_length_a 8.226709
_cell_length_b 11.096271
_cell_length_c 14.403408
_cell_angle_alpha 90.000000
_cell_angle_beta 90.000000
_cell_angle_gamma 90.000000
_cell_volume 1314.826514
_symmetry_space_group_name_H-M "P M N 21"
_symmetry_group_IT_number 31
_symmetry_cell_setting 'orthorhombic'
loop_
_space_group_symop_operation_xyz
x,y,z
1/2-x,-y,1/2+z
-x,y,z
1/2+x,-y,1/2+z
loop_
_atom_site_type_symbol
_atom_site_label
_atom_site_fract_x
_atom_site_fract_y
_atom_site_fract_z
Si Si1 0.690984 0.715180 0.034300
Si Si2 0.691620 0.322536 0.978514
Si Si3 0.197126 0.432396 0.369383
Si Si4 0.188168 0.565482 0.194903
Si Si5 0.195142 0.193578 0.146125
Si Si6 0.192076 0.047056 0.314316
Si Si7 0.309924 0.037081 0.522694
Si Si8 0.315251 0.787593 0.303193
O O1 0.500000 0.740916 0.028454
O O2 0.716595 0.603330 0.103453
O O3 0.754657 0.677341 0.932547
O O4 0.780477 0.833575 0.070264
O O5 0.500000 0.301551 0.966433
O O6 0.732096 0.450772 0.933150
O O7 0.789682 0.228957 0.913883
O O8 0.735062 0.302705 0.085639
O O9 0.253250 0.463538 0.265666
O O10 0.000000 0.421901 0.362769
O O11 0.200006 0.688386 0.256553
O O12 0.000000 0.540555 0.172448
O O13 0.244649 0.160767 0.251213
O O14 0.000000 0.207568 0.145531
O O15 0.242552 0.073823 0.086825
O O16 0.221291 0.051039 0.424073
O O17 0.000000 0.033361 0.298033
O O18 0.277244 0.924867 0.280404
O O19 0.500000 0.020866 0.504045
O O20 0.500000 0.757308 0.277469
#
# Coordination Sequence:
#
# PCOD9342983 Si02
#       8
#     4   4   4   4   4   4   4   4
#     4  11  22  40  63  88 121 159 201 248 304 363
#     4  10  19  35  60  84 112 149 193 242 297 350
#     4   8  19  39  61  85 117 153 193 247 302 355
#     4  10  20  38  62  89 117 155 205 252 301 354
#     4  10  22  38  57  84 120 155 193 243 297 357
#     4  11  22  37  57  85 121 161 198 240 300 358
#     4  11  23  40  60  87 124 161 200 248 298 356
#     4  11  20  33  56  86 118 151 195 246 295 351
#
# _framework density 24.337812
#
# number of rings (size 3 to 8) (size 9 to 14) (size 15 to 20)
#    0.000    1.750    1.250    4.500    0.000    2.500 
#    2.250    7.500    0.000    0.000    0.000    0.000 
#    0.000    0.000    0.000    0.000    0.000    0.000 
#
# Total GULP energy -178953.390681 kJ/mol
# GULP energy per Si atom -5592.293459 kJ/mol
# Density = 2.428242 g / cm^3
# Si number density = 24.337812 Si / 1000 Ang^3
#
#
#
# Elastic Constant Matrix: (Units=GPa)
#
#
# Indices 1 2 3 4 5 6 
#
# 1 47.6755 2.4686 0.7802 0.0000 0.0000 0.0000
# 2 2.4686 51.1013 15.4188 0.0000 0.0000 0.0000
# 3 0.7802 15.4188 118.3219 0.0000 0.0000 0.0000
# 4 0.0000 0.0000 0.0000 49.0884 0.0000 0.0000
# 5 0.0000 0.0000 0.0000 0.0000 34.1430 0.0000
# 6 0.0000 0.0000 0.0000 0.0000 0.0000 31.7091
#
#
#
# Elastic Compliance Matrix: (Units=1/GPa)
#
#
# Indices 1 2 3 4 5 6 
#
# 1 0.021028 -0.001014 -0.000007 0.000000 0.000000 0.000000
# 2 -0.001014 0.020419 -0.002654 0.000000 0.000000 0.000000
# 3 -0.000007 -0.002654 0.008797 0.000000 0.000000 0.000000
# 4 0.000000 0.000000 0.000000 0.020371 0.000000 0.000000
# 5 0.000000 0.000000 0.000000 0.000000 0.029289 0.000000
# 6 0.000000 0.000000 0.000000 0.000000 0.000000 0.031537
#
#
# Mechanical properties :
#
#
# Convention : Reuss Voigt Hill
#
# Bulk Modulus (GPa) = 23.31277 28.27044 25.79160
# Shear Modulus (GPa) = 32.66096 36.21683 34.43889
#
# Velocity S-wave (km/s) = 3.66728 3.86176 3.76578
# Velocity P-wave (km/s) = 5.24705 5.61474 5.43401
#
# Compressibility (1/GPa) = 0.04289495
#
# Stress axis : x y z
#
# Youngs Moduli (GPa) = 47.55620 48.97454 113.66958
#
# Poissons Ratio (x) = 0.04965 0.00074
# Poissons Ratio (y) = 0.04821 0.30169
# Poissons Ratio (z) = 0.00031 0.12999
#
# Static dielectric constant tensor:
#      x y z
#    x 1.824520 0.000000 0.000000 
#    y 0.000000 1.957260 0.000000 
#    z 0.000000 0.000000 2.009160 
# 
# From -- ./inp_files/4972.got.cif
#   From: 2010.05.17/outbox.cif.g08.bks.cpg/sg31_3_cif.got.tgz:4972.got - 2010.06.03 17:08:30.
