data_PCOD9342719
_publ_section_title
;
Structure prediction by ZEFSAII (Michael W. Deem and Ramdas Pophale) SiO2 
 PCOD9342719
Probable space group: P M N 21
;
_chemical_formula_sum "Si O2"
_cell_formula_units_Z 24
_cell_length_a 9.190492
_cell_length_b 15.885523
_cell_length_c 7.262025
_cell_angle_alpha 90.000000
_cell_angle_beta 90.000000
_cell_angle_gamma 90.000000
_cell_volume 1060.224947
_symmetry_space_group_name_H-M "P M N 21"
_symmetry_group_IT_number 31
_symmetry_cell_setting 'orthorhombic'
loop_
_space_group_symop_operation_xyz
x,y,z
1/2-x,-y,1/2+z
-x,y,z
1/2+x,-y,1/2+z
loop_
_atom_site_type_symbol
_atom_site_label
_atom_site_fract_x
_atom_site_fract_y
_atom_site_fract_z
Si Si1 0.836219 0.113977 0.311820
Si Si2 0.663773 0.602503 0.182136
Si Si3 0.662570 0.951234 0.391389
Si Si4 0.176493 0.226704 0.811262
Si Si5 0.826647 0.726763 0.697037
Si Si6 0.664314 0.563654 0.616805
O O1 0.738866 0.197427 0.317882
O O2 0.000000 0.131671 0.377301
O O3 0.768482 0.029826 0.395788
O O4 0.844460 0.088274 0.095174
O O5 0.500000 0.590033 0.112116
O O6 0.706970 0.700127 0.163825
O O7 0.659445 0.590902 0.403811
O O8 0.767093 0.528638 0.117119
O O9 0.500000 0.979469 0.337546
O O10 0.705930 0.870882 0.265981
O O11 0.000000 0.231708 0.851372
O O12 0.273258 0.248566 0.989959
O O13 0.756710 0.634218 0.725146
O O14 0.000000 0.722844 0.709141
O O15 0.500000 0.561991 0.686966
#
# Coordination Sequence:
#
# PCOD9342719 Si02
#       6
#     4   4   4   4   4   4
#     4  10  20  34  52  75 103 133 166 206 250 295
#     4   9  18  33  52  74 100 132 169 207 247 293
#     4   9  18  33  52  74 100 132 169 207 247 293
#     4   8  16  32  51  72 101 132 164 204 246 292
#     4  10  18  30  51  74  97 130 170 206 244 296
#     4  10  20  34  52  75 103 133 166 206 250 295
#
# _framework density 22.636704999999999
#
# number of rings (size 3 to 8) (size 9 to 14) (size 15 to 20)
#    0.000    2.667    0.000    4.500    0.000    6.667 
#    0.000    1.667    0.000    8.000    0.000    0.000 
#    0.000    0.000    0.000    0.000    0.000    0.000 
#
# Total GULP energy -134018.988098 kJ/mol
# GULP energy per Si atom -5584.124504 kJ/mol
# Density = 2.258518 g / cm^3
# Si number density = 22.636705 Si / 1000 Ang^3
#
#
#
# Elastic Constant Matrix: (Units=GPa)
#
#
# Indices 1 2 3 4 5 6 
#
# 1 150.3807 97.4776 12.7946 0.0000 0.0000 0.0000
# 2 97.4776 163.8884 40.9472 0.0000 0.0000 0.0000
# 3 12.7946 40.9472 41.3791 0.0000 0.0000 0.0000
# 4 0.0000 0.0000 0.0000 37.7882 0.0000 0.0000
# 5 0.0000 0.0000 0.0000 0.0000 12.5937 0.0000
# 6 0.0000 0.0000 0.0000 0.0000 0.0000 28.4084
#
#
#
# Elastic Compliance Matrix: (Units=1/GPa)
#
#
# Indices 1 2 3 4 5 6 
#
# 1 0.011349 -0.007803 0.004212 0.000000 0.000000 0.000000
# 2 -0.007803 0.013470 -0.010917 0.000000 0.000000 0.000000
# 3 0.004212 -0.010917 0.033667 0.000000 0.000000 0.000000
# 4 0.000000 0.000000 0.000000 0.026463 0.000000 0.000000
# 5 0.000000 0.000000 0.000000 0.000000 0.079405 0.000000
# 6 0.000000 0.000000 0.000000 0.000000 0.000000 0.035201
#
#
# Mechanical properties :
#
#
# Convention : Reuss Voigt Hill
#
# Bulk Modulus (GPa) = 33.93106 73.12076 53.52591
# Shear Modulus (GPa) = 20.97363 29.38663 25.18013
#
# Velocity S-wave (km/s) = 3.04720 3.60694 3.33882
# Velocity P-wave (km/s) = 5.23474 7.05115 6.20972
#
# Compressibility (1/GPa) = 0.02947152
#
# Stress axis : x y z
#
# Youngs Moduli (GPa) = 88.11268 74.23852 29.70232
#
# Poissons Ratio (x) = 0.57925 -0.12510
# Poissons Ratio (y) = 0.68751 0.32426
# Poissons Ratio (z) = -0.37112 0.81045
#
# Static dielectric constant tensor:
#      x y z
#    x 1.774340 0.000000 0.000000 
#    y 0.000000 1.880300 0.000000 
#    z 0.000000 0.000000 1.942570 
# 
# From -- ./inp_files/1701.got.cif
#   From: 2010.05.17/outbox.cif.g08.bks.cpg/sg31_1_cif.got.tgz:1701.got - 2010.06.03 17:08:30.
