data_PCOD9342107
_publ_section_title
;
Structure prediction by ZEFSAII (Michael W. Deem and Ramdas Pophale) SiO2 
 PCOD9342107
Probable space group: P N C 2
;
_chemical_formula_sum "Si O2"
_cell_formula_units_Z 30
_cell_length_a 14.252780
_cell_length_b 11.623937
_cell_length_c 8.454619
_cell_angle_alpha 90.000000
_cell_angle_beta 90.000000
_cell_angle_gamma 90.000000
_cell_volume 1400.705617
_symmetry_space_group_name_H-M "P N C 2"
_symmetry_group_IT_number 30
_symmetry_cell_setting 'orthorhombic'
loop_
_space_group_symop_operation_xyz
x,y,z
-x,-y,z
-x,1/2+y,1/2+z
x,1/2-y,1/2+z
loop_
_atom_site_type_symbol
_atom_site_label
_atom_site_fract_x
_atom_site_fract_y
_atom_site_fract_z
Si Si1 0.475668 0.270442 0.109530
Si Si2 0.749600 0.566129 0.843170
Si Si3 0.000000 0.500000 0.290673
Si Si4 0.175370 0.472337 0.501125
Si Si5 0.662942 0.680094 0.365142
Si Si6 0.395886 0.862315 0.357566
Si Si7 0.144483 0.898259 0.559488
Si Si8 0.214156 0.712513 0.365947
O O1 0.394599 0.335970 0.205238
O O2 0.540280 0.190095 0.218859
O O3 0.418081 0.185967 0.995703
O O4 0.537858 0.358985 0.010201
O O5 0.812426 0.561116 0.683758
O O6 0.712430 0.694770 0.863275
O O7 0.659775 0.480314 0.824194
O O8 0.809828 0.514518 0.989439
O O9 0.078735 0.447436 0.407541
O O10 0.053507 0.582673 0.167324
O O11 0.259095 0.411719 0.406071
O O12 0.192159 0.608149 0.482747
O O13 0.314365 0.769597 0.388816
O O14 0.139826 0.812663 0.410132
O O15 0.210334 0.836671 0.689126
#
# Coordination Sequence:
#
# PCOD9342107 Si02
#       8
#     4   4   2   4   4   4   4   4
#     4  10  22  38  62  99 138 181 236 281 327 405
#     4  11  23  43  75  91 142 192 230 288 364 412
#     4  10  26  46  70 108 136 170 238 288 356 436
#     4  11  24  46  68  97 139 181 234 287 359 422
#     4  11  24  44  61  98 144 186 226 275 356 412
#     4  10  20  41  65 100 133 179 241 281 333 400
#     4  10  22  43  70 106 132 173 231 290 360 418
#     4  10  20  40  70  96 137 180 227 289 348 405
#
# _framework density 21.417776
#
# number of rings (size 3 to 8) (size 9 to 14) (size 15 to 20)
#    0.000    1.600    1.333    4.000    3.733    2.667 
#   14.400    1.333    0.000    0.000    0.000    0.000 
#    0.000    0.000    0.000    0.000    0.000    0.000 
#
# Total GULP energy -167535.272384 kJ/mol
# GULP energy per Si atom -5584.509079 kJ/mol
# Density = 2.136903 g / cm^3
# Si number density = 21.417776 Si / 1000 Ang^3
#
#
#
# Elastic Constant Matrix: (Units=GPa)
#
#
# Indices 1 2 3 4 5 6 
#
# 1 105.3048 34.2996 37.5972 0.0000 0.0000 0.0000
# 2 34.2996 63.2583 12.3620 0.0000 0.0000 0.0000
# 3 37.5972 12.3620 101.6939 0.0000 0.0000 0.0000
# 4 0.0000 0.0000 0.0000 22.4899 0.0000 0.0000
# 5 0.0000 0.0000 0.0000 0.0000 45.8939 0.0000
# 6 0.0000 0.0000 0.0000 0.0000 0.0000 20.3991
#
#
#
# Elastic Compliance Matrix: (Units=1/GPa)
#
#
# Indices 1 2 3 4 5 6 
#
# 1 0.012971 -0.006244 -0.004037 0.000000 0.000000 0.000000
# 2 -0.006244 0.019199 -0.000025 0.000000 0.000000 0.000000
# 3 -0.004037 -0.000025 0.011329 0.000000 0.000000 0.000000
# 4 0.000000 0.000000 0.000000 0.044464 0.000000 0.000000
# 5 0.000000 0.000000 0.000000 0.000000 0.021789 0.000000
# 6 0.000000 0.000000 0.000000 0.000000 0.000000 0.049022
#
#
# Mechanical properties :
#
#
# Convention : Reuss Voigt Hill
#
# Bulk Modulus (GPa) = 43.69342 48.75275 46.22308
# Shear Modulus (GPa) = 26.73567 30.15645 28.44606
#
# Velocity S-wave (km/s) = 3.53695 3.75642 3.64834
# Velocity P-wave (km/s) = 6.09302 6.45185 6.27500
#
# Compressibility (1/GPa) = 0.02288674
#
# Stress axis : x y z
#
# Youngs Moduli (GPa) = 77.09308 52.08617 88.27028
#
# Poissons Ratio (x) = 0.32525 0.35631
# Poissons Ratio (y) = 0.48140 0.00223
# Poissons Ratio (z) = 0.31119 0.00131
#
# Static dielectric constant tensor:
#      x y z
#    x 1.798370 0.000000 0.000000 
#    y 0.000000 1.760130 0.000000 
#    z 0.000000 0.000000 1.871350 
# 
# From -- ./inp_files/2683.got.cif
#   From: 2010.05.17/outbox.cif.g08.bks.cpg/sg30_2_cif.got.tgz:2683.got - 2010.06.03 17:03:02.
