data_PCOD9342910
_publ_section_title
;
Structure prediction by ZEFSAII (Michael W. Deem and Ramdas Pophale) SiO2 
 PCOD9342910
Probable space group: P M N 21
;
_chemical_formula_sum "Si O2"
_cell_formula_units_Z 32
_cell_length_a 8.449091
_cell_length_b 15.038310
_cell_length_c 12.296322
_cell_angle_alpha 90.000000
_cell_angle_beta 90.000000
_cell_angle_gamma 90.000000
_cell_volume 1562.371284
_symmetry_space_group_name_H-M "P M N 21"
_symmetry_group_IT_number 31
_symmetry_cell_setting 'orthorhombic'
loop_
_space_group_symop_operation_xyz
x,y,z
1/2-x,-y,1/2+z
-x,y,z
1/2+x,-y,1/2+z
loop_
_atom_site_type_symbol
_atom_site_label
_atom_site_fract_x
_atom_site_fract_y
_atom_site_fract_z
Si Si1 0.313137 0.636226 0.244930
Si Si2 0.681563 0.849671 0.753927
Si Si3 0.310481 0.333745 0.507171
Si Si4 0.182606 0.866140 0.976952
Si Si5 0.688778 0.321444 0.143627
Si Si6 0.812208 0.058247 0.023640
Si Si7 0.687959 0.233915 0.914851
Si Si8 0.688139 0.546233 0.807951
O O1 0.500000 0.627913 0.231498
O O2 0.231670 0.632775 0.127130
O O3 0.271469 0.726516 0.309137
O O4 0.247852 0.554491 0.316360
O O5 0.500000 0.857492 0.791999
O O6 0.802049 0.874905 0.847475
O O7 0.718846 0.749805 0.717018
O O8 0.702544 0.907518 0.646397
O O9 0.500000 0.332114 0.491512
O O10 0.249101 0.231380 0.501732
O O11 0.241089 0.394343 0.410858
O O12 0.000000 0.863658 0.013819
O O13 0.254258 0.958399 0.018811
O O14 0.500000 0.308900 0.155177
O O15 0.736962 0.414405 0.196495
O O16 0.729582 0.296204 0.019553
O O17 0.000000 0.055647 0.996756
O O18 0.734462 0.133441 0.947689
O O19 0.500000 0.238729 0.899075
O O20 0.500000 0.548242 0.799929
#
# Coordination Sequence:
#
# PCOD9342910 Si02
#       8
#     4   4   4   4   4   4   4   4
#     4  12  27  45  66  93 131 174 216 265 323 387
#     4  10  19  33  56  86 120 157 208 263 314 373
#     4  11  24  44  67  95 132 170 214 266 324 384
#     4  10  21  38  62  89 126 167 208 261 322 383
#     4  10  20  37  62  89 120 158 205 260 316 374
#     4   9  20  38  59  89 125 168 214 261 320 384
#     4  10  22  41  64  92 127 166 213 266 320 379
#     4  12  25  42  66  95 127 164 212 264 319 384
#
# _framework density 20.481688999999999
#
# number of rings (size 3 to 8) (size 9 to 14) (size 15 to 20)
#    0.000    1.500    1.250    3.750    1.750    4.000 
#    0.000    1.250    0.000    0.000    0.000    0.000 
#    0.000    0.000    0.000    0.000    0.000    0.000 
#
# Total GULP energy -178713.684753 kJ/mol
# GULP energy per Si atom -5584.802649 kJ/mol
# Density = 2.043507 g / cm^3
# Si number density = 20.481689 Si / 1000 Ang^3
#
#
#
# Elastic Constant Matrix: (Units=GPa)
#
#
# Indices 1 2 3 4 5 6 
#
# 1 36.3984 7.9777 1.5473 0.0000 0.0000 0.0000
# 2 7.9777 115.6226 24.2108 0.0000 0.0000 0.0000
# 3 1.5473 24.2108 41.9739 0.0000 0.0000 0.0000
# 4 0.0000 0.0000 0.0000 18.3192 0.0000 0.0000
# 5 0.0000 0.0000 0.0000 0.0000 26.2696 0.0000
# 6 0.0000 0.0000 0.0000 0.0000 0.0000 19.1925
#
#
#
# Elastic Compliance Matrix: (Units=1/GPa)
#
#
# Indices 1 2 3 4 5 6 
#
# 1 0.027896 -0.001944 0.000093 0.000000 0.000000 0.000000
# 2 -0.001944 0.009972 -0.005680 0.000000 0.000000 0.000000
# 3 0.000093 -0.005680 0.027097 0.000000 0.000000 0.000000
# 4 0.000000 0.000000 0.000000 0.054587 0.000000 0.000000
# 5 0.000000 0.000000 0.000000 0.000000 0.038067 0.000000
# 6 0.000000 0.000000 0.000000 0.000000 0.000000 0.052104
#
#
# Mechanical properties :
#
#
# Convention : Reuss Voigt Hill
#
# Bulk Modulus (GPa) = 20.03906 29.05184 24.54545
# Shear Modulus (GPa) = 20.71067 23.44018 22.07543
#
# Velocity S-wave (km/s) = 3.18336 3.38664 3.28657
# Velocity P-wave (km/s) = 4.82875 5.43208 5.13927
#
# Compressibility (1/GPa) = 0.04990254
#
# Stress axis : x y z
#
# Youngs Moduli (GPa) = 35.84750 100.27630 36.90384
#
# Poissons Ratio (x) = 0.19496 -0.00344
# Poissons Ratio (y) = 0.06970 0.20963
# Poissons Ratio (z) = -0.00334 0.56962
#
# Static dielectric constant tensor:
#      x y z
#    x 1.698630 0.000000 0.000000 
#    y 0.000000 1.773640 0.000000 
#    z 0.000000 0.000000 1.708330 
# 
# From -- ./inp_files/3716.got.cif
#   From: 2010.05.17/outbox.cif.g08.bks.cpg/sg31_2_cif.got.tgz:3716.got - 2010.06.03 17:08:30.
