data_PCOD9342974
_publ_section_title
;
Structure prediction by ZEFSAII (Michael W. Deem and Ramdas Pophale) SiO2 
 PCOD9342974
Probable space group: P M N 21
;
_chemical_formula_sum "Si O2"
_cell_formula_units_Z 32
_cell_length_a 28.181076
_cell_length_b 11.216422
_cell_length_c 5.316378
_cell_angle_alpha 90.000000
_cell_angle_beta 90.000000
_cell_angle_gamma 90.000000
_cell_volume 1680.458392
_symmetry_space_group_name_H-M "P M N 21"
_symmetry_group_IT_number 31
_symmetry_cell_setting 'orthorhombic'
loop_
_space_group_symop_operation_xyz
x,y,z
1/2-x,-y,1/2+z
-x,y,z
1/2+x,-y,1/2+z
loop_
_atom_site_type_symbol
_atom_site_label
_atom_site_fract_x
_atom_site_fract_y
_atom_site_fract_z
Si Si1 0.211353 0.869992 0.142000
Si Si2 0.649969 0.696395 0.159550
Si Si3 0.273364 0.704362 0.771923
Si Si4 0.810139 0.542390 0.825118
Si Si5 0.446662 0.565000 0.199928
Si Si6 0.803354 0.091132 0.889714
Si Si7 0.347841 0.333220 0.830806
Si Si8 0.553227 0.404154 0.698198
O O1 0.255934 0.945289 0.242007
O O2 0.181161 0.790373 0.333698
O O3 0.238344 0.775291 0.964717
O O4 0.178802 0.970155 0.013949
O O5 0.680276 0.598666 0.319463
O O6 0.595898 0.658758 0.186424
O O7 0.659296 0.833660 0.228603
O O8 0.675400 0.679048 0.891865
O O9 0.242706 0.583955 0.741336
O O10 0.282957 0.803516 0.564648
O O11 0.841363 0.600106 0.597018
O O12 0.826249 0.591541 0.096125
O O13 0.500000 0.614835 0.231202
O O14 0.438799 0.477040 0.438657
O O15 0.445900 0.493976 0.936301
O O16 0.402789 0.318110 0.755919
O O17 0.500000 0.352098 0.685683
#
# Coordination Sequence:
#
# PCOD9342974 Si02
#       8
#     4   4   4   4   4   4   4   4
#     4  10  21  37  56  74 111 155 209 233 280 339
#     4  11  24  34  56  84 117 155 191 240 295 364
#     4  10  23  34  53  77 111 153 190 241 282 338
#     4  11  23  36  54  83 122 150 187 226 303 355
#     4  10  21  38  59  84 118 153 189 239 294 365
#     4  11  21  37  53  78 112 159 199 244 278 345
#     4  11  20  37  59  83 111 154 185 244 284 346
#     4  10  19  35  58  85 114 147 188 239 298 356
#
# _framework density 19.042422999999999
#
# number of rings (size 3 to 8) (size 9 to 14) (size 15 to 20)
#    0.000    1.500    5.000    0.000    5.250    0.000 
#    0.000    0.000    0.000    0.750    0.000    0.000 
#    0.000    0.000    0.000    0.000    0.000    0.000 
#
# Total GULP energy -178372.703557 kJ/mol
# GULP energy per Si atom -5574.146986 kJ/mol
# Density = 1.899908 g / cm^3
# Si number density = 19.042423 Si / 1000 Ang^3
#
#
#
# Elastic Constant Matrix: (Units=GPa)
#
#
# Indices 1 2 3 4 5 6 
#
# 1 110.1076 13.8632 -1.3887 0.0000 0.0000 0.0000
# 2 13.8632 68.4682 7.1959 0.0000 0.0000 0.0000
# 3 -1.3887 7.1959 66.8889 0.0000 0.0000 0.0000
# 4 0.0000 0.0000 0.0000 28.3668 0.0000 0.0000
# 5 0.0000 0.0000 0.0000 0.0000 23.0555 0.0000
# 6 0.0000 0.0000 0.0000 0.0000 0.0000 8.9711
#
#
#
# Elastic Compliance Matrix: (Units=1/GPa)
#
#
# Indices 1 2 3 4 5 6 
#
# 1 0.009330 -0.001931 0.000401 0.000000 0.000000 0.000000
# 2 -0.001931 0.015172 -0.001672 0.000000 0.000000 0.000000
# 3 0.000401 -0.001672 0.015138 0.000000 0.000000 0.000000
# 4 0.000000 0.000000 0.000000 0.035252 0.000000 0.000000
# 5 0.000000 0.000000 0.000000 0.000000 0.043374 0.000000
# 6 0.000000 0.000000 0.000000 0.000000 0.000000 0.111469
#
#
# Mechanical properties :
#
#
# Convention : Reuss Voigt Hill
#
# Bulk Modulus (GPa) = 30.08746 31.64505 30.86625
# Shear Modulus (GPa) = 20.22497 27.13163 23.67830
#
# Velocity S-wave (km/s) = 3.26252 3.77875 3.53008
# Velocity P-wave (km/s) = 5.47965 5.97435 5.73234
#
# Compressibility (1/GPa) = 0.03323644
#
# Stress axis : x y z
#
# Youngs Moduli (GPa) = 107.17814 65.91030 66.05714
#
# Poissons Ratio (x) = 0.12730 -0.02652
# Poissons Ratio (y) = 0.20700 0.11047
# Poissons Ratio (z) = -0.04303 0.11022
#
# Static dielectric constant tensor:
#      x y z
#    x 1.687480 0.000000 0.000000 
#    y 0.000000 1.694660 0.000000 
#    z 0.000000 0.000000 1.812660 
# 
# From -- ./inp_files/1270.got.cif
#   From: 2010.05.17/outbox.cif.g08.bks.cpg/sg31_1_cif.got.tgz:1270.got - 2010.06.03 17:08:30.
