data_PCOD9342090
_publ_section_title
;
Structure prediction by ZEFSAII (Michael W. Deem and Ramdas Pophale) SiO2 
 PCOD9342090
Probable space group: P N C 2
;
_chemical_formula_sum "Si O2"
_cell_formula_units_Z 26
_cell_length_a 8.308336
_cell_length_b 15.405408
_cell_length_c 9.336886
_cell_angle_alpha 90.000000
_cell_angle_beta 90.000000
_cell_angle_gamma 90.000000
_cell_volume 1195.058906
_symmetry_space_group_name_H-M "P N C 2"
_symmetry_group_IT_number 30
_symmetry_cell_setting 'orthorhombic'
loop_
_space_group_symop_operation_xyz
x,y,z
-x,-y,z
-x,1/2+y,1/2+z
x,1/2-y,1/2+z
loop_
_atom_site_type_symbol
_atom_site_label
_atom_site_fract_x
_atom_site_fract_y
_atom_site_fract_z
Si Si1 0.067726 0.859504 0.156710
Si Si2 0.649829 0.673977 0.490766
Si Si3 0.500000 0.000000 0.412713
Si Si4 0.556459 0.245365 0.750132
Si Si5 0.254230 0.470598 0.674617
Si Si6 0.989101 0.738835 0.923687
Si Si7 0.276393 0.645910 0.006628
O O1 0.021842 0.777395 0.256963
O O2 0.912615 0.919124 0.189018
O O3 0.215075 0.926859 0.174731
O O4 0.078867 0.820215 0.997693
O O5 0.557394 0.708860 0.631820
O O6 0.547781 0.682092 0.348060
O O7 0.683983 0.573678 0.529058
O O8 0.805968 0.736285 0.463086
O O9 0.378142 0.048288 0.302872
O O10 0.623015 0.057437 0.504126
O O11 0.645568 0.304259 0.868835
O O12 0.681322 0.195560 0.650753
O O13 0.084031 0.653040 0.983249
#
# Coordination Sequence:
#
# PCOD9342090 Si02
#       7
#     4   4   2   4   4   4   4
#     4  10  22  39  62  93 123 161 217 261 321 377
#     4  10  20  39  63  92 124 173 209 260 318 387
#     4  12  22  40  60  88 128 164 210 262 328 382
#     4  10  22  38  61  90 127 163 215 255 319 380
#     4  10  21  38  63  89 122 167 208 260 319 390
#     4  11  21  37  63  92 122 164 212 265 304 381
#     4  11  23  39  62  93 128 167 212 266 320 383
#
# _framework density 21.756247999999999
#
# number of rings (size 3 to 8) (size 9 to 14) (size 15 to 20)
#    0.000    1.538    3.077    2.769    2.154    0.000 
#    0.000    3.846    0.000    3.692    0.000    0.000 
#    0.000    0.000    0.000    0.000    0.000    0.000 
#
# Total GULP energy -144771.490837 kJ/mol
# GULP energy per Si atom -5568.134263 kJ/mol
# Density = 2.170673 g / cm^3
# Si number density = 21.756248 Si / 1000 Ang^3
#
#
#
# Elastic Constant Matrix: (Units=GPa)
#
#
# Indices 1 2 3 4 5 6 
#
# 1 70.7707 16.5777 24.1238 0.0000 0.0000 0.0000
# 2 16.5777 59.7201 36.8479 0.0000 0.0000 0.0000
# 3 24.1238 36.8479 114.0445 0.0000 0.0000 0.0000
# 4 0.0000 0.0000 0.0000 21.7509 0.0000 0.0000
# 5 0.0000 0.0000 0.0000 0.0000 29.1712 0.0000
# 6 0.0000 0.0000 0.0000 0.0000 0.0000 30.3582
#
#
#
# Elastic Compliance Matrix: (Units=1/GPa)
#
#
# Indices 1 2 3 4 5 6 
#
# 1 0.015612 -0.002868 -0.002376 0.000000 0.000000 0.000000
# 2 -0.002868 0.021441 -0.006321 0.000000 0.000000 0.000000
# 3 -0.002376 -0.006321 0.011313 0.000000 0.000000 0.000000
# 4 0.000000 0.000000 0.000000 0.045975 0.000000 0.000000
# 5 0.000000 0.000000 0.000000 0.000000 0.034280 0.000000
# 6 0.000000 0.000000 0.000000 0.000000 0.000000 0.032940
#
#
# Mechanical properties :
#
#
# Convention : Reuss Voigt Hill
#
# Bulk Modulus (GPa) = 39.62435 44.40379 42.01407
# Shear Modulus (GPa) = 25.89290 27.38843 26.64067
#
# Velocity S-wave (km/s) = 3.45358 3.55191 3.50309
# Velocity P-wave (km/s) = 5.84426 6.10536 5.97624
#
# Compressibility (1/GPa) = 0.02523700
#
# Stress axis : x y z
#
# Youngs Moduli (GPa) = 64.05431 46.63970 88.39109
#
# Poissons Ratio (x) = 0.13375 0.21000
# Poissons Ratio (y) = 0.18370 0.55872
# Poissons Ratio (z) = 0.15218 0.29481
#
# Static dielectric constant tensor:
#      x y z
#    x 1.901490 0.000000 0.000000 
#    y 0.000000 1.836950 0.000000 
#    z 0.000000 0.000000 1.783140 
# 
# From -- ./inp_files/1993.got.cif
#   From: 2010.05.17/outbox.cif.g08.bks.cpg/sg30_1_cif.got.tgz:1993.got - 2010.06.03 17:03:02.
