data_PCOD9342747
_publ_section_title
;
Structure prediction by ZEFSAII (Michael W. Deem and Ramdas Pophale) SiO2 
 PCOD9342747
Probable space group: P M N 21
;
_chemical_formula_sum "Si O2"
_cell_formula_units_Z 32
_cell_length_a 8.686476
_cell_length_b 11.719021
_cell_length_c 16.825569
_cell_angle_alpha 90.000000
_cell_angle_beta 90.000000
_cell_angle_gamma 90.000000
_cell_volume 1712.792358
_symmetry_space_group_name_H-M "P M N 21"
_symmetry_group_IT_number 31
_symmetry_cell_setting 'orthorhombic'
loop_
_space_group_symop_operation_xyz
x,y,z
1/2-x,-y,1/2+z
-x,y,z
1/2+x,-y,1/2+z
loop_
_atom_site_type_symbol
_atom_site_label
_atom_site_fract_x
_atom_site_fract_y
_atom_site_fract_z
Si Si1 0.813335 0.315804 0.737250
Si Si2 0.178251 0.227389 0.325553
Si Si3 0.314595 0.733172 0.571823
Si Si4 0.682220 0.061791 0.449030
Si Si5 0.813237 0.191249 0.899053
Si Si6 0.174540 0.903309 0.690861
Si Si7 0.677236 0.862013 0.112930
Si Si8 0.814515 0.432911 0.214878
O O1 0.759804 0.251639 0.817883
O O2 0.760282 0.247741 0.658614
O O3 0.758575 0.445170 0.730331
O O4 0.000000 0.311922 0.737319
O O5 0.266194 0.170482 0.397771
O O6 0.203202 0.136570 0.255036
O O7 0.233950 0.344226 0.284350
O O8 0.000000 0.240450 0.345965
O O9 0.500000 0.752188 0.579256
O O10 0.278106 0.734055 0.478233
O O11 0.222402 0.838012 0.610801
O O12 0.276848 0.625798 0.629271
O O13 0.500000 0.052607 0.446423
O O14 0.734202 0.089108 0.537943
O O15 0.741949 0.939279 0.415317
O O16 0.000000 0.185801 0.893789
O O17 0.000000 0.869870 0.714558
O O18 0.175660 0.037280 0.677775
O O19 0.500000 0.841485 0.088274
O O20 0.000000 0.441059 0.217722
#
# Coordination Sequence:
#
# PCOD9342747 Si02
#       8
#     4   4   4   4   4   4   4   4
#     4  10  21  38  58  79 111 154 192 232 280 334
#     4  10  21  37  57  80 113 149 180 226 291 338
#     4   9  17  34  58  81 110 146 184 231 288 335
#     4  11  21  35  59  88 114 141 188 236 277 344
#     4   9  18  35  59  85 112 144 185 233 286 338
#     4  10  18  31  55  84 113 142 184 226 269 337
#     4  10  21  36  53  79 120 155 178 223 289 340
#     4   9  20  38  57  78 109 147 189 233 276 334
#
# _framework density 18.682942000000001
#
# number of rings (size 3 to 8) (size 9 to 14) (size 15 to 20)
#    0.000    2.250    1.250    2.625    0.000    5.500 
#    2.250    3.125    0.000    0.000    0.000    0.000 
#    0.000    0.000    0.000    0.000    0.000    0.000 
#
# Total GULP energy -178344.716528 kJ/mol
# GULP energy per Si atom -5573.272391 kJ/mol
# Density = 1.864042 g / cm^3
# Si number density = 18.682942 Si / 1000 Ang^3
#
#
#
# Elastic Constant Matrix: (Units=GPa)
#
#
# Indices 1 2 3 4 5 6 
#
# 1 14.3080 26.2844 12.6404 0.0000 0.0000 0.0000
# 2 26.2844 132.1334 61.4331 0.0000 0.0000 0.0000
# 3 12.6404 61.4331 66.7325 0.0000 0.0000 0.0000
# 4 0.0000 0.0000 0.0000 21.1184 0.0000 0.0000
# 5 0.0000 0.0000 0.0000 0.0000 19.2606 0.0000
# 6 0.0000 0.0000 0.0000 0.0000 0.0000 0.6295
#
#
#
# Elastic Compliance Matrix: (Units=1/GPa)
#
#
# Indices 1 2 3 4 5 6 
#
# 1 0.110195 -0.021357 -0.001212 0.000000 0.000000 0.000000
# 2 -0.021357 0.017370 -0.011946 0.000000 0.000000 0.000000
# 3 -0.001212 -0.011946 0.026212 0.000000 0.000000 0.000000
# 4 0.000000 0.000000 0.000000 0.047352 0.000000 0.000000
# 5 0.000000 0.000000 0.000000 0.000000 0.051920 0.000000
# 6 0.000000 0.000000 0.000000 0.000000 0.000000 1.588619
#
#
# Mechanical properties :
#
#
# Convention : Reuss Voigt Hill
#
# Bulk Modulus (GPa) = 11.79970 45.98776 28.89373
# Shear Modulus (GPa) = 2.57872 15.72276 9.15074
#
# Velocity S-wave (km/s) = 1.17612 2.90411 2.21552
# Velocity P-wave (km/s) = 2.85899 5.99278 4.69506
#
# Compressibility (1/GPa) = 0.08474794
#
# Stress axis : x y z
#
# Youngs Moduli (GPa) = 9.07483 57.56942 38.15084
#
# Poissons Ratio (x) = 1.22950 0.04625
# Poissons Ratio (y) = 0.19381 0.45573
# Poissons Ratio (z) = 0.01100 0.68770
#
# Static dielectric constant tensor:
#      x y z
#    x 1.642690 0.000000 0.000000 
#    y 0.000000 1.636970 0.000000 
#    z 0.000000 0.000000 1.707530 
# 
# From -- ./inp_files/5057.got.cif
#   From: 2010.05.17/outbox.cif.g08.bks.cpg/sg31_3_cif.got.tgz:5057.got - 2010.06.03 17:08:30.
