data_PCOD9342000
_publ_section_title
;
Structure prediction by ZEFSAII (Michael W. Deem and Ramdas Pophale) SiO2 
 PCOD9342000
Probable space group: P N C 2
;
_chemical_formula_sum "Si O2"
_cell_formula_units_Z 30
_cell_length_a 5.296887
_cell_length_b 26.847051
_cell_length_c 10.142789
_cell_angle_alpha 90.000000
_cell_angle_beta 90.000000
_cell_angle_gamma 90.000000
_cell_volume 1442.363378
_symmetry_space_group_name_H-M "P N C 2"
_symmetry_group_IT_number 30
_symmetry_cell_setting 'orthorhombic'
loop_
_space_group_symop_operation_xyz
x,y,z
-x,-y,z
-x,1/2+y,1/2+z
x,1/2-y,1/2+z
loop_
_atom_site_type_symbol
_atom_site_label
_atom_site_fract_x
_atom_site_fract_y
_atom_site_fract_z
Si Si1 0.119184 0.701518 0.677720
Si Si2 0.292527 0.140655 0.551049
Si Si3 0.622555 0.432071 0.547355
Si Si4 0.000000 0.000000 0.953227
Si Si5 0.383900 0.360671 0.751333
Si Si6 0.920388 0.153311 0.928973
Si Si7 0.718219 0.585783 0.313270
Si Si8 0.783238 0.313965 0.158531
O O1 0.365402 0.673560 0.735111
O O2 0.116801 0.701363 0.517203
O O3 0.140747 0.759517 0.709541
O O4 0.859846 0.673285 0.715559
O O5 0.341881 0.123794 0.402413
O O6 0.311878 0.096588 0.659973
O O7 0.515107 0.179938 0.587436
O O8 0.015062 0.164475 0.572096
O O9 0.774944 0.483445 0.552238
O O10 0.434534 0.408450 0.655427
O O11 0.832770 0.388897 0.531379
O O12 0.506524 0.433775 0.401398
O O13 0.071536 0.045271 0.855667
O O14 0.768443 0.154207 0.793429
O O15 0.197325 0.138414 0.879991
#
# Coordination Sequence:
#
# PCOD9342000 Si02
#       8
#     4   4   4   2   4   4   4   4
#     4  11  23  39  60  91 129 172 225 264 302 368
#     4  11  24  41  63  93 131 177 205 259 332 380
#     4  10  19  40  63  92 125 155 212 258 329 384
#     4  10  22  36  72 104 108 160 210 282 310 406
#     4  11  24  41  63  93 131 177 205 259 332 380
#     4   9  20  35  60  88 122 168 210 261 312 357
#     4  10  19  40  63  92 125 155 212 258 329 384
#     4  11  23  39  60  91 129 172 225 264 302 368
#
# _framework density 20.799198000000001
#
# number of rings (size 3 to 8) (size 9 to 14) (size 15 to 20)
#    0.000    1.600    2.667    2.000    3.733    0.000 
#    0.000    0.000    0.000    4.800    0.000    0.000 
#    0.000    0.000    0.000    0.000    0.000    0.000 
#
# Total GULP energy -167056.528697 kJ/mol
# GULP energy per Si atom -5568.550957 kJ/mol
# Density = 2.075186 g / cm^3
# Si number density = 20.799198 Si / 1000 Ang^3
#
#
#
# Elastic Constant Matrix: (Units=GPa)
#
#
# Indices 1 2 3 4 5 6 
#
# 1 118.7988 20.5092 33.8415 0.0000 0.0000 0.0000
# 2 20.5092 72.3848 32.2372 0.0000 0.0000 0.0000
# 3 33.8415 32.2372 128.7764 0.0000 0.0000 0.0000
# 4 0.0000 0.0000 0.0000 17.4027 0.0000 0.0000
# 5 0.0000 0.0000 0.0000 0.0000 20.4896 0.0000
# 6 0.0000 0.0000 0.0000 0.0000 0.0000 30.3194
#
#
#
# Elastic Compliance Matrix: (Units=1/GPa)
#
#
# Indices 1 2 3 4 5 6 
#
# 1 0.009289 -0.001739 -0.002006 0.000000 0.000000 0.000000
# 2 -0.001739 0.015874 -0.003517 0.000000 0.000000 0.000000
# 3 -0.002006 -0.003517 0.009173 0.000000 0.000000 0.000000
# 4 0.000000 0.000000 0.000000 0.057462 0.000000 0.000000
# 5 0.000000 0.000000 0.000000 0.000000 0.048805 0.000000
# 6 0.000000 0.000000 0.000000 0.000000 0.000000 0.032982
#
#
# Mechanical properties :
#
#
# Convention : Reuss Voigt Hill
#
# Bulk Modulus (GPa) = 50.47134 54.79288 52.63211
# Shear Modulus (GPa) = 25.67883 29.20048 27.43966
#
# Velocity S-wave (km/s) = 3.51751 3.75096 3.63611
# Velocity P-wave (km/s) = 6.38873 6.72016 6.55654
#
# Compressibility (1/GPa) = 0.01981323
#
# Stress axis : x y z
#
# Youngs Moduli (GPa) = 107.65243 62.99624 109.01630
#
# Poissons Ratio (x) = 0.10953 0.21867
# Poissons Ratio (y) = 0.18717 0.38340
# Poissons Ratio (z) = 0.21594 0.22155
#
# Static dielectric constant tensor:
#      x y z
#    x 1.838920 0.000000 0.000000 
#    y 0.000000 1.833580 0.000000 
#    z 0.000000 0.000000 1.776470 
# 
# From -- ./inp_files/1473.got.cif
#   From: 2010.05.17/outbox.cif.g08.bks.cpg/sg30_1_cif.got.tgz:1473.got - 2010.06.03 17:03:02.
