data_PCOD9342363
_publ_section_title
;
Structure prediction by ZEFSAII (Michael W. Deem and Ramdas Pophale) SiO2 
 PCOD9342363
Probable space group: P N C 2
;
_chemical_formula_sum "Si O2"
_cell_formula_units_Z 24
_cell_length_a 9.236643
_cell_length_b 8.439366
_cell_length_c 14.719727
_cell_angle_alpha 90.000000
_cell_angle_beta 90.000000
_cell_angle_gamma 90.000000
_cell_volume 1147.423488
_symmetry_space_group_name_H-M "P N C 2"
_symmetry_group_IT_number 30
_symmetry_cell_setting 'orthorhombic'
loop_
_space_group_symop_operation_xyz
x,y,z
-x,-y,z
-x,1/2+y,1/2+z
x,1/2-y,1/2+z
loop_
_atom_site_type_symbol
_atom_site_label
_atom_site_fract_x
_atom_site_fract_y
_atom_site_fract_z
Si Si1 0.777461 0.842037 0.785890
Si Si2 0.429891 0.327977 0.657222
Si Si3 0.275161 0.844073 0.669526
Si Si4 0.788933 0.620093 0.498335
Si Si5 0.073537 0.669703 0.796579
Si Si6 0.890776 0.257635 0.502387
O O1 0.676677 0.710465 0.740258
O O2 0.749464 0.857250 0.892967
O O3 0.946086 0.796484 0.777645
O O4 0.744042 0.001976 0.731455
O O5 0.500000 0.500000 0.665700
O O6 0.559009 0.200840 0.653519
O O7 0.334446 0.325153 0.566284
O O8 0.200403 0.701736 0.726122
O O9 0.186405 0.852907 0.575755
O O10 0.820994 0.432893 0.510572
O O11 0.938061 0.714418 0.518076
O O12 0.125035 0.695080 0.899868
O O13 0.000000 0.500000 0.786155
#
# Coordination Sequence:
#
# PCOD9342363 Si02
#       6
#     4   4   4   4   4   4
#     4  11  25  46  70  99 137 181 231 286 343 415
#     4  12  25  42  66 100 135 184 226 279 340 416
#     4  12  24  41  69 101 136 179 229 278 347 409
#     4  10  22  45  69  98 139 182 226 280 355 407
#     4  11  24  42  68 104 132 174 231 290 341 402
#     4  10  22  42  72  99 132 177 229 285 341 402
#
# _framework density 20.916429000000001
#
# number of rings (size 3 to 8) (size 9 to 14) (size 15 to 20)
#    0.000    1.000    3.333    3.000    2.333    6.667 
#    0.000    1.667    0.000    0.000    0.000    0.000 
#    0.000    0.000    0.000    0.000    0.000    0.000 
#
# Total GULP energy -134385.934394 kJ/mol
# GULP energy per Si atom -5599.413933 kJ/mol
# Density = 2.086882 g / cm^3
# Si number density = 20.916429 Si / 1000 Ang^3
#
#
#
# Elastic Constant Matrix: (Units=GPa)
#
#
# Indices 1 2 3 4 5 6 
#
# 1 116.5479 28.1731 97.4787 0.0000 0.0000 0.0000
# 2 28.1731 44.3778 32.8180 0.0000 0.0000 0.0000
# 3 97.4787 32.8180 139.8109 0.0000 0.0000 0.0000
# 4 0.0000 0.0000 0.0000 27.9985 0.0000 0.0000
# 5 0.0000 0.0000 0.0000 0.0000 -54.2773 0.0000
# 6 0.0000 0.0000 0.0000 0.0000 0.0000 27.2691
#
#
#
# Elastic Compliance Matrix: (Units=1/GPa)
#
#
# Indices 1 2 3 4 5 6 
#
# 1 0.020912 -0.003017 -0.013872 0.000000 0.000000 0.000000
# 2 -0.003017 0.027702 -0.004399 0.000000 0.000000 0.000000
# 3 -0.013872 -0.004399 0.017857 0.000000 0.000000 0.000000
# 4 0.000000 0.000000 0.000000 0.035716 0.000000 0.000000
# 5 0.000000 0.000000 0.000000 0.000000 -0.018424 0.000000
# 6 0.000000 0.000000 0.000000 0.000000 0.000000 0.036671
#
#
# Mechanical properties :
#
#
# Convention : Reuss Voigt Hill
#
# Bulk Modulus (GPa) = 41.85007 68.63068 55.24037
# Shear Modulus (GPa) = 29.24405 9.68252 19.46328
#
# Velocity S-wave (km/s) = 3.74322 2.15388 3.05376
# Velocity P-wave (km/s) = 6.22366 6.25049 6.23709
#
# Compressibility (1/GPa) = 0.02389483
#
# Stress axis : x y z
#
# Youngs Moduli (GPa) = 47.82046 36.09801 56.00162
#
# Poissons Ratio (x) = 0.10892 0.77683
# Poissons Ratio (y) = 0.14429 0.24634
# Poissons Ratio (z) = 0.66335 0.15879
#
# Static dielectric constant tensor:
#      x y z
#    x 1.731840 0.000000 0.000000 
#    y 0.000000 1.782500 0.000000 
#    z 0.000000 0.000000 1.712820 
# 
# From -- ./inp_files/5022.got.cif
#   From: 2010.05.17/outbox.cif.g08.bks.cpg/sg30_3_cif.got.tgz:5022.got - 2010.06.03 17:03:02.
