data_PCOD9342371
_publ_section_title
;
Structure prediction by ZEFSAII (Michael W. Deem and Ramdas Pophale) SiO2 
 PCOD9342371
Probable space group: P N C 2
;
_chemical_formula_sum "Si O2"
_cell_formula_units_Z 26
_cell_length_a 9.268562
_cell_length_b 11.032487
_cell_length_c 11.803695
_cell_angle_alpha 90.000000
_cell_angle_beta 90.000000
_cell_angle_gamma 90.000000
_cell_volume 1206.990253
_symmetry_space_group_name_H-M "P N C 2"
_symmetry_group_IT_number 30
_symmetry_cell_setting 'orthorhombic'
loop_
_space_group_symop_operation_xyz
x,y,z
-x,-y,z
-x,1/2+y,1/2+z
x,1/2-y,1/2+z
loop_
_atom_site_type_symbol
_atom_site_label
_atom_site_fract_x
_atom_site_fract_y
_atom_site_fract_z
Si Si1 0.632272 0.928331 0.245660
Si Si2 0.125819 0.588577 0.867806
Si Si3 0.609504 0.855917 0.490095
Si Si4 0.925596 0.177614 0.743238
Si Si5 0.685769 0.127237 0.570315
Si Si6 0.000000 0.000000 0.945959
Si Si7 0.847018 0.786416 0.087343
O O1 0.563641 0.872360 0.359981
O O2 0.723371 0.833828 0.172992
O O3 0.500000 0.000000 0.187071
O O4 0.753925 0.018055 0.296008
O O5 0.056429 0.686586 0.787216
O O6 0.000000 0.500000 0.909594
O O7 0.206443 0.658078 0.968205
O O8 0.469041 0.809974 0.557034
O O9 0.752895 0.777409 0.490309
O O10 0.653658 0.984527 0.547106
O O11 0.773527 0.155193 0.682284
O O12 0.928860 0.089649 0.851634
O O13 0.052730 0.183671 0.647806
O O14 0.077314 0.096408 0.030529
#
# Coordination Sequence:
#
# PCOD9342371 Si02
#       7
#     4   4   4   4   4   2   4
#     4  11  22  43  66  93 128 175 229 276 346 418
#     4  11  22  41  66  95 128 175 234 278 340 419
#     4  10  22  43  65  98 133 177 232 285 344 440
#     4  12  25  43  69  97 140 185 225 301 351 410
#     4  10  23  40  67  99 131 177 238 277 357 422
#     4  12  28  46  64 116 142 178 258 292 354 448
#     4  12  25  43  70  96 142 184 231 296 360 412
#
# _framework density 21.541184000000001
#
# number of rings (size 3 to 8) (size 9 to 14) (size 15 to 20)
#    0.000    0.923    4.615    3.692    9.692    0.000 
#    0.000    1.538    0.000    0.000    0.000    0.000 
#    0.000    0.000    0.000    0.000    0.000    0.000 
#
# Total GULP energy -144974.684013 kJ/mol
# GULP energy per Si atom -5575.949385 kJ/mol
# Density = 2.149216 g / cm^3
# Si number density = 21.541184 Si / 1000 Ang^3
#
#
#
# Elastic Constant Matrix: (Units=GPa)
#
#
# Indices 1 2 3 4 5 6 
#
# 1 95.4070 12.2141 23.1991 0.0000 0.0000 0.0000
# 2 12.2141 37.2488 7.1069 0.0000 0.0000 0.0000
# 3 23.1991 7.1069 67.7523 0.0000 0.0000 0.0000
# 4 0.0000 0.0000 0.0000 23.2576 0.0000 0.0000
# 5 0.0000 0.0000 0.0000 0.0000 37.5339 0.0000
# 6 0.0000 0.0000 0.0000 0.0000 0.0000 43.8937
#
#
#
# Elastic Compliance Matrix: (Units=1/GPa)
#
#
# Indices 1 2 3 4 5 6 
#
# 1 0.011787 -0.003158 -0.003705 0.000000 0.000000 0.000000
# 2 -0.003158 0.028241 -0.001881 0.000000 0.000000 0.000000
# 3 -0.003705 -0.001881 0.016225 0.000000 0.000000 0.000000
# 4 0.000000 0.000000 0.000000 0.042997 0.000000 0.000000
# 5 0.000000 0.000000 0.000000 0.000000 0.026643 0.000000
# 6 0.000000 0.000000 0.000000 0.000000 0.000000 0.022782
#
#
# Mechanical properties :
#
#
# Convention : Reuss Voigt Hill
#
# Bulk Modulus (GPa) = 25.79602 31.71648 28.75625
# Shear Modulus (GPa) = 27.91994 31.46291 29.69142
#
# Velocity S-wave (km/s) = 3.60407 3.82592 3.71665
# Velocity P-wave (km/s) = 5.41482 5.85427 5.63883
#
# Compressibility (1/GPa) = 0.03876567
#
# Stress axis : x y z
#
# Youngs Moduli (GPa) = 84.84282 35.40960 61.63161
#
# Poissons Ratio (x) = 0.11182 0.22832
# Poissons Ratio (y) = 0.26794 0.11593
# Poissons Ratio (z) = 0.31431 0.06661
#
# Static dielectric constant tensor:
#      x y z
#    x 1.839240 0.000000 0.000000 
#    y 0.000000 1.813070 0.000000 
#    z 0.000000 0.000000 1.801230 
# 
# From -- ./inp_files/3661.got.cif
#   From: 2010.05.17/outbox.cif.g08.bks.cpg/sg30_2_cif.got.tgz:3661.got - 2010.06.03 17:03:02.
