data_PCOD9342560
_publ_section_title
;
Structure prediction by ZEFSAII (Michael W. Deem and Ramdas Pophale) SiO2 
 PCOD9342560
Probable space group: P N C 2
;
_chemical_formula_sum "Si O2"
_cell_formula_units_Z 20
_cell_length_a 8.191723
_cell_length_b 7.079687
_cell_length_c 14.937107
_cell_angle_alpha 90.000000
_cell_angle_beta 90.000000
_cell_angle_gamma 90.000000
_cell_volume 866.275053
_symmetry_space_group_name_H-M "P N C 2"
_symmetry_group_IT_number 30
_symmetry_cell_setting 'orthorhombic'
loop_
_space_group_symop_operation_xyz
x,y,z
-x,-y,z
-x,1/2+y,1/2+z
x,1/2-y,1/2+z
loop_
_atom_site_type_symbol
_atom_site_label
_atom_site_fract_x
_atom_site_fract_y
_atom_site_fract_z
Si Si1 0.500000 0.500000 0.406130
Si Si2 0.839461 0.089542 0.245951
Si Si3 0.582030 0.801427 0.258966
Si Si4 0.154044 0.858878 0.909565
Si Si5 0.146003 0.867419 0.579817
Si Si6 0.500000 0.000000 0.613544
O O1 0.571606 0.665820 0.343126
O O2 0.670940 0.435021 0.450526
O O3 0.791019 0.250131 0.318797
O O4 0.845073 0.199362 0.152494
O O5 0.750728 0.889509 0.228958
O O6 0.000000 0.000000 0.287076
O O7 0.511404 0.683422 0.177149
O O8 0.500000 0.000000 0.282372
O O9 0.094478 0.714969 0.984551
O O10 0.000000 0.000000 0.892069
O O11 0.322761 0.971478 0.568244
O O12 0.000000 0.000000 0.613089
#
# Coordination Sequence:
#
# PCOD9342560 Si02
#       6
#     2   4   4   4   4   2
#     4  11  24  44  72 105 144 182 234 295 352 421
#     4  12  23  43  74  98 141 189 228 291 361 409
#     4  11  20  42  73 108 138 174 241 282 347 439
#     4  12  27  46  68 104 143 184 239 295 349 427
#     4  12  27  46  68 104 143 184 239 295 349 427
#     4  11  24  44  72 105 144 182 234 295 352 421
#
# _framework density 23.087356
#
# number of rings (size 3 to 8) (size 9 to 14) (size 15 to 20)
#    0.000    0.400    4.000    5.400    0.000    4.800 
#    0.000    0.000    0.000    0.000    0.000    0.000 
#    0.000    0.000    0.000    0.000    0.000    0.000 
#
# Total GULP energy -111403.382366 kJ/mol
# GULP energy per Si atom -5570.169118 kJ/mol
# Density = 2.303481 g / cm^3
# Si number density = 23.087356 Si / 1000 Ang^3
#
#
#
# Elastic Constant Matrix: (Units=GPa)
#
#
# Indices 1 2 3 4 5 6 
#
# 1 109.8298 34.8599 -10.9071 0.0000 0.0000 0.0000
# 2 34.8599 121.1085 20.5477 0.0000 0.0000 0.0000
# 3 -10.9071 20.5477 69.2683 0.0000 0.0000 0.0000
# 4 0.0000 0.0000 0.0000 10.7493 0.0000 0.0000
# 5 0.0000 0.0000 0.0000 0.0000 16.2674 0.0000
# 6 0.0000 0.0000 0.0000 0.0000 0.0000 52.7324
#
#
#
# Elastic Compliance Matrix: (Units=1/GPa)
#
#
# Indices 1 2 3 4 5 6 
#
# 1 0.010472 -0.003469 0.002678 0.000000 0.000000 0.000000
# 2 -0.003469 0.009844 -0.003466 0.000000 0.000000 0.000000
# 3 0.002678 -0.003466 0.015886 0.000000 0.000000 0.000000
# 4 0.000000 0.000000 0.000000 0.093030 0.000000 0.000000
# 5 0.000000 0.000000 0.000000 0.000000 0.061473 0.000000
# 6 0.000000 0.000000 0.000000 0.000000 0.000000 0.018964
#
#
# Mechanical properties :
#
#
# Convention : Reuss Voigt Hill
#
# Bulk Modulus (GPa) = 36.11660 43.24528 39.68094
# Shear Modulus (GPa) = 21.98666 32.99690 27.49178
#
# Velocity S-wave (km/s) = 3.08932 3.78460 3.45450
# Velocity P-wave (km/s) = 5.32941 6.15382 5.75639
#
# Compressibility (1/GPa) = 0.02768810
#
# Stress axis : x y z
#
# Youngs Moduli (GPa) = 95.49421 101.58972 62.94672
#
# Poissons Ratio (x) = 0.35237 -0.16856
# Poissons Ratio (y) = 0.33123 0.21818
# Poissons Ratio (z) = -0.25572 0.35212
#
# Static dielectric constant tensor:
#      x y z
#    x 1.498430 0.000000 0.000000 
#    y 0.000000 1.833510 0.000000 
#    z 0.000000 0.000000 1.769180 
# 
# From -- ./inp_files/6211.got.cif
#   From: 2010.05.17/outbox.cif.g08.bks.cpg/sg30_4_cif.got.tgz:6211.got - 2010.06.03 17:03:02.
