data_PCOD9342486
_publ_section_title
;
Structure prediction by ZEFSAII (Michael W. Deem and Ramdas Pophale) SiO2 
 PCOD9342486
Probable space group: P N C 2
;
_chemical_formula_sum "Si O2"
_cell_formula_units_Z 28
_cell_length_a 5.296557
_cell_length_b 11.569251
_cell_length_c 20.067983
_cell_angle_alpha 90.000000
_cell_angle_beta 90.000000
_cell_angle_gamma 90.000000
_cell_volume 1229.709755
_symmetry_space_group_name_H-M "P N C 2"
_symmetry_group_IT_number 30
_symmetry_cell_setting 'orthorhombic'
loop_
_space_group_symop_operation_xyz
x,y,z
-x,-y,z
-x,1/2+y,1/2+z
x,1/2-y,1/2+z
loop_
_atom_site_type_symbol
_atom_site_label
_atom_site_fract_x
_atom_site_fract_y
_atom_site_fract_z
Si Si1 0.455231 0.268289 0.396700
Si Si2 0.846170 0.152648 0.214669
Si Si3 0.934609 0.698930 0.103596
Si Si4 0.000000 0.500000 0.206248
Si Si5 0.500000 0.500000 0.642038
Si Si6 0.956891 0.132415 0.367436
Si Si7 0.551792 0.216605 0.042919
Si Si8 0.594549 0.373247 0.260639
O O1 0.675675 0.173130 0.386192
O O2 0.531426 0.324177 0.466830
O O3 0.478311 0.350014 0.331999
O O4 0.178622 0.211935 0.396980
O O5 0.029810 0.197922 0.157150
O O6 0.965524 0.144993 0.287237
O O7 0.617110 0.251961 0.220425
O O8 0.724839 0.032503 0.192319
O O9 0.893949 0.589943 0.151429
O O10 0.194364 0.712428 0.061404
O O11 0.694678 0.707362 0.056913
O O12 0.113459 0.592182 0.258431
O O13 0.482009 0.608676 0.592328
O O14 0.000000 0.000000 0.386301
O O15 0.500000 0.500000 0.233102
#
# Coordination Sequence:
#
# PCOD9342486 Si02
#       8
#     4   4   4   2   2   4   4   4
#     4  11  26  47  67 103 138 185 241 277 346 424
#     4   9  23  40  69 106 137 169 238 282 363 405
#     4  10  24  43  68  99 136 178 227 285 342 415
#     4  10  24  42  68 108 128 182 228 286 364 402
#     4  10  24  42  74 102 138 188 220 300 338 418
#     4  11  25  44  73 103 137 182 228 301 351 404
#     4  11  25  47  65  98 137 187 232 280 339 414
#     4  10  24  40  72  99 140 181 220 301 343 412
#
# _framework density 22.769601000000002
#
# number of rings (size 3 to 8) (size 9 to 14) (size 15 to 20)
#    0.000    1.714    0.000    1.286   19.000    2.857 
#    7.714    0.000    0.000    0.000    0.000    0.000 
#    0.000    0.000    0.000    0.000    0.000    0.000 
#
# Total GULP energy -155989.519492 kJ/mol
# GULP energy per Si atom -5571.054268 kJ/mol
# Density = 2.271778 g / cm^3
# Si number density = 22.769601 Si / 1000 Ang^3
#
#
#
# Elastic Constant Matrix: (Units=GPa)
#
#
# Indices 1 2 3 4 5 6 
#
# 1 86.5773 16.6966 11.8808 0.0000 0.0000 0.0000
# 2 16.6966 84.6745 -1.2433 0.0000 0.0000 0.0000
# 3 11.8808 -1.2433 74.7584 0.0000 0.0000 0.0000
# 4 0.0000 0.0000 0.0000 12.3212 0.0000 0.0000
# 5 0.0000 0.0000 0.0000 0.0000 6.5219 0.0000
# 6 0.0000 0.0000 0.0000 0.0000 0.0000 11.9227
#
#
#
# Elastic Compliance Matrix: (Units=1/GPa)
#
#
# Indices 1 2 3 4 5 6 
#
# 1 0.012297 -0.002454 -0.001995 0.000000 0.000000 0.000000
# 2 -0.002454 0.012303 0.000595 0.000000 0.000000 0.000000
# 3 -0.001995 0.000595 0.013703 0.000000 0.000000 0.000000
# 4 0.000000 0.000000 0.000000 0.081161 0.000000 0.000000
# 5 0.000000 0.000000 0.000000 0.000000 0.153329 0.000000
# 6 0.000000 0.000000 0.000000 0.000000 0.000000 0.083874
#
#
# Mechanical properties :
#
#
# Convention : Reuss Voigt Hill
#
# Bulk Modulus (GPa) = 32.68613 33.40872 33.04742
# Shear Modulus (GPa) = 13.34849 20.73158 17.04003
#
# Velocity S-wave (km/s) = 2.42387 3.02071 2.73860
# Velocity P-wave (km/s) = 4.71379 5.18369 4.95432
#
# Compressibility (1/GPa) = 0.03059402
#
# Stress axis : x y z
#
# Youngs Moduli (GPa) = 81.31764 81.28373 72.97460
#
# Poissons Ratio (x) = 0.19948 0.14560
# Poissons Ratio (y) = 0.19957 -0.04339
# Poissons Ratio (z) = 0.16224 -0.04833
#
# Static dielectric constant tensor:
#      x y z
#    x 4.088820 0.000000 0.000000 
#    y 0.000000 1.950570 0.000000 
#    z 0.000000 0.000000 1.851980 
# 
# From -- ./inp_files/6837.got.cif
#   From: 2010.05.17/outbox.cif.g08.bks.cpg/sg30_4_cif.got.tgz:6837.got - 2010.06.03 17:03:02.
