data_PCOD9342538
_publ_section_title
;
Structure prediction by ZEFSAII (Michael W. Deem and Ramdas Pophale) SiO2 
 PCOD9342538
Probable space group: P N C 2
;
_chemical_formula_sum "Si O2"
_cell_formula_units_Z 16
_cell_length_a 4.704929
_cell_length_b 21.205085
_cell_length_c 5.911085
_cell_angle_alpha 90.000000
_cell_angle_beta 90.000000
_cell_angle_gamma 90.000000
_cell_volume 589.739607
_symmetry_space_group_name_H-M "P N C 2"
_symmetry_group_IT_number 30
_symmetry_cell_setting 'orthorhombic'
loop_
_space_group_symop_operation_xyz
x,y,z
-x,-y,z
-x,1/2+y,1/2+z
x,1/2-y,1/2+z
loop_
_atom_site_type_symbol
_atom_site_label
_atom_site_fract_x
_atom_site_fract_y
_atom_site_fract_z
Si Si1 0.358573 0.614829 0.783610
Si Si2 0.113037 0.358593 0.080656
Si Si3 0.326410 0.756084 0.072048
Si Si4 0.726486 0.541929 0.435302
O O1 0.252038 0.670831 0.620046
O O2 0.532641 0.565140 0.641547
O O3 0.088785 0.595797 0.929924
O O4 0.583740 0.644485 0.960158
O O5 0.944415 0.291940 0.073701
O O6 0.167618 0.395385 0.310510
O O7 0.463835 0.739866 0.319639
O O8 0.500000 0.500000 0.291431
O O9 0.000000 0.500000 0.487258
#
# Coordination Sequence:
#
# PCOD9342538 Si02
#       4
#     4   4   4   4
#     4  11  27  50  79 119 159 211 274 343 424 504
#     4  11  27  50  79 119 159 211 274 343 424 504
#     4  10  26  46  80 118 164 208 264 344 418 508
#     4  12  28  50  84 112 164 222 284 352 420 514
#
# _framework density 27.130613
#
# number of rings (size 3 to 8) (size 9 to 14) (size 15 to 20)
#    0.000    1.000    0.000    3.000   17.500   12.000 
#    4.500    0.000    0.000    0.000    0.000    0.000 
#    0.000    0.000    0.000    0.000    0.000    0.000 
#
# Total GULP energy -89447.160466 kJ/mol
# GULP energy per Si atom -5590.447529 kJ/mol
# Density = 2.706886 g / cm^3
# Si number density = 27.130613 Si / 1000 Ang^3
#
#
#
# Elastic Constant Matrix: (Units=GPa)
#
#
# Indices 1 2 3 4 5 6 
#
# 1 157.1968 32.7966 35.3935 0.0000 0.0000 0.0000
# 2 32.7966 124.0649 35.6887 0.0000 0.0000 0.0000
# 3 35.3935 35.6887 144.9095 0.0000 0.0000 0.0000
# 4 0.0000 0.0000 0.0000 27.3015 0.0000 0.0000
# 5 0.0000 0.0000 0.0000 0.0000 0.0930 0.0000
# 6 0.0000 0.0000 0.0000 0.0000 0.0000 59.0020
#
#
#
# Elastic Compliance Matrix: (Units=1/GPa)
#
#
# Indices 1 2 3 4 5 6 
#
# 1 0.006968 -0.001455 -0.001343 0.000000 0.000000 0.000000
# 2 -0.001455 0.008979 -0.001856 0.000000 0.000000 0.000000
# 3 -0.001343 -0.001856 0.007686 0.000000 0.000000 0.000000
# 4 0.000000 0.000000 0.000000 0.036628 0.000000 0.000000
# 5 0.000000 0.000000 0.000000 0.000000 10.756429 0.000000
# 6 0.000000 0.000000 0.000000 0.000000 0.000000 0.016949
#
#
# Mechanical properties :
#
#
# Convention : Reuss Voigt Hill
#
# Bulk Modulus (GPa) = 69.81686 70.43655 70.12671
# Shear Modulus (GPa) = 0.46093 38.76545 19.61319
#
# Velocity S-wave (km/s) = 0.41263 3.78411 2.69163
# Velocity P-wave (km/s) = 5.10064 6.71647 5.96354
#
# Compressibility (1/GPa) = 0.01432319
#
# Stress axis : x y z
#
# Youngs Moduli (GPa) = 143.52213 111.37218 130.10614
#
# Poissons Ratio (x) = 0.16210 0.17478
# Poissons Ratio (y) = 0.20889 0.24146
# Poissons Ratio (z) = 0.19280 0.20669
#
# Static dielectric constant tensor:
#      x y z
#    x 2.043470 0.000000 0.000000 
#    y 0.000000 2.376210 0.000000 
#    z 0.000000 0.000000 2.151060 
# 
# From -- ./inp_files/140.got.cif
#   From: 2010.05.17/outbox.cif.g08.bks.cpg/sg30_1_cif.got.tgz:140.got - 2010.06.03 17:03:02.
