data_PCOD9342349
_publ_section_title
;
Structure prediction by ZEFSAII (Michael W. Deem and Ramdas Pophale) SiO2 
 PCOD9342349
Probable space group: P N C 2
;
_chemical_formula_sum "Si O2"
_cell_formula_units_Z 32
_cell_length_a 14.401869
_cell_length_b 10.725834
_cell_length_c 8.397292
_cell_angle_alpha 90.000000
_cell_angle_beta 90.000000
_cell_angle_gamma 90.000000
_cell_volume 1297.146962
_symmetry_space_group_name_H-M "P N C 2"
_symmetry_group_IT_number 30
_symmetry_cell_setting 'orthorhombic'
loop_
_space_group_symop_operation_xyz
x,y,z
-x,-y,z
-x,1/2+y,1/2+z
x,1/2-y,1/2+z
loop_
_atom_site_type_symbol
_atom_site_label
_atom_site_fract_x
_atom_site_fract_y
_atom_site_fract_z
Si Si1 0.350167 0.107733 0.518880
Si Si2 0.631600 0.383949 0.411427
Si Si3 0.432796 0.864733 0.567355
Si Si4 0.816966 0.205836 0.734728
Si Si5 0.760913 0.675922 0.327552
Si Si6 0.083997 0.351755 0.739237
Si Si7 0.044393 0.708840 0.004916
Si Si8 0.224969 0.523775 0.589225
O O1 0.460769 0.130303 0.511123
O O2 0.292531 0.208251 0.415633
O O3 0.310042 0.123336 0.696880
O O4 0.356545 0.958535 0.486651
O O5 0.597935 0.271563 0.519278
O O6 0.728132 0.351960 0.319290
O O7 0.663956 0.486352 0.543173
O O8 0.566627 0.394464 0.256936
O O9 0.890951 0.230343 0.871960
O O10 0.881407 0.132157 0.609713
O O11 0.786030 0.331833 0.642569
O O12 0.849147 0.732493 0.239245
O O13 0.802623 0.570536 0.443808
O O14 0.155826 0.463301 0.717055
O O15 0.033960 0.362033 0.908250
O O16 0.005561 0.318548 0.608234
#
# Coordination Sequence:
#
# PCOD9342349 Si02
#       8
#     4   4   4   4   4   4   4   4
#     4  11  25  43  69 101 137 179 228 283 339 403
#     4  12  23  45  68  99 136 180 228 276 341 412
#     4  11  25  43  69 101 137 179 228 283 339 403
#     4  11  23  44  67  96 134 178 224 278 335 405
#     4  12  23  45  68  99 136 180 228 276 341 412
#     4  11  23  44  67  96 134 178 224 278 335 405
#     4  10  22  42  66  94 136 170 224 278 334 390
#     4  12  24  41  73  96 132 186 218 278 347 399
#
# _framework density 24.669523000000002
#
# number of rings (size 3 to 8) (size 9 to 14) (size 15 to 20)
#    0.000    0.750    6.250    0.750    1.750    2.000 
#    0.000    1.250    0.000    0.000    0.000    0.000 
#    0.000    0.000    0.000    0.000    0.000    0.000 
#
# Total GULP energy -178164.268203 kJ/mol
# GULP energy per Si atom -5567.633381 kJ/mol
# Density = 2.461337 g / cm^3
# Si number density = 24.669523 Si / 1000 Ang^3
#
#
#
# Elastic Constant Matrix: (Units=GPa)
#
#
# Indices 1 2 3 4 5 6 
#
# 1 84.1489 6.4618 27.8279 0.0000 0.0000 0.0000
# 2 6.4618 43.1732 1.8782 0.0000 0.0000 0.0000
# 3 27.8279 1.8782 76.8107 0.0000 0.0000 0.0000
# 4 0.0000 0.0000 0.0000 9.7270 0.0000 0.0000
# 5 0.0000 0.0000 0.0000 0.0000 20.4074 0.0000
# 6 0.0000 0.0000 0.0000 0.0000 0.0000 37.9646
#
#
#
# Elastic Compliance Matrix: (Units=1/GPa)
#
#
# Indices 1 2 3 4 5 6 
#
# 1 0.013644 -0.001829 -0.004898 0.000000 0.000000 0.000000
# 2 -0.001829 0.023432 0.000090 0.000000 0.000000 0.000000
# 3 -0.004898 0.000090 0.014791 0.000000 0.000000 0.000000
# 4 0.000000 0.000000 0.000000 0.102807 0.000000 0.000000
# 5 0.000000 0.000000 0.000000 0.000000 0.049002 0.000000
# 6 0.000000 0.000000 0.000000 0.000000 0.000000 0.026340
#
#
# Mechanical properties :
#
#
# Convention : Reuss Voigt Hill
#
# Bulk Modulus (GPa) = 25.91184 30.71871 28.31528
# Shear Modulus (GPa) = 19.51932 24.81745 22.16839
#
# Velocity S-wave (km/s) = 2.81594 3.17519 3.00094
# Velocity P-wave (km/s) = 4.59337 5.09132 4.84874
#
# Compressibility (1/GPa) = 0.03859239
#
# Stress axis : x y z
#
# Youngs Moduli (GPa) = 73.29201 42.67602 67.60647
#
# Poissons Ratio (x) = 0.07806 0.33116
# Poissons Ratio (y) = 0.13405 -0.00606
# Poissons Ratio (z) = 0.35901 -0.00383
#
# Static dielectric constant tensor:
#      x y z
#    x 1.982890 0.000000 0.000000 
#    y 0.000000 2.099570 0.000000 
#    z 0.000000 0.000000 2.090450 
# 
# From -- ./inp_files/2720.got.cif
#   From: 2010.05.17/outbox.cif.g08.bks.cpg/sg30_2_cif.got.tgz:2720.got - 2010.06.03 17:03:02.
