data_PCOD9342731
_publ_section_title
;
Structure prediction by ZEFSAII (Michael W. Deem and Ramdas Pophale) SiO2 
 PCOD9342731
Probable space group: P M N 21
;
_chemical_formula_sum "Si O2"
_cell_formula_units_Z 32
_cell_length_a 7.626209
_cell_length_b 10.945181
_cell_length_c 14.555056
_cell_angle_alpha 90.000000
_cell_angle_beta 90.000000
_cell_angle_gamma 90.000000
_cell_volume 1214.913986
_symmetry_space_group_name_H-M "P M N 21"
_symmetry_group_IT_number 31
_symmetry_cell_setting 'orthorhombic'
loop_
_space_group_symop_operation_xyz
x,y,z
1/2-x,-y,1/2+z
-x,y,z
1/2+x,-y,1/2+z
loop_
_atom_site_type_symbol
_atom_site_label
_atom_site_fract_x
_atom_site_fract_y
_atom_site_fract_z
Si Si1 0.294960 0.285831 0.640370
Si Si2 0.793829 0.065943 0.424684
Si Si3 0.296217 0.580153 0.967410
Si Si4 0.796926 0.555965 0.296238
Si Si5 0.211838 0.340521 0.082943
Si Si6 0.297564 0.977958 0.127668
Si Si7 0.710068 0.798620 0.405541
Si Si8 0.796347 0.201652 0.252795
O O1 0.500000 0.275349 0.661300
O O2 0.277486 0.315203 0.532603
O O3 0.222348 0.400965 0.698723
O O4 0.206879 0.159299 0.667589
O O5 0.716845 0.044492 0.526173
O O6 0.000000 0.094485 0.437979
O O7 0.778545 0.931416 0.380050
O O8 0.719891 0.163122 0.351482
O O9 0.500000 0.606809 0.954480
O O10 0.278722 0.458586 0.029775
O O11 0.220115 0.542259 0.867967
O O12 0.789318 0.685269 0.350478
O O13 0.000000 0.520964 0.281482
O O14 0.000000 0.352974 0.087435
O O15 0.276471 0.305818 0.184616
O O16 0.251403 0.229900 0.012631
O O17 0.500000 0.016378 0.119143
O O18 0.208376 0.078675 0.190690
O O19 0.500000 0.794849 0.394812
O O20 0.000000 0.231736 0.268585
#
# Coordination Sequence:
#
# PCOD9342731 Si02
#       8
#     4   4   4   4   4   4   4   4
#     4  11  23  41  62  84 115 155 194 232 284 349
#     4  10  21  35  53  79 115 156 190 225 280 346
#     4  10  21  39  62  86 113 144 187 241 288 333
#     4   9  20  38  60  85 112 150 192 231 283 345
#     4   9  18  34  56  80 108 143 186 231 279 333
#     4  11  23  38  57  86 121 154 191 240 289 334
#     4  10  18  30  54  84 112 143 185 239 279 320
#     4  10  20  37  58  82 114 155 195 229 278 346
#
# _framework density 26.339312
#
# number of rings (size 3 to 8) (size 9 to 14) (size 15 to 20)
#    0.000    2.000    1.250    2.250    0.000    6.500 
#    2.250    0.000    0.000    0.000    0.000    0.000 
#    0.000    0.000    0.000    0.000    0.000    0.000 
#
# Total GULP energy -179003.114033 kJ/mol
# GULP energy per Si atom -5593.847314 kJ/mol
# Density = 2.627936 g / cm^3
# Si number density = 26.339312 Si / 1000 Ang^3
#
#
#
# Elastic Constant Matrix: (Units=GPa)
#
#
# Indices 1 2 3 4 5 6 
#
# 1 68.1522 -0.2279 4.1140 0.0000 0.0000 0.0000
# 2 -0.2279 114.1849 27.2204 0.0000 0.0000 0.0000
# 3 4.1140 27.2204 166.9997 0.0000 0.0000 0.0000
# 4 0.0000 0.0000 0.0000 60.7597 0.0000 0.0000
# 5 0.0000 0.0000 0.0000 0.0000 20.4354 0.0000
# 6 0.0000 0.0000 0.0000 0.0000 0.0000 33.0249
#
#
#
# Elastic Compliance Matrix: (Units=1/GPa)
#
#
# Indices 1 2 3 4 5 6 
#
# 1 0.014696 0.000120 -0.000382 0.000000 0.000000 0.000000
# 2 0.000120 0.009113 -0.001488 0.000000 0.000000 0.000000
# 3 -0.000382 -0.001488 0.006240 0.000000 0.000000 0.000000
# 4 0.000000 0.000000 0.000000 0.016458 0.000000 0.000000
# 5 0.000000 0.000000 0.000000 0.000000 0.048935 0.000000
# 6 0.000000 0.000000 0.000000 0.000000 0.000000 0.030280
#
#
# Mechanical properties :
#
#
# Convention : Reuss Voigt Hill
#
# Bulk Modulus (GPa) = 37.66484 45.72776 41.69630
# Shear Modulus (GPa) = 36.21305 44.05935 40.13620
#
# Velocity S-wave (km/s) = 3.71194 4.09438 3.90784
# Velocity P-wave (km/s) = 5.71859 6.30481 6.01884
#
# Compressibility (1/GPa) = 0.02654996
#
# Stress axis : x y z
#
# Youngs Moduli (GPa) = 68.04348 109.73619 160.25576
#
# Poissons Ratio (x) = -0.01320 0.06116
# Poissons Ratio (y) = -0.00819 0.23851
# Poissons Ratio (z) = 0.02597 0.16332
#
# Static dielectric constant tensor:
#      x y z
#    x 1.943740 0.000000 0.000000 
#    y 0.000000 2.069900 0.000000 
#    z 0.000000 0.000000 2.146240 
# 
# From -- ./inp_files/5032.got.cif
#   From: 2010.05.17/outbox.cif.g08.bks.cpg/sg31_3_cif.got.tgz:5032.got - 2010.06.03 17:08:30.
