data_PCOD9342066
_publ_section_title
;
Structure prediction by ZEFSAII (Michael W. Deem and Ramdas Pophale) SiO2 
 PCOD9342066
Probable space group: P N C 2
;
_chemical_formula_sum "Si O2"
_cell_formula_units_Z 28
_cell_length_a 8.754206
_cell_length_b 9.117742
_cell_length_c 18.186546
_cell_angle_alpha 90.000000
_cell_angle_beta 90.000000
_cell_angle_gamma 90.000000
_cell_volume 1451.624490
_symmetry_space_group_name_H-M "P N C 2"
_symmetry_group_IT_number 30
_symmetry_cell_setting 'orthorhombic'
loop_
_space_group_symop_operation_xyz
x,y,z
-x,-y,z
-x,1/2+y,1/2+z
x,1/2-y,1/2+z
loop_
_atom_site_type_symbol
_atom_site_label
_atom_site_fract_x
_atom_site_fract_y
_atom_site_fract_z
Si Si1 0.693097 0.202809 0.176800
Si Si2 0.177263 0.980374 0.628094
Si Si3 0.227068 0.829527 0.471360
Si Si4 0.350211 0.286206 0.623766
Si Si5 0.500000 0.000000 0.399691
Si Si6 0.281672 0.065122 0.277495
Si Si7 0.000000 0.000000 0.364973
Si Si8 0.824380 0.037418 0.045611
O O1 0.743747 0.369628 0.185657
O O2 0.534015 0.204609 0.130639
O O3 0.685520 0.102154 0.248981
O O4 0.814689 0.121678 0.124148
O O5 0.182744 0.899949 0.549399
O O6 0.275481 0.127116 0.617219
O O7 0.000000 0.000000 0.647599
O O8 0.230563 0.655164 0.485124
O O9 0.388238 0.898139 0.446802
O O10 0.100263 0.889151 0.414275
O O11 0.302245 0.342296 0.704561
O O12 0.280254 0.394719 0.561915
O O13 0.604826 0.905241 0.344648
O O14 0.115983 0.082060 0.311489
O O15 0.000000 0.000000 0.030568
#
# Coordination Sequence:
#
# PCOD9342066 Si02
#       8
#     4   4   4   4   2   4   2   4
#     4  10  21  37  59  94 120 153 202 259 310 364
#     4  11  23  37  61  92 125 155 200 259 319 365
#     4  10  22  39  60  89 120 158 211 243 308 365
#     4  11  21  37  63  92 121 154 199 263 317 360
#     4  10  20  40  62  82 118 168 200 252 284 378
#     4  10  20  38  63  86 115 153 214 242 306 360
#     4  10  22  36  62  80 120 168 202 246 290 372
#     4  10  21  36  61  90 124 153 197 259 307 364
#
# _framework density 19.288734999999999
#
# number of rings (size 3 to 8) (size 9 to 14) (size 15 to 20)
#    0.000    1.714    2.143    3.429   10.000    0.000 
#    0.000    0.000    6.286    1.714    0.000    0.000 
#    0.000    0.000    0.000    0.000    0.000    0.000 
#
# Total GULP energy -156132.146555 kJ/mol
# GULP energy per Si atom -5576.148091 kJ/mol
# Density = 1.924483 g / cm^3
# Si number density = 19.288735 Si / 1000 Ang^3
#
#
#
# Elastic Constant Matrix: (Units=GPa)
#
#
# Indices 1 2 3 4 5 6 
#
# 1 119.0950 34.3491 19.2455 0.0000 0.0000 0.0000
# 2 34.3491 115.3451 8.7198 0.0000 0.0000 0.0000
# 3 19.2455 8.7198 25.6390 0.0000 0.0000 0.0000
# 4 0.0000 0.0000 0.0000 3.1715 0.0000 0.0000
# 5 0.0000 0.0000 0.0000 0.0000 21.5340 0.0000
# 6 0.0000 0.0000 0.0000 0.0000 0.0000 23.9315
#
#
#
# Elastic Compliance Matrix: (Units=1/GPa)
#
#
# Indices 1 2 3 4 5 6 
#
# 1 0.010228 -0.002531 -0.006817 0.000000 0.000000 0.000000
# 2 -0.002531 0.009524 -0.001340 0.000000 0.000000 0.000000
# 3 -0.006817 -0.001340 0.044576 0.000000 0.000000 0.000000
# 4 0.000000 0.000000 0.000000 0.315313 0.000000 0.000000
# 5 0.000000 0.000000 0.000000 0.000000 0.046438 0.000000
# 6 0.000000 0.000000 0.000000 0.000000 0.000000 0.041786
#
#
# Mechanical properties :
#
#
# Convention : Reuss Voigt Hill
#
# Bulk Modulus (GPa) = 23.28076 42.74531 33.01304
# Shear Modulus (GPa) = 9.92934 22.91170 16.42052
#
# Velocity S-wave (km/s) = 2.27133 3.45023 2.92087
# Velocity P-wave (km/s) = 4.35596 6.17098 5.34113
#
# Compressibility (1/GPa) = 0.04295392
#
# Stress axis : x y z
#
# Youngs Moduli (GPa) = 97.76976 104.99243 22.43369
#
# Poissons Ratio (x) = 0.26569 0.15293
# Poissons Ratio (y) = 0.24741 0.03006
# Poissons Ratio (z) = 0.66649 0.14067
#
# Static dielectric constant tensor:
#      x y z
#    x 1.726210 0.000000 0.000000 
#    y 0.000000 1.713380 0.000000 
#    z 0.000000 0.000000 1.661600 
# 
# From -- ./inp_files/6941.got.cif
#   From: 2010.05.17/outbox.cif.g08.bks.cpg/sg30_4_cif.got.tgz:6941.got - 2010.06.03 17:03:02.
