data_PCOD9342220
_publ_section_title
;
Structure prediction by ZEFSAII (Michael W. Deem and Ramdas Pophale) SiO2 
 PCOD9342220
Probable space group: P N C 2
;
_chemical_formula_sum "Si O2"
_cell_formula_units_Z 20
_cell_length_a 21.305087
_cell_length_b 7.613445
_cell_length_c 5.274726
_cell_angle_alpha 90.000000
_cell_angle_beta 90.000000
_cell_angle_gamma 90.000000
_cell_volume 855.587501
_symmetry_space_group_name_H-M "P N C 2"
_symmetry_group_IT_number 30
_symmetry_cell_setting 'orthorhombic'
loop_
_space_group_symop_operation_xyz
x,y,z
-x,-y,z
-x,1/2+y,1/2+z
x,1/2-y,1/2+z
loop_
_atom_site_type_symbol
_atom_site_label
_atom_site_fract_x
_atom_site_fract_y
_atom_site_fract_z
Si Si1 0.180584 0.371992 0.792100
Si Si2 0.298036 0.635298 0.826667
Si Si3 0.520629 0.199087 0.618235
Si Si4 0.619164 0.664149 0.659673
Si Si5 0.060269 0.627283 0.793392
O O1 0.180188 0.251207 0.540995
O O2 0.241194 0.497201 0.795237
O O3 0.120725 0.500857 0.793263
O O4 0.294699 0.777419 0.601957
O O5 0.358897 0.515636 0.779010
O O6 0.554871 0.214827 0.883469
O O7 0.455928 0.310399 0.647644
O O8 0.500000 0.000000 0.582555
O O9 0.641915 0.804479 0.872973
O O10 0.060195 0.750055 0.543444
O O11 0.000000 0.500000 0.793345
#
# Coordination Sequence:
#
# PCOD9342220 Si02
#       5
#     4   4   4   4   4
#     4  12  24  42  66  93 127 170 212 263 321 377
#     4  12  24  41  64  94 125 162 207 259 314 376
#     4  10  21  40  63  89 121 158 200 247 301 363
#     4  10  21  41  62  88 122 159 200 248 304 366
#     4  12  24  42  64  94 131 171 220 269 319 378
#
# _framework density 23.375753
#
# number of rings (size 3 to 8) (size 9 to 14) (size 15 to 20)
#    0.000    0.800    0.000    8.400    0.000    0.000 
#    0.000   24.000    0.000    0.000    0.000    0.000 
#    0.000    0.000    0.000    0.000    0.000    0.000 
#
# Total GULP energy -112073.338283 kJ/mol
# GULP energy per Si atom -5603.666914 kJ/mol
# Density = 2.332255 g / cm^3
# Si number density = 23.375753 Si / 1000 Ang^3
#
#
#
# Elastic Constant Matrix: (Units=GPa)
#
#
# Indices 1 2 3 4 5 6 
#
# 1 95.1689 60.1445 -12.6296 0.0000 0.0000 0.0000
# 2 60.1445 148.5783 59.8844 0.0000 0.0000 0.0000
# 3 -12.6296 59.8844 193.1634 0.0000 0.0000 0.0000
# 4 0.0000 0.0000 0.0000 77.5179 0.0000 0.0000
# 5 0.0000 0.0000 0.0000 0.0000 19.6670 0.0000
# 6 0.0000 0.0000 0.0000 0.0000 0.0000 77.9950
#
#
#
# Elastic Compliance Matrix: (Units=1/GPa)
#
#
# Indices 1 2 3 4 5 6 
#
# 1 0.015929 -0.007848 0.003475 0.000000 0.000000 0.000000
# 2 -0.007848 0.011559 -0.004097 0.000000 0.000000 0.000000
# 3 0.003475 -0.004097 0.006674 0.000000 0.000000 0.000000
# 4 0.000000 0.000000 0.000000 0.012900 0.000000 0.000000
# 5 0.000000 0.000000 0.000000 0.000000 0.050847 0.000000
# 6 0.000000 0.000000 0.000000 0.000000 0.000000 0.012821
#
#
# Mechanical properties :
#
#
# Convention : Reuss Voigt Hill
#
# Bulk Modulus (GPa) = 58.06913 72.41216 65.24065
# Shear Modulus (GPa) = 37.47831 57.00342 47.24086
#
# Velocity S-wave (km/s) = 4.00846 4.94355 4.50036
# Velocity P-wave (km/s) = 6.80583 7.97681 7.41447
#
# Compressibility (1/GPa) = 0.01722085
#
# Stress axis : x y z
#
# Youngs Moduli (GPa) = 62.77960 86.51564 149.83171
#
# Poissons Ratio (x) = 0.67901 -0.52061
# Poissons Ratio (y) = 0.49272 0.61379
# Poissons Ratio (z) = -0.21814 0.35442
#
# Static dielectric constant tensor:
#      x y z
#    x 1.897630 0.000000 0.000000 
#    y 0.000000 1.860390 0.000000 
#    z 0.000000 0.000000 1.977150 
# 
# From -- ./inp_files/1045.got.cif
#   From: 2010.05.17/outbox.cif.g08.bks.cpg/sg30_1_cif.got.tgz:1045.got - 2010.06.03 17:03:02.
