data_PCOD9342062
_publ_section_title
;
Structure prediction by ZEFSAII (Michael W. Deem and Ramdas Pophale) SiO2 
 PCOD9342062
Probable space group: P N C 2
;
_chemical_formula_sum "Si O2"
_cell_formula_units_Z 18
_cell_length_a 6.297895
_cell_length_b 11.285119
_cell_length_c 13.099217
_cell_angle_alpha 90.000000
_cell_angle_beta 90.000000
_cell_angle_gamma 90.000000
_cell_volume 930.994029
_symmetry_space_group_name_H-M "P N C 2"
_symmetry_group_IT_number 30
_symmetry_cell_setting 'orthorhombic'
loop_
_space_group_symop_operation_xyz
x,y,z
-x,-y,z
-x,1/2+y,1/2+z
x,1/2-y,1/2+z
loop_
_atom_site_type_symbol
_atom_site_label
_atom_site_fract_x
_atom_site_fract_y
_atom_site_fract_z
Si Si1 0.890002 0.374691 0.481830
Si Si2 0.811394 0.164129 0.746238
Si Si3 0.500000 0.000000 0.615075
Si Si4 0.810785 0.802713 0.594520
Si Si5 0.441444 0.632203 0.661005
O O1 0.045363 0.266082 0.512240
O O2 0.682749 0.367946 0.552832
O O3 0.000000 0.500000 0.505839
O O4 0.837313 0.370221 0.362937
O O5 0.716257 0.296740 0.735608
O O6 0.029812 0.154829 0.683332
O O7 0.644089 0.082086 0.687048
O O8 0.661917 0.911323 0.557382
O O9 0.654356 0.706515 0.644169
O O10 0.500000 0.500000 0.692465
#
# Coordination Sequence:
#
# PCOD9342062 Si02
#       5
#     4   4   2   4   4
#     4  11  21  36  64  94 116 160 218 260 303 372
#     4  10  23  37  65  92 123 158 205 260 308 370
#     4  10  20  38  60  88 126 162 196 252 326 368
#     4  10  21  38  62  86 126 162 201 256 311 366
#     4  10  21  39  64  89 125 163 201 252 314 366
#
# _framework density 19.334174000000001
#
# number of rings (size 3 to 8) (size 9 to 14) (size 15 to 20)
#    0.000    1.778    2.222    2.000    1.556    3.556 
#    0.000    0.000   58.667    0.000    0.000    0.000 
#    0.000    0.000    0.000    0.000    0.000    0.000 
#
# Total GULP energy -100494.047730 kJ/mol
# GULP energy per Si atom -5583.002652 kJ/mol
# Density = 1.929017 g / cm^3
# Si number density = 19.334174 Si / 1000 Ang^3
#
#
#
# Elastic Constant Matrix: (Units=GPa)
#
#
# Indices 1 2 3 4 5 6 
#
# 1 106.0673 37.0463 13.4315 0.0000 0.0000 0.0000
# 2 37.0463 115.5007 -1.0769 0.0000 0.0000 0.0000
# 3 13.4315 -1.0769 36.1190 0.0000 0.0000 0.0000
# 4 0.0000 0.0000 0.0000 11.5619 0.0000 0.0000
# 5 0.0000 0.0000 0.0000 0.0000 2.5954 0.0000
# 6 0.0000 0.0000 0.0000 0.0000 0.0000 49.4741
#
#
#
# Elastic Compliance Matrix: (Units=1/GPa)
#
#
# Indices 1 2 3 4 5 6 
#
# 1 0.011245 -0.003647 -0.004290 0.000000 0.000000 0.000000
# 2 -0.003647 0.009843 0.001650 0.000000 0.000000 0.000000
# 3 -0.004290 0.001650 0.029331 0.000000 0.000000 0.000000
# 4 0.000000 0.000000 0.000000 0.086491 0.000000 0.000000
# 5 0.000000 0.000000 0.000000 0.000000 0.385291 0.000000
# 6 0.000000 0.000000 0.000000 0.000000 0.000000 0.020213
#
#
# Mechanical properties :
#
#
# Convention : Reuss Voigt Hill
#
# Bulk Modulus (GPa) = 26.42442 39.60986 33.01714
# Shear Modulus (GPa) = 8.80896 26.61202 17.71049
#
# Velocity S-wave (km/s) = 2.13683 3.71404 3.02987
# Velocity P-wave (km/s) = 4.44803 6.23888 5.41796
#
# Compressibility (1/GPa) = 0.03784378
#
# Stress axis : x y z
#
# Youngs Moduli (GPa) = 88.92846 101.59479 34.09372
#
# Poissons Ratio (x) = 0.37049 0.14628
# Poissons Ratio (y) = 0.32430 -0.05624
# Poissons Ratio (z) = 0.38154 -0.16759
#
# Static dielectric constant tensor:
#      x y z
#    x 1.690270 0.000000 0.000000 
#    y 0.000000 1.724470 0.000000 
#    z 0.000000 0.000000 1.612790 
# 
# From -- ./inp_files/4569.got.cif
#   From: 2010.05.17/outbox.cif.g08.bks.cpg/sg30_3_cif.got.tgz:4569.got - 2010.06.03 17:03:02.
