data_PCOD9342800
_publ_section_title
;
Structure prediction by ZEFSAII (Michael W. Deem and Ramdas Pophale) SiO2 
 PCOD9342800
Probable space group: P M N 21
;
_chemical_formula_sum "Si O2"
_cell_formula_units_Z 32
_cell_length_a 14.449489
_cell_length_b 11.001209
_cell_length_c 10.170175
_cell_angle_alpha 90.000000
_cell_angle_beta 90.000000
_cell_angle_gamma 90.000000
_cell_volume 1616.669817
_symmetry_space_group_name_H-M "P M N 21"
_symmetry_group_IT_number 31
_symmetry_cell_setting 'orthorhombic'
loop_
_space_group_symop_operation_xyz
x,y,z
1/2-x,-y,1/2+z
-x,y,z
1/2+x,-y,1/2+z
loop_
_atom_site_type_symbol
_atom_site_label
_atom_site_fract_x
_atom_site_fract_y
_atom_site_fract_z
Si Si1 0.708901 0.817653 0.478070
Si Si2 0.104308 0.705198 0.909029
Si Si3 0.778453 0.235659 0.701721
Si Si4 0.109303 0.586604 0.182052
Si Si5 0.097973 0.937521 0.397475
Si Si6 0.147871 0.937982 0.098055
Si Si7 0.216728 0.338599 0.233161
Si Si8 0.395452 0.780008 0.958951
O O1 0.670664 0.768792 0.339771
O O2 0.811187 0.868281 0.444476
O O3 0.717999 0.716185 0.588034
O O4 0.650723 0.931996 0.530320
O O5 0.121594 0.832661 0.991394
O O6 0.182690 0.672794 0.802850
O O7 0.000000 0.711057 0.855353
O O8 0.107551 0.603628 0.024012
O O9 0.681350 0.306681 0.722220
O O10 0.748756 0.101763 0.652183
O O11 0.838420 0.279625 0.579044
O O12 0.163612 0.466947 0.227500
O O13 0.000000 0.595062 0.223741
O O14 0.000000 0.881076 0.439870
O O15 0.102391 0.073626 0.455381
O O16 0.096203 0.943491 0.237724
O O17 0.153495 0.255004 0.324700
O O18 0.500000 0.735656 0.963553
#
# Coordination Sequence:
#
# PCOD9342800 Si02
#       8
#     4   4   4   4   4   4   4   4
#     4  11  23  35  63  96 131 162 202 260 323 374
#     4  10  22  41  67  92 125 169 211 259 319 382
#     4  10  22  40  63  89 126 167 208 260 312 369
#     4  10  23  44  69  90 118 167 219 261 311 377
#     4  10  20  35  59  91 129 168 210 255 305 382
#     4  10  18  37  61  90 129 164 209 248 314 380
#     4  12  23  41  65  95 128 163 212 269 320 373
#     4  11  21  39  62  91 128 170 211 252 314 377
#
# _framework density 19.793776000000001
#
# number of rings (size 3 to 8) (size 9 to 14) (size 15 to 20)
#    0.000    1.500    5.000    0.750    3.500    3.500 
#    0.000    4.375    0.000    0.000    0.000    0.000 
#    0.000    0.000    0.000    0.000    0.000    0.000 
#
# Total GULP energy -178204.762080 kJ/mol
# GULP energy per Si atom -5568.898815 kJ/mol
# Density = 1.974872 g / cm^3
# Si number density = 19.793776 Si / 1000 Ang^3
#
#
#
# Elastic Constant Matrix: (Units=GPa)
#
#
# Indices 1 2 3 4 5 6 
#
# 1 94.0433 20.8447 27.4439 0.0000 0.0000 0.0000
# 2 20.8447 29.5312 4.3831 0.0000 0.0000 0.0000
# 3 27.4439 4.3831 82.3619 0.0000 0.0000 0.0000
# 4 0.0000 0.0000 0.0000 12.2082 0.0000 0.0000
# 5 0.0000 0.0000 0.0000 0.0000 6.9480 0.0000
# 6 0.0000 0.0000 0.0000 0.0000 0.0000 9.6606
#
#
#
# Elastic Compliance Matrix: (Units=1/GPa)
#
#
# Indices 1 2 3 4 5 6 
#
# 1 0.013875 -0.009180 -0.004135 0.000000 0.000000 0.000000
# 2 -0.009180 0.040206 0.000919 0.000000 0.000000 0.000000
# 3 -0.004135 0.000919 0.013470 0.000000 0.000000 0.000000
# 4 0.000000 0.000000 0.000000 0.081912 0.000000 0.000000
# 5 0.000000 0.000000 0.000000 0.000000 0.143926 0.000000
# 6 0.000000 0.000000 0.000000 0.000000 0.000000 0.103514
#
#
# Mechanical properties :
#
#
# Convention : Reuss Voigt Hill
#
# Bulk Modulus (GPa) = 23.38632 34.58665 28.98649
# Shear Modulus (GPa) = 11.46930 15.98101 13.72516
#
# Velocity S-wave (km/s) = 2.40977 2.84452 2.63612
# Velocity P-wave (km/s) = 4.42530 5.31976 4.89301
#
# Compressibility (1/GPa) = 0.04276004
#
# Stress axis : x y z
#
# Youngs Moduli (GPa) = 72.07365 24.87210 74.23723
#
# Poissons Ratio (x) = 0.22832 0.30695
# Poissons Ratio (y) = 0.66162 -0.06824
# Poissons Ratio (z) = 0.29800 -0.02286
#
# Static dielectric constant tensor:
#      x y z
#    x 1.738200 0.000000 0.000000 
#    y 0.000000 1.740590 0.000000 
#    z 0.000000 0.000000 1.717070 
# 
# From -- ./inp_files/2581.got.cif
#   From: 2010.05.17/outbox.cif.g08.bks.cpg/sg31_2_cif.got.tgz:2581.got - 2010.06.03 17:08:30.
