data_PCOD9342644
_publ_section_title
;
Structure prediction by ZEFSAII (Michael W. Deem and Ramdas Pophale) SiO2 
 PCOD9342644
Probable space group: P N C 2
;
_chemical_formula_sum "Si O2"
_cell_formula_units_Z 18
_cell_length_a 5.180342
_cell_length_b 5.510232
_cell_length_c 26.138820
_cell_angle_alpha 90.000000
_cell_angle_beta 90.000000
_cell_angle_gamma 90.000000
_cell_volume 746.129644
_symmetry_space_group_name_H-M "P N C 2"
_symmetry_group_IT_number 30
_symmetry_cell_setting 'orthorhombic'
loop_
_space_group_symop_operation_xyz
x,y,z
-x,-y,z
-x,1/2+y,1/2+z
x,1/2-y,1/2+z
loop_
_atom_site_type_symbol
_atom_site_label
_atom_site_fract_x
_atom_site_fract_y
_atom_site_fract_z
Si Si1 0.237667 0.848178 0.515210
Si Si2 0.500000 0.500000 0.882415
Si Si3 0.249747 0.638549 0.229537
Si Si4 0.500000 0.000000 0.948838
Si Si5 0.000000 0.000000 0.311518
Si Si6 0.740644 0.351092 0.622796
O O1 0.275683 0.586871 0.488243
O O2 0.200994 0.825175 0.576007
O O3 0.500000 0.000000 0.508200
O O4 0.000000 0.000000 0.492555
O O5 0.501083 0.756039 0.913866
O O6 0.754145 0.537560 0.847729
O O7 0.500000 0.500000 0.251492
O O8 0.113069 0.797465 0.273022
O O9 0.353950 0.760347 0.177974
O O10 0.000000 0.500000 0.208171
O O11 0.500000 0.500000 0.601610
O O12 0.000000 0.500000 0.632563
#
# Coordination Sequence:
#
# PCOD9342644 Si02
#       6
#     4   2   4   2   2   4
#     4  12  27  49  79 115 159 211 264 327 407 493
#     4  12  32  52  87 110 165 204 284 342 416 458
#     4  12  26  47  77 110 156 207 260 325 405 493
#     4  12  30  58  79 124 153 218 270 350 400 492
#     4  12  30  54  76 116 148 208 270 346 400 488
#     4  12  24  44  74 115 161 205 259 317 400 493
#
# _framework density 24.124493999999999
#
# number of rings (size 3 to 8) (size 9 to 14) (size 15 to 20)
#    0.000    0.000    3.333    5.333    7.778    1.778 
#    0.000    0.000    0.000    0.000    0.000    0.000 
#    0.000    0.000    0.000    0.000    0.000    0.000 
#
# Total GULP energy -100485.505461 kJ/mol
# GULP energy per Si atom -5582.528081 kJ/mol
# Density = 2.406959 g / cm^3
# Si number density = 24.124494 Si / 1000 Ang^3
#
#
#
# Elastic Constant Matrix: (Units=GPa)
#
#
# Indices 1 2 3 4 5 6 
#
# 1 175.3560 65.5093 31.8029 0.0000 0.0000 0.0000
# 2 65.5093 124.1881 55.3267 0.0000 0.0000 0.0000
# 3 31.8029 55.3267 144.0882 0.0000 0.0000 0.0000
# 4 0.0000 0.0000 0.0000 23.5433 0.0000 0.0000
# 5 0.0000 0.0000 0.0000 0.0000 145.8150 0.0000
# 6 0.0000 0.0000 0.0000 0.0000 0.0000 67.5593
#
#
#
# Elastic Compliance Matrix: (Units=1/GPa)
#
#
# Indices 1 2 3 4 5 6 
#
# 1 0.007105 -0.003679 -0.000156 0.000000 0.000000 0.000000
# 2 -0.003679 0.011619 -0.003649 0.000000 0.000000 0.000000
# 3 -0.000156 -0.003649 0.008376 0.000000 0.000000 0.000000
# 4 0.000000 0.000000 0.000000 0.042475 0.000000 0.000000
# 5 0.000000 0.000000 0.000000 0.000000 0.006858 0.000000
# 6 0.000000 0.000000 0.000000 0.000000 0.000000 0.014802
#
#
# Mechanical properties :
#
#
# Convention : Reuss Voigt Hill
#
# Bulk Modulus (GPa) = 82.42515 83.21222 82.81868
# Shear Modulus (GPa) = 45.35321 66.78309 56.06815
#
# Velocity S-wave (km/s) = 4.34056 5.26714 4.82614
# Velocity P-wave (km/s) = 7.70463 8.45920 8.09072
#
# Compressibility (1/GPa) = 0.01213222
#
# Stress axis : x y z
#
# Youngs Moduli (GPa) = 140.74241 86.06913 119.39111
#
# Poissons Ratio (x) = 0.31661 0.01859
# Poissons Ratio (y) = 0.51774 0.43570
# Poissons Ratio (z) = 0.02192 0.31410
#
# Static dielectric constant tensor:
#      x y z
#    x 1.995930 0.000000 0.000000 
#    y 0.000000 1.973360 0.000000 
#    z 0.000000 0.000000 1.988990 
# 
# From -- ./inp_files/7466.got.cif
#   From: 2010.05.17/outbox.cif.g08.bks.cpg/sg30_4_cif.got.tgz:7466.got - 2010.06.03 17:03:02.
