data_PCOD9342426
_publ_section_title
;
Structure prediction by ZEFSAII (Michael W. Deem and Ramdas Pophale) SiO2 
 PCOD9342426
Probable space group: P N C 2
;
_chemical_formula_sum "Si O2"
_cell_formula_units_Z 30
_cell_length_a 11.900233
_cell_length_b 22.127907
_cell_length_c 5.322793
_cell_angle_alpha 90.000000
_cell_angle_beta 90.000000
_cell_angle_gamma 90.000000
_cell_volume 1401.636438
_symmetry_space_group_name_H-M "P N C 2"
_symmetry_group_IT_number 30
_symmetry_cell_setting 'orthorhombic'
loop_
_space_group_symop_operation_xyz
x,y,z
-x,-y,z
-x,1/2+y,1/2+z
x,1/2-y,1/2+z
loop_
_atom_site_type_symbol
_atom_site_label
_atom_site_fract_x
_atom_site_fract_y
_atom_site_fract_z
Si Si1 0.048858 0.218231 0.120380
Si Si2 0.000000 0.500000 0.602750
Si Si3 0.977318 0.391019 0.928414
Si Si4 0.821124 0.558396 0.232003
Si Si5 0.362397 0.561096 0.654195
Si Si6 0.683193 0.712775 0.698893
Si Si7 0.759667 0.422212 0.148517
Si Si8 0.623173 0.580979 0.581580
O O1 0.023995 0.269991 0.328940
O O2 0.181739 0.208859 0.164179
O O3 0.984640 0.161646 0.230260
O O4 0.056406 0.548781 0.779150
O O5 0.089861 0.462569 0.444321
O O6 0.875476 0.385874 0.120938
O O7 0.100642 0.402302 0.048325
O O8 0.709357 0.588551 0.345631
O O9 0.783553 0.494051 0.127227
O O10 0.326782 0.589708 0.920337
O O11 0.489010 0.575259 0.563647
O O12 0.348187 0.487611 0.672092
O O13 0.287191 0.585134 0.427001
O O14 0.648913 0.746720 0.439558
O O15 0.643699 0.643363 0.730139
#
# Coordination Sequence:
#
# PCOD9342426 Si02
#       8
#     4   2   4   4   4   4   4   4
#     4  10  25  41  58  91 130 168 211 251 318 390
#     4  12  20  38  54 106 128 162 206 258 334 394
#     4  12  23  36  66  91 130 171 201 270 320 387
#     4  11  23  35  61  98 132 165 203 265 329 395
#     4  10  25  41  63  91 129 167 211 260 311 392
#     4  10  23  40  62  91 124 161 210 263 314 377
#     4  11  22  41  59  93 127 161 211 251 315 381
#     4  10  23  42  63  91 128 170 207 260 329 373
#
# _framework density 21.403552999999999
#
# number of rings (size 3 to 8) (size 9 to 14) (size 15 to 20)
#    0.000    1.333    2.667    2.400    9.333    6.400 
#    0.000    0.000    0.000    4.800    0.000    0.000 
#    0.000    0.000    0.000    0.000    0.000    0.000 
#
# Total GULP energy -167389.030890 kJ/mol
# GULP energy per Si atom -5579.634363 kJ/mol
# Density = 2.135484 g / cm^3
# Si number density = 21.403553 Si / 1000 Ang^3
#
#
#
# Elastic Constant Matrix: (Units=GPa)
#
#
# Indices 1 2 3 4 5 6 
#
# 1 51.2937 3.8403 27.1042 0.0000 0.0000 0.0000
# 2 3.8403 64.6708 13.9808 0.0000 0.0000 0.0000
# 3 27.1042 13.9808 84.2887 0.0000 0.0000 0.0000
# 4 0.0000 0.0000 0.0000 66.1937 0.0000 0.0000
# 5 0.0000 0.0000 0.0000 0.0000 45.3830 0.0000
# 6 0.0000 0.0000 0.0000 0.0000 0.0000 22.1999
#
#
#
# Elastic Compliance Matrix: (Units=1/GPa)
#
#
# Indices 1 2 3 4 5 6 
#
# 1 0.023490 0.000247 -0.007595 0.000000 0.000000 0.000000
# 2 0.000247 0.016041 -0.002740 0.000000 0.000000 0.000000
# 3 -0.007595 -0.002740 0.014761 0.000000 0.000000 0.000000
# 4 0.000000 0.000000 0.000000 0.015107 0.000000 0.000000
# 5 0.000000 0.000000 0.000000 0.000000 0.022035 0.000000
# 6 0.000000 0.000000 0.000000 0.000000 0.000000 0.045045
#
#
# Mechanical properties :
#
#
# Convention : Reuss Voigt Hill
#
# Bulk Modulus (GPa) = 29.31171 32.23376 30.77274
# Shear Modulus (GPa) = 29.75737 37.11054 33.43395
#
# Velocity S-wave (km/s) = 3.73272 4.16847 3.95660
# Velocity P-wave (km/s) = 5.68349 6.18554 5.93982
#
# Compressibility (1/GPa) = 0.03411606
#
# Stress axis : x y z
#
# Youngs Moduli (GPa) = 42.57114 62.34177 67.74793
#
# Poissons Ratio (x) = -0.01539 0.51451
# Poissons Ratio (y) = -0.01051 0.18563
# Poissons Ratio (z) = 0.32331 0.17082
#
# Static dielectric constant tensor:
#      x y z
#    x 1.811080 0.000000 0.000000 
#    y 0.000000 1.770470 0.000000 
#    z 0.000000 0.000000 1.835930 
# 
# From -- ./inp_files/806.got.cif
#   From: 2010.05.17/outbox.cif.g08.bks.cpg/sg30_1_cif.got.tgz:806.got - 2010.06.03 17:03:02.
