data_PCOD9342346
_publ_section_title
;
Structure prediction by ZEFSAII (Michael W. Deem and Ramdas Pophale) SiO2 
 PCOD9342346
Probable space group: P N C 2
;
_chemical_formula_sum "Si O2"
_cell_formula_units_Z 32
_cell_length_a 6.002782
_cell_length_b 27.935926
_cell_length_c 9.290132
_cell_angle_alpha 90.000000
_cell_angle_beta 90.000000
_cell_angle_gamma 90.000000
_cell_volume 1557.892649
_symmetry_space_group_name_H-M "P N C 2"
_symmetry_group_IT_number 30
_symmetry_cell_setting 'orthorhombic'
loop_
_space_group_symop_operation_xyz
x,y,z
-x,-y,z
-x,1/2+y,1/2+z
x,1/2-y,1/2+z
loop_
_atom_site_type_symbol
_atom_site_label
_atom_site_fract_x
_atom_site_fract_y
_atom_site_fract_z
Si Si1 0.252376 0.524114 0.638000
Si Si2 0.801174 0.393574 0.406715
Si Si3 0.836355 0.045507 0.451127
Si Si4 0.428229 0.761986 0.310877
Si Si5 0.094332 0.387876 0.121462
Si Si6 0.497552 0.552722 0.215164
Si Si7 0.733845 0.717562 0.069608
Si Si8 0.863121 0.292409 0.550690
O O1 0.500000 0.500000 0.610441
O O2 0.203160 0.563345 0.517875
O O3 0.282043 0.544948 0.798510
O O4 0.000000 0.500000 0.644468
O O5 0.568585 0.404006 0.323185
O O6 0.865102 0.346340 0.493850
O O7 0.965989 0.395365 0.271445
O O8 0.676910 0.043099 0.588036
O O9 0.962010 0.095188 0.480557
O O10 0.000000 0.000000 0.457198
O O11 0.562901 0.728551 0.199372
O O12 0.605883 0.787222 0.416769
O O13 0.277248 0.733888 0.425144
O O14 0.267891 0.790950 0.202776
O O15 0.290195 0.426280 0.135689
O O16 0.151488 0.332505 0.105350
O O17 0.500000 0.500000 0.287847
O O18 0.907947 0.762076 0.063402
#
# Coordination Sequence:
#
# PCOD9342346 Si02
#       8
#     4   4   4   4   4   4   4   4
#     4  11  27  47  69 100 143 184 233 294 358 429
#     4  11  26  40  66  99 132 181 229 283 356 426
#     4  10  22  42  65  98 131 178 224 284 349 423
#     4  10  23  41  69  95 133 176 229 281 360 412
#     4  11  24  40  68 101 132 176 240 281 357 429
#     4  11  22  40  70  92 134 173 228 294 349 424
#     4  11  23  43  68 101 138 181 229 301 350 430
#     4  11  23  45  66  95 139 176 228 289 351 424
#
# _framework density 20.540569000000001
#
# number of rings (size 3 to 8) (size 9 to 14) (size 15 to 20)
#    0.000    1.250    1.250    3.750    5.250    7.000 
#    0.000    0.000    0.000    0.000    0.000    0.000 
#    0.000    0.000    0.000    0.000    0.000    0.000 
#
# Total GULP energy -178195.122854 kJ/mol
# GULP energy per Si atom -5568.597589 kJ/mol
# Density = 2.049382 g / cm^3
# Si number density = 20.540569 Si / 1000 Ang^3
#
#
#
# Elastic Constant Matrix: (Units=GPa)
#
#
# Indices 1 2 3 4 5 6 
#
# 1 60.3242 13.7991 23.8860 0.0000 0.0000 0.0000
# 2 13.7991 51.4437 18.0373 0.0000 0.0000 0.0000
# 3 23.8860 18.0373 138.3404 0.0000 0.0000 0.0000
# 4 0.0000 0.0000 0.0000 31.0682 0.0000 0.0000
# 5 0.0000 0.0000 0.0000 0.0000 69.2727 0.0000
# 6 0.0000 0.0000 0.0000 0.0000 0.0000 19.6500
#
#
#
# Elastic Compliance Matrix: (Units=1/GPa)
#
#
# Indices 1 2 3 4 5 6 
#
# 1 0.018562 -0.004040 -0.002678 0.000000 0.000000 0.000000
# 2 -0.004040 0.021249 -0.002073 0.000000 0.000000 0.000000
# 3 -0.002678 -0.002073 0.007961 0.000000 0.000000 0.000000
# 4 0.000000 0.000000 0.000000 0.032187 0.000000 0.000000
# 5 0.000000 0.000000 0.000000 0.000000 0.014436 0.000000
# 6 0.000000 0.000000 0.000000 0.000000 0.000000 0.050891
#
#
# Mechanical properties :
#
#
# Convention : Reuss Voigt Hill
#
# Bulk Modulus (GPa) = 33.12352 40.17255 36.64804
# Shear Modulus (GPa) = 28.91326 36.95725 32.93525
#
# Velocity S-wave (km/s) = 3.75589 4.24634 4.00862
# Velocity P-wave (km/s) = 5.91353 6.60621 6.26944
#
# Compressibility (1/GPa) = 0.03019003
#
# Stress axis : x y z
#
# Youngs Moduli (GPa) = 53.87456 47.06051 125.60851
#
# Poissons Ratio (x) = 0.19012 0.33640
# Poissons Ratio (y) = 0.21765 0.26039
# Poissons Ratio (z) = 0.14428 0.09756
#
# Static dielectric constant tensor:
#      x y z
#    x 1.682090 0.000000 0.000000 
#    y 0.000000 1.708250 0.000000 
#    z 0.000000 0.000000 1.709650 
# 
# From -- ./inp_files/1487.got.cif
#   From: 2010.05.17/outbox.cif.g08.bks.cpg/sg30_1_cif.got.tgz:1487.got - 2010.06.03 17:03:02.
