data_PCOD9342817
_publ_section_title
;
Structure prediction by ZEFSAII (Michael W. Deem and Ramdas Pophale) SiO2 
 PCOD9342817
Probable space group: P M N 21
;
_chemical_formula_sum "Si O2"
_cell_formula_units_Z 32
_cell_length_a 14.775915
_cell_length_b 9.122179
_cell_length_c 11.097498
_cell_angle_alpha 90.000000
_cell_angle_beta 90.000000
_cell_angle_gamma 90.000000
_cell_volume 1495.815570
_symmetry_space_group_name_H-M "P M N 21"
_symmetry_group_IT_number 31
_symmetry_cell_setting 'orthorhombic'
loop_
_space_group_symop_operation_xyz
x,y,z
1/2-x,-y,1/2+z
-x,y,z
1/2+x,-y,1/2+z
loop_
_atom_site_type_symbol
_atom_site_label
_atom_site_fract_x
_atom_site_fract_y
_atom_site_fract_z
Si Si1 0.890470 0.441808 0.878930
Si Si2 0.109969 0.612482 0.118849
Si Si3 0.144940 0.957592 0.637487
Si Si4 0.109968 0.612478 0.639010
Si Si5 0.132121 0.933449 0.378929
Si Si6 0.103374 0.584833 0.378929
Si Si7 0.848912 0.102831 0.878929
Si Si8 0.855059 0.957595 0.120372
O O1 0.861868 0.524512 0.757208
O O2 0.856389 0.276658 0.878931
O O3 0.000000 0.438904 0.878930
O O4 0.861869 0.524516 0.000651
O O5 0.143587 0.548505 0.247662
O O6 0.137262 0.782383 0.107961
O O7 0.000000 0.610601 0.124179
O O8 0.109533 0.035616 0.757270
O O9 0.250000 0.999995 0.628929
O O10 0.137258 0.782381 0.649900
O O11 0.103443 0.998650 0.507298
O O12 0.143588 0.548505 0.510197
O O13 0.000000 0.610592 0.633679
O O14 0.102742 0.763067 0.378929
O O15 0.241737 0.934533 0.378929
O O16 0.103442 0.998651 0.250561
O O17 0.000000 0.530203 0.378929
O O18 0.890467 0.035614 0.000588
#
# Coordination Sequence:
#
# PCOD9342817 Si02
#       8
#     4   4   4   4   4   4   4   4
#     4  10  21  34  47  70 103 134 165 198 234 287
#     4   9  17  31  51  71  94 128 164 196 238 292
#     4   9  17  31  51  73  96 124 161 206 247 287
#     4   9  17  31  51  71  94 128 164 196 238 292
#     4   8  16  31  48  70  95 121 156 197 245 291
#     4   8  14  28  50  69  85 113 157 201 231 273
#     4  10  19  31  47  69  99 130 158 200 244 277
#     4   9  17  31  51  73  96 124 161 206 247 287
#
# _framework density 21.393011999999999
#
# number of rings (size 3 to 8) (size 9 to 14) (size 15 to 20)
#    0.000    3.000    0.000    0.750    0.000    1.000 
#    0.000   12.500    0.000    0.000    0.000    0.000 
#    0.000    0.000    0.000    0.000    0.000    0.000 
#
# Total GULP energy -178414.061360 kJ/mol
# GULP energy per Si atom -5575.439417 kJ/mol
# Density = 2.134432 g / cm^3
# Si number density = 21.393012 Si / 1000 Ang^3
#
#
#
# Elastic Constant Matrix: (Units=GPa)
#
#
# Indices 1 2 3 4 5 6 
#
# 1 74.6828 4.2249 20.6019 0.0000 0.0000 0.0000
# 2 4.2249 76.8211 96.5443 0.0000 0.0000 0.0000
# 3 20.6019 96.5443 300.7027 0.0000 0.0000 0.0000
# 4 0.0000 0.0000 0.0000 -141.0374 0.0000 0.0000
# 5 0.0000 0.0000 0.0000 0.0000 -7.7230 0.0000
# 6 0.0000 0.0000 0.0000 0.0000 0.0000 23.8782
#
#
#
# Elastic Compliance Matrix: (Units=1/GPa)
#
#
# Indices 1 2 3 4 5 6 
#
# 1 0.013671 0.000713 -0.001166 0.000000 0.000000 0.000000
# 2 0.000713 0.021860 -0.007067 0.000000 0.000000 0.000000
# 3 -0.001166 -0.007067 0.005674 0.000000 0.000000 0.000000
# 4 0.000000 0.000000 0.000000 -0.007090 0.000000 0.000000
# 5 0.000000 0.000000 0.000000 0.000000 -0.129483 0.000000
# 6 0.000000 0.000000 0.000000 0.000000 0.000000 0.041879
#
#
# Mechanical properties :
#
#
# Convention : Reuss Voigt Hill
#
# Bulk Modulus (GPa) = 38.21807 77.21654 57.71730
# Shear Modulus (GPa) = -168.19263 -2.92074 -85.55668
#
# Velocity S-wave (km/s) = -8.87643 -1.16972 -6.33085
# Velocity P-wave (km/s) = 9.33548 5.86074 5.13823
#
# Compressibility (1/GPa) = 0.02616564
#
# Stress axis : x y z
#
# Youngs Moduli (GPa) = 73.14671 45.74647 176.23040
#
# Poissons Ratio (x) = -0.03261 0.20540
# Poissons Ratio (y) = -0.05215 1.24544
# Poissons Ratio (z) = 0.08526 0.32330
#
# Static dielectric constant tensor:
#      x y z
#    x 1.789320 0.000000 0.000000 
#    y 0.000000 1.683910 0.000000 
#    z 0.000000 0.000000 1.875920 
# 
# From -- ./inp_files/4429.got.cif
#   From: 2010.05.17/outbox.cif.g08.bks.cpg/sg31_3_cif.got.tgz:4429.got - 2010.06.03 17:08:30.
