data_PCOD9342701
_publ_section_title
;
Structure prediction by ZEFSAII (Michael W. Deem and Ramdas Pophale) SiO2 
 PCOD9342701
Probable space group: P M N 21
;
_chemical_formula_sum "Si O2"
_cell_formula_units_Z 32
_cell_length_a 7.417764
_cell_length_b 11.018692
_cell_length_c 14.410403
_cell_angle_alpha 90.000000
_cell_angle_beta 90.000000
_cell_angle_gamma 90.000000
_cell_volume 1177.820698
_symmetry_space_group_name_H-M "P M N 21"
_symmetry_group_IT_number 31
_symmetry_cell_setting 'orthorhombic'
loop_
_space_group_symop_operation_xyz
x,y,z
1/2-x,-y,1/2+z
-x,y,z
1/2+x,-y,1/2+z
loop_
_atom_site_type_symbol
_atom_site_label
_atom_site_fract_x
_atom_site_fract_y
_atom_site_fract_z
Si Si1 0.781087 0.966529 0.139410
Si Si2 0.204262 0.542908 0.297103
Si Si3 0.779080 0.949203 0.924001
Si Si4 0.716731 0.573204 0.974324
Si Si5 0.209819 0.213452 0.901482
Si Si6 0.286838 0.295168 0.646545
Si Si7 0.717816 0.336840 0.085838
Si Si8 0.207222 0.797165 0.759352
O O1 0.720015 0.835490 0.178255
O O2 0.000000 0.972498 0.141922
O O3 0.710705 0.080582 0.196059
O O4 0.726024 0.957654 0.031315
O O5 0.285691 0.447895 0.370148
O O6 0.198190 0.670510 0.354952
O O7 0.294075 0.591144 0.203046
O O8 0.000000 0.504938 0.278879
O O9 0.712799 0.840474 0.857577
O O10 0.000000 0.946250 0.922368
O O11 0.721992 0.078922 0.880627
O O12 0.500000 0.566604 0.969450
O O13 0.765425 0.687208 0.036706
O O14 0.783262 0.459515 0.036618
O O15 0.000000 0.221613 0.877719
O O16 0.226885 0.233521 0.012501
O O17 0.500000 0.296962 0.664257
O O18 0.500000 0.339683 0.088507
O O19 0.783277 0.304249 0.189054
O O20 0.000000 0.765398 0.776008
#
# Coordination Sequence:
#
# PCOD9342701 Si02
#       8
#     4   4   4   4   4   4   4   4
#     4  10  20  36  54  78 112 142 170 219 274 313
#     4   9  19  36  55  78 107 140 177 221 271 314
#     4   9  18  31  48  75 110 140 166 209 268 315
#     4   9  19  36  55  75 104 138 174 222 268 309
#     4  10  17  28  51  78 104 135 174 218 259 306
#     4  10  21  37  57  80 107 142 180 220 267 321
#     4   9  18  33  52  74 101 136 175 216 265 311
#     4  10  19  33  54  78 105 141 180 211 256 327
#
# _framework density 27.168821000000001
#
# number of rings (size 3 to 8) (size 9 to 14) (size 15 to 20)
#    0.000    2.500    1.250    1.875    0.000    3.000 
#    2.250    1.250    0.000    0.000    0.000    0.000 
#    0.000    0.000    0.000    0.000    0.000    0.000 
#
# Total GULP energy -179034.933670 kJ/mol
# GULP energy per Si atom -5594.841677 kJ/mol
# Density = 2.710698 g / cm^3
# Si number density = 27.168821 Si / 1000 Ang^3
#
#
#
# Elastic Constant Matrix: (Units=GPa)
#
#
# Indices 1 2 3 4 5 6 
#
# 1 117.3992 18.0706 10.7809 0.0000 0.0000 0.0000
# 2 18.0706 93.5319 23.6985 0.0000 0.0000 0.0000
# 3 10.7809 23.6985 161.2818 0.0000 0.0000 0.0000
# 4 0.0000 0.0000 0.0000 61.3408 0.0000 0.0000
# 5 0.0000 0.0000 0.0000 0.0000 21.3821 0.0000
# 6 0.0000 0.0000 0.0000 0.0000 0.0000 63.5319
#
#
#
# Elastic Compliance Matrix: (Units=1/GPa)
#
#
# Indices 1 2 3 4 5 6 
#
# 1 0.008798 -0.001611 -0.000351 0.000000 0.000000 0.000000
# 2 -0.001611 0.011400 -0.001567 0.000000 0.000000 0.000000
# 3 -0.000351 -0.001567 0.006454 0.000000 0.000000 0.000000
# 4 0.000000 0.000000 0.000000 0.016302 0.000000 0.000000
# 5 0.000000 0.000000 0.000000 0.000000 0.046768 0.000000
# 6 0.000000 0.000000 0.000000 0.000000 0.000000 0.015740
#
#
# Mechanical properties :
#
#
# Convention : Reuss Voigt Hill
#
# Bulk Modulus (GPa) = 51.03881 53.03477 52.03679
# Shear Modulus (GPa) = 41.99809 50.56181 46.27995
#
# Velocity S-wave (km/s) = 3.93596 4.31864 4.13173
# Velocity P-wave (km/s) = 6.28349 6.66561 6.47737
#
# Compressibility (1/GPa) = 0.01959293
#
# Stress axis : x y z
#
# Youngs Moduli (GPa) = 113.66012 87.72011 154.93952
#
# Poissons Ratio (x) = 0.14130 0.05445
# Poissons Ratio (y) = 0.18308 0.24285
# Poissons Ratio (z) = 0.03994 0.13749
#
# Static dielectric constant tensor:
#      x y z
#    x 1.956290 0.000000 0.000000 
#    y 0.000000 2.139340 0.000000 
#    z 0.000000 0.000000 2.194610 
# 
# From -- ./inp_files/5058.got.cif
#   From: 2010.05.17/outbox.cif.g08.bks.cpg/sg31_3_cif.got.tgz:5058.got - 2010.06.03 17:08:30.
