data_PCOD9342552
_publ_section_title
;
Structure prediction by ZEFSAII (Michael W. Deem and Ramdas Pophale) SiO2 
 PCOD9342552
Probable space group: P N C 2
;
_chemical_formula_sum "Si O2"
_cell_formula_units_Z 32
_cell_length_a 19.614084
_cell_length_b 10.794567
_cell_length_c 8.260467
_cell_angle_alpha 90.000000
_cell_angle_beta 90.000000
_cell_angle_gamma 90.000000
_cell_volume 1748.951868
_symmetry_space_group_name_H-M "P N C 2"
_symmetry_group_IT_number 30
_symmetry_cell_setting 'orthorhombic'
loop_
_space_group_symop_operation_xyz
x,y,z
-x,-y,z
-x,1/2+y,1/2+z
x,1/2-y,1/2+z
loop_
_atom_site_type_symbol
_atom_site_label
_atom_site_fract_x
_atom_site_fract_y
_atom_site_fract_z
Si Si1 0.830879 0.904896 0.879330
Si Si2 0.595743 0.814890 0.181705
Si Si3 0.507179 0.175266 0.436375
Si Si4 0.330879 0.095104 0.879330
Si Si5 0.062657 0.589408 0.252919
Si Si6 0.437343 0.910592 0.752919
Si Si7 0.904257 0.685110 0.681705
Si Si8 0.992821 0.175266 0.436375
O O1 0.750000 0.908589 0.868741
O O2 0.860280 0.785381 0.782073
O O3 0.868186 0.023248 0.802958
O O4 0.856447 0.893747 0.064818
O O5 0.544660 0.883492 0.305431
O O6 0.544865 0.741465 0.061952
O O7 0.639720 0.714619 0.282073
O O8 0.643553 0.893747 0.064818
O O9 0.555008 0.100743 0.558958
O O10 0.549861 0.280027 0.341009
O O11 0.368186 0.976752 0.802959
O O12 0.000000 0.500000 0.306656
O O13 0.049861 0.719973 0.341009
O O14 0.055007 0.600743 0.058958
O O15 0.500000 0.000000 0.806656
O O16 0.955135 0.758535 0.561952
O O17 0.955340 0.616508 0.805431
#
# Coordination Sequence:
#
# PCOD9342552 Si02
#       8
#     4   4   4   4   4   4   4   4
#     4  11  21  35  56  85 122 152 177 227 294 342
#     4   9  17  34  55  84 111 140 185 243 273 322
#     4   9  18  34  56  84 105 138 197 237 264 317
#     4  11  21  35  56  85 122 152 177 227 294 342
#     4  11  19  37  56  82 111 147 188 235 279 328
#     4  11  19  37  56  82 111 147 188 235 279 328
#     4   9  17  34  55  84 111 140 185 243 273 322
#     4   9  18  34  56  84 105 138 197 237 264 317
#
# _framework density 18.296673999999999
#
# number of rings (size 3 to 8) (size 9 to 14) (size 15 to 20)
#    0.000    2.000    7.500    0.750    0.000    0.000 
#    9.000    1.250    0.000    0.000    0.000    0.000 
#    0.000    0.000    0.000    0.000    0.000    0.000 
#
# Total GULP energy -178339.875585 kJ/mol
# GULP energy per Si atom -5573.121112 kJ/mol
# Density = 1.825503 g / cm^3
# Si number density = 18.296674 Si / 1000 Ang^3
#
#
#
# Elastic Constant Matrix: (Units=GPa)
#
#
# Indices 1 2 3 4 5 6 
#
# 1 132.9983 50.6691 71.8231 0.0000 0.0000 0.0000
# 2 50.6691 52.3014 37.4300 0.0000 0.0000 0.0000
# 3 71.8231 37.4300 133.3146 0.0000 0.0000 0.0000
# 4 0.0000 0.0000 0.0000 44.2558 0.0000 0.0000
# 5 0.0000 0.0000 0.0000 0.0000 21.6953 0.0000
# 6 0.0000 0.0000 0.0000 0.0000 0.0000 0.1509
#
#
#
# Elastic Compliance Matrix: (Units=1/GPa)
#
#
# Indices 1 2 3 4 5 6 
#
# 1 0.013881 -0.010132 -0.004634 0.000000 0.000000 0.000000
# 2 -0.010132 0.031323 -0.003336 0.000000 0.000000 0.000000
# 3 -0.004634 -0.003336 0.010934 0.000000 0.000000 0.000000
# 4 0.000000 0.000000 0.000000 0.022596 0.000000 0.000000
# 5 0.000000 0.000000 0.000000 0.000000 0.046093 0.000000
# 6 0.000000 0.000000 0.000000 0.000000 0.000000 6.628660
#
#
# Mechanical properties :
#
#
# Convention : Reuss Voigt Hill
#
# Bulk Modulus (GPa) = 50.16245 70.93986 60.55115
# Shear Modulus (GPa) = 0.73569 23.79986 12.26778
#
# Velocity S-wave (km/s) = 0.63479 3.61054 2.59220
# Velocity P-wave (km/s) = 5.29273 7.49917 6.49039
#
# Compressibility (1/GPa) = 0.01993523
#
# Stress axis : x y z
#
# Youngs Moduli (GPa) = 72.03941 31.92560 91.45660
#
# Poissons Ratio (x) = 0.32346 0.42380
# Poissons Ratio (y) = 0.72989 0.30509
# Poissons Ratio (z) = 0.33382 0.10650
#
# Static dielectric constant tensor:
#      x y z
#    x 1.599930 0.000000 0.000000 
#    y 0.000000 1.685830 0.000000 
#    z 0.000000 0.000000 1.681050 
# 
# From -- ./inp_files/2807.got.cif
#   From: 2010.05.17/outbox.cif.g08.bks.cpg/sg30_2_cif.got.tgz:2807.got - 2010.06.03 17:03:02.
