data_PCOD9342894
_publ_section_title
;
Structure prediction by ZEFSAII (Michael W. Deem and Ramdas Pophale) SiO2 
 PCOD9342894
Probable space group: P M N 21
;
_chemical_formula_sum "Si O2"
_cell_formula_units_Z 32
_cell_length_a 26.897064
_cell_length_b 5.919192
_cell_length_c 8.078049
_cell_angle_alpha 90.000000
_cell_angle_beta 90.000000
_cell_angle_gamma 90.000000
_cell_volume 1286.097183
_symmetry_space_group_name_H-M "P M N 21"
_symmetry_group_IT_number 31
_symmetry_cell_setting 'orthorhombic'
loop_
_space_group_symop_operation_xyz
x,y,z
1/2-x,-y,1/2+z
-x,y,z
1/2+x,-y,1/2+z
loop_
_atom_site_type_symbol
_atom_site_label
_atom_site_fract_x
_atom_site_fract_y
_atom_site_fract_z
Si Si1 0.755787 0.147470 0.652960
Si Si2 0.347553 0.126864 0.217281
Si Si3 0.943076 0.646335 0.722774
Si Si4 0.733174 0.446578 0.344240
Si Si5 0.161751 0.381669 0.256481
Si Si6 0.552193 0.099377 0.574214
Si Si7 0.148664 0.887068 0.290943
Si Si8 0.894881 0.272547 0.923283
O O1 0.753759 0.324531 0.505457
O O2 0.769751 0.286399 0.819439
O O3 0.698995 0.080152 0.682537
O O4 0.800421 0.974271 0.617688
O O5 0.399724 0.203950 0.134453
O O6 0.320001 0.339084 0.301633
O O7 0.363873 0.936841 0.347996
O O8 0.916742 0.410898 0.768451
O O9 0.000000 0.636728 0.657403
O O10 0.946544 0.754993 0.906738
O O11 0.779046 0.374498 0.225680
O O12 0.155960 0.623817 0.352319
O O13 0.143386 0.152886 0.349641
O O14 0.135047 0.385406 0.076133
O O15 0.500000 0.139498 0.661014
O O16 0.598980 0.145267 0.686238
O O17 0.558064 0.842396 0.513641
#
# Coordination Sequence:
#
# PCOD9342894 Si02
#       8
#     4   4   4   4   4   4   4   4
#     4  11  24  39  59  86 125 171 216 264 323 398
#     4  11  23  36  58  85 127 162 214 268 324 396
#     4  10  19  33  54  85 120 161 210 268 336 392
#     4  11  24  39  59  88 126 171 212 260 326 391
#     4  10  20  35  56  82 121 165 206 250 320 385
#     4   9  17  29  50  81 120 161 203 253 323 388
#     4  10  19  36  52  82 119 167 202 257 317 379
#     4  10  19  33  56  83 124 162 202 266 325 389
#
# _framework density 24.88148
#
# number of rings (size 3 to 8) (size 9 to 14) (size 15 to 20)
#    0.000    1.750    2.500    3.375    5.250    0.500 
#    0.000    0.000    0.000    0.000    0.000    7.875 
#    0.000    0.000    0.000    0.000    0.000    0.000 
#
# Total GULP energy -178202.858425 kJ/mol
# GULP energy per Si atom -5568.839326 kJ/mol
# Density = 2.482485 g / cm^3
# Si number density = 24.881480 Si / 1000 Ang^3
#
#
#
# Elastic Constant Matrix: (Units=GPa)
#
#
# Indices 1 2 3 4 5 6 
#
# 1 196.2776 43.4959 17.5801 0.0000 0.0000 0.0000
# 2 43.4959 110.4758 8.5741 0.0000 0.0000 0.0000
# 3 17.5801 8.5741 28.4302 0.0000 0.0000 0.0000
# 4 0.0000 0.0000 0.0000 21.3922 0.0000 0.0000
# 5 0.0000 0.0000 0.0000 0.0000 21.0767 0.0000
# 6 0.0000 0.0000 0.0000 0.0000 0.0000 16.8704
#
#
#
# Elastic Compliance Matrix: (Units=1/GPa)
#
#
# Indices 1 2 3 4 5 6 
#
# 1 0.005818 -0.002060 -0.002976 0.000000 0.000000 0.000000
# 2 -0.002060 0.009998 -0.001742 0.000000 0.000000 0.000000
# 3 -0.002976 -0.001742 0.037540 0.000000 0.000000 0.000000
# 4 0.000000 0.000000 0.000000 0.046746 0.000000 0.000000
# 5 0.000000 0.000000 0.000000 0.000000 0.047446 0.000000
# 6 0.000000 0.000000 0.000000 0.000000 0.000000 0.059275
#
#
# Mechanical properties :
#
#
# Convention : Reuss Voigt Hill
#
# Bulk Modulus (GPa) = 25.12558 52.72044 38.92301
# Shear Modulus (GPa) = 21.40007 29.57011 25.48509
#
# Velocity S-wave (km/s) = 2.93589 3.45111 3.20388
# Velocity P-wave (km/s) = 4.64894 6.09220 5.41883
#
# Compressibility (1/GPa) = 0.03980007
#
# Stress axis : x y z
#
# Youngs Moduli (GPa) = 171.88579 100.02194 26.63854
#
# Poissons Ratio (x) = 0.20600 0.07929
# Poissons Ratio (y) = 0.35401 0.04639
# Poissons Ratio (z) = 0.51160 0.17420
#
# Static dielectric constant tensor:
#      x y z
#    x 1.972060 0.000000 0.000000 
#    y 0.000000 2.138860 0.000000 
#    z 0.000000 0.000000 2.115950 
# 
# From -- ./inp_files/4595.got.cif
#   From: 2010.05.17/outbox.cif.g08.bks.cpg/sg31_3_cif.got.tgz:4595.got - 2010.06.03 17:08:30.
