data_PCOD9342405
_publ_section_title
;
Structure prediction by ZEFSAII (Michael W. Deem and Ramdas Pophale) SiO2 
 PCOD9342405
Probable space group: P N C 2
;
_chemical_formula_sum "Si O2"
_cell_formula_units_Z 26
_cell_length_a 8.191448
_cell_length_b 9.822495
_cell_length_c 14.153196
_cell_angle_alpha 90.000000
_cell_angle_beta 90.000000
_cell_angle_gamma 90.000000
_cell_volume 1138.772618
_symmetry_space_group_name_H-M "P N C 2"
_symmetry_group_IT_number 30
_symmetry_cell_setting 'orthorhombic'
loop_
_space_group_symop_operation_xyz
x,y,z
-x,-y,z
-x,1/2+y,1/2+z
x,1/2-y,1/2+z
loop_
_atom_site_type_symbol
_atom_site_label
_atom_site_fract_x
_atom_site_fract_y
_atom_site_fract_z
Si Si1 0.548670 0.753354 0.287780
Si Si2 0.255814 0.071509 0.652526
Si Si3 0.082768 0.800651 0.709677
Si Si4 0.211453 0.730703 0.895528
Si Si5 0.500000 0.000000 0.142220
Si Si6 0.164380 0.919603 0.070972
Si Si7 0.317765 0.059912 0.432816
O O1 0.614563 0.628146 0.227164
O O2 0.386806 0.730332 0.349707
O O3 0.507381 0.869500 0.210572
O O4 0.684085 0.815211 0.359936
O O5 0.301319 0.092642 0.543244
O O6 0.091308 0.156598 0.670322
O O7 0.209486 0.915210 0.673666
O O8 0.083494 0.791943 0.822069
O O9 0.132497 0.654208 0.670592
O O10 0.203360 0.567521 0.906236
O O11 0.191793 0.800406 0.995770
O O12 0.333851 0.000280 0.081455
O O13 0.000000 0.000000 0.046280
O O14 0.500000 0.000000 0.420806
#
# Coordination Sequence:
#
# PCOD9342405 Si02
#       7
#     4   4   4   4   2   4   4
#     4  11  23  44  76 108 139 191 252 304 374 462
#     4  11  26  42  73 108 145 193 246 304 383 450
#     4  11  25  48  66 104 150 190 241 313 370 443
#     4  11  24  46  73 102 147 191 243 313 375 441
#     4  12  24  48  76 104 148 198 254 300 382 454
#     4  12  27  48  74 106 151 197 251 316 371 452
#     4  10  22  45  73 105 140 194 247 305 374 454
#
# _framework density 22.831600000000002
#
# number of rings (size 3 to 8) (size 9 to 14) (size 15 to 20)
#    0.000    0.923    5.385    0.923    8.615    2.462 
#    0.000    0.000    0.000    0.000    0.000    0.000 
#    0.000    0.000    0.000    0.000    0.000    0.000 
#
# Total GULP energy -145511.725631 kJ/mol
# GULP energy per Si atom -5596.604832 kJ/mol
# Density = 2.277963 g / cm^3
# Si number density = 22.831600 Si / 1000 Ang^3
#
#
#
# Elastic Constant Matrix: (Units=GPa)
#
#
# Indices 1 2 3 4 5 6 
#
# 1 96.3773 37.6439 14.1650 0.0000 0.0000 0.0000
# 2 37.6439 57.9142 17.8330 0.0000 0.0000 0.0000
# 3 14.1650 17.8330 113.0393 0.0000 0.0000 0.0000
# 4 0.0000 0.0000 0.0000 42.5463 0.0000 0.0000
# 5 0.0000 0.0000 0.0000 0.0000 55.5822 0.0000
# 6 0.0000 0.0000 0.0000 0.0000 0.0000 20.0951
#
#
#
# Elastic Compliance Matrix: (Units=1/GPa)
#
#
# Indices 1 2 3 4 5 6 
#
# 1 0.013918 -0.008944 -0.000333 0.000000 0.000000 0.000000
# 2 -0.008944 0.023896 -0.002649 0.000000 0.000000 0.000000
# 3 -0.000333 -0.002649 0.009306 0.000000 0.000000 0.000000
# 4 0.000000 0.000000 0.000000 0.023504 0.000000 0.000000
# 5 0.000000 0.000000 0.000000 0.000000 0.017991 0.000000
# 6 0.000000 0.000000 0.000000 0.000000 0.000000 0.049763
#
#
# Mechanical properties :
#
#
# Convention : Reuss Voigt Hill
#
# Bulk Modulus (GPa) = 42.97747 45.17940 44.07844
# Shear Modulus (GPa) = 29.41378 36.82398 33.11888
#
# Velocity S-wave (km/s) = 3.59317 4.02039 3.81277
# Velocity P-wave (km/s) = 6.00659 6.43292 6.22340
#
# Compressibility (1/GPa) = 0.02326800
#
# Stress axis : x y z
#
# Youngs Moduli (GPa) = 71.84738 41.84733 107.45601
#
# Poissons Ratio (x) = 0.37430 0.03579
# Poissons Ratio (y) = 0.64263 0.28466
# Poissons Ratio (z) = 0.02393 0.11086
#
# Static dielectric constant tensor:
#      x y z
#    x 1.892430 0.000000 0.000000 
#    y 0.000000 1.856290 0.000000 
#    z 0.000000 0.000000 1.784190 
# 
# From -- ./inp_files/3671.got.cif
#   From: 2010.05.17/outbox.cif.g08.bks.cpg/sg30_2_cif.got.tgz:3671.got - 2010.06.03 17:03:02.
