data_PCOD9342340
_publ_section_title
;
Structure prediction by ZEFSAII (Michael W. Deem and Ramdas Pophale) SiO2 
 PCOD9342340
Probable space group: P N C 2
;
_chemical_formula_sum "Si O2"
_cell_formula_units_Z 20
_cell_length_a 11.535090
_cell_length_b 8.694508
_cell_length_c 9.138062
_cell_angle_alpha 90.000000
_cell_angle_beta 90.000000
_cell_angle_gamma 90.000000
_cell_volume 916.473895
_symmetry_space_group_name_H-M "P N C 2"
_symmetry_group_IT_number 30
_symmetry_cell_setting 'orthorhombic'
loop_
_space_group_symop_operation_xyz
x,y,z
-x,-y,z
-x,1/2+y,1/2+z
x,1/2-y,1/2+z
loop_
_atom_site_type_symbol
_atom_site_label
_atom_site_fract_x
_atom_site_fract_y
_atom_site_fract_z
Si Si1 0.389794 0.117920 0.290820
Si Si2 0.000000 0.000000 0.679248
Si Si3 0.849044 0.348637 0.423857
Si Si4 0.000000 0.000000 0.174338
Si Si5 0.162120 0.480999 0.927706
Si Si6 0.372390 0.067391 0.955330
O O1 0.394886 0.294607 0.341545
O O2 0.500000 0.000000 0.301053
O O3 0.293616 0.060045 0.404261
O O4 0.346051 0.116167 0.123084
O O5 0.072837 0.891346 0.784885
O O6 0.093977 0.076136 0.570265
O O7 0.919451 0.401333 0.567319
O O8 0.837367 0.166179 0.429719
O O9 0.728815 0.445559 0.413925
O O10 0.911198 0.921423 0.288386
O O11 0.500000 0.000000 0.967107
#
# Coordination Sequence:
#
# PCOD9342340 Si02
#       6
#     4   2   4   2   4   4
#     4  11  26  47  71 102 136 176 225 281 339 404
#     4  10  26  38  66 104 134 182 226 262 340 394
#     4  11  23  44  69  99 136 180 224 281 330 400
#     4  10  22  42  62 100 138 178 218 278 332 398
#     4  11  23  44  69  99 136 180 224 281 330 400
#     4  11  26  47  71 102 136 176 225 281 339 404
#
# _framework density 21.822770999999999
#
# number of rings (size 3 to 8) (size 9 to 14) (size 15 to 20)
#    0.000    1.200    2.000    2.400    2.800   10.400 
#    0.000    0.000    0.000    0.000    0.000    0.000 
#    0.000    0.000    0.000    0.000    0.000    0.000 
#
# Total GULP energy -111654.925742 kJ/mol
# GULP energy per Si atom -5582.746287 kJ/mol
# Density = 2.177310 g / cm^3
# Si number density = 21.822771 Si / 1000 Ang^3
#
#
#
# Elastic Constant Matrix: (Units=GPa)
#
#
# Indices 1 2 3 4 5 6 
#
# 1 113.4988 35.5961 31.5727 0.0000 0.0000 0.0000
# 2 35.5961 74.8361 24.7147 0.0000 0.0000 0.0000
# 3 31.5727 24.7147 120.8715 0.0000 0.0000 0.0000
# 4 0.0000 0.0000 0.0000 16.1796 0.0000 0.0000
# 5 0.0000 0.0000 0.0000 0.0000 15.7539 0.0000
# 6 0.0000 0.0000 0.0000 0.0000 0.0000 31.9298
#
#
#
# Elastic Compliance Matrix: (Units=1/GPa)
#
#
# Indices 1 2 3 4 5 6 
#
# 1 0.010743 -0.004486 -0.001889 0.000000 0.000000 0.000000
# 2 -0.004486 0.016204 -0.002141 0.000000 0.000000 0.000000
# 3 -0.001889 -0.002141 0.009204 0.000000 0.000000 0.000000
# 4 0.000000 0.000000 0.000000 0.061806 0.000000 0.000000
# 5 0.000000 0.000000 0.000000 0.000000 0.063476 0.000000
# 6 0.000000 0.000000 0.000000 0.000000 0.000000 0.031319
#
#
# Mechanical properties :
#
#
# Convention : Reuss Voigt Hill
#
# Bulk Modulus (GPa) = 52.30580 54.77482 53.54031
# Shear Modulus (GPa) = 23.13122 27.26086 25.19604
#
# Velocity S-wave (km/s) = 3.25923 3.53823 3.40159
# Velocity P-wave (km/s) = 6.17932 6.46888 6.32575
#
# Compressibility (1/GPa) = 0.01911834
#
# Stress axis : x y z
#
# Youngs Moduli (GPa) = 93.08308 61.71475 108.64274
#
# Poissons Ratio (x) = 0.27686 0.20521
# Poissons Ratio (y) = 0.41759 0.23264
# Poissons Ratio (z) = 0.17582 0.13215
#
# Static dielectric constant tensor:
#      x y z
#    x 1.826590 0.000000 0.000000 
#    y 0.000000 1.924140 0.000000 
#    z 0.000000 0.000000 1.799730 
# 
# From -- ./inp_files/2296.got.cif
#   From: 2010.05.17/outbox.cif.g08.bks.cpg/sg30_2_cif.got.tgz:2296.got - 2010.06.03 17:03:02.
