data_PCOD9342179
_publ_section_title
;
Structure prediction by ZEFSAII (Michael W. Deem and Ramdas Pophale) SiO2 
 PCOD9342179
Probable space group: P N C 2
;
_chemical_formula_sum "Si O2"
_cell_formula_units_Z 32
_cell_length_a 9.120519
_cell_length_b 10.575270
_cell_length_c 18.511929
_cell_angle_alpha 90.000000
_cell_angle_beta 90.000000
_cell_angle_gamma 90.000000
_cell_volume 1785.511668
_symmetry_space_group_name_H-M "P N C 2"
_symmetry_group_IT_number 30
_symmetry_cell_setting 'orthorhombic'
loop_
_space_group_symop_operation_xyz
x,y,z
-x,-y,z
-x,1/2+y,1/2+z
x,1/2-y,1/2+z
loop_
_atom_site_type_symbol
_atom_site_label
_atom_site_fract_x
_atom_site_fract_y
_atom_site_fract_z
Si Si1 0.172089 0.974650 0.196910
Si Si2 0.360696 0.275523 0.867540
Si Si3 0.321487 0.998650 0.863504
Si Si4 0.327377 0.748429 0.616943
Si Si5 0.172089 0.974650 0.365310
Si Si6 0.360696 0.275523 0.694679
Si Si7 0.672623 0.248429 0.445276
Si Si8 0.321487 0.998650 0.698715
O O1 0.223583 0.861256 0.146630
O O2 0.203294 0.941884 0.281110
O O3 0.262740 0.102135 0.180380
O O4 0.000000 0.000000 0.190177
O O5 0.280980 0.142019 0.884198
O O6 0.262740 0.397865 0.881840
O O7 0.393473 0.271857 0.781110
O O8 0.512144 0.279048 0.911104
O O9 0.500000 0.000000 0.863580
O O10 0.277032 0.885011 0.915195
O O11 0.274025 0.973168 0.781109
O O12 0.487856 0.720952 0.651115
O O13 0.335956 0.749999 0.531110
O O14 0.277032 0.885011 0.647024
O O15 0.223584 0.861257 0.415590
O O16 0.000000 0.000000 0.372043
O O17 0.280980 0.142019 0.678021
O O18 0.500000 0.000000 0.698638
#
# Coordination Sequence:
#
# PCOD9342179 Si02
#       8
#     4   4   4   4   4   4   4   4
#     4  10  21  38  58  80 109 147 190 230 268 318
#     4   9  18  34  57  81 104 136 181 230 274 318
#     4   8  15  30  51  74 100 131 171 220 269 315
#     4  11  21  33  52  82 111 140 178 223 279 331
#     4  10  21  38  58  80 109 147 190 230 268 318
#     4   9  18  34  57  81 104 136 181 230 274 318
#     4  11  21  33  52  82 111 140 178 223 279 331
#     4   8  15  30  51  74 100 131 171 220 269 315
#
# _framework density 17.922034
#
# number of rings (size 3 to 8) (size 9 to 14) (size 15 to 20)
#    0.000    2.500    0.000    4.500    0.000    8.000 
#    0.000    5.000    0.000    6.000    0.000    0.000 
#    0.000    0.000    0.000    0.000    0.000    0.000 
#
# Total GULP energy -178507.667038 kJ/mol
# GULP energy per Si atom -5578.364595 kJ/mol
# Density = 1.788124 g / cm^3
# Si number density = 17.922034 Si / 1000 Ang^3
#
#
#
# Elastic Constant Matrix: (Units=GPa)
#
#
# Indices 1 2 3 4 5 6 
#
# 1 38.8698 33.7777 38.3856 0.0000 0.0000 0.0000
# 2 33.7777 130.5888 80.7652 0.0000 0.0000 0.0000
# 3 38.3856 80.7652 98.2729 0.0000 0.0000 0.0000
# 4 0.0000 0.0000 0.0000 -9.4777 0.0000 0.0000
# 5 0.0000 0.0000 0.0000 0.0000 15.5576 0.0000
# 6 0.0000 0.0000 0.0000 0.0000 0.0000 2.4711
#
#
#
# Elastic Compliance Matrix: (Units=1/GPa)
#
#
# Indices 1 2 3 4 5 6 
#
# 1 0.042019 -0.001460 -0.015213 0.000000 0.000000 0.000000
# 2 -0.001460 0.015624 -0.012270 0.000000 0.000000 0.000000
# 3 -0.015213 -0.012270 0.026202 0.000000 0.000000 0.000000
# 4 0.000000 0.000000 0.000000 -0.105511 0.000000 0.000000
# 5 0.000000 0.000000 0.000000 0.000000 0.064277 0.000000
# 6 0.000000 0.000000 0.000000 0.000000 0.000000 0.404678
#
#
# Mechanical properties :
#
#
# Convention : Reuss Voigt Hill
#
# Bulk Modulus (GPa) = 38.52213 63.73205 51.12709
# Shear Modulus (GPa) = 9.73088 9.36375 9.54731
#
# Velocity S-wave (km/s) = 2.33267 2.28824 2.31056
# Velocity P-wave (km/s) = 5.36620 6.52835 5.97559
#
# Compressibility (1/GPa) = 0.02595910
#
# Stress axis : x y z
#
# Youngs Moduli (GPa) = 23.79877 64.00396 38.16452
#
# Poissons Ratio (x) = 0.09343 0.58060
# Poissons Ratio (y) = 0.03474 0.46829
# Poissons Ratio (z) = 0.36205 0.78535
#
# Static dielectric constant tensor:
#      x y z
#    x 1.584780 0.000000 0.000000 
#    y 0.000000 1.643370 0.000000 
#    z 0.000000 0.000000 1.595670 
# 
# From -- ./inp_files/5230.got.cif
#   From: 2010.05.17/outbox.cif.g08.bks.cpg/sg30_3_cif.got.tgz:5230.got - 2010.06.03 17:03:02.
