data_PCOD9342935
_publ_section_title
;
Structure prediction by ZEFSAII (Michael W. Deem and Ramdas Pophale) SiO2 
 PCOD9342935
Probable space group: P M N 21
;
_chemical_formula_sum "Si O2"
_cell_formula_units_Z 32
_cell_length_a 8.605944
_cell_length_b 10.516012
_cell_length_c 19.854553
_cell_angle_alpha 90.000000
_cell_angle_beta 90.000000
_cell_angle_gamma 90.000000
_cell_volume 1796.841223
_symmetry_space_group_name_H-M "P M N 21"
_symmetry_group_IT_number 31
_symmetry_cell_setting 'orthorhombic'
loop_
_space_group_symop_operation_xyz
x,y,z
1/2-x,-y,1/2+z
-x,y,z
1/2+x,-y,1/2+z
loop_
_atom_site_type_symbol
_atom_site_label
_atom_site_fract_x
_atom_site_fract_y
_atom_site_fract_z
Si Si1 0.188286 0.374380 0.457970
Si Si2 0.311721 0.726665 0.816550
Si Si3 0.686142 0.879860 0.449800
Si Si4 0.185021 0.014228 0.668099
Si Si5 0.186814 0.271947 0.165652
Si Si6 0.813664 0.636038 0.528473
Si Si7 0.313640 0.129804 0.535710
Si Si8 0.313646 0.022835 0.813437
O O1 0.241105 0.354678 0.380492
O O2 0.236789 0.506920 0.491322
O O3 0.250266 0.256041 0.500782
O O4 0.000000 0.370171 0.458374
O O5 0.500000 0.723041 0.816019
O O6 0.261807 0.688639 0.741171
O O7 0.267862 0.874877 0.826617
O O8 0.500000 0.874862 0.447190
O O9 0.749044 0.757558 0.488624
O O10 0.754276 0.893742 0.375141
O O11 0.731561 0.007030 0.490858
O O12 0.258986 0.874265 0.656539
O O13 0.000000 0.002978 0.666180
O O14 0.244264 0.105863 0.609393
O O15 0.241111 0.057903 0.741658
O O16 0.000000 0.274242 0.162616
O O17 0.254642 0.354016 0.105047
O O18 0.000000 0.641285 0.528334
O O19 0.500000 0.134069 0.539386
O O20 0.500000 0.027634 0.808951
#
# Coordination Sequence:
#
# PCOD9342935 Si02
#       8
#     4   4   4   4   4   4   4   4
#     4  10  21  39  59  83 114 151 196 240 291 350
#     4   8  16  32  56  81 106 141 183 232 283 339
#     4  11  22  36  57  84 116 149 191 241 287 341
#     4  11  21  34  56  85 118 150 189 239 294 343
#     4  10  19  34  56  82 111 147 193 239 290 347
#     4  11  23  37  57  84 116 156 197 238 290 350
#     4  11  22  36  57  86 115 148 192 237 287 340
#     4  10  19  34  58  85 116 148 189 238 292 348
#
# _framework density 17.80903
#
# number of rings (size 3 to 8) (size 9 to 14) (size 15 to 20)
#    0.000    1.750    2.500    3.750    0.000    2.000 
#    0.000    1.875    0.000    4.500    0.000    0.000 
#    0.000    0.000    0.000    0.000    0.000    0.000 
#
# Total GULP energy -178685.029057 kJ/mol
# GULP energy per Si atom -5583.907158 kJ/mol
# Density = 1.776850 g / cm^3
# Si number density = 17.809030 Si / 1000 Ang^3
#
#
#
# Elastic Constant Matrix: (Units=GPa)
#
#
# Indices 1 2 3 4 5 6 
#
# 1 44.2582 26.4436 28.2815 0.0000 0.0000 0.0000
# 2 26.4436 98.4328 67.6344 0.0000 0.0000 0.0000
# 3 28.2815 67.6344 168.8368 0.0000 0.0000 0.0000
# 4 0.0000 0.0000 0.0000 29.2525 0.0000 0.0000
# 5 0.0000 0.0000 0.0000 0.0000 30.8875 0.0000
# 6 0.0000 0.0000 0.0000 0.0000 0.0000 18.9270
#
#
#
# Elastic Compliance Matrix: (Units=1/GPa)
#
#
# Indices 1 2 3 4 5 6 
#
# 1 0.027534 -0.005834 -0.002275 0.000000 0.000000 0.000000
# 2 -0.005834 0.015253 -0.005133 0.000000 0.000000 0.000000
# 3 -0.002275 -0.005133 0.008360 0.000000 0.000000 0.000000
# 4 0.000000 0.000000 0.000000 0.034185 0.000000 0.000000
# 5 0.000000 0.000000 0.000000 0.000000 0.032376 0.000000
# 6 0.000000 0.000000 0.000000 0.000000 0.000000 0.052835
#
#
# Mechanical properties :
#
#
# Convention : Reuss Voigt Hill
#
# Bulk Modulus (GPa) = 40.54534 61.80520 51.17527
# Shear Modulus (GPa) = 24.36069 28.42461 26.39265
#
# Velocity S-wave (km/s) = 3.70250 3.99943 3.85383
# Velocity P-wave (km/s) = 6.41048 7.49046 6.97141
#
# Compressibility (1/GPa) = 0.02466375
#
# Stress axis : x y z
#
# Youngs Moduli (GPa) = 36.31858 65.55883 119.61243
#
# Poissons Ratio (x) = 0.38244 0.27216
# Poissons Ratio (y) = 0.21187 0.61400
# Poissons Ratio (z) = 0.08264 0.33653
#
# Static dielectric constant tensor:
#      x y z
#    x 1.598330 0.000000 0.000000 
#    y 0.000000 1.576730 0.000000 
#    z 0.000000 0.000000 1.623010 
# 
# From -- ./inp_files/5858.got.cif
#   From: 2010.05.17/outbox.cif.g08.bks.cpg/sg31_3_cif.got.tgz:5858.got - 2010.06.03 17:08:30.
