data_PCOD9342849
_publ_section_title
;
Structure prediction by ZEFSAII (Michael W. Deem and Ramdas Pophale) SiO2 
 PCOD9342849
Probable space group: P M N 21
;
_chemical_formula_sum "Si O2"
_cell_formula_units_Z 32
_cell_length_a 7.448311
_cell_length_b 15.067715
_cell_length_c 12.675313
_cell_angle_alpha 90.000000
_cell_angle_beta 90.000000
_cell_angle_gamma 90.000000
_cell_volume 1422.538050
_symmetry_space_group_name_H-M "P M N 21"
_symmetry_group_IT_number 31
_symmetry_cell_setting 'orthorhombic'
loop_
_space_group_symop_operation_xyz
x,y,z
1/2-x,-y,1/2+z
-x,y,z
1/2+x,-y,1/2+z
loop_
_atom_site_type_symbol
_atom_site_label
_atom_site_fract_x
_atom_site_fract_y
_atom_site_fract_z
Si Si1 0.717179 0.341919 0.065030
Si Si2 0.712592 0.854301 0.071035
Si Si3 0.220201 0.162125 0.335396
Si Si4 0.783910 0.046634 0.135064
Si Si5 0.294596 0.836107 0.452854
Si Si6 0.284182 0.730583 0.249215
Si Si7 0.293858 0.637975 0.802104
Si Si8 0.785290 0.551435 0.361418
O O1 0.788068 0.372283 0.176524
O O2 0.000000 0.543114 0.366124
O O3 0.790295 0.245214 0.035744
O O4 0.775606 0.406078 0.971031
O O5 0.500000 0.840397 0.059463
O O6 0.741819 0.943051 0.138386
O O7 0.782117 0.771148 0.139203
O O8 0.780651 0.867043 0.952014
O O9 0.280496 0.101265 0.237323
O O10 0.281577 0.264284 0.323521
O O11 0.000000 0.160451 0.330938
O O12 0.000000 0.056711 0.131894
O O13 0.713227 0.085022 0.022778
O O14 0.500000 0.860520 0.427084
O O15 0.215028 0.792254 0.346731
O O16 0.500000 0.738648 0.251201
O O17 0.248168 0.627635 0.274114
O O18 0.500000 0.642500 0.840020
O O19 0.211300 0.547035 0.845089
O O20 0.000000 0.662391 0.567410
#
# Coordination Sequence:
#
# PCOD9342849 Si02
#       8
#     4   4   4   4   4   4   4   4
#     4  10  19  32  51  81 110 134 177 233 276 310
#     4  10  22  37  55  81 111 145 183 225 275 325
#     4   9  19  37  57  78 106 143 185 219 266 333
#     4  10  20  35  56  79 105 142 184 224 270 328
#     4   9  17  33  55  75 100 139 181 218 269 328
#     4   9  19  35  55  79 110 144 179 225 274 322
#     4  10  19  36  58  77 106 149 186 220 268 333
#     4   9  20  35  55  82 110 144 185 226 272 325
#
# _framework density 22.495006
#
# number of rings (size 3 to 8) (size 9 to 14) (size 15 to 20)
#    0.000    2.500    1.250    0.375    1.750    3.000 
#    0.000    3.125    0.000    0.000    0.000    0.000 
#    0.000    0.000    0.000    0.000    0.000    0.000 
#
# Total GULP energy -178547.948742 kJ/mol
# GULP energy per Si atom -5579.623398 kJ/mol
# Density = 2.244381 g / cm^3
# Si number density = 22.495006 Si / 1000 Ang^3
#
#
#
# Elastic Constant Matrix: (Units=GPa)
#
#
# Indices 1 2 3 4 5 6 
#
# 1 72.8206 -10.9730 -3.1400 0.0000 0.0000 0.0000
# 2 -10.9730 122.4198 43.1662 0.0000 0.0000 0.0000
# 3 -3.1400 43.1662 70.4712 0.0000 0.0000 0.0000
# 4 0.0000 0.0000 0.0000 23.7150 0.0000 0.0000
# 5 0.0000 0.0000 0.0000 0.0000 0.8076 0.0000
# 6 0.0000 0.0000 0.0000 0.0000 0.0000 6.6145
#
#
#
# Elastic Compliance Matrix: (Units=1/GPa)
#
#
# Indices 1 2 3 4 5 6 
#
# 1 0.013922 0.001313 -0.000184 0.000000 0.000000 0.000000
# 2 0.001313 0.010543 -0.006399 0.000000 0.000000 0.000000
# 3 -0.000184 -0.006399 0.018102 0.000000 0.000000 0.000000
# 4 0.000000 0.000000 0.000000 0.042167 0.000000 0.000000
# 5 0.000000 0.000000 0.000000 0.000000 1.238257 0.000000
# 6 0.000000 0.000000 0.000000 0.000000 0.000000 0.151182
#
#
# Mechanical properties :
#
#
# Convention : Reuss Voigt Hill
#
# Bulk Modulus (GPa) = 31.22451 35.97975 33.60213
# Shear Modulus (GPa) = 3.34361 22.00467 12.67414
#
# Velocity S-wave (km/s) = 1.22049 3.13102 2.37622
# Velocity P-wave (km/s) = 3.98709 5.39447 4.74327
#
# Compressibility (1/GPa) = 0.03202613
#
# Stress axis : x y z
#
# Youngs Moduli (GPa) = 71.82740 94.85219 55.24305
#
# Poissons Ratio (x) = -0.12451 0.01015
# Poissons Ratio (y) = -0.09429 0.35352
# Poissons Ratio (z) = 0.01320 0.60699
#
# Static dielectric constant tensor:
#      x y z
#    x 1.865170 0.000000 0.000000 
#    y 0.000000 1.823010 0.000000 
#    z 0.000000 0.000000 1.831830 
# 
# From -- ./inp_files/5127.got.cif
#   From: 2010.05.17/outbox.cif.g08.bks.cpg/sg31_3_cif.got.tgz:5127.got - 2010.06.03 17:08:30.
