data_PCOD9342569
_publ_section_title
;
Structure prediction by ZEFSAII (Michael W. Deem and Ramdas Pophale) SiO2 
 PCOD9342569
Probable space group: P N C 2
;
_chemical_formula_sum "Si O2"
_cell_formula_units_Z 32
_cell_length_a 8.843508
_cell_length_b 12.222041
_cell_length_c 13.829603
_cell_angle_alpha 90.000000
_cell_angle_beta 90.000000
_cell_angle_gamma 90.000000
_cell_volume 1494.782561
_symmetry_space_group_name_H-M "P N C 2"
_symmetry_group_IT_number 30
_symmetry_cell_setting 'orthorhombic'
loop_
_space_group_symop_operation_xyz
x,y,z
-x,-y,z
-x,1/2+y,1/2+z
x,1/2-y,1/2+z
loop_
_atom_site_type_symbol
_atom_site_label
_atom_site_fract_x
_atom_site_fract_y
_atom_site_fract_z
Si Si1 0.781012 0.524113 0.133650
Si Si2 0.427273 0.880386 0.140808
Si Si3 0.383593 0.296391 0.250929
Si Si4 0.045499 0.652349 0.029389
Si Si5 0.874361 0.414844 0.333805
Si Si6 0.071426 0.610096 0.623292
Si Si7 0.061743 0.197519 0.315043
Si Si8 0.565115 0.117666 0.933423
O O1 0.651017 0.611747 0.167280
O O2 0.805502 0.423076 0.055275
O O3 0.808724 0.464886 0.235369
O O4 0.916625 0.602852 0.099427
O O5 0.508782 0.798888 0.212822
O O6 0.247975 0.897142 0.149610
O O7 0.500000 0.000000 0.152012
O O8 0.453232 0.823910 0.035436
O O9 0.229145 0.245351 0.295224
O O10 0.472906 0.345135 0.341315
O O11 0.057588 0.779709 0.058816
O O12 0.980011 0.645209 0.919697
O O13 0.739484 0.394993 0.407127
O O14 0.000000 0.500000 0.367680
O O15 0.951764 0.301378 0.310131
O O16 0.000000 0.500000 0.578699
O O17 0.978744 0.625375 0.722700
O O18 0.500000 0.000000 0.956331
#
# Coordination Sequence:
#
# PCOD9342569 Si02
#       8
#     4   4   4   4   4   4   4   4
#     4  11  21  44  70 100 140 183 232 313 345 419
#     4  11  28  47  65 101 150 184 237 295 358 440
#     4  12  24  44  73 100 144 192 231 295 371 435
#     4  11  24  42  68 110 138 174 244 305 348 421
#     4  12  19  43  70 101 135 177 244 298 343 414
#     4  12  25  46  71 100 139 192 234 293 357 418
#     4  12  24  40  72 101 137 187 238 290 362 426
#     4  11  24  41  69 100 132 185 233 290 357 427
#
# _framework density 21.407796000000001
#
# number of rings (size 3 to 8) (size 9 to 14) (size 15 to 20)
#    0.000    0.500    6.250    2.250    3.500    3.000 
#    0.000    0.000    0.000    0.750    0.000    0.000 
#    0.000    0.000    0.000    0.000    0.000    0.000 
#
# Total GULP energy -178546.619865 kJ/mol
# GULP energy per Si atom -5579.581871 kJ/mol
# Density = 2.135907 g / cm^3
# Si number density = 21.407796 Si / 1000 Ang^3
#
#
#
# Elastic Constant Matrix: (Units=GPa)
#
#
# Indices 1 2 3 4 5 6 
#
# 1 66.4550 12.9834 -16.8634 0.0000 0.0000 0.0000
# 2 12.9834 97.4597 -1.1636 0.0000 0.0000 0.0000
# 3 -16.8634 -1.1636 69.8108 0.0000 0.0000 0.0000
# 4 0.0000 0.0000 0.0000 15.1632 0.0000 0.0000
# 5 0.0000 0.0000 0.0000 0.0000 26.2860 0.0000
# 6 0.0000 0.0000 0.0000 0.0000 0.0000 32.8671
#
#
#
# Elastic Compliance Matrix: (Units=1/GPa)
#
#
# Indices 1 2 3 4 5 6 
#
# 1 0.016467 -0.002147 0.003942 0.000000 0.000000 0.000000
# 2 -0.002147 0.010543 -0.000343 0.000000 0.000000 0.000000
# 3 0.003942 -0.000343 0.015271 0.000000 0.000000 0.000000
# 4 0.000000 0.000000 0.000000 0.065949 0.000000 0.000000
# 5 0.000000 0.000000 0.000000 0.000000 0.038043 0.000000
# 6 0.000000 0.000000 0.000000 0.000000 0.000000 0.030426
#
#
# Mechanical properties :
#
#
# Convention : Reuss Voigt Hill
#
# Bulk Modulus (GPa) = 22.13071 24.84870 23.48971
# Shear Modulus (GPa) = 26.47526 30.78122 28.62824
#
# Velocity S-wave (km/s) = 3.52051 3.79601 3.66085
# Velocity P-wave (km/s) = 5.18511 5.55387 5.37266
#
# Compressibility (1/GPa) = 0.04518609
#
# Stress axis : x y z
#
# Youngs Moduli (GPa) = 60.72567 94.85387 65.48381
#
# Poissons Ratio (x) = 0.20362 -0.25814
# Poissons Ratio (y) = 0.13036 0.02245
# Poissons Ratio (z) = -0.23939 0.03252
#
# Static dielectric constant tensor:
#      x y z
#    x 1.775650 0.000000 0.000000 
#    y 0.000000 1.780020 0.000000 
#    z 0.000000 0.000000 1.811580 
# 
# From -- ./inp_files/5213.got.cif
#   From: 2010.05.17/outbox.cif.g08.bks.cpg/sg30_3_cif.got.tgz:5213.got - 2010.06.03 17:03:02.
