data_PCOD9342958
_publ_section_title
;
Structure prediction by ZEFSAII (Michael W. Deem and Ramdas Pophale) SiO2 
 PCOD9342958
Probable space group: P M N 21
;
_chemical_formula_sum "Si O2"
_cell_formula_units_Z 32
_cell_length_a 8.466458
_cell_length_b 14.824549
_cell_length_c 12.859078
_cell_angle_alpha 90.000000
_cell_angle_beta 90.000000
_cell_angle_gamma 90.000000
_cell_volume 1613.961159
_symmetry_space_group_name_H-M "P M N 21"
_symmetry_group_IT_number 31
_symmetry_cell_setting 'orthorhombic'
loop_
_space_group_symop_operation_xyz
x,y,z
1/2-x,-y,1/2+z
-x,y,z
1/2+x,-y,1/2+z
loop_
_atom_site_type_symbol
_atom_site_label
_atom_site_fract_x
_atom_site_fract_y
_atom_site_fract_z
Si Si1 0.307258 0.356833 0.181020
Si Si2 0.814188 0.866745 0.986202
Si Si3 0.189526 0.769896 0.502323
Si Si4 0.809404 0.666311 0.917351
Si Si5 0.808870 0.446578 0.614456
Si Si6 0.316861 0.044212 0.903183
Si Si7 0.677193 0.873934 0.210020
Si Si8 0.318196 0.675044 0.302282
O O1 0.500000 0.354059 0.183332
O O2 0.254288 0.357954 0.300839
O O3 0.262436 0.449059 0.122798
O O4 0.254446 0.271956 0.111238
O O5 0.765263 0.770302 0.939819
O O6 0.000000 0.860680 0.009298
O O7 0.778957 0.952726 0.915710
O O8 0.719791 0.884940 0.091297
O O9 0.246500 0.870360 0.471122
O O10 0.232848 0.700645 0.409334
O O11 0.000000 0.776263 0.505260
O O12 0.000000 0.660377 0.917986
O O13 0.748797 0.603581 0.010901
O O14 0.752517 0.398110 0.721351
O O15 0.000000 0.440517 0.615456
O O16 0.500000 0.028724 0.929476
O O17 0.299083 0.077669 0.785439
O O18 0.500000 0.906646 0.232840
O O19 0.681928 0.768158 0.237442
O O20 0.500000 0.651023 0.327221
#
# Coordination Sequence:
#
# PCOD9342958 Si02
#       8
#     4   4   4   4   4   4   4   4
#     4   9  20  38  58  82 116 155 189 232 292 350
#     4  11  22  36  57  85 115 151 195 244 294 351
#     4   9  19  36  57  81 112 151 193 234 284 345
#     4  10  22  39  59  84 117 153 193 239 289 350
#     4  10  20  36  58  83 112 147 188 235 287 343
#     4  10  21  36  57  85 115 152 198 245 292 350
#     4  10  19  35  56  79 111 149 189 238 292 346
#     4   9  18  32  54  81 108 142 183 235 288 333
#
# _framework density 19.826995
#
# number of rings (size 3 to 8) (size 9 to 14) (size 15 to 20)
#    0.000    2.250    1.250    1.125    1.750    3.000 
#    0.000    3.750    0.000    0.000    0.000    0.000 
#    0.000    0.000    0.000    0.000    0.000    0.000 
#
# Total GULP energy -178503.168595 kJ/mol
# GULP energy per Si atom -5578.224019 kJ/mol
# Density = 1.978187 g / cm^3
# Si number density = 19.826995 Si / 1000 Ang^3
#
#
#
# Elastic Constant Matrix: (Units=GPa)
#
#
# Indices 1 2 3 4 5 6 
#
# 1 12.9857 11.3923 0.9490 0.0000 0.0000 0.0000
# 2 11.3923 97.8363 46.0740 0.0000 0.0000 0.0000
# 3 0.9490 46.0740 73.8092 0.0000 0.0000 0.0000
# 4 0.0000 0.0000 0.0000 21.3689 0.0000 0.0000
# 5 0.0000 0.0000 0.0000 0.0000 26.2902 0.0000
# 6 0.0000 0.0000 0.0000 0.0000 0.0000 15.6465
#
#
#
# Elastic Compliance Matrix: (Units=1/GPa)
#
#
# Indices 1 2 3 4 5 6 
#
# 1 0.088614 -0.013855 0.007509 0.000000 0.000000 0.000000
# 2 -0.013855 0.016643 -0.010211 0.000000 0.000000 0.000000
# 3 0.007509 -0.010211 0.019826 0.000000 0.000000 0.000000
# 4 0.000000 0.000000 0.000000 0.046797 0.000000 0.000000
# 5 0.000000 0.000000 0.000000 0.000000 0.038037 0.000000
# 6 0.000000 0.000000 0.000000 0.000000 0.000000 0.063912
#
#
# Mechanical properties :
#
#
# Convention : Reuss Voigt Hill
#
# Bulk Modulus (GPa) = 10.87315 33.49575 22.18445
# Shear Modulus (GPa) = 14.81051 21.07551 17.94301
#
# Velocity S-wave (km/s) = 2.73607 3.26386 3.01155
# Velocity P-wave (km/s) = 3.93413 5.57982 4.82762
#
# Compressibility (1/GPa) = 0.09196970
#
# Stress axis : x y z
#
# Youngs Moduli (GPa) = 11.28495 60.08501 50.43904
#
# Poissons Ratio (x) = 0.83246 -0.37876
# Poissons Ratio (y) = 0.15635 0.51503
# Poissons Ratio (z) = -0.08474 0.61353
#
# Static dielectric constant tensor:
#      x y z
#    x 1.686010 0.000000 0.000000 
#    y 0.000000 1.703220 0.000000 
#    z 0.000000 0.000000 1.691400 
# 
# From -- ./inp_files/3628.got.cif
#   From: 2010.05.17/outbox.cif.g08.bks.cpg/sg31_2_cif.got.tgz:3628.got - 2010.06.03 17:08:30.
