data_PCOD9342913
_publ_section_title
;
Structure prediction by ZEFSAII (Michael W. Deem and Ramdas Pophale) SiO2 
 PCOD9342913
Probable space group: P M N 21
;
_chemical_formula_sum "Si O2"
_cell_formula_units_Z 32
_cell_length_a 8.844293
_cell_length_b 11.607704
_cell_length_c 16.368841
_cell_angle_alpha 90.000000
_cell_angle_beta 90.000000
_cell_angle_gamma 90.000000
_cell_volume 1680.456895
_symmetry_space_group_name_H-M "P M N 21"
_symmetry_group_IT_number 31
_symmetry_cell_setting 'orthorhombic'
loop_
_space_group_symop_operation_xyz
x,y,z
1/2-x,-y,1/2+z
-x,y,z
1/2+x,-y,1/2+z
loop_
_atom_site_type_symbol
_atom_site_label
_atom_site_fract_x
_atom_site_fract_y
_atom_site_fract_z
Si Si1 0.318872 0.319276 0.532020
Si Si2 0.319267 0.427905 0.044478
Si Si3 0.830954 0.066553 0.084572
Si Si4 0.323510 0.863252 0.142721
Si Si5 0.820492 0.741186 0.690845
Si Si6 0.327670 0.763734 0.432018
Si Si7 0.680812 0.180273 0.368811
Si Si8 0.320504 0.061945 0.812831
O O1 0.500000 0.326954 0.531466
O O2 0.248036 0.445591 0.535604
O O3 0.261860 0.248318 0.610247
O O4 0.272051 0.248308 0.450354
O O5 0.500000 0.429715 0.035448
O O6 0.286540 0.368932 0.133394
O O7 0.246474 0.346371 0.975188
O O8 0.777420 0.154948 0.154024
O O9 0.000000 0.020626 0.100421
O O10 0.712711 0.963901 0.077832
O O11 0.835603 0.140948 0.003221
O O12 0.500000 0.841840 0.151398
O O13 0.255283 0.916122 0.225131
O O14 0.793232 0.740902 0.787829
O O15 0.000000 0.766717 0.679276
O O16 0.500000 0.739980 0.404237
O O17 0.228187 0.825427 0.363907
O O18 0.500000 0.159404 0.374873
O O19 0.757023 0.056291 0.352597
O O20 0.500000 0.053364 0.806487
#
# Coordination Sequence:
#
# PCOD9342913 Si02
#       8
#     4   4   4   4   4   4   4   4
#     4  11  24  42  62  87 123 165 209 256 307 364
#     4  10  21  40  63  88 120 159 209 256 300 359
#     4  10  19  33  57  89 120 152 193 241 295 354
#     4  12  24  39  59  84 121 163 200 245 305 367
#     4   9  18  35  61  88 116 156 201 246 297 358
#     4  10  21  38  61  88 120 159 198 242 299 360
#     4  10  21  39  63  91 122 159 201 249 308 370
#     4  12  24  38  60  93 126 155 197 251 307 366
#
# _framework density 19.042439999999999
#
# number of rings (size 3 to 8) (size 9 to 14) (size 15 to 20)
#    0.000    1.500    1.250    4.500    0.000    6.000 
#    2.250    0.000    0.000    0.000    0.000    0.000 
#    0.000    0.000    0.000    0.000    0.000    0.000 
#
# Total GULP energy -178690.339654 kJ/mol
# GULP energy per Si atom -5584.073114 kJ/mol
# Density = 1.899910 g / cm^3
# Si number density = 19.042440 Si / 1000 Ang^3
#
#
#
# Elastic Constant Matrix: (Units=GPa)
#
#
# Indices 1 2 3 4 5 6 
#
# 1 72.7547 38.9550 24.8054 0.0000 0.0000 0.0000
# 2 38.9550 130.1433 38.3128 0.0000 0.0000 0.0000
# 3 24.8054 38.3128 59.0739 0.0000 0.0000 0.0000
# 4 0.0000 0.0000 0.0000 24.6734 0.0000 0.0000
# 5 0.0000 0.0000 0.0000 0.0000 5.1979 0.0000
# 6 0.0000 0.0000 0.0000 0.0000 0.0000 35.1011
#
#
#
# Elastic Compliance Matrix: (Units=1/GPa)
#
#
# Indices 1 2 3 4 5 6 
#
# 1 0.017430 -0.003785 -0.004864 0.000000 0.000000 0.000000
# 2 -0.003785 0.010319 -0.005103 0.000000 0.000000 0.000000
# 3 -0.004864 -0.005103 0.022280 0.000000 0.000000 0.000000
# 4 0.000000 0.000000 0.000000 0.040530 0.000000 0.000000
# 5 0.000000 0.000000 0.000000 0.000000 0.192387 0.000000
# 6 0.000000 0.000000 0.000000 0.000000 0.000000 0.028489
#
#
# Mechanical properties :
#
#
# Convention : Reuss Voigt Hill
#
# Bulk Modulus (GPa) = 44.39627 51.79092 48.09359
# Shear Modulus (GPa) = 14.43221 23.65438 19.04330
#
# Velocity S-wave (km/s) = 2.75598 3.52830 3.16578
# Velocity P-wave (km/s) = 5.78725 6.62233 6.21882
#
# Compressibility (1/GPa) = 0.02252441
#
# Stress axis : x y z
#
# Youngs Moduli (GPa) = 57.37258 96.90707 44.88333
#
# Poissons Ratio (x) = 0.36682 0.21831
# Poissons Ratio (y) = 0.21717 0.22904
# Poissons Ratio (z) = 0.27906 0.49453
#
# Static dielectric constant tensor:
#      x y z
#    x 1.653130 0.000000 0.000000 
#    y 0.000000 1.644520 0.000000 
#    z 0.000000 0.000000 1.718600 
# 
# From -- ./inp_files/5933.got.cif
#   From: 2010.05.17/outbox.cif.g08.bks.cpg/sg31_3_cif.got.tgz:5933.got - 2010.06.03 17:08:30.
