data_PCOD9342386
_publ_section_title
;
Structure prediction by ZEFSAII (Michael W. Deem and Ramdas Pophale) SiO2 
 PCOD9342386
Probable space group: P N C 2
;
_chemical_formula_sum "Si O2"
_cell_formula_units_Z 32
_cell_length_a 9.104721
_cell_length_b 11.562076
_cell_length_c 14.014681
_cell_angle_alpha 90.000000
_cell_angle_beta 90.000000
_cell_angle_gamma 90.000000
_cell_volume 1475.318127
_symmetry_space_group_name_H-M "P N C 2"
_symmetry_group_IT_number 30
_symmetry_cell_setting 'orthorhombic'
loop_
_space_group_symop_operation_xyz
x,y,z
-x,-y,z
-x,1/2+y,1/2+z
x,1/2-y,1/2+z
loop_
_atom_site_type_symbol
_atom_site_label
_atom_site_fract_x
_atom_site_fract_y
_atom_site_fract_z
Si Si1 0.882116 0.586471 0.612140
Si Si2 0.618456 0.686304 0.725586
Si Si3 0.330059 0.041112 0.735718
Si Si4 0.307647 0.337771 0.932110
Si Si5 0.993492 0.237436 0.472973
Si Si6 0.457140 0.788123 0.046138
Si Si7 0.231029 0.936434 0.934402
Si Si8 0.756194 0.432127 0.044643
O O1 0.750451 0.612426 0.682271
O O2 0.828727 0.521368 0.516042
O O3 0.000000 0.500000 0.657734
O O4 0.957907 0.702491 0.572690
O O5 0.663753 0.821305 0.723578
O O6 0.598924 0.657173 0.835769
O O7 0.482126 0.670273 0.654100
O O8 0.500000 0.000000 0.727624
O O9 0.266758 0.001624 0.837237
O O10 0.236834 0.982542 0.651311
O O11 0.141125 0.293957 0.916367
O O12 0.386473 0.247753 0.002886
O O13 0.299108 0.461834 0.981181
O O14 0.887572 0.332288 0.423297
O O15 0.901780 0.124112 0.500492
O O16 0.359920 0.672622 0.046719
O O17 0.377076 0.879158 0.978723
#
# Coordination Sequence:
#
# PCOD9342386 Si02
#       8
#     4   4   4   4   4   4   4   4
#     4  10  22  45  63  95 137 179 224 288 337 411
#     4  12  25  40  71  98 133 180 230 279 348 415
#     4  12  22  40  70 104 132 179 232 286 345 408
#     4  12  23  43  68  98 139 176 228 284 353 407
#     4  10  22  44  68  96 142 180 226 282 350 413
#     4  11  23  46  66 100 136 178 226 289 342 416
#     4  10  25  42  70  99 138 177 231 286 345 411
#     4  11  23  43  68  99 142 179 223 288 347 412
#
# _framework density 21.690238000000001
#
# number of rings (size 3 to 8) (size 9 to 14) (size 15 to 20)
#    0.000    1.000    3.750    2.250    1.750    2.000 
#    4.500    6.250    0.000    0.000    0.000    0.000 
#    0.000    0.000    0.000    0.000    0.000    0.000 
#
# Total GULP energy -179126.140379 kJ/mol
# GULP energy per Si atom -5597.691887 kJ/mol
# Density = 2.164087 g / cm^3
# Si number density = 21.690238 Si / 1000 Ang^3
#
#
#
# Elastic Constant Matrix: (Units=GPa)
#
#
# Indices 1 2 3 4 5 6 
#
# 1 68.7792 23.2747 6.4639 0.0000 0.0000 0.0000
# 2 23.2747 76.0655 24.8433 0.0000 0.0000 0.0000
# 3 6.4639 24.8433 98.9064 0.0000 0.0000 0.0000
# 4 0.0000 0.0000 0.0000 28.5369 0.0000 0.0000
# 5 0.0000 0.0000 0.0000 0.0000 -110.3162 0.0000
# 6 0.0000 0.0000 0.0000 0.0000 0.0000 40.0657
#
#
#
# Elastic Compliance Matrix: (Units=1/GPa)
#
#
# Indices 1 2 3 4 5 6 
#
# 1 0.016222 -0.005030 0.000203 0.000000 0.000000 0.000000
# 2 -0.005030 0.015881 -0.003660 0.000000 0.000000 0.000000
# 3 0.000203 -0.003660 0.011017 0.000000 0.000000 0.000000
# 4 0.000000 0.000000 0.000000 0.035042 0.000000 0.000000
# 5 0.000000 0.000000 0.000000 0.000000 -0.009065 0.000000
# 6 0.000000 0.000000 0.000000 0.000000 0.000000 0.024959
#
#
# Mechanical properties :
#
#
# Convention : Reuss Voigt Hill
#
# Bulk Modulus (GPa) = 38.24693 39.21277 38.72985
# Shear Modulus (GPa) = 41.75494 4.26858 23.01176
#
# Velocity S-wave (km/s) = 4.39231 1.40437 3.26072
# Velocity P-wave (km/s) = 6.58746 4.55494 5.66313
#
# Compressibility (1/GPa) = 0.02614589
#
# Stress axis : x y z
#
# Youngs Moduli (GPa) = 61.64329 62.96767 90.77154
#
# Poissons Ratio (x) = 0.31674 -0.01845
# Poissons Ratio (y) = 0.31008 0.33225
# Poissons Ratio (z) = -0.01253 0.23048
#
# Static dielectric constant tensor:
#      x y z
#    x 1.898990 0.000000 0.000000 
#    y 0.000000 1.779420 0.000000 
#    z 0.000000 0.000000 1.738320 
# 
# From -- ./inp_files/5206.got.cif
#   From: 2010.05.17/outbox.cif.g08.bks.cpg/sg30_3_cif.got.tgz:5206.got - 2010.06.03 17:03:02.
