data_PCOD9342249
_publ_section_title
;
Structure prediction by ZEFSAII (Michael W. Deem and Ramdas Pophale) SiO2 
 PCOD9342249
Probable space group: P N C 2
;
_chemical_formula_sum "Si O2"
_cell_formula_units_Z 26
_cell_length_a 7.083436
_cell_length_b 7.887078
_cell_length_c 20.271175
_cell_angle_alpha 90.000000
_cell_angle_beta 90.000000
_cell_angle_gamma 90.000000
_cell_volume 1132.502145
_symmetry_space_group_name_H-M "P N C 2"
_symmetry_group_IT_number 30
_symmetry_cell_setting 'orthorhombic'
loop_
_space_group_symop_operation_xyz
x,y,z
-x,-y,z
-x,1/2+y,1/2+z
x,1/2-y,1/2+z
loop_
_atom_site_type_symbol
_atom_site_label
_atom_site_fract_x
_atom_site_fract_y
_atom_site_fract_z
Si Si1 0.270176 0.981773 0.299370
Si Si2 0.708988 0.645659 0.313453
Si Si3 0.727743 0.002734 0.154198
Si Si4 0.000000 0.500000 0.053088
Si Si5 0.139523 0.649717 0.516266
Si Si6 0.180609 0.390218 0.174306
Si Si7 0.305790 0.677071 0.383411
O O1 0.193212 0.170941 0.311186
O O2 0.218392 0.919994 0.225606
O O3 0.500000 0.000000 0.297013
O O4 0.221616 0.851529 0.356316
O O5 0.679221 0.601906 0.236075
O O6 0.515663 0.674601 0.353330
O O7 0.793157 0.484145 0.349877
O O8 0.813312 0.811128 0.156251
O O9 0.500000 0.000000 0.151036
O O10 0.795615 0.103877 0.090247
O O11 0.817908 0.523133 0.102096
O O12 0.968673 0.327831 0.015143
O O13 0.301892 0.661566 0.461720
O O14 0.000000 0.500000 0.495981
O O15 0.000000 0.500000 0.201048
#
# Coordination Sequence:
#
# PCOD9342249 Si02
#       7
#     4   4   4   2   4   4   4
#     4   8  17  37  61  95 128 163 222 291 339 396
#     4   9  19  38  64  96 132 167 233 287 344 416
#     4  10  21  41  73 102 136 184 242 300 356 423
#     4  10  24  44  68 100 136 186 236 276 368 434
#     4  12  25  45  66  95 147 189 228 288 360 445
#     4   9  19  41  69 101 139 176 233 303 360 429
#     4  10  22  37  64  93 134 183 222 283 350 424
#
# _framework density 22.958016000000001
#
# number of rings (size 3 to 8) (size 9 to 14) (size 15 to 20)
#    0.462    1.846    1.538    0.923    4.308    1.846 
#    0.000    3.077    0.000    0.000    0.000    0.000 
#    0.000    0.000    0.000    0.000    0.000    0.000 
#
# Total GULP energy -144820.512081 kJ/mol
# GULP energy per Si atom -5570.019695 kJ/mol
# Density = 2.290576 g / cm^3
# Si number density = 22.958016 Si / 1000 Ang^3
#
#
#
# Elastic Constant Matrix: (Units=GPa)
#
#
# Indices 1 2 3 4 5 6 
#
# 1 84.9640 11.7574 21.0942 0.0000 0.0000 0.0000
# 2 11.7574 163.6880 53.7482 0.0000 0.0000 0.0000
# 3 21.0942 53.7482 131.0048 0.0000 0.0000 0.0000
# 4 0.0000 0.0000 0.0000 9.0963 0.0000 0.0000
# 5 0.0000 0.0000 0.0000 0.0000 36.4206 0.0000
# 6 0.0000 0.0000 0.0000 0.0000 0.0000 1.6648
#
#
#
# Elastic Compliance Matrix: (Units=1/GPa)
#
#
# Indices 1 2 3 4 5 6 
#
# 1 0.012270 -0.000269 -0.001865 0.000000 0.000000 0.000000
# 2 -0.000269 0.007066 -0.002856 0.000000 0.000000 0.000000
# 3 -0.001865 -0.002856 0.009105 0.000000 0.000000 0.000000
# 4 0.000000 0.000000 0.000000 0.109934 0.000000 0.000000
# 5 0.000000 0.000000 0.000000 0.000000 0.027457 0.000000
# 6 0.000000 0.000000 0.000000 0.000000 0.000000 0.600679
#
#
# Mechanical properties :
#
#
# Convention : Reuss Voigt Hill
#
# Bulk Modulus (GPa) = 54.16678 61.42849 57.79764
# Shear Modulus (GPa) = 6.38858 28.97348 17.68103
#
# Velocity S-wave (km/s) = 1.66996 3.55635 2.77816
# Velocity P-wave (km/s) = 5.23101 6.60897 5.95994
#
# Compressibility (1/GPa) = 0.01846150
#
# Stress axis : x y z
#
# Youngs Moduli (GPa) = 81.49944 141.51837 109.82552
#
# Poissons Ratio (x) = 0.03804 0.20487
# Poissons Ratio (y) = 0.02191 0.31364
# Poissons Ratio (z) = 0.15203 0.40415
#
# Static dielectric constant tensor:
#      x y z
#    x 1.868600 0.000000 0.000000 
#    y 0.000000 1.962470 0.000000 
#    z 0.000000 0.000000 1.822400 
# 
# From -- ./inp_files/6387.got.cif
#   From: 2010.05.17/outbox.cif.g08.bks.cpg/sg30_4_cif.got.tgz:6387.got - 2010.06.03 17:03:02.
