data_PCOD9343508
_publ_section_title
;
Structure prediction by ZEFSAII (Michael W. Deem and Ramdas Pophale) SiO2 
 PCOD9343508
Probable space group: P M N 21
;
_chemical_formula_sum "Si O2"
_cell_formula_units_Z 14
_cell_length_a 20.101641
_cell_length_b 4.829787
_cell_length_c 5.407591
_cell_angle_alpha 90.000000
_cell_angle_beta 90.000000
_cell_angle_gamma 90.000000
_cell_volume 525.004864
_symmetry_space_group_name_H-M "P M N 21"
_symmetry_group_IT_number 31
_symmetry_cell_setting 'orthorhombic'
loop_
_space_group_symop_operation_xyz
x,y,z
1/2-x,-y,1/2+z
-x,y,z
1/2+x,-y,1/2+z
loop_
_atom_site_type_symbol
_atom_site_label
_atom_site_fract_x
_atom_site_fract_y
_atom_site_fract_z
Si Si1 0.748408 0.676642 0.351760
Si Si2 0.395111 0.787286 0.202628
Si Si3 0.000000 0.578494 0.998406
Si Si4 0.893695 0.742196 0.370636
O O1 0.748473 0.538453 0.622238
O O2 0.678633 0.828031 0.311167
O O3 0.817967 0.837806 0.328925
O O4 0.442504 0.630812 0.388418
O O5 0.391737 0.573175 0.969554
O O6 0.421687 0.073882 0.094886
O O7 0.941615 0.758035 0.141188
#
# Coordination Sequence:
#
# PCOD9343508 Si02
#       4
#     4   4   2   4
#     4  10  22  48  72 112 152 208 270 334 398 482
#     4  11  26  45  74 108 154 205 264 328 404 479
#     4  12  24  50  72 116 152 204 256 338 394 496
#     4  11  26  45  74 108 154 205 264 328 404 479
#
# _framework density 26.666421
#
# number of rings (size 3 to 8) (size 9 to 14) (size 15 to 20)
#    0.000    1.143    2.857    1.714    0.000   13.714 
#    0.000    0.000    0.000    0.000    0.000    0.000 
#    0.000    0.000    0.000    0.000    0.000    0.000 
#
# Total GULP energy -78008.624946 kJ/mol
# GULP energy per Si atom -5572.044639 kJ/mol
# Density = 2.660573 g / cm^3
# Si number density = 26.666421 Si / 1000 Ang^3
#
#
#
# Elastic Constant Matrix: (Units=GPa)
#
#
# Indices 1 2 3 4 5 6 
#
# 1 222.3894 -2.1076 33.6798 0.0000 0.0000 0.0000
# 2 -2.1076 77.3566 34.5244 0.0000 0.0000 0.0000
# 3 33.6798 34.5244 113.8757 0.0000 0.0000 0.0000
# 4 0.0000 0.0000 0.0000 57.8907 0.0000 0.0000
# 5 0.0000 0.0000 0.0000 0.0000 149.2222 0.0000
# 6 0.0000 0.0000 0.0000 0.0000 0.0000 -75.0207
#
#
#
# Elastic Compliance Matrix: (Units=1/GPa)
#
#
# Indices 1 2 3 4 5 6 
#
# 1 0.004758 0.000876 -0.001673 0.000000 0.000000 0.000000
# 2 0.000876 0.015111 -0.004841 0.000000 0.000000 0.000000
# 3 -0.001673 -0.004841 0.010744 0.000000 0.000000 0.000000
# 4 0.000000 0.000000 0.000000 0.017274 0.000000 0.000000
# 5 0.000000 0.000000 0.000000 0.000000 0.006701 0.000000
# 6 0.000000 0.000000 0.000000 0.000000 0.000000 -0.013330
#
#
# Mechanical properties :
#
#
# Convention : Reuss Voigt Hill
#
# Bulk Modulus (GPa) = 51.70901 60.64610 56.17755
# Shear Modulus (GPa) = 84.77439 49.58679 67.18059
#
# Velocity S-wave (km/s) = 5.64444 4.31690 5.02470
# Velocity P-wave (km/s) = 7.86847 6.90212 7.40108
#
# Compressibility (1/GPa) = 0.01933899
#
# Stress axis : x y z
#
# Youngs Moduli (GPa) = 210.15964 66.17526 93.07649
#
# Poissons Ratio (x) = -0.05799 0.15572
# Poissons Ratio (y) = -0.18416 0.45054
# Poissons Ratio (z) = 0.35159 0.32033
#
# Static dielectric constant tensor:
#      x y z
#    x 2.034050 0.000000 0.000000 
#    y 0.000000 2.034180 0.000000 
#    z 0.000000 0.000000 2.128430 
# 
# From -- ./inp_files/912.got.cif
#   From: 2010.05.17/outbox.cif.g08.bks.cpg/sg31_1_cif.got.tgz:912.got - 2010.06.03 17:08:30.
