data_PCOD9343336
_publ_section_title
;
Structure prediction by ZEFSAII (Michael W. Deem and Ramdas Pophale) SiO2 
 PCOD9343336
Probable space group: P M N 21
;
_chemical_formula_sum "Si O2"
_cell_formula_units_Z 32
_cell_length_a 14.225661
_cell_length_b 18.307062
_cell_length_c 5.255873
_cell_angle_alpha 90.000000
_cell_angle_beta 90.000000
_cell_angle_gamma 90.000000
_cell_volume 1368.787310
_symmetry_space_group_name_H-M "P M N 21"
_symmetry_group_IT_number 31
_symmetry_cell_setting 'orthorhombic'
loop_
_space_group_symop_operation_xyz
x,y,z
1/2-x,-y,1/2+z
-x,y,z
1/2+x,-y,1/2+z
loop_
_atom_site_type_symbol
_atom_site_label
_atom_site_fract_x
_atom_site_fract_y
_atom_site_fract_z
Si Si1 0.700104 0.526325 0.210510
Si Si2 0.264788 0.677938 0.978939
Si Si3 0.603303 0.265994 0.779195
Si Si4 0.611846 0.125836 0.087649
Si Si5 0.600309 0.391001 0.148669
Si Si6 0.614477 0.893322 0.342712
Si Si7 0.386597 0.808460 0.834772
Si Si8 0.385233 0.049230 0.578474
O O1 0.726584 0.507057 0.501086
O O2 0.697432 0.612411 0.157387
O O3 0.609805 0.477824 0.140284
O O4 0.194295 0.734948 0.110348
O O5 0.347442 0.727427 0.873707
O O6 0.193221 0.638786 0.784553
O O7 0.500000 0.245749 0.671562
O O8 0.619706 0.209805 0.008379
O O9 0.599404 0.348948 0.881568
O O10 0.500000 0.110457 0.098666
O O11 0.646171 0.107345 0.366814
O O12 0.648432 0.074830 0.856603
O O13 0.500000 0.370994 0.272763
O O14 0.500000 0.895093 0.338372
O O15 0.641220 0.864244 0.063561
O O16 0.642449 0.972268 0.453371
O O17 0.645830 0.837241 0.560699
O O18 0.500000 0.807347 0.834627
O O19 0.500000 0.048018 0.598279
#
# Coordination Sequence:
#
# PCOD9343336 Si02
#       8
#     4   4   4   4   4   4   4   4
#     4  10  21  40  61  87 119 157 203 249 297 358
#     4  11  23  38  65  89 131 168 212 254 322 369
#     4  10  21  37  59  91 127 166 208 255 310 376
#     4   9  18  29  50  84 118 153 200 251 304 368
#     4  10  22  40  64  94 126 167 211 253 308 376
#     4   9  18  35  58  86 118 158 211 264 315 371
#     4  10  22  37  60  91 122 160 213 266 315 375
#     4   9  16  30  53  82 116 155 202 254 306 365
#
# _framework density 23.378356
#
# number of rings (size 3 to 8) (size 9 to 14) (size 15 to 20)
#    0.000    2.250    1.250    1.125    3.500    3.500 
#    0.000    0.000    0.000    3.750    0.000    0.000 
#    0.000    0.000    0.000    0.000    0.000    0.000 
#
# Total GULP energy -178664.955849 kJ/mol
# GULP energy per Si atom -5583.279870 kJ/mol
# Density = 2.332515 g / cm^3
# Si number density = 23.378356 Si / 1000 Ang^3
#
#
#
# Elastic Constant Matrix: (Units=GPa)
#
#
# Indices 1 2 3 4 5 6 
#
# 1 62.6309 25.8572 24.1354 0.0000 0.0000 0.0000
# 2 25.8572 85.6382 -0.4781 0.0000 0.0000 0.0000
# 3 24.1354 -0.4781 60.3708 0.0000 0.0000 0.0000
# 4 0.0000 0.0000 0.0000 35.3930 0.0000 0.0000
# 5 0.0000 0.0000 0.0000 0.0000 19.4770 0.0000
# 6 0.0000 0.0000 0.0000 0.0000 0.0000 -6.5471
#
#
#
# Elastic Compliance Matrix: (Units=1/GPa)
#
#
# Indices 1 2 3 4 5 6 
#
# 1 0.022193 -0.006751 -0.008926 0.000000 0.000000 0.000000
# 2 -0.006751 0.013731 0.002808 0.000000 0.000000 0.000000
# 3 -0.008926 0.002808 0.020155 0.000000 0.000000 0.000000
# 4 0.000000 0.000000 0.000000 0.028254 0.000000 0.000000
# 5 0.000000 0.000000 0.000000 0.000000 0.051343 0.000000
# 6 0.000000 0.000000 0.000000 0.000000 0.000000 -0.152739
#
#
# Mechanical properties :
#
#
# Convention : Reuss Voigt Hill
#
# Bulk Modulus (GPa) = 32.95876 34.18543 33.57210
# Shear Modulus (GPa) = 266.10924 20.27295 143.19109
#
# Velocity S-wave (km/s) = 10.68056 2.94797 7.83469
# Velocity P-wave (km/s) = 12.89293 5.12267 9.80993
#
# Compressibility (1/GPa) = 0.03034095
#
# Stress axis : x y z
#
# Youngs Moduli (GPa) = 45.05859 72.82797 49.61540
#
# Poissons Ratio (x) = 0.49164 0.44287
# Poissons Ratio (y) = 0.30418 -0.13930
# Poissons Ratio (z) = 0.40219 -0.20447
#
# Static dielectric constant tensor:
#      x y z
#    x 1.929920 0.000000 0.000000 
#    y 0.000000 1.896890 0.000000 
#    z 0.000000 0.000000 1.912470 
# 
# From -- ./inp_files/670.got.cif
#   From: 2010.05.17/outbox.cif.g08.bks.cpg/sg31_1_cif.got.tgz:670.got - 2010.06.03 17:08:30.
