data_PCOD9343413
_publ_section_title
;
Structure prediction by ZEFSAII (Michael W. Deem and Ramdas Pophale) SiO2 
 PCOD9343413
Probable space group: P M N 21
;
_chemical_formula_sum "Si O2"
_cell_formula_units_Z 32
_cell_length_a 14.152347
_cell_length_b 11.984260
_cell_length_c 9.193071
_cell_angle_alpha 90.000000
_cell_angle_beta 90.000000
_cell_angle_gamma 90.000000
_cell_volume 1559.194540
_symmetry_space_group_name_H-M "P M N 21"
_symmetry_group_IT_number 31
_symmetry_cell_setting 'orthorhombic'
loop_
_space_group_symop_operation_xyz
x,y,z
1/2-x,-y,1/2+z
-x,y,z
1/2+x,-y,1/2+z
loop_
_atom_site_type_symbol
_atom_site_label
_atom_site_fract_x
_atom_site_fract_y
_atom_site_fract_z
Si Si1 0.387912 0.211336 0.416680
Si Si2 0.611075 0.681364 0.906406
Si Si3 0.268113 0.851216 0.716658
Si Si4 0.111176 0.931096 0.199639
Si Si5 0.385873 0.435386 0.942593
Si Si6 0.614087 0.446742 0.284581
Si Si7 0.284094 0.216325 0.901324
Si Si8 0.389486 0.697515 0.255983
O O1 0.500000 0.204067 0.387004
O O2 0.327014 0.133404 0.310186
O O3 0.372123 0.165089 0.578596
O O4 0.357434 0.339977 0.382171
O O5 0.500000 0.689205 0.871280
O O6 0.666430 0.773539 0.817363
O O7 0.643002 0.554299 0.875880
O O8 0.619240 0.694104 0.081063
O O9 0.238628 0.790260 0.570048
O O10 0.325097 0.961157 0.672570
O O11 0.147304 0.882031 0.351714
O O12 0.000000 0.957373 0.200101
O O13 0.500000 0.428609 0.934616
O O14 0.338711 0.330648 0.867335
O O15 0.360415 0.432224 0.114456
O O16 0.500000 0.446111 0.288216
O O17 0.638205 0.575121 0.321183
O O18 0.184723 0.215072 0.817763
O O19 0.500000 0.718535 0.290133
#
# Coordination Sequence:
#
# PCOD9343413 Si02
#       8
#     4   4   4   4   4   4   4   4
#     4  10  21  40  65  90 121 166 216 263 317 380
#     4   9  20  39  63  88 123 170 208 255 322 386
#     4  12  24  41  65  93 126 167 220 267 320 383
#     4  11  26  46  63  87 126 170 220 277 321 373
#     4   9  18  35  59  92 127 158 203 259 317 383
#     4   8  15  34  61  87 120 161 201 250 308 372
#     4  12  24  37  63  93 128 162 210 265 331 378
#     4   9  20  38  60  90 129 164 203 254 317 387
#
# _framework density 20.523419000000001
#
# number of rings (size 3 to 8) (size 9 to 14) (size 15 to 20)
#    0.000    2.000    1.250    3.750    1.750    1.500 
#    2.250    0.625    0.000    0.000    0.000    0.000 
#    0.000    0.000    0.000    0.000    0.000    0.000 
#
# Total GULP energy -178620.224291 kJ/mol
# GULP energy per Si atom -5581.882009 kJ/mol
# Density = 2.047671 g / cm^3
# Si number density = 20.523419 Si / 1000 Ang^3
#
#
#
# Elastic Constant Matrix: (Units=GPa)
#
#
# Indices 1 2 3 4 5 6 
#
# 1 65.2811 22.9508 27.2081 0.0000 0.0000 0.0000
# 2 22.9508 55.7519 20.4162 0.0000 0.0000 0.0000
# 3 27.2081 20.4162 42.9206 0.0000 0.0000 0.0000
# 4 0.0000 0.0000 0.0000 22.3679 0.0000 0.0000
# 5 0.0000 0.0000 0.0000 0.0000 22.0163 0.0000
# 6 0.0000 0.0000 0.0000 0.0000 0.0000 37.8791
#
#
#
# Elastic Compliance Matrix: (Units=1/GPa)
#
#
# Indices 1 2 3 4 5 6 
#
# 1 0.021807 -0.004741 -0.011569 0.000000 0.000000 0.000000
# 2 -0.004741 0.022751 -0.007817 0.000000 0.000000 0.000000
# 3 -0.011569 -0.007817 0.034351 0.000000 0.000000 0.000000
# 4 0.000000 0.000000 0.000000 0.044707 0.000000 0.000000
# 5 0.000000 0.000000 0.000000 0.000000 0.045421 0.000000
# 6 0.000000 0.000000 0.000000 0.000000 0.000000 0.026400
#
#
# Mechanical properties :
#
#
# Convention : Reuss Voigt Hill
#
# Bulk Modulus (GPa) = 32.62007 33.90044 33.26026
# Shear Modulus (GPa) = 19.69231 22.67787 21.18509
#
# Velocity S-wave (km/s) = 3.10095 3.32772 3.21633
# Velocity P-wave (km/s) = 5.36188 5.59632 5.48035
#
# Compressibility (1/GPa) = 0.03065597
#
# Stress axis : x y z
#
# Youngs Moduli (GPa) = 45.85758 43.95492 29.11151
#
# Poissons Ratio (x) = 0.20837 0.33678
# Poissons Ratio (y) = 0.21739 0.22756
# Poissons Ratio (z) = 0.53051 0.34359
#
# Static dielectric constant tensor:
#      x y z
#    x 1.723270 0.000000 0.000000 
#    y 0.000000 1.755380 0.000000 
#    z 0.000000 0.000000 1.708760 
# 
# From -- ./inp_files/2577.got.cif
#   From: 2010.05.17/outbox.cif.g08.bks.cpg/sg31_2_cif.got.tgz:2577.got - 2010.06.03 17:08:30.
