data_PCOD9343453
_publ_section_title
;
Structure prediction by ZEFSAII (Michael W. Deem and Ramdas Pophale) SiO2 
 PCOD9343453
Probable space group: P M N 21
;
_chemical_formula_sum "Si O2"
_cell_formula_units_Z 32
_cell_length_a 8.318170
_cell_length_b 13.576211
_cell_length_c 13.189034
_cell_angle_alpha 90.000000
_cell_angle_beta 90.000000
_cell_angle_gamma 90.000000
_cell_volume 1489.427468
_symmetry_space_group_name_H-M "P M N 21"
_symmetry_group_IT_number 31
_symmetry_cell_setting 'orthorhombic'
loop_
_space_group_symop_operation_xyz
x,y,z
1/2-x,-y,1/2+z
-x,y,z
1/2+x,-y,1/2+z
loop_
_atom_site_type_symbol
_atom_site_label
_atom_site_fract_x
_atom_site_fract_y
_atom_site_fract_z
Si Si1 0.192854 0.256292 0.337210
Si Si2 0.305085 0.897379 0.007213
Si Si3 0.815825 0.485187 0.320210
Si Si4 0.180882 0.446297 0.013495
Si Si5 0.691850 0.256339 0.116019
Si Si6 0.180386 0.396409 0.644569
Si Si7 0.304539 0.112429 0.933127
Si Si8 0.191952 0.814197 0.212295
O O1 0.247264 0.191911 0.433195
O O2 0.227134 0.372716 0.346081
O O3 0.262427 0.222499 0.228942
O O4 0.000000 0.246147 0.332151
O O5 0.500000 0.894388 0.014460
O O6 0.235999 0.886223 0.119839
O O7 0.256597 0.000661 0.956983
O O8 0.801271 0.552855 0.419410
O O9 0.695076 0.531055 0.239937
O O10 0.000000 0.487562 0.281895
O O11 0.225736 0.360931 0.092122
O O12 0.202317 0.552511 0.064903
O O13 0.000000 0.432201 0.977742
O O14 0.500000 0.268280 0.110565
O O15 0.744407 0.182589 0.026358
O O16 0.230541 0.289490 0.681346
O O17 0.000000 0.394443 0.602219
O O18 0.500000 0.113780 0.931251
O O19 0.250327 0.149754 0.822753
O O20 0.000000 0.802209 0.217321
#
# Coordination Sequence:
#
# PCOD9343453 Si02
#       8
#     4   4   4   4   4   4   4   4
#     4  10  22  39  63  92 128 169 211 261 322 384
#     4  10  22  43  67  93 128 170 214 264 327 388
#     4  11  22  38  60  91 130 170 210 259 318 376
#     4  12  24  39  61  92 129 169 215 263 315 380
#     4  11  22  39  64  93 129 171 217 266 323 387
#     4  12  24  40  62  91 126 170 213 256 316 379
#     4   9  22  42  65  93 128 170 210 263 329 384
#     4  11  23  42  66  95 130 167 216 270 324 388
#
# _framework density 21.484766
#
# number of rings (size 3 to 8) (size 9 to 14) (size 15 to 20)
#    0.000    1.250    1.250    4.875    1.750    3.000 
#    0.000    3.750    0.000    0.000    0.000    0.000 
#    0.000    0.000    0.000    0.000    0.000    0.000 
#
# Total GULP energy -178929.467340 kJ/mol
# GULP energy per Si atom -5591.545854 kJ/mol
# Density = 2.143587 g / cm^3
# Si number density = 21.484766 Si / 1000 Ang^3
#
#
#
# Elastic Constant Matrix: (Units=GPa)
#
#
# Indices 1 2 3 4 5 6 
#
# 1 42.7557 12.1557 6.2820 0.0000 0.0000 0.0000
# 2 12.1557 70.9271 10.9417 0.0000 0.0000 0.0000
# 3 6.2820 10.9417 104.8424 0.0000 0.0000 0.0000
# 4 0.0000 0.0000 0.0000 30.7003 0.0000 0.0000
# 5 0.0000 0.0000 0.0000 0.0000 33.0154 0.0000
# 6 0.0000 0.0000 0.0000 0.0000 0.0000 21.0623
#
#
#
# Elastic Compliance Matrix: (Units=1/GPa)
#
#
# Indices 1 2 3 4 5 6 
#
# 1 0.024701 -0.004071 -0.001055 0.000000 0.000000 0.000000
# 2 -0.004071 0.015000 -0.001322 0.000000 0.000000 0.000000
# 3 -0.001055 -0.001322 0.009739 0.000000 0.000000 0.000000
# 4 0.000000 0.000000 0.000000 0.032573 0.000000 0.000000
# 5 0.000000 0.000000 0.000000 0.000000 0.030289 0.000000
# 6 0.000000 0.000000 0.000000 0.000000 0.000000 0.047478
#
#
# Mechanical properties :
#
#
# Convention : Reuss Voigt Hill
#
# Bulk Modulus (GPa) = 27.36275 30.80932 29.08604
# Shear Modulus (GPa) = 27.04784 29.56532 28.30658
#
# Velocity S-wave (km/s) = 3.55199 3.71362 3.63370
# Velocity P-wave (km/s) = 5.43928 5.72356 5.58323
#
# Compressibility (1/GPa) = 0.03654603
#
# Stress axis : x y z
#
# Youngs Moduli (GPa) = 40.48416 66.66449 102.67698
#
# Poissons Ratio (x) = 0.27136 0.10835
# Poissons Ratio (y) = 0.16479 0.13570
# Poissons Ratio (z) = 0.04272 0.08810
#
# Static dielectric constant tensor:
#      x y z
#    x 1.732890 0.000000 0.000000 
#    y 0.000000 1.765980 0.000000 
#    z 0.000000 0.000000 1.789860 
# 
# From -- ./inp_files/3548.got.cif
#   From: 2010.05.17/outbox.cif.g08.bks.cpg/sg31_2_cif.got.tgz:3548.got - 2010.06.03 17:08:30.
