data_PCOD9343352
_publ_section_title
;
Structure prediction by ZEFSAII (Michael W. Deem and Ramdas Pophale) SiO2 
 PCOD9343352
Probable space group: P M N 21
;
_chemical_formula_sum "Si O2"
_cell_formula_units_Z 24
_cell_length_a 8.534837
_cell_length_b 12.332661
_cell_length_c 12.212303
_cell_angle_alpha 90.000000
_cell_angle_beta 90.000000
_cell_angle_gamma 90.000000
_cell_volume 1285.433447
_symmetry_space_group_name_H-M "P M N 21"
_symmetry_group_IT_number 31
_symmetry_cell_setting 'orthorhombic'
loop_
_space_group_symop_operation_xyz
x,y,z
1/2-x,-y,1/2+z
-x,y,z
1/2+x,-y,1/2+z
loop_
_atom_site_type_symbol
_atom_site_label
_atom_site_fract_x
_atom_site_fract_y
_atom_site_fract_z
Si Si1 0.312102 0.778751 0.180190
Si Si2 0.187777 0.581466 0.315334
Si Si3 0.689048 0.278055 0.023866
Si Si4 0.810341 0.657170 0.767257
Si Si5 0.689008 0.918398 0.388858
Si Si6 0.689497 0.161494 0.441381
O O1 0.500000 0.777223 0.177232
O O2 0.251957 0.662569 0.222520
O O3 0.261108 0.865670 0.273070
O O4 0.247756 0.809149 0.061966
O O5 0.237146 0.634327 0.431640
O O6 0.249847 0.460900 0.299716
O O7 0.000000 0.581512 0.311243
O O8 0.500000 0.273635 0.024070
O O9 0.741749 0.310897 0.144807
O O10 0.751305 0.162431 0.982876
O O11 0.759139 0.748039 0.854123
O O12 0.000000 0.654649 0.767083
O O13 0.500000 0.917669 0.390264
O O14 0.742829 0.041179 0.406747
O O15 0.500000 0.160990 0.441859
#
# Coordination Sequence:
#
# PCOD9343352 Si02
#       6
#     4   4   4   4   4   4
#     4  10  21  38  61  85 113 151 193 232 283 342
#     4  10  21  38  59  85 115 147 189 236 284 337
#     4   9  20  38  60  83 111 148 188 231 281 338
#     4  10  22  38  58  84 116 151 187 232 285 337
#     4   9  20  38  59  84 114 149 188 232 283 338
#     4  10  22  38  57  85 119 150 187 235 286 334
#
# _framework density 18.670745
#
# number of rings (size 3 to 8) (size 9 to 14) (size 15 to 20)
#    0.000    2.333    0.000    1.000    4.667    3.333 
#    0.000    0.000    0.000    0.000    0.000    0.000 
#    0.000    0.000    0.000    0.000    0.000    0.000 
#
# Total GULP energy -134009.000068 kJ/mol
# GULP energy per Si atom -5583.708336 kJ/mol
# Density = 1.862825 g / cm^3
# Si number density = 18.670745 Si / 1000 Ang^3
#
#
#
# Elastic Constant Matrix: (Units=GPa)
#
#
# Indices 1 2 3 4 5 6 
#
# 1 10.6856 29.7636 23.8656 0.0000 0.0000 0.0000
# 2 29.7636 218.3086 116.1508 0.0000 0.0000 0.0000
# 3 23.8656 116.1508 149.0747 0.0000 0.0000 0.0000
# 4 0.0000 0.0000 0.0000 14.9186 0.0000 0.0000
# 5 0.0000 0.0000 0.0000 0.0000 24.1096 0.0000
# 6 0.0000 0.0000 0.0000 0.0000 0.0000 28.8611
#
#
#
# Elastic Compliance Matrix: (Units=1/GPa)
#
#
# Indices 1 2 3 4 5 6 
#
# 1 0.169811 -0.014839 -0.015624 0.000000 0.000000 0.000000
# 2 -0.014839 0.009121 -0.004731 0.000000 0.000000 0.000000
# 3 -0.015624 -0.004731 0.012895 0.000000 0.000000 0.000000
# 4 0.000000 0.000000 0.000000 0.067030 0.000000 0.000000
# 5 0.000000 0.000000 0.000000 0.000000 0.041477 0.000000
# 6 0.000000 0.000000 0.000000 0.000000 0.000000 0.034649
#
#
# Mechanical properties :
#
#
# Convention : Reuss Voigt Hill
#
# Bulk Modulus (GPa) = 8.23452 79.73653 43.98553
# Shear Modulus (GPa) = 11.21453 27.46378 19.33916
#
# Velocity S-wave (km/s) = 2.45347 3.83946 3.22188
# Velocity P-wave (km/s) = 3.52789 7.90283 6.11967
#
# Compressibility (1/GPa) = 0.12144001
#
# Stress axis : x y z
#
# Youngs Moduli (GPa) = 5.88891 109.63938 77.54801
#
# Poissons Ratio (x) = 1.62694 1.21157
# Poissons Ratio (y) = 0.08739 0.36687
# Poissons Ratio (z) = 0.09201 0.51868
#
# Static dielectric constant tensor:
#      x y z
#    x 1.639030 0.000000 0.000000 
#    y 0.000000 1.617450 0.000000 
#    z 0.000000 0.000000 1.627590 
# 
# From -- ./inp_files/3436.got.cif
#   From: 2010.05.17/outbox.cif.g08.bks.cpg/sg31_2_cif.got.tgz:3436.got - 2010.06.03 17:08:30.
