data_PCOD9343247
_publ_section_title
;
Structure prediction by ZEFSAII (Michael W. Deem and Ramdas Pophale) SiO2 
 PCOD9343247
Probable space group: P M N 21
;
_chemical_formula_sum "Si O2"
_cell_formula_units_Z 32
_cell_length_a 18.798527
_cell_length_b 5.083029
_cell_length_c 14.017460
_cell_angle_alpha 90.000000
_cell_angle_beta 90.000000
_cell_angle_gamma 90.000000
_cell_volume 1339.416774
_symmetry_space_group_name_H-M "P M N 21"
_symmetry_group_IT_number 31
_symmetry_cell_setting 'orthorhombic'
loop_
_space_group_symop_operation_xyz
x,y,z
1/2-x,-y,1/2+z
-x,y,z
1/2+x,-y,1/2+z
loop_
_atom_site_type_symbol
_atom_site_label
_atom_site_fract_x
_atom_site_fract_y
_atom_site_fract_z
Si Si1 0.920707 0.306887 0.978280
Si Si2 0.581199 0.192387 0.352724
Si Si3 0.688402 0.447369 0.223544
Si Si4 0.081996 0.607256 0.425279
Si Si5 0.672703 0.041641 0.620577
Si Si6 0.160475 0.459302 0.243089
Si Si7 0.313266 0.135362 0.044174
Si Si8 0.079931 0.240738 0.615370
O O1 0.902042 0.593842 0.937021
O O2 0.000000 0.330634 0.019386
O O3 0.922012 0.102015 0.890920
O O4 0.873517 0.142452 0.051356
O O5 0.500000 0.258644 0.318657
O O6 0.646724 0.227136 0.281642
O O7 0.759265 0.541163 0.274825
O O8 0.710966 0.364087 0.115869
O O9 0.627363 0.651011 0.199827
O O10 0.101088 0.474840 0.324523
O O11 0.153329 0.785233 0.443545
O O12 0.083761 0.410001 0.516743
O O13 0.000000 0.715233 0.422820
O O14 0.672974 0.844314 0.711954
O O15 0.748599 0.064931 0.563844
O O16 0.645613 0.324097 0.659090
O O17 0.386868 0.035782 0.089635
O O18 0.000000 0.223343 0.645911
#
# Coordination Sequence:
#
# PCOD9343247 Si02
#       8
#     4   4   4   4   4   4   4   4
#     4  10  23  41  62  91 123 163 211 257 314 374
#     4  10  22  38  61  93 124 157 206 255 308 377
#     4  10  22  39  58  92 126 165 207 258 319 380
#     4  10  24  42  63  97 130 171 218 268 329 387
#     4  11  24  44  66  92 127 171 215 266 319 379
#     4  11  25  42  65  96 127 163 219 263 313 384
#     4  10  22  40  64  90 130 165 218 260 320 394
#     4  10  20  38  63  89 127 167 208 263 324 389
#
# _framework density 23.890996999999999
#
# number of rings (size 3 to 8) (size 9 to 14) (size 15 to 20)
#    0.000    1.750    1.250    1.500    5.250    3.500 
#    0.000    0.000    0.000    0.000    0.000    0.000 
#    0.000    0.000    0.000    0.000    0.000    0.000 
#
# Total GULP energy -178245.339917 kJ/mol
# GULP energy per Si atom -5570.166872 kJ/mol
# Density = 2.383662 g / cm^3
# Si number density = 23.890997 Si / 1000 Ang^3
#
#
#
# Elastic Constant Matrix: (Units=GPa)
#
#
# Indices 1 2 3 4 5 6 
#
# 1 76.3410 -6.3470 36.1924 0.0000 0.0000 0.0000
# 2 -6.3470 76.9946 3.3323 0.0000 0.0000 0.0000
# 3 36.1924 3.3323 47.9528 0.0000 0.0000 0.0000
# 4 0.0000 0.0000 0.0000 20.2884 0.0000 0.0000
# 5 0.0000 0.0000 0.0000 0.0000 20.2236 0.0000
# 6 0.0000 0.0000 0.0000 0.0000 0.0000 18.1155
#
#
#
# Elastic Compliance Matrix: (Units=1/GPa)
#
#
# Indices 1 2 3 4 5 6 
#
# 1 0.020833 0.002405 -0.015891 0.000000 0.000000 0.000000
# 2 0.002405 0.013305 -0.002740 0.000000 0.000000 0.000000
# 3 -0.015891 -0.002740 0.033038 0.000000 0.000000 0.000000
# 4 0.000000 0.000000 0.000000 0.049289 0.000000 0.000000
# 5 0.000000 0.000000 0.000000 0.000000 0.049447 0.000000
# 6 0.000000 0.000000 0.000000 0.000000 0.000000 0.055201
#
#
# Mechanical properties :
#
#
# Convention : Reuss Voigt Hill
#
# Bulk Modulus (GPa) = 28.79817 29.73820 29.26818
# Shear Modulus (GPa) = 18.85809 22.93288 20.89549
#
# Velocity S-wave (km/s) = 2.81257 3.10158 2.96060
# Velocity P-wave (km/s) = 4.75684 5.03000 4.89532
#
# Compressibility (1/GPa) = 0.03472443
#
# Stress axis : x y z
#
# Youngs Moduli (GPa) = 48.00159 75.16105 30.26849
#
# Poissons Ratio (x) = -0.18077 0.48098
# Poissons Ratio (y) = -0.11545 0.08293
# Poissons Ratio (z) = 0.76277 0.20593
#
# Static dielectric constant tensor:
#      x y z
#    x 1.972840 0.000000 0.000000 
#    y 0.000000 1.991360 0.000000 
#    z 0.000000 0.000000 2.081010 
# 
# From -- ./inp_files/5516.got.cif
#   From: 2010.05.17/outbox.cif.g08.bks.cpg/sg31_3_cif.got.tgz:5516.got - 2010.06.03 17:08:30.
