data_PCOD9343543
_publ_section_title
;
Structure prediction by ZEFSAII (Michael W. Deem and Ramdas Pophale) SiO2 
 PCOD9343543
Probable space group: P M N 21
;
_chemical_formula_sum "Si O2"
_cell_formula_units_Z 20
_cell_length_a 13.401276
_cell_length_b 11.644057
_cell_length_c 4.853911
_cell_angle_alpha 90.000000
_cell_angle_beta 90.000000
_cell_angle_gamma 90.000000
_cell_volume 757.429618
_symmetry_space_group_name_H-M "P M N 21"
_symmetry_group_IT_number 31
_symmetry_cell_setting 'orthorhombic'
loop_
_space_group_symop_operation_xyz
x,y,z
1/2-x,-y,1/2+z
-x,y,z
1/2+x,-y,1/2+z
loop_
_atom_site_type_symbol
_atom_site_label
_atom_site_fract_x
_atom_site_fract_y
_atom_site_fract_z
Si Si1 0.201953 0.946577 0.259810
Si Si2 0.891450 0.403576 0.425649
Si Si3 0.886425 0.727178 0.515045
Si Si4 0.500000 0.962041 0.610883
Si Si5 0.832783 0.565064 0.023258
Si Si6 0.000000 0.191798 0.602673
O O1 0.189180 0.827127 0.421647
O O2 0.219610 0.036061 0.511724
O O3 0.100236 0.966482 0.088123
O O4 0.877486 0.439119 0.103516
O O5 0.787273 0.442226 0.558013
O O6 0.000000 0.451933 0.520139
O O7 0.907644 0.271005 0.502922
O O8 0.881400 0.636341 0.270630
O O9 0.000000 0.771595 0.548763
O O10 0.855339 0.651338 0.775442
O O11 0.500000 0.850179 0.415623
O O12 0.500000 0.921642 0.924961
#
# Coordination Sequence:
#
# PCOD9343543 Si02
#       6
#     4   4   4   2   4   2
#     4  12  28  47  79 114 160 208 272 325 394 471
#     4  10  26  50  71 119 148 206 255 322 379 477
#     4  12  27  49  76 115 154 206 257 328 396 473
#     4  12  26  52  72 116 154 215 255 340 386 458
#     4  12  26  47  81 109 160 199 258 321 397 467
#     4  10  28  44  78 100 164 195 271 312 396 460
#
# _framework density 26.405092
#
# number of rings (size 3 to 8) (size 9 to 14) (size 15 to 20)
#    0.600    0.000    1.000    5.400    8.400    3.200 
#    0.000    1.000    0.000    0.000    0.000    0.000 
#    0.000    0.000    0.000    0.000    0.000    0.000 
#
# Total GULP energy -111741.974300 kJ/mol
# GULP energy per Si atom -5587.098715 kJ/mol
# Density = 2.634499 g / cm^3
# Si number density = 26.405092 Si / 1000 Ang^3
#
#
#
# Elastic Constant Matrix: (Units=GPa)
#
#
# Indices 1 2 3 4 5 6 
#
# 1 120.6499 20.5423 27.5366 0.0000 0.0000 0.0000
# 2 20.5423 88.4421 29.4198 0.0000 0.0000 0.0000
# 3 27.5366 29.4198 137.5754 0.0000 0.0000 0.0000
# 4 0.0000 0.0000 0.0000 48.6562 0.0000 0.0000
# 5 0.0000 0.0000 0.0000 0.0000 33.5715 0.0000
# 6 0.0000 0.0000 0.0000 0.0000 0.0000 41.2226
#
#
#
# Elastic Compliance Matrix: (Units=1/GPa)
#
#
# Indices 1 2 3 4 5 6 
#
# 1 0.008887 -0.001585 -0.001440 0.000000 0.000000 0.000000
# 2 -0.001585 0.012455 -0.002346 0.000000 0.000000 0.000000
# 3 -0.001440 -0.002346 0.008059 0.000000 0.000000 0.000000
# 4 0.000000 0.000000 0.000000 0.020552 0.000000 0.000000
# 5 0.000000 0.000000 0.000000 0.000000 0.029787 0.000000
# 6 0.000000 0.000000 0.000000 0.000000 0.000000 0.024259
#
#
# Mechanical properties :
#
#
# Convention : Reuss Voigt Hill
#
# Bulk Modulus (GPa) = 53.59462 55.74053 54.66758
# Shear Modulus (GPa) = 41.33553 42.63462 41.98508
#
# Velocity S-wave (km/s) = 3.96085 4.02261 3.99185
# Velocity P-wave (km/s) = 6.42331 6.53688 6.48035
#
# Compressibility (1/GPa) = 0.01865859
#
# Stress axis : x y z
#
# Youngs Moduli (GPa) = 112.52442 80.28583 124.09014
#
# Poissons Ratio (x) = 0.12727 0.17866
# Poissons Ratio (y) = 0.17838 0.29115
# Poissons Ratio (z) = 0.16201 0.18837
#
# Static dielectric constant tensor:
#      x y z
#    x 2.089180 0.000000 0.000000 
#    y 0.000000 2.139650 0.000000 
#    z 0.000000 0.000000 2.157880 
# 
# From -- ./inp_files/544.got.cif
#   From: 2010.05.17/outbox.cif.g08.bks.cpg/sg31_1_cif.got.tgz:544.got - 2010.06.03 17:08:30.
