data_PCOD9343180
_publ_section_title
;
Structure prediction by ZEFSAII (Michael W. Deem and Ramdas Pophale) SiO2 
 PCOD9343180
Probable space group: P M N 21
;
_chemical_formula_sum "Si O2"
_cell_formula_units_Z 32
_cell_length_a 8.796062
_cell_length_b 14.884568
_cell_length_c 12.588065
_cell_angle_alpha 90.000000
_cell_angle_beta 90.000000
_cell_angle_gamma 90.000000
_cell_volume 1648.099749
_symmetry_space_group_name_H-M "P M N 21"
_symmetry_group_IT_number 31
_symmetry_cell_setting 'orthorhombic'
loop_
_space_group_symop_operation_xyz
x,y,z
1/2-x,-y,1/2+z
-x,y,z
1/2+x,-y,1/2+z
loop_
_atom_site_type_symbol
_atom_site_label
_atom_site_fract_x
_atom_site_fract_y
_atom_site_fract_z
Si Si1 0.681497 0.640929 0.811800
Si Si2 0.320907 0.136475 0.602227
Si Si3 0.817101 0.059312 0.040820
Si Si4 0.329047 0.855191 0.320588
Si Si5 0.815193 0.666478 0.040119
Si Si6 0.819218 0.760560 0.637995
Si Si7 0.682146 0.443718 0.750715
Si Si8 0.172981 0.335309 0.940284
O O1 0.500000 0.650955 0.816354
O O2 0.753914 0.723969 0.748663
O O3 0.716837 0.549289 0.747794
O O4 0.747691 0.631672 0.930070
O O5 0.500000 0.134498 0.579141
O O6 0.290432 0.142769 0.727185
O O7 0.262864 0.229791 0.553475
O O8 0.258646 0.039993 0.566947
O O9 0.743112 0.140922 0.106266
O O10 0.000000 0.064309 0.058741
O O11 0.792301 0.078251 0.916484
O O12 0.500000 0.874177 0.279856
O O13 0.331845 0.757404 0.373823
O O14 0.768064 0.609991 0.144893
O O15 0.000000 0.663946 0.035818
O O16 0.762727 0.691495 0.546315
O O17 0.000000 0.762704 0.640533
O O18 0.500000 0.432693 0.757949
O O19 0.753395 0.404941 0.858942
O O20 0.000000 0.361524 0.968206
#
# Coordination Sequence:
#
# PCOD9343180 Si02
#       8
#     4   4   4   4   4   4   4   4
#     4  11  25  42  61  90 127 167 206 252 308 366
#     4  10  20  36  61  87 119 157 198 248 306 361
#     4   9  20  38  58  86 120 158 201 251 305 363
#     4   9  18  33  53  81 116 151 195 246 298 353
#     4  10  22  41  62  90 126 162 202 253 308 366
#     4  11  23  40  62  88 120 160 205 253 307 365
#     4  10  22  40  62  90 123 158 202 252 301 359
#     4  10  20  36  61  88 117 153 197 253 305 355
#
# _framework density 19.4163
#
# number of rings (size 3 to 8) (size 9 to 14) (size 15 to 20)
#    0.000    2.000    1.250    2.625    1.750    5.500 
#    0.000    1.250    0.000    0.000    0.000    0.000 
#    0.000    0.000    0.000    0.000    0.000    0.000 
#
# Total GULP energy -178594.372156 kJ/mol
# GULP energy per Si atom -5581.074130 kJ/mol
# Density = 1.937211 g / cm^3
# Si number density = 19.416300 Si / 1000 Ang^3
#
#
#
# Elastic Constant Matrix: (Units=GPa)
#
#
# Indices 1 2 3 4 5 6 
#
# 1 35.7493 36.1356 22.3172 0.0000 0.0000 0.0000
# 2 36.1356 97.7839 45.8692 0.0000 0.0000 0.0000
# 3 22.3172 45.8692 63.8552 0.0000 0.0000 0.0000
# 4 0.0000 0.0000 0.0000 17.1904 0.0000 0.0000
# 5 0.0000 0.0000 0.0000 0.0000 32.7769 0.0000
# 6 0.0000 0.0000 0.0000 0.0000 0.0000 21.3097
#
#
#
# Elastic Compliance Matrix: (Units=1/GPa)
#
#
# Indices 1 2 3 4 5 6 
#
# 1 0.046050 -0.014280 -0.005837 0.000000 0.000000 0.000000
# 2 -0.014280 0.019852 -0.009270 0.000000 0.000000 0.000000
# 3 -0.005837 -0.009270 0.024359 0.000000 0.000000 0.000000
# 4 0.000000 0.000000 0.000000 0.058172 0.000000 0.000000
# 5 0.000000 0.000000 0.000000 0.000000 0.030509 0.000000
# 6 0.000000 0.000000 0.000000 0.000000 0.000000 0.046927
#
#
# Mechanical properties :
#
#
# Convention : Reuss Voigt Hill
#
# Bulk Modulus (GPa) = 31.75712 45.11472 38.43592
# Shear Modulus (GPa) = 16.94124 20.45984 18.70054
#
# Velocity S-wave (km/s) = 2.95706 3.24967 3.10681
# Velocity P-wave (km/s) = 5.29626 6.11280 5.71912
#
# Compressibility (1/GPa) = 0.03148900
#
# Stress axis : x y z
#
# Youngs Moduli (GPa) = 21.71538 50.37319 41.05261
#
# Poissons Ratio (x) = 0.71931 0.23962
# Poissons Ratio (y) = 0.31009 0.38054
# Poissons Ratio (z) = 0.12675 0.46693
#
# Static dielectric constant tensor:
#      x y z
#    x 1.669010 0.000000 0.000000 
#    y 0.000000 1.701500 0.000000 
#    z 0.000000 0.000000 1.658320 
# 
# From -- ./inp_files/3574.got.cif
#   From: 2010.05.17/outbox.cif.g08.bks.cpg/sg31_2_cif.got.tgz:3574.got - 2010.06.03 17:08:30.
