data_PCOD9343779
_publ_section_title
;
Structure prediction by ZEFSAII (Michael W. Deem and Ramdas Pophale) SiO2 
 PCOD9343779
Probable space group: P B A 2
;
_chemical_formula_sum "Si O2"
_cell_formula_units_Z 30
_cell_length_a 13.291517
_cell_length_b 19.066788
_cell_length_c 6.683098
_cell_angle_alpha 90.000000
_cell_angle_beta 90.000000
_cell_angle_gamma 90.000000
_cell_volume 1693.674381
_symmetry_space_group_name_H-M "P B A 2"
_symmetry_group_IT_number 32
_symmetry_cell_setting 'orthorhombic'
loop_
_space_group_symop_operation_xyz
x,y,z
-x,-y,z
1/2-x,1/2+y,z
1/2+x,1/2-y,z
loop_
_atom_site_type_symbol
_atom_site_label
_atom_site_fract_x
_atom_site_fract_y
_atom_site_fract_z
Si Si1 0.223409 0.146380 0.558930
Si Si2 0.391191 0.744666 0.837962
Si Si3 0.687730 0.507001 0.493423
Si Si4 0.914596 0.254513 0.589482
Si Si5 0.000000 0.000000 0.771920
Si Si6 0.269816 0.360267 0.746406
Si Si7 0.606898 0.591155 0.106917
Si Si8 0.945890 0.796271 0.263269
O O1 0.159330 0.172272 0.754964
O O2 0.246890 0.066085 0.501527
O O3 0.328004 0.187980 0.576656
O O4 0.146324 0.173287 0.389915
O O5 0.505279 0.756527 0.767922
O O6 0.324240 0.808094 0.753758
O O7 0.396879 0.740303 0.074073
O O8 0.589802 0.483273 0.620955
O O9 0.741597 0.567596 0.624173
O O10 0.651557 0.539247 0.279190
O O11 0.856841 0.181058 0.624928
O O12 0.985898 0.254498 0.397004
O O13 0.955031 0.055641 0.926017
O O14 0.304863 0.372533 0.976416
O O15 0.525895 0.643545 0.203061
#
# Coordination Sequence:
#
# PCOD9343779 Si02
#       8
#     4   4   4   4   2   4   4   4
#     4  10  23  36  58  85 117 151 190 238 295 361
#     4  10  22  39  60  83 114 154 201 243 289 345
#     4  11  21  36  55  84 122 150 187 237 301 358
#     4  10  21  39  56  83 110 151 197 242 290 340
#     4  10  20  30  50  84 116 148 178 226 286 360
#     4  10  22  37  58  84 114 153 197 240 290 353
#     4  11  20  32  57  83 119 150 186 233 299 353
#     4  11  20  33  58  87 114 149 189 240 292 348
#
# _framework density 17.712968
#
# number of rings (size 3 to 8) (size 9 to 14) (size 15 to 20)
#    0.000    1.600    2.667    2.800    5.600    2.133 
#    0.000    0.667    0.000    0.000    0.000    0.000 
#    0.000    0.000    0.000    0.000    0.000    0.000 
#
# Total GULP energy -167066.386994 kJ/mol
# GULP energy per Si atom -5568.879566 kJ/mol
# Density = 1.767265 g / cm^3
# Si number density = 17.712968 Si / 1000 Ang^3
#
#
#
# Elastic Constant Matrix: (Units=GPa)
#
#
# Indices 1 2 3 4 5 6 
#
# 1 40.9135 22.2872 1.0915 0.0000 0.0000 0.0000
# 2 22.2872 68.1206 5.0844 0.0000 0.0000 0.0000
# 3 1.0915 5.0844 73.2937 0.0000 0.0000 0.0000
# 4 0.0000 0.0000 0.0000 13.3050 0.0000 0.0000
# 5 0.0000 0.0000 0.0000 0.0000 10.9045 0.0000
# 6 0.0000 0.0000 0.0000 0.0000 0.0000 14.2646
#
#
#
# Elastic Compliance Matrix: (Units=1/GPa)
#
#
# Indices 1 2 3 4 5 6 
#
# 1 0.029747 -0.009750 0.000233 0.000000 0.000000 0.000000
# 2 -0.009750 0.017952 -0.001100 0.000000 0.000000 0.000000
# 3 0.000233 -0.001100 0.013717 0.000000 0.000000 0.000000
# 4 0.000000 0.000000 0.000000 0.075160 0.000000 0.000000
# 5 0.000000 0.000000 0.000000 0.000000 0.091706 0.000000
# 6 0.000000 0.000000 0.000000 0.000000 0.000000 0.070103
#
#
# Mechanical properties :
#
#
# Convention : Reuss Voigt Hill
#
# Bulk Modulus (GPa) = 24.88674 26.58379 25.73527
# Shear Modulus (GPa) = 15.01453 17.95247 16.48350
#
# Velocity S-wave (km/s) = 2.91461 3.18704 3.05387
# Velocity P-wave (km/s) = 5.04055 5.34637 5.19571
#
# Compressibility (1/GPa) = 0.04018203
#
# Stress axis : x y z
#
# Youngs Moduli (GPa) = 33.61729 55.70475 72.90449
#
# Poissons Ratio (x) = 0.54310 -0.01701
# Poissons Ratio (y) = 0.32776 0.08021
# Poissons Ratio (z) = -0.00785 0.06128
#
# Static dielectric constant tensor:
#      x y z
#    x 1.604860 0.000000 0.000000 
#    y 0.000000 1.708230 0.000000 
#    z 0.000000 0.000000 1.663940 
# 
# From -- ./inp_files/1016.got.cif
#   From: 2010.05.17/outbox.cif.g08.bks.cpg/sg32_1_cif.got.tgz:1016.got - 2010.06.03 17:12:27.
