data_PCOD9343322
_publ_section_title
;
Structure prediction by ZEFSAII (Michael W. Deem and Ramdas Pophale) SiO2 
 PCOD9343322
Probable space group: P M N 21
;
_chemical_formula_sum "Si O2"
_cell_formula_units_Z 24
_cell_length_a 12.943024
_cell_length_b 11.166448
_cell_length_c 8.822718
_cell_angle_alpha 90.000000
_cell_angle_beta 90.000000
_cell_angle_gamma 90.000000
_cell_volume 1275.126297
_symmetry_space_group_name_H-M "P M N 21"
_symmetry_group_IT_number 31
_symmetry_cell_setting 'orthorhombic'
loop_
_space_group_symop_operation_xyz
x,y,z
1/2-x,-y,1/2+z
-x,y,z
1/2+x,-y,1/2+z
loop_
_atom_site_type_symbol
_atom_site_label
_atom_site_fract_x
_atom_site_fract_y
_atom_site_fract_z
Si Si1 0.118384 0.939897 0.587890
Si Si2 0.378973 0.484451 0.757123
Si Si3 0.798205 0.732124 0.416692
Si Si4 0.621735 0.252526 0.591828
Si Si5 0.122944 0.255566 0.135817
Si Si6 0.751550 0.902298 0.861041
O O1 0.192515 0.010200 0.473612
O O2 0.000000 0.974577 0.570664
O O3 0.133217 0.799571 0.543009
O O4 0.160973 0.960864 0.755879
O O5 0.500000 0.486430 0.799008
O O6 0.321254 0.408309 0.886981
O O7 0.370455 0.396426 0.610971
O O8 0.347821 0.617550 0.714389
O O9 0.832274 0.788566 0.255240
O O10 0.682504 0.749643 0.475897
O O11 0.500000 0.221379 0.580329
O O12 0.689876 0.197668 0.460208
O O13 0.168881 0.154108 0.244939
O O14 0.000000 0.248732 0.121174
#
# Coordination Sequence:
#
# PCOD9343322 Si02
#       6
#     4   4   4   4   4   4
#     4  11  22  39  58  83 118 151 196 242 283 341
#     4   8  17  33  58  83 110 144 183 233 283 336
#     4   9  19  35  59  81 109 151 191 231 283 334
#     4   9  18  35  58  83 109 142 189 237 284 339
#     4  10  21  37  56  85 121 152 190 233 286 343
#     4  11  23  37  59  87 113 156 191 238 293 337
#
# _framework density 18.821666
#
# number of rings (size 3 to 8) (size 9 to 14) (size 15 to 20)
#    1.000    1.333    0.000    3.000    2.333    0.000 
#    0.000   12.500    0.000    2.000    0.000    0.000 
#    0.000    0.000    0.000    0.000    0.000    0.000 
#
# Total GULP energy -133620.104539 kJ/mol
# GULP energy per Si atom -5567.504356 kJ/mol
# Density = 1.877883 g / cm^3
# Si number density = 18.821666 Si / 1000 Ang^3
#
#
#
# Elastic Constant Matrix: (Units=GPa)
#
#
# Indices 1 2 3 4 5 6 
#
# 1 90.0420 15.2311 32.8244 0.0000 0.0000 0.0000
# 2 15.2311 38.0075 0.7895 0.0000 0.0000 0.0000
# 3 32.8244 0.7895 51.8529 0.0000 0.0000 0.0000
# 4 0.0000 0.0000 0.0000 21.6788 0.0000 0.0000
# 5 0.0000 0.0000 0.0000 0.0000 23.5366 0.0000
# 6 0.0000 0.0000 0.0000 0.0000 0.0000 21.9255
#
#
#
# Elastic Compliance Matrix: (Units=1/GPa)
#
#
# Indices 1 2 3 4 5 6 
#
# 1 0.015735 -0.006101 -0.009868 0.000000 0.000000 0.000000
# 2 -0.006101 0.028684 0.003425 0.000000 0.000000 0.000000
# 3 -0.009868 0.003425 0.025480 0.000000 0.000000 0.000000
# 4 0.000000 0.000000 0.000000 0.046128 0.000000 0.000000
# 5 0.000000 0.000000 0.000000 0.000000 0.042487 0.000000
# 6 0.000000 0.000000 0.000000 0.000000 0.000000 0.045609
#
#
# Mechanical properties :
#
#
# Convention : Reuss Voigt Hill
#
# Bulk Modulus (GPa) = 22.31529 30.84359 26.57944
# Shear Modulus (GPa) = 20.47940 22.16534 21.32237
#
# Velocity S-wave (km/s) = 3.30218 3.43541 3.36945
# Velocity P-wave (km/s) = 5.14014 5.67089 5.41203
#
# Compressibility (1/GPa) = 0.04481232
#
# Stress axis : x y z
#
# Youngs Moduli (GPa) = 63.55172 34.86236 39.24672
#
# Poissons Ratio (x) = 0.21269 0.38728
# Poissons Ratio (y) = 0.38771 -0.13443
# Poissons Ratio (z) = 0.62712 -0.11941
#
# Static dielectric constant tensor:
#      x y z
#    x 1.626970 0.000000 0.000000 
#    y 0.000000 1.707270 0.000000 
#    z 0.000000 0.000000 1.645030 
# 
# From -- ./inp_files/2092.got.cif
#   From: 2010.05.17/outbox.cif.g08.bks.cpg/sg31_2_cif.got.tgz:2092.got - 2010.06.03 17:08:30.
