data_PCOD9343107
_publ_section_title
;
Structure prediction by ZEFSAII (Michael W. Deem and Ramdas Pophale) SiO2 
 PCOD9343107
Probable space group: P M N 21
;
_chemical_formula_sum "Si O2"
_cell_formula_units_Z 32
_cell_length_a 8.878483
_cell_length_b 11.761849
_cell_length_c 16.406923
_cell_angle_alpha 90.000000
_cell_angle_beta 90.000000
_cell_angle_gamma 90.000000
_cell_volume 1713.331924
_symmetry_space_group_name_H-M "P M N 21"
_symmetry_group_IT_number 31
_symmetry_cell_setting 'orthorhombic'
loop_
_space_group_symop_operation_xyz
x,y,z
1/2-x,-y,1/2+z
-x,y,z
1/2+x,-y,1/2+z
loop_
_atom_site_type_symbol
_atom_site_label
_atom_site_fract_x
_atom_site_fract_y
_atom_site_fract_z
Si Si1 0.817913 0.928915 0.710250
Si Si2 0.678189 0.218689 0.363412
Si Si3 0.179121 0.558264 0.489054
Si Si4 0.676811 0.357130 0.806992
Si Si5 0.670887 0.743256 0.600902
Si Si6 0.318113 0.313053 0.533479
Si Si7 0.821157 0.192111 0.691210
Si Si8 0.668650 0.595523 0.763413
O O1 0.764663 0.874710 0.797438
O O2 0.749946 0.855301 0.636370
O O3 0.000000 0.918571 0.708588
O O4 0.777052 0.060098 0.699024
O O5 0.500000 0.201656 0.368365
O O6 0.732549 0.234072 0.456207
O O7 0.716462 0.338808 0.320848
O O8 0.210569 0.589258 0.394909
O O9 0.236783 0.668940 0.537143
O O10 0.257246 0.441089 0.517682
O O11 0.000000 0.544985 0.499544
O O12 0.500000 0.325891 0.804762
O O13 0.775261 0.254728 0.774740
O O14 0.703425 0.464749 0.748038
O O15 0.500000 0.766243 0.572882
O O16 0.663375 0.662014 0.679653
O O17 0.500000 0.317895 0.534897
O O18 0.259172 0.256334 0.616403
O O19 0.000000 0.198379 0.679078
O O20 0.500000 0.599950 0.801286
#
# Coordination Sequence:
#
# PCOD9343107 Si02
#       8
#     4   4   4   4   4   4   4   4
#     4   9  20  41  61  81 114 153 201 247 289 349
#     4   9  18  34  59  85 110 146 188 239 290 340
#     4  11  22  37  59  88 122 156 192 239 296 354
#     4  10  21  37  57  82 119 155 188 238 295 352
#     4  10  20  34  58  88 115 150 191 238 291 345
#     4  11  22  37  60  89 121 152 196 249 300 360
#     4  11  24  40  60  84 117 160 203 248 297 353
#     4   9  17  32  54  81 112 144 181 228 284 345
#
# _framework density 18.677057999999999
#
# number of rings (size 3 to 8) (size 9 to 14) (size 15 to 20)
#    0.000    2.000    1.250    2.250    0.000    4.500 
#    2.250    0.000    0.000    0.000    0.000    0.000 
#    0.000    0.000    0.000    0.000    0.000    0.000 
#
# Total GULP energy -178418.217967 kJ/mol
# GULP energy per Si atom -5575.569311 kJ/mol
# Density = 1.863455 g / cm^3
# Si number density = 18.677058 Si / 1000 Ang^3
#
#
#
# Elastic Constant Matrix: (Units=GPa)
#
#
# Indices 1 2 3 4 5 6 
#
# 1 45.1543 49.3029 34.0039 0.0000 0.0000 0.0000
# 2 49.3029 148.1984 50.5342 0.0000 0.0000 0.0000
# 3 34.0039 50.5342 66.5006 0.0000 0.0000 0.0000
# 4 0.0000 0.0000 0.0000 24.2967 0.0000 0.0000
# 5 0.0000 0.0000 0.0000 0.0000 24.7260 0.0000
# 6 0.0000 0.0000 0.0000 0.0000 0.0000 26.4963
#
#
#
# Elastic Compliance Matrix: (Units=1/GPa)
#
#
# Indices 1 2 3 4 5 6 
#
# 1 0.043950 -0.009392 -0.015336 0.000000 0.000000 0.000000
# 2 -0.009392 0.011115 -0.003644 0.000000 0.000000 0.000000
# 3 -0.015336 -0.003644 0.025648 0.000000 0.000000 0.000000
# 4 0.000000 0.000000 0.000000 0.041158 0.000000 0.000000
# 5 0.000000 0.000000 0.000000 0.000000 0.040443 0.000000
# 6 0.000000 0.000000 0.000000 0.000000 0.000000 0.037741
#
#
# Mechanical properties :
#
#
# Convention : Reuss Voigt Hill
#
# Bulk Modulus (GPa) = 41.71975 58.61503 50.16739
# Shear Modulus (GPa) = 18.88296 23.50462 21.19379
#
# Velocity S-wave (km/s) = 3.18311 3.55135 3.37226
# Velocity P-wave (km/s) = 5.99129 6.94749 6.48703
#
# Compressibility (1/GPa) = 0.02396946
#
# Stress axis : x y z
#
# Youngs Moduli (GPa) = 22.75300 89.97081 38.98906
#
# Poissons Ratio (x) = 0.84500 0.59794
# Poissons Ratio (y) = 0.21370 0.14207
# Poissons Ratio (z) = 0.34894 0.32783
#
# Static dielectric constant tensor:
#      x y z
#    x 1.658940 0.000000 0.000000 
#    y 0.000000 1.644060 0.000000 
#    z 0.000000 0.000000 1.689830 
# 
# From -- ./inp_files/5937.got.cif
#   From: 2010.05.17/outbox.cif.g08.bks.cpg/sg31_3_cif.got.tgz:5937.got - 2010.06.03 17:08:30.
