data_PCOD9343170
_publ_section_title
;
Structure prediction by ZEFSAII (Michael W. Deem and Ramdas Pophale) SiO2 
 PCOD9343170
Probable space group: P M N 21
;
_chemical_formula_sum "Si O2"
_cell_formula_units_Z 32
_cell_length_a 8.270976
_cell_length_b 13.541657
_cell_length_c 13.349647
_cell_angle_alpha 90.000000
_cell_angle_beta 90.000000
_cell_angle_gamma 90.000000
_cell_volume 1495.196776
_symmetry_space_group_name_H-M "P M N 21"
_symmetry_group_IT_number 31
_symmetry_cell_setting 'orthorhombic'
loop_
_space_group_symop_operation_xyz
x,y,z
1/2-x,-y,1/2+z
-x,y,z
1/2+x,-y,1/2+z
loop_
_atom_site_type_symbol
_atom_site_label
_atom_site_fract_x
_atom_site_fract_y
_atom_site_fract_z
Si Si1 0.810758 0.059642 0.352010
Si Si2 0.189821 0.106262 0.736283
Si Si3 0.804073 0.615510 0.944404
Si Si4 0.693542 0.743788 0.754257
Si Si5 0.192778 0.753341 0.536397
Si Si6 0.307239 0.599910 0.370669
Si Si7 0.692640 0.318685 0.666548
Si Si8 0.303763 0.022029 0.044585
O O1 0.741943 0.145700 0.282206
O O2 0.000000 0.082611 0.355750
O O3 0.790151 0.944551 0.323906
O O4 0.740257 0.056402 0.463075
O O5 0.234242 0.214301 0.700826
O O6 0.000000 0.102004 0.760409
O O7 0.228998 0.028732 0.649127
O O8 0.737930 0.679246 0.851470
O O9 0.757424 0.502207 0.923261
O O10 0.000000 0.621782 0.942483
O O11 0.749645 0.649672 0.055529
O O12 0.500000 0.743474 0.741476
O O13 0.765543 0.711941 0.647222
O O14 0.259976 0.689434 0.444555
O O15 0.257641 0.866284 0.536428
O O16 0.000000 0.755791 0.526016
O O17 0.500000 0.600426 0.359681
O O18 0.234532 0.609626 0.259325
O O19 0.500000 0.309155 0.661359
O O20 0.500000 0.026080 0.034967
#
# Coordination Sequence:
#
# PCOD9343170 Si02
#       8
#     4   4   4   4   4   4   4   4
#     4  10  20  36  58  88 126 168 210 257 309 370
#     4  11  21  37  60  89 124 166 210 256 304 368
#     4  10  25  46  68  94 128 167 215 270 327 390
#     4  11  23  39  64  97 135 173 217 269 322 384
#     4  11  22  40  65  95 134 177 216 263 325 386
#     4  11  25  45  68  98 127 164 218 273 326 388
#     4  11  24  44  66  94 131 170 211 266 329 393
#     4   9  19  35  57  85 123 165 207 250 302 367
#
# _framework density 21.401865999999998
#
# number of rings (size 3 to 8) (size 9 to 14) (size 15 to 20)
#    0.000    1.500    1.250    3.375    1.750    4.500 
#    0.000    1.875    0.000    0.000    0.000    0.000 
#    0.000    0.000    0.000    0.000    0.000    0.000 
#
# Total GULP energy -178625.670390 kJ/mol
# GULP energy per Si atom -5582.052200 kJ/mol
# Density = 2.135315 g / cm^3
# Si number density = 21.401866 Si / 1000 Ang^3
#
#
#
# Elastic Constant Matrix: (Units=GPa)
#
#
# Indices 1 2 3 4 5 6 
#
# 1 9.8355 -6.5259 -5.1573 0.0000 0.0000 0.0000
# 2 -6.5259 56.9190 -0.5181 0.0000 0.0000 0.0000
# 3 -5.1573 -0.5181 90.0977 0.0000 0.0000 0.0000
# 4 0.0000 0.0000 0.0000 28.0707 0.0000 0.0000
# 5 0.0000 0.0000 0.0000 0.0000 28.0759 0.0000
# 6 0.0000 0.0000 0.0000 0.0000 0.0000 20.9836
#
#
#
# Elastic Compliance Matrix: (Units=1/GPa)
#
#
# Indices 1 2 3 4 5 6 
#
# 1 0.113827 0.013110 0.006591 0.000000 0.000000 0.000000
# 2 0.013110 0.019080 0.000860 0.000000 0.000000 0.000000
# 3 0.006591 0.000860 0.011481 0.000000 0.000000 0.000000
# 4 0.000000 0.000000 0.000000 0.035624 0.000000 0.000000
# 5 0.000000 0.000000 0.000000 0.000000 0.035618 0.000000
# 6 0.000000 0.000000 0.000000 0.000000 0.000000 0.047656
#
#
# Mechanical properties :
#
#
# Convention : Reuss Voigt Hill
#
# Bulk Modulus (GPa) = 5.39051 14.71664 10.05357
# Shear Modulus (GPa) = 17.60561 26.69626 22.15093
#
# Velocity S-wave (km/s) = 2.87125 3.53566 3.22063
# Velocity P-wave (km/s) = 3.67645 4.85377 4.30554
#
# Compressibility (1/GPa) = 0.18551119
#
# Stress axis : x y z
#
# Youngs Moduli (GPa) = 8.78527 52.41145 87.09827
#
# Poissons Ratio (x) = -0.68714 -0.57406
# Poissons Ratio (y) = -0.11518 -0.07492
# Poissons Ratio (z) = -0.05790 -0.04508
#
# Static dielectric constant tensor:
#      x y z
#    x 1.744260 0.000000 0.000000 
#    y 0.000000 1.821930 0.000000 
#    z 0.000000 0.000000 1.996200 
# 
# From -- ./inp_files/3619.got.cif
#   From: 2010.05.17/outbox.cif.g08.bks.cpg/sg31_2_cif.got.tgz:3619.got - 2010.06.03 17:08:30.
