data_PCOD9343375
_publ_section_title
;
Structure prediction by ZEFSAII (Michael W. Deem and Ramdas Pophale) SiO2 
 PCOD9343375
Probable space group: P M N 21
;
_chemical_formula_sum "Si O2"
_cell_formula_units_Z 32
_cell_length_a 15.019996
_cell_length_b 11.593136
_cell_length_c 9.503546
_cell_angle_alpha 90.000000
_cell_angle_beta 90.000000
_cell_angle_gamma 90.000000
_cell_volume 1654.841596
_symmetry_space_group_name_H-M "P M N 21"
_symmetry_group_IT_number 31
_symmetry_cell_setting 'orthorhombic'
loop_
_space_group_symop_operation_xyz
x,y,z
1/2-x,-y,1/2+z
-x,y,z
1/2+x,-y,1/2+z
loop_
_atom_site_type_symbol
_atom_site_label
_atom_site_fract_x
_atom_site_fract_y
_atom_site_fract_z
Si Si1 0.400630 0.355987 0.801610
Si Si2 0.339735 0.355719 0.121609
Si Si3 0.223523 0.240924 0.767713
Si Si4 0.731315 0.119474 0.063498
Si Si5 0.105707 0.099238 0.546049
Si Si6 0.095716 0.453452 0.821293
Si Si7 0.099828 0.159750 0.222376
Si Si8 0.638204 0.577554 0.633324
O O1 0.500000 0.316996 0.768006
O O2 0.324492 0.277222 0.730797
O O3 0.387140 0.487273 0.752482
O O4 0.386031 0.355124 0.969745
O O5 0.316031 0.222823 0.150142
O O6 0.390501 0.427582 0.239150
O O7 0.244012 0.417575 0.110964
O O8 0.163836 0.172133 0.657018
O O9 0.172294 0.361244 0.790925
O O10 0.234044 0.172279 0.915173
O O11 0.820403 0.088328 0.150052
O O12 0.658446 0.021814 0.038860
O O13 0.109737 0.154878 0.390597
O O14 0.000000 0.088676 0.582625
O O15 0.000000 0.403535 0.777936
O O16 0.097463 0.467277 0.988384
O O17 0.108889 0.292128 0.169262
O O18 0.000000 0.118632 0.186986
#
# Coordination Sequence:
#
# PCOD9343375 Si02
#       8
#     4   4   4   4   4   4   4   4
#     4  11  22  37  60  90 124 164 203 248 312 383
#     4  10  21  39  60  88 125 164 202 258 315 373
#     4  11  23  41  62  90 129 161 205 265 324 375
#     4  10  22  43  65  87 124 170 211 262 322 377
#     4  11  25  42  65  93 123 165 221 273 316 376
#     4  12  22  36  60  91 124 162 204 254 318 384
#     4  10  21  38  62  93 123 162 210 260 316 380
#     4  11  20  38  58  88 128 164 198 252 313 382
#
# _framework density 19.337198000000001
#
# number of rings (size 3 to 8) (size 9 to 14) (size 15 to 20)
#    0.000    1.250    5.000    2.625    1.750    5.000 
#    0.000    0.625    0.000    2.250    0.000    0.000 
#    0.000    0.000    0.000    0.000    0.000    0.000 
#
# Total GULP energy -178552.500353 kJ/mol
# GULP energy per Si atom -5579.765636 kJ/mol
# Density = 1.929319 g / cm^3
# Si number density = 19.337198 Si / 1000 Ang^3
#
#
#
# Elastic Constant Matrix: (Units=GPa)
#
#
# Indices 1 2 3 4 5 6 
#
# 1 162.6788 29.1185 37.0763 0.0000 0.0000 0.0000
# 2 29.1185 47.3610 30.2518 0.0000 0.0000 0.0000
# 3 37.0763 30.2518 54.9602 0.0000 0.0000 0.0000
# 4 0.0000 0.0000 0.0000 21.8056 0.0000 0.0000
# 5 0.0000 0.0000 0.0000 0.0000 17.4543 0.0000
# 6 0.0000 0.0000 0.0000 0.0000 0.0000 18.2460
#
#
#
# Elastic Compliance Matrix: (Units=1/GPa)
#
#
# Indices 1 2 3 4 5 6 
#
# 1 0.007397 -0.002098 -0.003835 0.000000 0.000000 0.000000
# 2 -0.002098 0.033158 -0.016836 0.000000 0.000000 0.000000
# 3 -0.003835 -0.016836 0.030049 0.000000 0.000000 0.000000
# 4 0.000000 0.000000 0.000000 0.045860 0.000000 0.000000
# 5 0.000000 0.000000 0.000000 0.000000 0.057292 0.000000
# 6 0.000000 0.000000 0.000000 0.000000 0.000000 0.054807
#
#
# Mechanical properties :
#
#
# Convention : Reuss Voigt Hill
#
# Bulk Modulus (GPa) = 39.89462 50.87701 45.38582
# Shear Modulus (GPa) = 17.70185 22.73807 20.21996
#
# Velocity S-wave (km/s) = 3.02889 3.43282 3.23716
# Velocity P-wave (km/s) = 5.73655 6.48690 6.12323
#
# Compressibility (1/GPa) = 0.02506603
#
# Stress axis : x y z
#
# Youngs Moduli (GPa) = 135.19636 30.15832 33.27882
#
# Poissons Ratio (x) = 0.06327 0.12762
# Poissons Ratio (y) = 0.28364 0.56028
# Poissons Ratio (z) = 0.51847 0.50775
#
# Static dielectric constant tensor:
#      x y z
#    x 1.734490 0.000000 0.000000 
#    y 0.000000 1.671930 0.000000 
#    z 0.000000 0.000000 1.671710 
# 
# From -- ./inp_files/2567.got.cif
#   From: 2010.05.17/outbox.cif.g08.bks.cpg/sg31_2_cif.got.tgz:2567.got - 2010.06.03 17:08:30.
