data_PCOD9343319
_publ_section_title
;
Structure prediction by ZEFSAII (Michael W. Deem and Ramdas Pophale) SiO2 
 PCOD9343319
Probable space group: P M N 21
;
_chemical_formula_sum "Si O2"
_cell_formula_units_Z 32
_cell_length_a 9.668815
_cell_length_b 30.388128
_cell_length_c 5.425018
_cell_angle_alpha 90.000000
_cell_angle_beta 90.000000
_cell_angle_gamma 90.000000
_cell_volume 1593.963533
_symmetry_space_group_name_H-M "P M N 21"
_symmetry_group_IT_number 31
_symmetry_cell_setting 'orthorhombic'
loop_
_space_group_symop_operation_xyz
x,y,z
1/2-x,-y,1/2+z
-x,y,z
1/2+x,-y,1/2+z
loop_
_atom_site_type_symbol
_atom_site_label
_atom_site_fract_x
_atom_site_fract_y
_atom_site_fract_z
Si Si1 0.150568 0.568530 0.954840
Si Si2 0.665718 0.121945 0.020352
Si Si3 0.829405 0.983062 0.525525
Si Si4 0.330353 0.169169 0.520300
Si Si5 0.857781 0.471440 0.118544
Si Si6 0.666805 0.270539 0.541022
Si Si7 0.167285 0.677773 0.543852
Si Si8 0.347301 0.608379 0.297076
O O1 0.215565 0.545639 0.721277
O O2 0.000000 0.587693 0.921330
O O3 0.139306 0.523717 0.115170
O O4 0.251545 0.604969 0.059862
O O5 0.500000 0.128787 0.019898
O O6 0.687208 0.069796 0.024336
O O7 0.716772 0.144049 0.767259
O O8 0.717016 0.145132 0.270314
O O9 0.000000 0.992115 0.525675
O O10 0.750022 0.999889 0.775756
O O11 0.500000 0.168420 0.519761
O O12 0.286046 0.220023 0.526117
O O13 0.000000 0.457679 0.259333
O O14 0.866123 0.442693 0.872617
O O15 0.500000 0.269317 0.535802
O O16 0.702383 0.292849 0.801801
O O17 0.705876 0.297705 0.296604
O O18 0.257880 0.634265 0.499096
O O19 0.000000 0.669844 0.539977
O O20 0.500000 0.627506 0.265597
#
# Coordination Sequence:
#
# PCOD9343319 Si02
#       8
#     4   4   4   4   4   4   4   4
#     4  11  22  37  59  83 108 140 177 224 274 319
#     4   9  17  28  48  80 115 148 196 249 303 357
#     4  11  22  37  56  84 124 171 217 264 312 372
#     4   9  15  27  49  79 111 144 179 240 310 356
#     4  10  22  38  56  80 109 140 177 219 267 323
#     4   9  18  33  55  82 115 143 179 233 297 356
#     4  10  21  37  55  83 114 146 182 225 281 348
#     4  11  24  41  57  79 108 144 185 224 266 329
#
# _framework density 20.075742999999999
#
# number of rings (size 3 to 8) (size 9 to 14) (size 15 to 20)
#    0.000    2.000    1.250    2.625    1.750    6.500 
#    0.000    0.000    0.000    0.000    0.000   17.500 
#    0.000    0.000    0.000    0.000    0.000    0.000 
#
# Total GULP energy -178153.851157 kJ/mol
# GULP energy per Si atom -5567.307849 kJ/mol
# Density = 2.003005 g / cm^3
# Si number density = 20.075743 Si / 1000 Ang^3
#
#
#
# Elastic Constant Matrix: (Units=GPa)
#
#
# Indices 1 2 3 4 5 6 
#
# 1 94.7110 27.2523 40.2623 0.0000 0.0000 0.0000
# 2 27.2523 109.1718 62.8460 0.0000 0.0000 0.0000
# 3 40.2623 62.8460 147.1377 0.0000 0.0000 0.0000
# 4 0.0000 0.0000 0.0000 35.6616 0.0000 0.0000
# 5 0.0000 0.0000 0.0000 0.0000 15.7779 0.0000
# 6 0.0000 0.0000 0.0000 0.0000 0.0000 19.0098
#
#
#
# Elastic Compliance Matrix: (Units=1/GPa)
#
#
# Indices 1 2 3 4 5 6 
#
# 1 0.012126 -0.001481 -0.002686 0.000000 0.000000 0.000000
# 2 -0.001481 0.012327 -0.004860 0.000000 0.000000 0.000000
# 3 -0.002686 -0.004860 0.009607 0.000000 0.000000 0.000000
# 4 0.000000 0.000000 0.000000 0.028041 0.000000 0.000000
# 5 0.000000 0.000000 0.000000 0.000000 0.063380 0.000000
# 6 0.000000 0.000000 0.000000 0.000000 0.000000 0.052604
#
#
# Mechanical properties :
#
#
# Convention : Reuss Voigt Hill
#
# Bulk Modulus (GPa) = 62.47152 67.97130 65.22141
# Shear Modulus (GPa) = 24.81696 28.80054 26.80875
#
# Velocity S-wave (km/s) = 3.51973 3.79171 3.65825
# Velocity P-wave (km/s) = 6.90677 7.28700 7.09943
#
# Compressibility (1/GPa) = 0.01600729
#
# Stress axis : x y z
#
# Youngs Moduli (GPa) = 82.46564 81.12072 104.09012
#
# Poissons Ratio (x) = 0.12014 0.27954
# Poissons Ratio (y) = 0.12214 0.50588
# Poissons Ratio (z) = 0.22147 0.39425
#
# Static dielectric constant tensor:
#      x y z
#    x 1.770570 0.000000 0.000000 
#    y 0.000000 1.734080 0.000000 
#    z 0.000000 0.000000 1.810160 
# 
# From -- ./inp_files/185.got.cif
#   From: 2010.05.17/outbox.cif.g08.bks.cpg/sg31_1_cif.got.tgz:185.got - 2010.06.03 17:08:30.
