data_PCOD9343813
_publ_section_title
;
Structure prediction by ZEFSAII (Michael W. Deem and Ramdas Pophale) SiO2 
 PCOD9343813
Probable space group: P B A 2
;
_chemical_formula_sum "Si O2"
_cell_formula_units_Z 32
_cell_length_a 14.291822
_cell_length_b 7.772473
_cell_length_c 11.052873
_cell_angle_alpha 90.000000
_cell_angle_beta 90.000000
_cell_angle_gamma 90.000000
_cell_volume 1227.784088
_symmetry_space_group_name_H-M "P B A 2"
_symmetry_group_IT_number 32
_symmetry_cell_setting 'orthorhombic'
loop_
_space_group_symop_operation_xyz
x,y,z
-x,-y,z
1/2-x,1/2+y,z
1/2+x,1/2-y,z
loop_
_atom_site_type_symbol
_atom_site_label
_atom_site_fract_x
_atom_site_fract_y
_atom_site_fract_z
Si Si1 0.778232 0.557000 0.851850
Si Si2 0.066222 0.666824 0.757678
Si Si3 0.221768 0.443000 0.129648
Si Si4 0.893168 0.870899 0.228020
Si Si5 0.863762 0.392799 0.490748
Si Si6 0.106832 0.129100 0.753478
Si Si7 0.566222 0.833176 0.223819
Si Si8 0.643586 0.308104 0.490749
O O1 0.841633 0.385762 0.831739
O O2 0.828892 0.699080 0.770692
O O3 0.673053 0.512734 0.813276
O O4 0.784458 0.610026 0.990749
O O5 0.092809 0.676591 0.615681
O O6 0.000000 0.500000 0.770971
O O7 0.996556 0.819427 0.797135
O O8 0.171108 0.300921 0.210806
O O9 0.326947 0.487267 0.168221
O O10 0.158368 0.614239 0.149758
O O11 0.897189 0.893636 0.371105
O O12 0.996555 0.819427 0.184362
O O13 0.907191 0.323409 0.365816
O O14 0.754681 0.343548 0.490748
O O15 0.873848 0.601639 0.490749
O O16 0.102811 0.106365 0.610393
O O17 0.500000 0.000000 0.210526
#
# Coordination Sequence:
#
# PCOD9343813 Si02
#       8
#     4   4   4   4   4   4   4   4
#     4  11  23  39  60  88 121 161 206 246 291 358
#     4  10  20  36  62  89 117 155 201 244 296 354
#     4  11  23  39  60  88 121 161 206 246 291 358
#     4  11  22  39  63  88 121 157 199 252 305 355
#     4  12  20  37  64  94 125 153 198 251 303 366
#     4  11  22  39  63  88 121 157 199 252 305 355
#     4  10  20  36  62  89 117 155 201 244 296 354
#     4  12  19  36  65  91 123 159 190 252 312 352
#
# _framework density 26.063215
#
# number of rings (size 3 to 8) (size 9 to 14) (size 15 to 20)
#    0.000    1.000    7.500    1.875    0.000    5.500 
#    0.000    1.250    0.000    6.000    0.000    0.000 
#    0.000    0.000    0.000    0.000    0.000    0.000 
#
# Total GULP energy -179388.398107 kJ/mol
# GULP energy per Si atom -5605.887441 kJ/mol
# Density = 2.600389 g / cm^3
# Si number density = 26.063215 Si / 1000 Ang^3
#
#
#
# Elastic Constant Matrix: (Units=GPa)
#
#
# Indices 1 2 3 4 5 6 
#
# 1 190.3312 3.8947 -1.1785 0.0000 0.0000 0.0000
# 2 3.8947 101.0175 -13.4359 0.0000 0.0000 0.0000
# 3 -1.1785 -13.4359 94.1199 0.0000 0.0000 0.0000
# 4 0.0000 0.0000 0.0000 5.8922 0.0000 0.0000
# 5 0.0000 0.0000 0.0000 0.0000 -32.3419 0.0000
# 6 0.0000 0.0000 0.0000 0.0000 0.0000 51.0546
#
#
#
# Elastic Compliance Matrix: (Units=1/GPa)
#
#
# Indices 1 2 3 4 5 6 
#
# 1 0.005258 -0.000198 0.000038 0.000000 0.000000 0.000000
# 2 -0.000198 0.010098 0.001439 0.000000 0.000000 0.000000
# 3 0.000038 0.001439 0.010831 0.000000 0.000000 0.000000
# 4 0.000000 0.000000 0.000000 0.169716 0.000000 0.000000
# 5 0.000000 0.000000 0.000000 0.000000 -0.030920 0.000000
# 6 0.000000 0.000000 0.000000 0.000000 0.000000 0.019587
#
#
# Mechanical properties :
#
#
# Convention : Reuss Voigt Hill
#
# Bulk Modulus (GPa) = 34.78843 40.44769 37.61806
# Shear Modulus (GPa) = 26.09684 31.33354 28.71519
#
# Velocity S-wave (km/s) = 3.16775 3.47106 3.32287
# Velocity P-wave (km/s) = 5.17264 5.62291 5.40247
#
# Compressibility (1/GPa) = 0.02874519
#
# Stress axis : x y z
#
# Youngs Moduli (GPa) = 190.17632 99.02652 92.33051
#
# Poissons Ratio (x) = 0.01958 -0.00347
# Poissons Ratio (y) = 0.03760 -0.13287
# Poissons Ratio (z) = -0.00715 -0.14251
#
# Static dielectric constant tensor:
#      x y z
#    x 2.040310 0.000000 0.000000 
#    y 0.000000 2.245950 0.000000 
#    z 0.000000 0.000000 1.907330 
# 
# From -- ./inp_files/3777.got.cif
#   From: 2010.05.17/outbox.cif.g08.bks.cpg/sg32_2_cif.got.tgz:3777.got - 2010.06.03 17:12:27.
