data_PCOD9343732
_publ_section_title
;
Structure prediction by ZEFSAII (Michael W. Deem and Ramdas Pophale) SiO2 
 PCOD9343732
Probable space group: P B A 2
;
_chemical_formula_sum "Si O2"
_cell_formula_units_Z 32
_cell_length_a 10.480672
_cell_length_b 13.663346
_cell_length_c 9.623470
_cell_angle_alpha 90.000000
_cell_angle_beta 90.000000
_cell_angle_gamma 90.000000
_cell_volume 1378.090988
_symmetry_space_group_name_H-M "P B A 2"
_symmetry_group_IT_number 32
_symmetry_cell_setting 'orthorhombic'
loop_
_space_group_symop_operation_xyz
x,y,z
-x,-y,z
1/2-x,1/2+y,z
1/2+x,1/2-y,z
loop_
_atom_site_type_symbol
_atom_site_label
_atom_site_fract_x
_atom_site_fract_y
_atom_site_fract_z
Si Si1 0.219091 0.875178 0.292850
Si Si2 0.138410 0.685075 0.906908
Si Si3 0.659591 0.441478 0.445542
Si Si4 0.644033 0.175572 0.830833
Si Si5 0.085935 0.266383 0.514141
Si Si6 0.856694 0.477869 0.687732
Si Si7 0.122040 0.676492 0.316251
Si Si8 0.625038 0.974643 0.111135
O O1 0.314476 0.822613 0.407572
O O2 0.137999 0.781379 0.243848
O O3 0.130765 0.957693 0.366113
O O4 0.292335 0.937254 0.173698
O O5 0.231040 0.776686 0.896354
O O6 0.147941 0.625951 0.762353
O O7 0.985383 0.702262 0.915441
O O8 0.192633 0.610314 0.022830
O O9 0.577045 0.352081 0.504344
O O10 0.752865 0.478351 0.567916
O O11 0.744582 0.377355 0.339706
O O12 0.622920 0.211404 0.671511
O O13 0.667326 0.060799 0.803746
O O14 0.949989 0.305180 0.460181
O O15 0.000000 0.500000 0.633830
O O16 0.054972 0.592178 0.229555
O O17 0.500000 0.000000 0.021458
#
# Coordination Sequence:
#
# PCOD9343732 Si02
#       8
#     4   4   4   4   4   4   4   4
#     4  10  22  38  61  96 125 168 213 274 338 392
#     4  11  25  43  64  98 128 177 232 270 334 400
#     4  10  20  33  58  93 124 163 209 263 330 402
#     4  11  23  40  67  96 133 177 220 285 334 396
#     4  11  20  36  62  92 137 161 215 273 347 401
#     4  10  19  35  61  90 125 169 221 269 321 395
#     4  10  22  36  60  94 125 168 210 276 338 394
#     4  11  22  42  67  92 125 174 232 272 325 410
#
# _framework density 23.220528000000002
#
# number of rings (size 3 to 8) (size 9 to 14) (size 15 to 20)
#    0.000    1.500    3.750    2.625    1.750    2.500 
#    2.250    0.625    0.000    0.000    0.000    0.000 
#    0.000    0.000    0.000    0.000    0.000    0.000 
#
# Total GULP energy -178352.798044 kJ/mol
# GULP energy per Si atom -5573.524939 kJ/mol
# Density = 2.316768 g / cm^3
# Si number density = 23.220528 Si / 1000 Ang^3
#
#
#
# Elastic Constant Matrix: (Units=GPa)
#
#
# Indices 1 2 3 4 5 6 
#
# 1 36.8740 36.6333 8.6646 0.0000 0.0000 0.0000
# 2 36.6333 169.5143 24.5375 0.0000 0.0000 0.0000
# 3 8.6646 24.5375 64.8913 0.0000 0.0000 0.0000
# 4 0.0000 0.0000 0.0000 26.9712 0.0000 0.0000
# 5 0.0000 0.0000 0.0000 0.0000 18.2739 0.0000
# 6 0.0000 0.0000 0.0000 0.0000 0.0000 33.6625
#
#
#
# Elastic Compliance Matrix: (Units=1/GPa)
#
#
# Indices 1 2 3 4 5 6 
#
# 1 0.034755 -0.007235 -0.001905 0.000000 0.000000 0.000000
# 2 -0.007235 0.007747 -0.001963 0.000000 0.000000 0.000000
# 3 -0.001905 -0.001963 0.016407 0.000000 0.000000 0.000000
# 4 0.000000 0.000000 0.000000 0.037077 0.000000 0.000000
# 5 0.000000 0.000000 0.000000 0.000000 0.054723 0.000000
# 6 0.000000 0.000000 0.000000 0.000000 0.000000 0.029707
#
#
# Mechanical properties :
#
#
# Convention : Reuss Voigt Hill
#
# Bulk Modulus (GPa) = 27.24611 45.66117 36.45364
# Shear Modulus (GPa) = 23.27146 29.21114 26.24130
#
# Velocity S-wave (km/s) = 3.16918 3.55066 3.36533
# Velocity P-wave (km/s) = 5.01505 6.04288 5.55280
#
# Compressibility (1/GPa) = 0.03670248
#
# Stress axis : x y z
#
# Youngs Moduli (GPa) = 28.77299 129.08313 60.94917
#
# Poissons Ratio (x) = 0.93392 0.11610
# Poissons Ratio (y) = 0.20817 0.11966
# Poissons Ratio (z) = 0.05481 0.25343
#
# Static dielectric constant tensor:
#      x y z
#    x 1.957500 0.000000 0.000000 
#    y 0.000000 2.029980 0.000000 
#    z 0.000000 0.000000 1.961130 
# 
# From -- ./inp_files/3881.got.cif
#   From: 2010.05.17/outbox.cif.g08.bks.cpg/sg32_2_cif.got.tgz:3881.got - 2010.06.03 17:12:27.
