data_PCOD9343622
_publ_section_title
;
Structure prediction by ZEFSAII (Michael W. Deem and Ramdas Pophale) SiO2 
 PCOD9343622
Probable space group: P M N 21
;
_chemical_formula_sum "Si O2"
_cell_formula_units_Z 32
_cell_length_a 15.000000
_cell_length_b 12.000000
_cell_length_c 9.000000
_cell_angle_alpha 90.000000
_cell_angle_beta 90.000000
_cell_angle_gamma 90.000000
_cell_volume 1620.000000
_symmetry_space_group_name_H-M "P M N 21"
_symmetry_group_IT_number 31
_symmetry_cell_setting 'orthorhombic'
loop_
_space_group_symop_operation_xyz
x,y,z
1/2-x,-y,1/2+z
-x,y,z
1/2+x,-y,1/2+z
loop_
_atom_site_type_symbol
_atom_site_label
_atom_site_fract_x
_atom_site_fract_y
_atom_site_fract_z
Si Si1 0.155022 0.644562 0.720120
Si Si2 0.894126 0.072436 0.514173
Si Si3 0.101140 0.654566 0.061801
Si Si4 0.280625 0.152484 0.023553
Si Si5 0.727386 0.759321 0.200794
Si Si6 0.599159 0.830954 0.682187
Si Si7 0.902691 0.425133 0.577374
Si Si8 0.139907 0.420839 0.228558
O O1 0.114570 0.652543 0.884248
O O2 0.168855 0.760271 0.632417
O O3 0.102115 0.552682 0.627814
O O4 0.254190 0.594215 0.733087
O O5 0.833794 0.143489 0.629251
O O6 0.891553 0.137613 0.356290
O O7 0.000000 0.062378 0.554111
O O8 0.844814 0.953167 0.497276
O O9 0.000000 0.689256 0.097428
O O10 0.177492 0.736605 0.122809
O O11 0.115220 0.531169 0.135225
O O12 0.185934 0.120386 0.100057
O O13 0.251347 0.213623 0.870991
O O14 0.670291 0.647932 0.164492
O O15 0.500000 0.868528 0.633380
O O16 0.604013 0.696482 0.664486
O O17 0.889726 0.425344 0.400086
O O18 0.000000 0.376614 0.611058
#
# Coordination Sequence:
#
# PCOD9343622 Si02
#       8
#     4   4   4   4   4   4   4   4
#     4  11  23  42  62  96 140 183 219 281 341 408
#     4  11  24  47  73  97 131 182 241 294 346 409
#     4  12  25  41  66  99 139 183 226 274 342 420
#     4  11  26  43  70  96 139 183 231 284 350 413
#     4  12  24  43  68 101 137 174 228 283 353 410
#     4  10  21  40  66  97 131 173 227 284 344 408
#     4  12  23  38  65  97 132 173 223 279 345 415
#     4  11  20  40  64  93 135 179 223 277 343 407
#
# _framework density 19.753086
#
# number of rings (size 3 to 8) (size 9 to 14) (size 15 to 20)
#    0.000    0.750    3.750    4.125    3.500    2.500 
#    0.000    0.625    0.000    0.000    0.000    0.000 
#    0.000    0.000    0.000    0.000    0.000    0.000 
#
# Total GULP energy -178827.753977 kJ/mol
# GULP energy per Si atom -5588.367312 kJ/mol
# Density = 1.970813 g / cm^3
# Si number density = 19.753086 Si / 1000 Ang^3
#
#
#
# Elastic Constant Matrix: (Units=GPa)
#
#
# Indices 1 2 3 4 5 6 
#
# 1 159.4762 39.1271 35.4954 0.0000 0.0000 0.0000
# 2 39.1271 82.6496 39.3651 0.0000 0.0000 0.0000
# 3 35.4954 39.3651 72.5626 0.0000 0.0000 0.0000
# 4 0.0000 0.0000 0.0000 26.9805 0.0000 0.0000
# 5 0.0000 0.0000 0.0000 0.0000 9.1941 0.0000
# 6 0.0000 0.0000 0.0000 0.0000 0.0000 17.1302
#
#
#
# Elastic Compliance Matrix: (Units=1/GPa)
#
#
# Indices 1 2 3 4 5 6 
#
# 1 0.007371 -0.002390 -0.002309 0.000000 0.000000 0.000000
# 2 -0.002390 0.017089 -0.008102 0.000000 0.000000 0.000000
# 3 -0.002309 -0.008102 0.019306 0.000000 0.000000 0.000000
# 4 0.000000 0.000000 0.000000 0.037064 0.000000 0.000000
# 5 0.000000 0.000000 0.000000 0.000000 0.108766 0.000000
# 6 0.000000 0.000000 0.000000 0.000000 0.000000 0.058376
#
#
# Mechanical properties :
#
#
# Convention : Reuss Voigt Hill
#
# Bulk Modulus (GPa) = 55.05198 60.29596 57.67397
# Shear Modulus (GPa) = 17.88083 24.04101 20.96092
#
# Velocity S-wave (km/s) = 3.01195 3.49245 3.26106
# Velocity P-wave (km/s) = 6.32664 6.84500 6.59092
#
# Compressibility (1/GPa) = 0.01816465
#
# Stress axis : x y z
#
# Youngs Moduli (GPa) = 135.67099 58.51567 51.79688
#
# Poissons Ratio (x) = 0.13983 0.11961
# Poissons Ratio (y) = 0.32419 0.41966
# Poissons Ratio (z) = 0.31330 0.47410
#
# Static dielectric constant tensor:
#      x y z
#    x 1.730950 0.000000 0.000000 
#    y 0.000000 1.690860 0.000000 
#    z 0.000000 0.000000 1.685140 
# 
# From -- ./inp_files/2607.got.cif
#   From: 2010.05.17/outbox.ucp.g08.bks.cvg/sg31_2_cif.got.tgz:2607.got - 2010.06.11 10:34:26.
