data_PCOD9343231
_publ_section_title
;
Structure prediction by ZEFSAII (Michael W. Deem and Ramdas Pophale) SiO2 
 PCOD9343231
Probable space group: P M N 21
;
_chemical_formula_sum "Si O2"
_cell_formula_units_Z 26
_cell_length_a 7.626228
_cell_length_b 7.549938
_cell_length_c 17.204298
_cell_angle_alpha 90.000000
_cell_angle_beta 90.000000
_cell_angle_gamma 90.000000
_cell_volume 990.581304
_symmetry_space_group_name_H-M "P M N 21"
_symmetry_group_IT_number 31
_symmetry_cell_setting 'orthorhombic'
loop_
_space_group_symop_operation_xyz
x,y,z
1/2-x,-y,1/2+z
-x,y,z
1/2+x,-y,1/2+z
loop_
_atom_site_type_symbol
_atom_site_label
_atom_site_fract_x
_atom_site_fract_y
_atom_site_fract_z
Si Si1 0.000000 0.149477 0.302640
Si Si2 0.209529 0.482119 0.691009
Si Si3 0.196447 0.297905 0.977828
Si Si4 0.800840 0.684658 0.906529
Si Si5 0.785948 0.196211 0.569342
Si Si6 0.807672 0.801439 0.320451
Si Si7 0.802904 0.839285 0.637594
O O1 0.846400 0.267056 0.345785
O O2 0.847424 0.992436 0.283443
O O3 0.268848 0.371694 0.615658
O O4 0.241001 0.350214 0.762750
O O5 0.288147 0.680934 0.686261
O O6 0.000000 0.505517 0.685211
O O7 0.233387 0.491446 0.943430
O O8 0.203691 0.179182 0.900214
O O9 0.000000 0.295622 0.009628
O O10 0.313675 0.241036 0.049794
O O11 0.783624 0.808396 0.982462
O O12 0.000000 0.686536 0.875366
O O13 0.000000 0.191777 0.566095
O O14 0.722292 0.029032 0.618945
O O15 0.000000 0.741340 0.347981
O O16 0.000000 0.871600 0.668167
#
# Coordination Sequence:
#
# PCOD9343231 Si02
#       7
#     2   4   4   4   4   4   4
#     4  10  24  42  64  94 132 178 216 284 334 398
#     4  10  21  41  63  91 135 181 221 274 338 407
#     4  11  23  39  64  97 130 173 225 285 336 399
#     4  11  23  39  65 101 134 171 226 283 340 406
#     4  10  20  37  64  96 132 172 217 278 344 402
#     4  10  24  42  61  89 126 181 218 274 333 402
#     4  10  21  37  65  97 128 169 219 274 340 401
#
# _framework density 26.247215000000001
#
# number of rings (size 3 to 8) (size 9 to 14) (size 15 to 20)
#    0.462    1.231    2.308    1.846    4.308    4.308 
#    2.769    0.000    0.000    0.000    0.000    0.000 
#    0.000    0.000    0.000    0.000    0.000    0.000 
#
# Total GULP energy -144924.599877 kJ/mol
# GULP energy per Si atom -5574.023072 kJ/mol
# Density = 2.618747 g / cm^3
# Si number density = 26.247215 Si / 1000 Ang^3
#
#
#
# Elastic Constant Matrix: (Units=GPa)
#
#
# Indices 1 2 3 4 5 6 
#
# 1 77.1988 -5.1795 5.1291 0.0000 0.0000 0.0000
# 2 -5.1795 122.1544 0.0897 0.0000 0.0000 0.0000
# 3 5.1291 0.0897 113.4863 0.0000 0.0000 0.0000
# 4 0.0000 0.0000 0.0000 38.5285 0.0000 0.0000
# 5 0.0000 0.0000 0.0000 0.0000 9.0231 0.0000
# 6 0.0000 0.0000 0.0000 0.0000 0.0000 6.3285
#
#
#
# Elastic Compliance Matrix: (Units=1/GPa)
#
#
# Indices 1 2 3 4 5 6 
#
# 1 0.013030 0.000553 -0.000589 0.000000 0.000000 0.000000
# 2 0.000553 0.008210 -0.000031 0.000000 0.000000 0.000000
# 3 -0.000589 -0.000031 0.008838 0.000000 0.000000 0.000000
# 4 0.000000 0.000000 0.000000 0.025955 0.000000 0.000000
# 5 0.000000 0.000000 0.000000 0.000000 0.110826 0.000000
# 6 0.000000 0.000000 0.000000 0.000000 0.000000 0.158016
#
#
# Mechanical properties :
#
#
# Convention : Reuss Voigt Hill
#
# Bulk Modulus (GPa) = 33.39771 34.76866 34.08319
# Shear Modulus (GPa) = 14.92575 31.62937 23.27756
#
# Velocity S-wave (km/s) = 2.38725 3.47516 2.98125
# Velocity P-wave (km/s) = 4.51115 5.42012 4.98639
#
# Compressibility (1/GPa) = 0.02994217
#
# Stress axis : x y z
#
# Youngs Moduli (GPa) = 76.74702 121.80520 113.14403
#
# Poissons Ratio (x) = -0.06735 0.06668
# Poissons Ratio (y) = -0.04243 0.00356
# Poissons Ratio (z) = 0.04523 0.00383
#
# Static dielectric constant tensor:
#      x y z
#    x 1.991660 0.000000 0.000000 
#    y 0.000000 2.129260 0.000000 
#    z 0.000000 0.000000 2.098720 
# 
# From -- ./inp_files/5768.got.cif
#   From: 2010.05.17/outbox.cif.g08.bks.cpg/sg31_3_cif.got.tgz:5768.got - 2010.06.03 17:08:30.
