data_PCOD9343650
_publ_section_title
;
Structure prediction by ZEFSAII (Michael W. Deem and Ramdas Pophale) SiO2 
 PCOD9343650
Probable space group: P B A 2
;
_chemical_formula_sum "Si O2"
_cell_formula_units_Z 30
_cell_length_a 9.694745
_cell_length_b 20.657983
_cell_length_c 8.637663
_cell_angle_alpha 90.000000
_cell_angle_beta 90.000000
_cell_angle_gamma 90.000000
_cell_volume 1729.898261
_symmetry_space_group_name_H-M "P B A 2"
_symmetry_group_IT_number 32
_symmetry_cell_setting 'orthorhombic'
loop_
_space_group_symop_operation_xyz
x,y,z
-x,-y,z
1/2-x,1/2+y,z
1/2+x,1/2-y,z
loop_
_atom_site_type_symbol
_atom_site_label
_atom_site_fract_x
_atom_site_fract_y
_atom_site_fract_z
Si Si1 0.573401 0.812592 0.708460
Si Si2 0.840831 0.851148 0.888509
Si Si3 0.000000 0.500000 0.755266
Si Si4 0.879337 0.168667 0.725907
Si Si5 0.352152 0.794003 0.972768
Si Si6 0.109414 0.412144 0.186209
Si Si7 0.835620 0.454051 0.037503
Si Si8 0.854445 0.597980 0.546006
O O1 0.723860 0.837768 0.757155
O O2 0.583181 0.738367 0.653502
O O3 0.485635 0.809640 0.867820
O O4 0.481637 0.854079 0.590547
O O5 0.849687 0.783718 0.985701
O O6 0.983836 0.862095 0.798844
O O7 0.794054 0.909269 0.000510
O O8 0.890863 0.535663 0.648373
O O9 0.918536 0.454745 0.874510
O O10 0.777865 0.185585 0.868466
O O11 0.788364 0.127464 0.607639
O O12 0.355562 0.841569 0.118349
O O13 0.182155 0.471207 0.090676
O O14 0.145522 0.416340 0.365379
O O15 0.945770 0.424395 0.158039
#
# Coordination Sequence:
#
# PCOD9343650 Si02
#       8
#     4   4   2   4   4   4   4   4
#     4   9  16  34  58  81 106 143 193 236 267 334
#     4  10  17  32  61  84 107 134 197 241 276 318
#     4  10  18  34  62  78 100 146 200 240 256 320
#     4   9  19  32  57  83 108 145 184 237 284 328
#     4   9  17  34  55  81 110 149 188 227 275 338
#     4  10  20  34  56  83 115 149 186 233 287 346
#     4  10  18  34  59  88 101 140 207 240 266 318
#     4  11  20  36  56  85 115 149 188 230 295 347
#
# _framework density 17.34206
#
# number of rings (size 3 to 8) (size 9 to 14) (size 15 to 20)
#    0.000    2.400    2.667    4.000    0.000    0.000 
#    2.400    2.667    2.933    1.600    0.000    0.000 
#    0.000    0.000    0.000    0.000    0.000    0.000 
#
# Total GULP energy -167090.129978 kJ/mol
# GULP energy per Si atom -5569.670999 kJ/mol
# Density = 1.730259 g / cm^3
# Si number density = 17.342060 Si / 1000 Ang^3
#
#
#
# Elastic Constant Matrix: (Units=GPa)
#
#
# Indices 1 2 3 4 5 6 
#
# 1 101.0721 28.9594 29.4000 0.0000 0.0000 0.0000
# 2 28.9594 80.1272 37.1114 0.0000 0.0000 0.0000
# 3 29.4000 37.1114 83.9872 0.0000 0.0000 0.0000
# 4 0.0000 0.0000 0.0000 10.2798 0.0000 0.0000
# 5 0.0000 0.0000 0.0000 0.0000 14.3949 0.0000
# 6 0.0000 0.0000 0.0000 0.0000 0.0000 30.8261
#
#
#
# Elastic Compliance Matrix: (Units=1/GPa)
#
#
# Indices 1 2 3 4 5 6 
#
# 1 0.011523 -0.002887 -0.002758 0.000000 0.000000 0.000000
# 2 -0.002887 0.016415 -0.006243 0.000000 0.000000 0.000000
# 3 -0.002758 -0.006243 0.015630 0.000000 0.000000 0.000000
# 4 0.000000 0.000000 0.000000 0.097278 0.000000 0.000000
# 5 0.000000 0.000000 0.000000 0.000000 0.069469 0.000000
# 6 0.000000 0.000000 0.000000 0.000000 0.000000 0.032440
#
#
# Mechanical properties :
#
#
# Convention : Reuss Voigt Hill
#
# Bulk Modulus (GPa) = 50.52285 50.68089 50.60187
# Shear Modulus (GPa) = 18.30634 22.41454 20.36044
#
# Velocity S-wave (km/s) = 3.25253 3.59903 3.43016
# Velocity P-wave (km/s) = 6.58040 6.82337 6.70299
#
# Compressibility (1/GPa) = 0.01979302
#
# Stress axis : x y z
#
# Youngs Moduli (GPa) = 86.77937 60.91991 63.97788
#
# Poissons Ratio (x) = 0.17590 0.17645
# Poissons Ratio (y) = 0.25057 0.39938
# Poissons Ratio (z) = 0.23933 0.38030
#
# Static dielectric constant tensor:
#      x y z
#    x 1.611990 0.000000 0.000000 
#    y 0.000000 1.667350 0.000000 
#    z 0.000000 0.000000 1.553320 
# 
# From -- ./inp_files/2572.got.cif
#   From: 2010.05.17/outbox.cif.g08.bks.cpg/sg32_2_cif.got.tgz:2572.got - 2010.06.03 17:12:27.
