data_PCOD9343793
_publ_section_title
;
Structure prediction by ZEFSAII (Michael W. Deem and Ramdas Pophale) SiO2 
 PCOD9343793
Probable space group: P B A 2
;
_chemical_formula_sum "Si O2"
_cell_formula_units_Z 26
_cell_length_a 5.193725
_cell_length_b 27.609821
_cell_length_c 8.115655
_cell_angle_alpha 90.000000
_cell_angle_beta 90.000000
_cell_angle_gamma 90.000000
_cell_volume 1163.767215
_symmetry_space_group_name_H-M "P B A 2"
_symmetry_group_IT_number 32
_symmetry_cell_setting 'orthorhombic'
loop_
_space_group_symop_operation_xyz
x,y,z
-x,-y,z
1/2-x,1/2+y,z
1/2+x,1/2-y,z
loop_
_atom_site_type_symbol
_atom_site_label
_atom_site_fract_x
_atom_site_fract_y
_atom_site_fract_z
Si Si1 0.508262 0.270183 0.369170
Si Si2 0.038743 0.776887 0.975332
Si Si3 0.500000 0.000000 0.523466
Si Si4 0.415169 0.085873 0.773453
Si Si5 0.425644 0.393617 0.967655
Si Si6 0.217992 0.920631 0.337621
Si Si7 0.775441 0.368599 0.466330
O O1 0.716236 0.230906 0.434378
O O2 0.470935 0.266606 0.172517
O O3 0.666520 0.318572 0.401232
O O4 0.281359 0.747514 0.906201
O O5 0.060041 0.834907 0.961150
O O6 0.603110 0.958946 0.647546
O O7 0.298893 0.973244 0.403785
O O8 0.699381 0.089551 0.845913
O O9 0.350716 0.131626 0.657492
O O10 0.199813 0.085126 0.913021
O O11 0.354876 0.412892 0.148306
O O12 0.472067 0.887765 0.371830
O O13 0.970533 0.903334 0.439600
#
# Coordination Sequence:
#
# PCOD9343793 Si02
#       7
#     4   4   2   4   4   4   4
#     4  10  20  34  62  97 129 173 230 280 313 381
#     4  10  21  37  64  98 137 176 224 277 324 389
#     4  10  26  52  68 102 124 190 218 290 346 408
#     4  11  26  44  71  93 146 172 218 274 362 402
#     4  12  24  44  68 108 132 185 217 285 333 407
#     4  11  24  42  75  93 133 165 242 274 327 404
#     4  11  22  43  64  99 131 184 214 278 332 407
#
# _framework density 22.341238000000001
#
# number of rings (size 3 to 8) (size 9 to 14) (size 15 to 20)
#    0.000    1.231    1.538    4.615    4.308    6.154 
#    0.000    7.692    0.000    0.000    0.000    0.000 
#    0.000    0.000    0.000    0.000    0.000    0.000 
#
# Total GULP energy -145286.182492 kJ/mol
# GULP energy per Si atom -5587.930096 kJ/mol
# Density = 2.229039 g / cm^3
# Si number density = 22.341238 Si / 1000 Ang^3
#
#
#
# Elastic Constant Matrix: (Units=GPa)
#
#
# Indices 1 2 3 4 5 6 
#
# 1 106.0402 55.4248 17.1521 0.0000 0.0000 0.0000
# 2 55.4248 78.9702 16.5556 0.0000 0.0000 0.0000
# 3 17.1521 16.5556 42.8204 0.0000 0.0000 0.0000
# 4 0.0000 0.0000 0.0000 28.3983 0.0000 0.0000
# 5 0.0000 0.0000 0.0000 0.0000 37.3723 0.0000
# 6 0.0000 0.0000 0.0000 0.0000 0.0000 27.0211
#
#
#
# Elastic Compliance Matrix: (Units=1/GPa)
#
#
# Indices 1 2 3 4 5 6 
#
# 1 0.015069 -0.010132 -0.002119 0.000000 0.000000 0.000000
# 2 -0.010132 0.020592 -0.003903 0.000000 0.000000 0.000000
# 3 -0.002119 -0.003903 0.025711 0.000000 0.000000 0.000000
# 4 0.000000 0.000000 0.000000 0.035213 0.000000 0.000000
# 5 0.000000 0.000000 0.000000 0.000000 0.026758 0.000000
# 6 0.000000 0.000000 0.000000 0.000000 0.000000 0.037008
#
#
# Mechanical properties :
#
#
# Convention : Reuss Voigt Hill
#
# Bulk Modulus (GPa) = 34.40586 45.12175 39.76381
# Shear Modulus (GPa) = 24.71007 27.80489 26.25748
#
# Velocity S-wave (km/s) = 3.32931 3.53165 3.43197
# Velocity P-wave (km/s) = 5.49660 6.07211 5.79151
#
# Compressibility (1/GPa) = 0.02906481
#
# Stress axis : x y z
#
# Youngs Moduli (GPa) = 66.36275 48.56223 38.89366
#
# Poissons Ratio (x) = 0.49202 0.08240
# Poissons Ratio (y) = 0.67237 0.15181
# Poissons Ratio (z) = 0.14060 0.18955
#
# Static dielectric constant tensor:
#      x y z
#    x 1.846920 0.000000 0.000000 
#    y 0.000000 1.921010 0.000000 
#    z 0.000000 0.000000 1.811960 
# 
# From -- ./inp_files/2018.got.cif
#   From: 2010.05.17/outbox.cif.g08.bks.cpg/sg32_2_cif.got.tgz:2018.got - 2010.06.03 17:12:27.
