data_PCOD9343809
_publ_section_title
;
Structure prediction by ZEFSAII (Michael W. Deem and Ramdas Pophale) SiO2 
 PCOD9343809
Probable space group: P B A 2
;
_chemical_formula_sum "Si O2"
_cell_formula_units_Z 30
_cell_length_a 31.295430
_cell_length_b 5.107380
_cell_length_c 7.303405
_cell_angle_alpha 90.000000
_cell_angle_beta 90.000000
_cell_angle_gamma 90.000000
_cell_volume 1167.359116
_symmetry_space_group_name_H-M "P B A 2"
_symmetry_group_IT_number 32
_symmetry_cell_setting 'orthorhombic'
loop_
_space_group_symop_operation_xyz
x,y,z
-x,-y,z
1/2-x,1/2+y,z
1/2+x,1/2-y,z
loop_
_atom_site_type_symbol
_atom_site_label
_atom_site_fract_x
_atom_site_fract_y
_atom_site_fract_z
Si Si1 0.139329 0.851066 0.757160
Si Si2 0.899291 0.847491 0.242729
Si Si3 0.349080 0.161899 0.150559
Si Si4 0.729247 0.478077 0.217033
Si Si5 0.438588 0.699399 0.882944
Si Si6 0.588919 0.998070 0.570018
Si Si7 0.275245 0.617855 0.776669
Si Si8 0.500000 0.000000 0.653780
O O1 0.093358 0.969636 0.819917
O O2 0.129305 0.688692 0.573880
O O3 0.175714 0.067835 0.722255
O O4 0.158410 0.696354 0.932095
O O5 0.888677 0.149369 0.207238
O O6 0.907790 0.755672 0.447691
O O7 0.861698 0.639714 0.185291
O O8 0.937419 0.785790 0.100116
O O9 0.310900 0.328918 0.240564
O O10 0.766078 0.680659 0.285737
O O11 0.728739 0.410809 0.998142
O O12 0.412844 0.935189 0.786079
O O13 0.483191 0.765052 0.784404
O O14 0.540526 0.901692 0.537477
O O15 0.255346 0.886141 0.710068
#
# Coordination Sequence:
#
# PCOD9343809 Si02
#       8
#     4   4   4   4   4   4   4   2
#     4  10  20  36  64  83 129 165 207 259 317 368
#     4  11  22  37  62  87 123 157 207 249 309 365
#     4  10  20  36  56  89 117 159 208 253 303 377
#     4   9  16  28  50  79 113 150 197 252 306 357
#     4   9  21  40  59  92 121 164 205 257 306 376
#     4  10  22  39  60  92 121 166 202 257 309 375
#     4   9  19  30  53  89 118 155 208 256 303 369
#     4   8  20  40  60  90 124 156 208 250 306 370
#
# _framework density 25.699033
#
# number of rings (size 3 to 8) (size 9 to 14) (size 15 to 20)
#    0.800    1.600    1.333    0.800    3.733    4.267 
#    0.000    0.000    0.000    6.400    0.000    0.000 
#    0.000    0.000    0.000    0.000    0.000    0.000 
#
# Total GULP energy -167053.191422 kJ/mol
# GULP energy per Si atom -5568.439714 kJ/mol
# Density = 2.564054 g / cm^3
# Si number density = 25.699033 Si / 1000 Ang^3
#
#
#
# Elastic Constant Matrix: (Units=GPa)
#
#
# Indices 1 2 3 4 5 6 
#
# 1 48.2350 4.7437 11.4758 0.0000 0.0000 0.0000
# 2 4.7437 85.2788 6.6366 0.0000 0.0000 0.0000
# 3 11.4758 6.6366 76.8489 0.0000 0.0000 0.0000
# 4 0.0000 0.0000 0.0000 23.5558 0.0000 0.0000
# 5 0.0000 0.0000 0.0000 0.0000 11.3281 0.0000
# 6 0.0000 0.0000 0.0000 0.0000 0.0000 28.8913
#
#
#
# Elastic Compliance Matrix: (Units=1/GPa)
#
#
# Indices 1 2 3 4 5 6 
#
# 1 0.021573 -0.000956 -0.003139 0.000000 0.000000 0.000000
# 2 -0.000956 0.011848 -0.000880 0.000000 0.000000 0.000000
# 3 -0.003139 -0.000880 0.013557 0.000000 0.000000 0.000000
# 4 0.000000 0.000000 0.000000 0.042452 0.000000 0.000000
# 5 0.000000 0.000000 0.000000 0.000000 0.088276 0.000000
# 6 0.000000 0.000000 0.000000 0.000000 0.000000 0.034613
#
#
# Mechanical properties :
#
#
# Convention : Reuss Voigt Hill
#
# Bulk Modulus (GPa) = 27.00677 28.45275 27.72976
# Shear Modulus (GPa) = 21.31181 25.25547 23.28364
#
# Velocity S-wave (km/s) = 2.88285 3.13827 3.01327
# Velocity P-wave (km/s) = 4.64896 4.92211 4.78748
#
# Compressibility (1/GPa) = 0.03702775
#
# Stress axis : x y z
#
# Youngs Moduli (GPa) = 46.35504 84.40297 73.76089
#
# Poissons Ratio (x) = 0.08066 0.23153
# Poissons Ratio (y) = 0.04430 0.06494
# Poissons Ratio (z) = 0.14550 0.07431
#
# Static dielectric constant tensor:
#      x y z
#    x 2.200230 0.000000 0.000000 
#    y 0.000000 2.090150 0.000000 
#    z 0.000000 0.000000 2.070380 
# 
# From -- ./inp_files/3414.got.cif
#   From: 2010.05.17/outbox.cif.g08.bks.cpg/sg32_2_cif.got.tgz:3414.got - 2010.06.03 17:12:27.
