data_PCOD9343674
_publ_section_title
;
Structure prediction by ZEFSAII (Michael W. Deem and Ramdas Pophale) SiO2 
 PCOD9343674
Probable space group: P B A 2
;
_chemical_formula_sum "Si O2"
_cell_formula_units_Z 32
_cell_length_a 11.547164
_cell_length_b 12.657783
_cell_length_c 8.942461
_cell_angle_alpha 90.000000
_cell_angle_beta 90.000000
_cell_angle_gamma 90.000000
_cell_volume 1307.043479
_symmetry_space_group_name_H-M "P B A 2"
_symmetry_group_IT_number 32
_symmetry_cell_setting 'orthorhombic'
loop_
_space_group_symop_operation_xyz
x,y,z
-x,-y,z
1/2-x,1/2+y,z
1/2+x,1/2-y,z
loop_
_atom_site_type_symbol
_atom_site_label
_atom_site_fract_x
_atom_site_fract_y
_atom_site_fract_z
Si Si1 0.623719 0.530310 0.048520
Si Si2 0.671117 0.950404 0.847616
Si Si3 0.448016 0.823493 0.835887
Si Si4 0.884365 0.551928 0.330534
Si Si5 0.620899 0.368818 0.295783
Si Si6 0.986985 0.750478 0.501008
Si Si7 0.772833 0.706061 0.093499
Si Si8 0.220914 0.633979 0.530604
O O1 0.500000 0.500000 0.979213
O O2 0.615658 0.478721 0.214387
O O3 0.653830 0.654208 0.038599
O O4 0.728097 0.472527 0.963884
O O5 0.572184 0.867086 0.895116
O O6 0.723642 0.905014 0.696803
O O7 0.615173 0.063481 0.805211
O O8 0.462016 0.754839 0.685846
O O9 0.364523 0.773071 0.960948
O O10 0.926152 0.639598 0.448461
O O11 0.820724 0.610189 0.196661
O O12 0.813831 0.461795 0.418744
O O13 0.000000 0.500000 0.266126
O O14 0.501548 0.310683 0.329238
O O15 0.716028 0.303524 0.204978
O O16 0.648663 0.342588 0.473371
O O17 0.128010 0.725493 0.516156
#
# Coordination Sequence:
#
# PCOD9343674 Si02
#       8
#     4   4   4   4   4   4   4   4
#     4  11  25  43  60  90 137 176 210 255 324 403
#     4   9  19  36  67  92 118 161 207 271 322 381
#     4   9  17  35  64  98 118 146 211 278 329 358
#     4   9  16  30  56  90 113 140 190 263 317 353
#     4  11  24  38  63  88 128 169 214 256 318 384
#     4   9  19  34  59  90 121 150 198 267 318 365
#     4  10  22  37  62  92 123 166 213 265 311 376
#     4  10  18  36  62  88 118 155 211 259 309 375
#
# _framework density 24.482735000000002
#
# number of rings (size 3 to 8) (size 9 to 14) (size 15 to 20)
#    0.000    2.250    2.500    0.000    5.250    2.000 
#    0.000    0.625    8.250    0.000    0.000    0.000 
#    0.000    0.000    0.000    0.000    0.000    0.000 
#
# Total GULP energy -178277.261390 kJ/mol
# GULP energy per Si atom -5571.164418 kJ/mol
# Density = 2.442701 g / cm^3
# Si number density = 24.482735 Si / 1000 Ang^3
#
#
#
# Elastic Constant Matrix: (Units=GPa)
#
#
# Indices 1 2 3 4 5 6 
#
# 1 87.3819 20.9184 36.2570 0.0000 0.0000 0.0000
# 2 20.9184 76.9529 14.4691 0.0000 0.0000 0.0000
# 3 36.2570 14.4691 91.6689 0.0000 0.0000 0.0000
# 4 0.0000 0.0000 0.0000 25.5167 0.0000 0.0000
# 5 0.0000 0.0000 0.0000 0.0000 41.4091 0.0000
# 6 0.0000 0.0000 0.0000 0.0000 0.0000 -8.0793
#
#
#
# Elastic Compliance Matrix: (Units=1/GPa)
#
#
# Indices 1 2 3 4 5 6 
#
# 1 0.014296 -0.002909 -0.005195 0.000000 0.000000 0.000000
# 2 -0.002909 0.013984 -0.001057 0.000000 0.000000 0.000000
# 3 -0.005195 -0.001057 0.013130 0.000000 0.000000 0.000000
# 4 0.000000 0.000000 0.000000 0.039190 0.000000 0.000000
# 5 0.000000 0.000000 0.000000 0.000000 0.024149 0.000000
# 6 0.000000 0.000000 0.000000 0.000000 0.000000 -0.123773
#
#
# Mechanical properties :
#
#
# Convention : Reuss Voigt Hill
#
# Bulk Modulus (GPa) = 43.31122 44.36584 43.83853
# Shear Modulus (GPa) = 714.73802 24.05991 369.39897
#
# Velocity S-wave (km/s) = 17.10466 3.13825 12.29671
# Velocity P-wave (km/s) = 20.19459 5.59394 14.81745
#
# Compressibility (1/GPa) = 0.02308870
#
# Stress axis : x y z
#
# Youngs Moduli (GPa) = 69.94911 71.50784 76.15903
#
# Poissons Ratio (x) = 0.20804 0.39566
# Poissons Ratio (y) = 0.20351 0.08047
# Poissons Ratio (z) = 0.36340 0.07556
#
# Static dielectric constant tensor:
#      x y z
#    x 2.280340 0.000000 0.000000 
#    y 0.000000 1.850070 0.000000 
#    z 0.000000 0.000000 1.960720 
# 
# From -- ./inp_files/2863.got.cif
#   From: 2010.05.17/outbox.cif.g08.bks.cpg/sg32_2_cif.got.tgz:2863.got - 2010.06.03 17:12:27.
