data_PCOD9343787
_publ_section_title
;
Structure prediction by ZEFSAII (Michael W. Deem and Ramdas Pophale) SiO2 
 PCOD9343787
Probable space group: P B A 2
;
_chemical_formula_sum "Si O2"
_cell_formula_units_Z 26
_cell_length_a 9.465468
_cell_length_b 10.400417
_cell_length_c 8.476915
_cell_angle_alpha 90.000000
_cell_angle_beta 90.000000
_cell_angle_gamma 90.000000
_cell_volume 834.508323
_symmetry_space_group_name_H-M "P B A 2"
_symmetry_group_IT_number 32
_symmetry_cell_setting 'orthorhombic'
loop_
_space_group_symop_operation_xyz
x,y,z
-x,-y,z
1/2-x,1/2+y,z
1/2+x,1/2-y,z
loop_
_atom_site_type_symbol
_atom_site_label
_atom_site_fract_x
_atom_site_fract_y
_atom_site_fract_z
Si Si1 0.421323 0.830612 0.895830
Si Si2 0.244093 0.953970 0.223908
Si Si3 0.705017 0.439966 0.545309
Si Si4 0.000000 0.000000 0.223908
Si Si5 0.921323 0.669388 0.551986
Si Si6 0.794983 0.939966 0.902507
Si Si7 0.961919 0.302753 0.223908
O O1 0.490659 0.836068 0.723908
O O2 0.334948 0.961948 0.919027
O O3 0.312589 0.711621 0.895213
O O4 0.533522 0.799872 0.025057
O O5 0.132683 0.026394 0.370025
O O6 0.358445 0.839145 0.223908
O O7 0.353008 0.073325 0.223908
O O8 0.132683 0.026394 0.077792
O O9 0.834948 0.538052 0.528789
O O10 0.687411 0.288379 0.552604
O O11 0.651041 0.479013 0.723908
O O12 0.911372 0.144184 0.223908
O O13 0.033522 0.700128 0.422760
#
# Coordination Sequence:
#
# PCOD9343787 Si02
#       7
#     4   4   4   2   4   4   4
#     4   9  16  28  47  74 107 144 184 227 282 338
#     4  10  20  34  52  80 115 145 183 239 285 331
#     4   9  16  28  47  74 107 144 184 227 282 338
#     4  12  20  36  62  88 108 154 204 228 284 366
#     4   9  16  28  47  74 107 144 184 227 282 338
#     4   9  16  28  47  74 107 144 184 227 282 338
#     4  10  20  34  52  80 115 145 183 239 285 331
#
# _framework density 31.156072999999999
#
# number of rings (size 3 to 8) (size 9 to 14) (size 15 to 20)
#    0.000    2.462    3.077    0.000    0.000    0.000 
#    0.000    3.077    0.000    0.923    0.000    0.000 
#    0.000   35.692    0.000    0.000    0.000    0.000 
#
# Total GULP energy -144837.990276 kJ/mol
# GULP energy per Si atom -5570.691934 kJ/mol
# Density = 3.108516 g / cm^3
# Si number density = 31.156073 Si / 1000 Ang^3
#
#
#
# Elastic Constant Matrix: (Units=GPa)
#
#
# Indices 1 2 3 4 5 6 
#
# 1 197.6496 74.5825 96.2828 0.0000 0.0000 0.0000
# 2 74.5825 288.5022 112.1550 0.0000 0.0000 0.0000
# 3 96.2828 112.1550 354.7197 0.0000 0.0000 0.0000
# 4 0.0000 0.0000 0.0000 70.9580 0.0000 0.0000
# 5 0.0000 0.0000 0.0000 0.0000 17.1287 0.0000
# 6 0.0000 0.0000 0.0000 0.0000 0.0000 69.4731
#
#
#
# Elastic Compliance Matrix: (Units=1/GPa)
#
#
# Indices 1 2 3 4 5 6 
#
# 1 0.006104 -0.001065 -0.001320 0.000000 0.000000 0.000000
# 2 -0.001065 0.004138 -0.001019 0.000000 0.000000 0.000000
# 3 -0.001320 -0.001019 0.003500 0.000000 0.000000 0.000000
# 4 0.000000 0.000000 0.000000 0.014093 0.000000 0.000000
# 5 0.000000 0.000000 0.000000 0.000000 0.058382 0.000000
# 6 0.000000 0.000000 0.000000 0.000000 0.000000 0.014394
#
#
# Mechanical properties :
#
#
# Convention : Reuss Voigt Hill
#
# Bulk Modulus (GPa) = 144.23337 156.32355 150.27846
# Shear Modulus (GPa) = 45.56639 68.70204 57.13421
#
# Velocity S-wave (km/s) = 3.82844 4.70094 4.28694
# Velocity P-wave (km/s) = 8.12016 8.93019 8.53479
#
# Compressibility (1/GPa) = 0.00693321
#
# Stress axis : x y z
#
# Youngs Moduli (GPa) = 163.81560 241.68160 285.73507
#
# Poissons Ratio (x) = 0.25735 0.37725
# Poissons Ratio (y) = 0.17444 0.29123
# Poissons Ratio (z) = 0.21628 0.24633
#
# Static dielectric constant tensor:
#      x y z
#    x 2.653380 0.000000 0.000000 
#    y 0.000000 2.209440 0.000000 
#    z 0.000000 0.000000 3.166000 
# 
# From -- ./inp_files/3046.got.cif
#   From: 2010.05.17/outbox.cif.g08.bks.cpg/sg32_2_cif.got.tgz:3046.got - 2010.06.03 17:12:27.
