data_PCOD9343690
_publ_section_title
;
Structure prediction by ZEFSAII (Michael W. Deem and Ramdas Pophale) SiO2 
 PCOD9343690
Probable space group: P B A 2
;
_chemical_formula_sum "Si O2"
_cell_formula_units_Z 32
_cell_length_a 14.827137
_cell_length_b 13.999907
_cell_length_c 5.705373
_cell_angle_alpha 90.000000
_cell_angle_beta 90.000000
_cell_angle_gamma 90.000000
_cell_volume 1184.312992
_symmetry_space_group_name_H-M "P B A 2"
_symmetry_group_IT_number 32
_symmetry_cell_setting 'orthorhombic'
loop_
_space_group_symop_operation_xyz
x,y,z
-x,-y,z
1/2-x,1/2+y,z
1/2+x,1/2-y,z
loop_
_atom_site_type_symbol
_atom_site_label
_atom_site_fract_x
_atom_site_fract_y
_atom_site_fract_z
Si Si1 0.335588 0.830935 0.465180
Si Si2 0.065664 0.880342 0.465176
Si Si3 0.758259 0.984905 0.465172
Si Si4 0.451270 0.165606 0.465180
Si Si5 0.948913 0.118084 0.965175
Si Si6 0.542174 0.842594 0.965179
Si Si7 0.315549 0.563308 0.965172
Si Si8 0.658596 0.224958 0.965180
O O1 0.325125 0.943858 0.465177
O O2 0.441840 0.805716 0.465181
O O3 0.295722 0.796489 0.714940
O O4 0.295722 0.796487 0.215421
O O5 0.152729 0.947037 0.465174
O O6 0.095047 0.769546 0.465178
O O7 0.011510 0.896733 0.704534
O O8 0.011511 0.896733 0.225817
O O9 0.763721 0.933363 0.214272
O O10 0.763722 0.933361 0.716071
O O11 0.432594 0.115886 0.712816
O O12 0.432594 0.115886 0.217542
O O13 0.925053 0.231124 0.965177
O O14 0.870095 0.036917 0.965174
O O15 0.433197 0.836316 0.965180
O O16 0.367076 0.664086 0.965176
#
# Coordination Sequence:
#
# PCOD9343690 Si02
#       8
#     4   4   4   4   4   4   4   4
#     4  10  19  31  46  64  88 116 146 179 215 254
#     4   8  14  25  40  58  82 110 140 173 204 242
#     4  10  19  31  46  64  88 116 146 179 215 254
#     4   8  14  25  40  58  82 110 140 173 204 242
#     4   8  14  24  38  57  82 113 143 167 195 234
#     4   8  14  24  38  57  82 113 143 167 195 234
#     4  10  19  30  44  63  88 116 146 179 212 251
#     4  10  19  30  44  63  88 116 146 179 212 251
#
# _framework density 27.019884000000001
#
# number of rings (size 3 to 8) (size 9 to 14) (size 15 to 20)
#    0.000    3.000    0.000    1.500    0.000    0.500 
#    0.000    0.000    0.000   15.000    0.000    0.000 
#    0.000    6.000    0.000    0.000    0.000    0.000 
#
# Total GULP energy -178509.825023 kJ/mol
# GULP energy per Si atom -5578.432032 kJ/mol
# Density = 2.695839 g / cm^3
# Si number density = 27.019884 Si / 1000 Ang^3
#
#
#
# Elastic Constant Matrix: (Units=GPa)
#
#
# Indices 1 2 3 4 5 6 
#
# 1 51.7760 17.9085 22.8389 0.0000 0.0000 0.0000
# 2 17.9085 36.7084 31.2447 0.0000 0.0000 0.0000
# 3 22.8389 31.2447 392.9577 0.0000 0.0000 0.0000
# 4 0.0000 0.0000 0.0000 49.3119 0.0000 0.0000
# 5 0.0000 0.0000 0.0000 0.0000 23.1759 0.0000
# 6 0.0000 0.0000 0.0000 0.0000 0.0000 34.8333
#
#
#
# Elastic Compliance Matrix: (Units=1/GPa)
#
#
# Indices 1 2 3 4 5 6 
#
# 1 0.023320 -0.010965 -0.000484 0.000000 0.000000 0.000000
# 2 -0.010965 0.034375 -0.002096 0.000000 0.000000 0.000000
# 3 -0.000484 -0.002096 0.002740 0.000000 0.000000 0.000000
# 4 0.000000 0.000000 0.000000 0.020279 0.000000 0.000000
# 5 0.000000 0.000000 0.000000 0.000000 0.043148 0.000000
# 6 0.000000 0.000000 0.000000 0.000000 0.000000 0.028708
#
#
# Mechanical properties :
#
#
# Convention : Reuss Voigt Hill
#
# Bulk Modulus (GPa) = 29.98923 69.49181 49.74052
# Shear Modulus (GPa) = 26.20892 48.76089 37.48490
#
# Velocity S-wave (km/s) = 3.11784 4.25270 3.72870
# Velocity P-wave (km/s) = 4.90757 7.06318 6.08165
#
# Compressibility (1/GPa) = 0.03334530
#
# Stress axis : x y z
#
# Youngs Moduli (GPa) = 42.88170 29.09074 365.02290
#
# Poissons Ratio (x) = 0.31899 0.17649
# Poissons Ratio (y) = 0.47021 0.76506
# Poissons Ratio (z) = 0.02073 0.06097
#
# Static dielectric constant tensor:
#      x y z
#    x 2.154780 0.000000 0.000000 
#    y 0.000000 2.018410 0.000000 
#    z 0.000000 0.000000 2.138990 
# 
# From -- ./inp_files/1074.got.cif
#   From: 2010.05.17/outbox.cif.g08.bks.cpg/sg32_1_cif.got.tgz:1074.got - 2010.06.03 17:12:27.
