data_PCOD9343215
_publ_section_title
;
Structure prediction by ZEFSAII (Michael W. Deem and Ramdas Pophale) SiO2 
 PCOD9343215
Probable space group: P M N 21
;
_chemical_formula_sum "Si O2"
_cell_formula_units_Z 24
_cell_length_a 7.922109
_cell_length_b 14.566086
_cell_length_c 8.208794
_cell_angle_alpha 90.000000
_cell_angle_beta 90.000000
_cell_angle_gamma 90.000000
_cell_volume 947.246568
_symmetry_space_group_name_H-M "P M N 21"
_symmetry_group_IT_number 31
_symmetry_cell_setting 'orthorhombic'
loop_
_space_group_symop_operation_xyz
x,y,z
1/2-x,-y,1/2+z
-x,y,z
1/2+x,-y,1/2+z
loop_
_atom_site_type_symbol
_atom_site_label
_atom_site_fract_x
_atom_site_fract_y
_atom_site_fract_z
Si Si1 0.805365 0.358699 0.337530
Si Si2 0.799597 0.030985 0.342514
Si Si3 0.805226 0.310123 0.852059
Si Si4 0.801941 0.527442 0.143138
Si Si5 0.700513 0.860629 0.530358
Si Si6 0.694635 0.198025 0.545877
O O1 0.744520 0.425940 0.194377
O O2 0.795574 0.424254 0.496998
O O3 0.710372 0.267402 0.391857
O O4 0.000000 0.334066 0.306144
O O5 0.729248 0.085089 0.185795
O O6 0.760029 0.099626 0.491202
O O7 0.000000 0.020643 0.323016
O O8 0.726412 0.931760 0.382538
O O9 0.716550 0.403283 0.796701
O O10 0.797125 0.246556 0.689510
O O11 0.000000 0.331943 0.888614
O O12 0.733321 0.240694 0.987911
O O13 0.000000 0.524225 0.100076
O O14 0.500000 0.849038 0.554989
O O15 0.500000 0.192655 0.596481
#
# Coordination Sequence:
#
# PCOD9343215 Si02
#       6
#     4   4   4   4   4   4
#     4  10  21  37  57  82 113 149 188 229 277 330
#     4  11  23  39  59  83 113 146 182 227 276 328
#     4  10  20  37  60  83 112 148 185 227 277 330
#     4  10  21  36  56  83 113 146 187 232 277 328
#     4  10  23  40  58  84 113 145 185 226 273 329
#     4  11  22  37  58  83 112 146 187 231 276 329
#
# _framework density 25.336594000000002
#
# number of rings (size 3 to 8) (size 9 to 14) (size 15 to 20)
#    0.000    1.667    0.000    6.500    0.000    9.333 
#    0.000    5.000    0.000    0.000    0.000    0.000 
#    0.000    0.000    0.000    0.000    0.000    0.000 
#
# Total GULP energy -134374.087542 kJ/mol
# GULP energy per Si atom -5598.920314 kJ/mol
# Density = 2.527893 g / cm^3
# Si number density = 25.336594 Si / 1000 Ang^3
#
#
#
# Elastic Constant Matrix: (Units=GPa)
#
#
# Indices 1 2 3 4 5 6 
#
# 1 39.1691 5.7859 1.2610 0.0000 0.0000 0.0000
# 2 5.7859 160.6269 21.5466 0.0000 0.0000 0.0000
# 3 1.2610 21.5466 74.7560 0.0000 0.0000 0.0000
# 4 0.0000 0.0000 0.0000 55.4239 0.0000 0.0000
# 5 0.0000 0.0000 0.0000 0.0000 23.2791 0.0000
# 6 0.0000 0.0000 0.0000 0.0000 0.0000 -18.7133
#
#
#
# Elastic Compliance Matrix: (Units=1/GPa)
#
#
# Indices 1 2 3 4 5 6 
#
# 1 0.025669 -0.000901 -0.000173 0.000000 0.000000 0.000000
# 2 -0.000901 0.006508 -0.001860 0.000000 0.000000 0.000000
# 3 -0.000173 -0.001860 0.013916 0.000000 0.000000 0.000000
# 4 0.000000 0.000000 0.000000 0.018043 0.000000 0.000000
# 5 0.000000 0.000000 0.000000 0.000000 0.042957 0.000000
# 6 0.000000 0.000000 0.000000 0.000000 0.000000 -0.053438
#
#
# Mechanical properties :
#
#
# Convention : Reuss Voigt Hill
#
# Bulk Modulus (GPa) = 24.86163 36.85989 30.86076
# Shear Modulus (GPa) = 68.55699 28.39519 48.47609
#
# Velocity S-wave (km/s) = 5.20742 3.35135 4.37886
# Velocity P-wave (km/s) = 6.78160 5.43645 6.14594
#
# Compressibility (1/GPa) = 0.04022263
#
# Stress axis : x y z
#
# Youngs Moduli (GPa) = 38.95741 153.66555 71.85964
#
# Poissons Ratio (x) = 0.13851 0.01245
# Poissons Ratio (y) = 0.03512 0.13369
# Poissons Ratio (z) = 0.00675 0.28589
#
# Static dielectric constant tensor:
#      x y z
#    x 1.857500 0.000000 0.000000 
#    y 0.000000 1.961210 0.000000 
#    z 0.000000 0.000000 2.123580 
# 
# From -- ./inp_files/1714.got.cif
#   From: 2010.05.17/outbox.cif.g08.bks.cpg/sg31_1_cif.got.tgz:1714.got - 2010.06.03 17:08:30.
