data_PCOD9343421
_publ_section_title
;
Structure prediction by ZEFSAII (Michael W. Deem and Ramdas Pophale) SiO2 
 PCOD9343421
Probable space group: P M N 21
;
_chemical_formula_sum "Si O2"
_cell_formula_units_Z 24
_cell_length_a 7.859370
_cell_length_b 13.945273
_cell_length_c 10.268222
_cell_angle_alpha 90.000000
_cell_angle_beta 90.000000
_cell_angle_gamma 90.000000
_cell_volume 1125.408018
_symmetry_space_group_name_H-M "P M N 21"
_symmetry_group_IT_number 31
_symmetry_cell_setting 'orthorhombic'
loop_
_space_group_symop_operation_xyz
x,y,z
1/2-x,-y,1/2+z
-x,y,z
1/2+x,-y,1/2+z
loop_
_atom_site_type_symbol
_atom_site_label
_atom_site_fract_x
_atom_site_fract_y
_atom_site_fract_z
Si Si1 0.291626 0.215563 0.558770
Si Si2 0.697764 0.063041 0.774451
Si Si3 0.196599 0.847571 0.775623
Si Si4 0.703975 0.581831 0.437298
Si Si5 0.697956 0.795193 0.491634
Si Si6 0.205577 0.572938 0.144644
O O1 0.500000 0.214425 0.559529
O O2 0.238062 0.132709 0.659273
O O3 0.235501 0.194016 0.411758
O O4 0.235481 0.319961 0.607431
O O5 0.500000 0.040856 0.748013
O O6 0.711770 0.122847 0.907774
O O7 0.792396 0.962591 0.782875
O O8 0.287387 0.813205 0.645030
O O9 0.000000 0.818086 0.763891
O O10 0.500000 0.586821 0.453677
O O11 0.769227 0.690050 0.457664
O O12 0.742813 0.549760 0.291330
O O13 0.769088 0.506204 0.542937
O O14 0.500000 0.798847 0.453187
O O15 0.000000 0.574520 0.138498
#
# Coordination Sequence:
#
# PCOD9343421 Si02
#       6
#     4   4   4   4   4   4
#     4   9  20  38  60  85 116 153 198 244 293 354
#     4  11  21  39  64  89 117 159 204 249 304 357
#     4  11  23  38  60  91 121 159 202 248 301 357
#     4  10  23  40  62  91 121 154 197 249 301 351
#     4  11  23  40  58  87 127 161 198 247 295 358
#     4  10  21  41  64  87 118 156 197 245 300 361
#
# _framework density 21.325597999999999
#
# number of rings (size 3 to 8) (size 9 to 14) (size 15 to 20)
#    0.000    1.667    1.667    2.500    2.333    2.667 
#    0.000    4.167    0.000    0.000    0.000    0.000 
#    0.000    0.000    0.000    0.000    0.000    0.000 
#
# Total GULP energy -134204.288684 kJ/mol
# GULP energy per Si atom -5591.845362 kJ/mol
# Density = 2.127706 g / cm^3
# Si number density = 21.325598 Si / 1000 Ang^3
#
#
#
# Elastic Constant Matrix: (Units=GPa)
#
#
# Indices 1 2 3 4 5 6 
#
# 1 26.8746 -7.9019 -15.6368 0.0000 0.0000 0.0000
# 2 -7.9019 77.6625 41.6296 0.0000 0.0000 0.0000
# 3 -15.6368 41.6296 150.5058 0.0000 0.0000 0.0000
# 4 0.0000 0.0000 0.0000 39.9713 0.0000 0.0000
# 5 0.0000 0.0000 0.0000 0.0000 15.2048 0.0000
# 6 0.0000 0.0000 0.0000 0.0000 0.0000 3.2366
#
#
#
# Elastic Compliance Matrix: (Units=1/GPa)
#
#
# Indices 1 2 3 4 5 6 
#
# 1 0.039910 0.002158 0.003549 0.000000 0.000000 0.000000
# 2 0.002158 0.015234 -0.003990 0.000000 0.000000 0.000000
# 3 0.003549 -0.003990 0.008117 0.000000 0.000000 0.000000
# 4 0.000000 0.000000 0.000000 0.025018 0.000000 0.000000
# 5 0.000000 0.000000 0.000000 0.000000 0.065769 0.000000
# 6 0.000000 0.000000 0.000000 0.000000 0.000000 0.308962
#
#
# Mechanical properties :
#
#
# Convention : Reuss Voigt Hill
#
# Bulk Modulus (GPa) = 14.99332 32.35830 23.67581
# Shear Modulus (GPa) = 10.37764 27.47936 18.92850
#
# Velocity S-wave (km/s) = 2.20836 3.59355 2.98249
# Velocity P-wave (km/s) = 3.68081 5.69425 4.79442
#
# Compressibility (1/GPa) = 0.06669638
#
# Stress axis : x y z
#
# Youngs Moduli (GPa) = 25.05664 65.64115 123.20513
#
# Poissons Ratio (x) = -0.14166 -0.43732
# Poissons Ratio (y) = -0.05407 0.49154
# Poissons Ratio (z) = -0.08894 0.26188
#
# Static dielectric constant tensor:
#      x y z
#    x 1.774220 0.000000 0.000000 
#    y 0.000000 1.744000 0.000000 
#    z 0.000000 0.000000 1.730590 
# 
# From -- ./inp_files/1693.got.cif
#   From: 2010.05.17/outbox.cif.g08.bks.cpg/sg31_1_cif.got.tgz:1693.got - 2010.06.03 17:08:30.
