data_PCOD9343838
_publ_section_title
;
Structure prediction by ZEFSAII (Michael W. Deem and Ramdas Pophale) SiO2 
 PCOD9343838
Probable space group: P B A 2
;
_chemical_formula_sum "Si O2"
_cell_formula_units_Z 30
_cell_length_a 12.565651
_cell_length_b 14.647613
_cell_length_c 8.254062
_cell_angle_alpha 90.000000
_cell_angle_beta 90.000000
_cell_angle_gamma 90.000000
_cell_volume 1519.216180
_symmetry_space_group_name_H-M "P B A 2"
_symmetry_group_IT_number 32
_symmetry_cell_setting 'orthorhombic'
loop_
_space_group_symop_operation_xyz
x,y,z
-x,-y,z
1/2-x,1/2+y,z
1/2+x,1/2-y,z
loop_
_atom_site_type_symbol
_atom_site_label
_atom_site_fract_x
_atom_site_fract_y
_atom_site_fract_z
Si Si1 0.876813 0.990587 0.888140
Si Si2 0.210361 0.356955 0.909574
Si Si3 0.275165 0.171260 0.778729
Si Si4 0.500000 0.000000 0.436193
Si Si5 0.692065 0.092589 0.280470
Si Si6 0.849470 0.778524 0.474925
Si Si7 0.114990 0.036546 0.276047
Si Si8 0.491101 0.839473 0.686494
O O1 0.798066 0.917264 0.805962
O O2 0.815600 0.086190 0.863660
O O3 0.880148 0.961815 0.078962
O O4 0.000000 0.000000 0.833827
O O5 0.234719 0.250012 0.898284
O O6 0.110431 0.373119 0.790963
O O7 0.185876 0.386925 0.090894
O O8 0.247745 0.203346 0.596885
O O9 0.402367 0.165717 0.792760
O O10 0.600283 0.022746 0.328078
O O11 0.482313 0.086343 0.550700
O O12 0.675288 0.187178 0.374419
O O13 0.799875 0.040281 0.324981
O O14 0.866059 0.865819 0.360338
O O15 0.949365 0.751410 0.592822
O O16 0.000000 0.000000 0.323299
#
# Coordination Sequence:
#
# PCOD9343838 Si02
#       8
#     4   4   4   2   4   4   4   4
#     4  10  23  41  64  92 126 165 213 257 316 374
#     4  10  23  40  64  92 127 164 208 265 306 379
#     4  11  23  39  63  91 125 169 205 260 314 377
#     4  10  20  38  62  86 128 158 204 262 302 378
#     4  10  22  42  62  94 123 163 210 255 319 368
#     4  10  23  39  61  94 129 162 207 261 316 377
#     4  10  22  41  64  91 124 165 208 260 312 378
#     4  10  22  39  61  93 127 164 212 255 318 373
#
# _framework density 19.747024
#
# number of rings (size 3 to 8) (size 9 to 14) (size 15 to 20)
#    0.000    1.867    0.000    2.400    5.600    5.333 
#    2.400    0.000    0.000    0.000    0.000    0.000 
#    0.000    0.000    0.000    0.000    0.000    0.000 
#
# Total GULP energy -167430.618119 kJ/mol
# GULP energy per Si atom -5581.020604 kJ/mol
# Density = 1.970208 g / cm^3
# Si number density = 19.747024 Si / 1000 Ang^3
#
#
#
# Elastic Constant Matrix: (Units=GPa)
#
#
# Indices 1 2 3 4 5 6 
#
# 1 143.0229 36.5103 36.4315 0.0000 0.0000 0.0000
# 2 36.5103 78.5871 16.4204 0.0000 0.0000 0.0000
# 3 36.4315 16.4204 42.1330 0.0000 0.0000 0.0000
# 4 0.0000 0.0000 0.0000 31.4691 0.0000 0.0000
# 5 0.0000 0.0000 0.0000 0.0000 -57.6182 0.0000
# 6 0.0000 0.0000 0.0000 0.0000 0.0000 25.6271
#
#
#
# Elastic Compliance Matrix: (Units=1/GPa)
#
#
# Indices 1 2 3 4 5 6 
#
# 1 0.009558 -0.002954 -0.007113 0.000000 0.000000 0.000000
# 2 -0.002954 0.014766 -0.003200 0.000000 0.000000 0.000000
# 3 -0.007113 -0.003200 0.031132 0.000000 0.000000 0.000000
# 4 0.000000 0.000000 0.000000 0.031777 0.000000 0.000000
# 5 0.000000 0.000000 0.000000 0.000000 -0.017356 0.000000
# 6 0.000000 0.000000 0.000000 0.000000 0.000000 0.039021
#
#
# Mechanical properties :
#
#
# Convention : Reuss Voigt Hill
#
# Bulk Modulus (GPa) = 34.57726 49.16303 41.87014
# Shear Modulus (GPa) = 34.46509 11.52100 22.99305
#
# Velocity S-wave (km/s) = 4.18225 2.41805 3.41600
# Velocity P-wave (km/s) = 6.39294 5.72245 6.06697
#
# Compressibility (1/GPa) = 0.02892074
#
# Stress axis : x y z
#
# Youngs Moduli (GPa) = 104.62517 67.72374 32.12105
#
# Poissons Ratio (x) = 0.20007 0.22848
# Poissons Ratio (y) = 0.30908 0.10280
# Poissons Ratio (z) = 0.74422 0.21673
#
# Static dielectric constant tensor:
#      x y z
#    x 3.465970 0.000000 0.000000 
#    y 0.000000 1.678270 0.000000 
#    z 0.000000 0.000000 1.698840 
# 
# From -- ./inp_files/2854.got.cif
#   From: 2010.05.17/outbox.cif.g08.bks.cpg/sg32_2_cif.got.tgz:2854.got - 2010.06.03 17:12:27.
