data_PCOD9343802
_publ_section_title
;
Structure prediction by ZEFSAII (Michael W. Deem and Ramdas Pophale) SiO2 
 PCOD9343802
Probable space group: P B A 2
;
_chemical_formula_sum "Si O2"
_cell_formula_units_Z 32
_cell_length_a 29.924956
_cell_length_b 8.307233
_cell_length_c 5.375787
_cell_angle_alpha 90.000000
_cell_angle_beta 90.000000
_cell_angle_gamma 90.000000
_cell_volume 1336.386146
_symmetry_space_group_name_H-M "P B A 2"
_symmetry_group_IT_number 32
_symmetry_cell_setting 'orthorhombic'
loop_
_space_group_symop_operation_xyz
x,y,z
-x,-y,z
1/2-x,1/2+y,z
1/2+x,1/2-y,z
loop_
_atom_site_type_symbol
_atom_site_label
_atom_site_fract_x
_atom_site_fract_y
_atom_site_fract_z
Si Si1 0.926840 0.360906 0.860370
Si Si2 0.620518 0.526022 0.883137
Si Si3 0.450117 0.064888 0.365631
Si Si4 0.094159 0.153247 0.374278
Si Si5 0.828559 0.601469 0.243044
Si Si6 0.212864 0.146857 0.916343
Si Si7 0.498093 0.313005 0.576172
Si Si8 0.197075 0.478530 0.740859
O O1 0.920059 0.458845 0.606962
O O2 0.977428 0.285909 0.808034
O O3 0.930710 0.469202 0.100681
O O4 0.893455 0.211807 0.881562
O O5 0.594185 0.440587 0.110828
O O6 0.672567 0.481201 0.927316
O O7 0.608719 0.453379 0.612332
O O8 0.459927 0.260177 0.377938
O O9 0.500000 0.000000 0.399597
O O10 0.130131 0.292185 0.329602
O O11 0.045987 0.220409 0.454706
O O12 0.790977 0.735750 0.158082
O O13 0.815343 0.477402 0.460109
O O14 0.836301 0.513730 0.976052
O O15 0.203701 0.285264 0.712403
O O16 0.258699 0.062686 0.845902
O O17 0.500000 0.500000 0.636647
#
# Coordination Sequence:
#
# PCOD9343802 Si02
#       8
#     4   4   4   4   4   4   4   4
#     4  10  21  35  56  84 113 147 197 236 278 342
#     4  11  20  35  57  87 119 145 190 242 300 329
#     4  10  22  39  57  77 113 159 192 226 289 341
#     4  11  19  34  55  84 120 144 187 239 292 338
#     4   9  20  35  54  86 107 153 178 235 285 343
#     4   9  22  35  62  84 112 152 187 238 287 358
#     4  10  21  33  59  89 110 146 196 242 277 325
#     4  10  20  35  59  80 113 141 194 221 294 338
#
# _framework density 23.945177000000001
#
# number of rings (size 3 to 8) (size 9 to 14) (size 15 to 20)
#    1.500    0.500    2.500    1.875    3.500    0.500 
#    0.000    0.000    5.500    0.000    0.000    0.000 
#    0.000    0.000    0.000    0.000    0.000    0.000 
#
# Total GULP energy -178347.946902 kJ/mol
# GULP energy per Si atom -5573.373341 kJ/mol
# Density = 2.389068 g / cm^3
# Si number density = 23.945177 Si / 1000 Ang^3
#
#
#
# Elastic Constant Matrix: (Units=GPa)
#
#
# Indices 1 2 3 4 5 6 
#
# 1 57.6092 22.3673 32.1152 0.0000 0.0000 0.0000
# 2 22.3673 64.7255 32.0850 0.0000 0.0000 0.0000
# 3 32.1152 32.0850 187.4341 0.0000 0.0000 0.0000
# 4 0.0000 0.0000 0.0000 25.6723 0.0000 0.0000
# 5 0.0000 0.0000 0.0000 0.0000 21.4805 0.0000
# 6 0.0000 0.0000 0.0000 0.0000 0.0000 42.8589
#
#
#
# Elastic Compliance Matrix: (Units=1/GPa)
#
#
# Indices 1 2 3 4 5 6 
#
# 1 0.021141 -0.006021 -0.002592 0.000000 0.000000 0.000000
# 2 -0.006021 0.018597 -0.002152 0.000000 0.000000 0.000000
# 3 -0.002592 -0.002152 0.006148 0.000000 0.000000 0.000000
# 4 0.000000 0.000000 0.000000 0.038953 0.000000 0.000000
# 5 0.000000 0.000000 0.000000 0.000000 0.046554 0.000000
# 6 0.000000 0.000000 0.000000 0.000000 0.000000 0.023332
#
#
# Mechanical properties :
#
#
# Convention : Reuss Voigt Hill
#
# Bulk Modulus (GPa) = 41.05635 53.65597 47.35616
# Shear Modulus (GPa) = 27.11906 32.88242 30.00074
#
# Velocity S-wave (km/s) = 3.36899 3.70974 3.54346
# Velocity P-wave (km/s) = 5.68477 6.38796 6.04660
#
# Compressibility (1/GPa) = 0.02435677
#
# Stress axis : x y z
#
# Youngs Moduli (GPa) = 47.30194 53.77150 162.66490
#
# Poissons Ratio (x) = 0.32376 0.42157
# Poissons Ratio (y) = 0.28480 0.35003
# Poissons Ratio (z) = 0.12259 0.11571
#
# Static dielectric constant tensor:
#      x y z
#    x 1.936530 0.000000 0.000000 
#    y 0.000000 2.026660 0.000000 
#    z 0.000000 0.000000 1.991140 
# 
# From -- ./inp_files/1830.got.cif
#   From: 2010.05.17/outbox.cif.g08.bks.cpg/sg32_1_cif.got.tgz:1830.got - 2010.06.03 17:12:27.
