data_PCOD9343538
_publ_section_title
;
Structure prediction by ZEFSAII (Michael W. Deem and Ramdas Pophale) SiO2 
 PCOD9343538
Probable space group: P M N 21
;
_chemical_formula_sum "Si O2"
_cell_formula_units_Z 18
_cell_length_a 7.482506
_cell_length_b 8.147156
_cell_length_c 12.422891
_cell_angle_alpha 90.000000
_cell_angle_beta 90.000000
_cell_angle_gamma 90.000000
_cell_volume 757.313643
_symmetry_space_group_name_H-M "P M N 21"
_symmetry_group_IT_number 31
_symmetry_cell_setting 'orthorhombic'
loop_
_space_group_symop_operation_xyz
x,y,z
1/2-x,-y,1/2+z
-x,y,z
1/2+x,-y,1/2+z
loop_
_atom_site_type_symbol
_atom_site_label
_atom_site_fract_x
_atom_site_fract_y
_atom_site_fract_z
Si Si1 0.715868 0.678637 0.839300
Si Si2 0.294125 0.195590 0.571341
Si Si3 0.500000 0.749999 0.225905
Si Si4 0.215867 0.178633 0.112515
Si Si5 0.205877 0.695588 0.380474
O O1 0.500000 0.683377 0.839419
O O2 0.779247 0.750000 0.725907
O O3 0.769150 0.489200 0.853763
O O4 0.778595 0.774608 0.944428
O O5 0.500000 0.219128 0.602167
O O6 0.157796 0.304299 0.639002
O O7 0.230847 0.010803 0.598054
O O8 0.342204 0.804294 0.312809
O O9 0.000000 0.183366 0.112398
O O10 0.278588 0.274603 0.007386
O O11 0.000000 0.719124 0.349651
#
# Coordination Sequence:
#
# PCOD9343538 Si02
#       5
#     4   4   2   4   4
#     4  10  24  46  71 104 143 183 233 288 348 416
#     4  11  26  44  73 103 137 188 234 285 353 415
#     4  12  26  48  68 102 142 186 230 306 330 418
#     4  10  24  46  71 104 143 183 233 288 348 416
#     4  11  26  44  73 103 137 188 234 285 353 415
#
# _framework density 23.768222000000002
#
# number of rings (size 3 to 8) (size 9 to 14) (size 15 to 20)
#    0.000    1.333    2.222    0.667    9.333    0.889 
#    0.000    0.000    0.000    0.000    0.000    0.000 
#    0.000    0.000    0.000    0.000    0.000    0.000 
#
# Total GULP energy -100303.928589 kJ/mol
# GULP energy per Si atom -5572.440477 kJ/mol
# Density = 2.371412 g / cm^3
# Si number density = 23.768222 Si / 1000 Ang^3
#
#
#
# Elastic Constant Matrix: (Units=GPa)
#
#
# Indices 1 2 3 4 5 6 
#
# 1 114.8456 10.7005 25.5233 0.0000 0.0000 0.0000
# 2 10.7005 73.8596 44.7924 0.0000 0.0000 0.0000
# 3 25.5233 44.7924 212.2821 0.0000 0.0000 0.0000
# 4 0.0000 0.0000 0.0000 43.2574 0.0000 0.0000
# 5 0.0000 0.0000 0.0000 0.0000 37.9453 0.0000
# 6 0.0000 0.0000 0.0000 0.0000 0.0000 -1.0285
#
#
#
# Elastic Compliance Matrix: (Units=1/GPa)
#
#
# Indices 1 2 3 4 5 6 
#
# 1 0.008982 -0.000741 -0.000923 0.000000 0.000000 0.000000
# 2 -0.000741 0.015587 -0.003200 0.000000 0.000000 0.000000
# 3 -0.000923 -0.003200 0.005497 0.000000 0.000000 0.000000
# 4 0.000000 0.000000 0.000000 0.023117 0.000000 0.000000
# 5 0.000000 0.000000 0.000000 0.000000 0.026354 0.000000
# 6 0.000000 0.000000 0.000000 0.000000 0.000000 -0.972287
#
#
# Mechanical properties :
#
#
# Convention : Reuss Voigt Hill
#
# Bulk Modulus (GPa) = 49.17219 62.55773 55.86496
# Shear Modulus (GPa) = -5.70619 37.36624 15.83003
#
# Velocity S-wave (km/s) = -1.55112 3.96928 2.58353
# Velocity P-wave (km/s) = 4.18631 6.88360 5.69689
#
# Compressibility (1/GPa) = 0.02033670
#
# Stress axis : x y z
#
# Youngs Moduli (GPa) = 111.33828 64.15543 181.91976
#
# Poissons Ratio (x) = 0.04755 0.16800
# Poissons Ratio (y) = 0.08252 0.58211
# Poissons Ratio (z) = 0.10282 0.20529
#
# Static dielectric constant tensor:
#      x y z
#    x 1.916020 0.000000 0.000000 
#    y 0.000000 1.979660 0.000000 
#    z 0.000000 0.000000 1.923520 
# 
# From -- ./inp_files/1594.got.cif
#   From: 2010.05.17/outbox.cif.g08.bks.cpg/sg31_1_cif.got.tgz:1594.got - 2010.06.03 17:08:30.
