data_PCOD9343099
_publ_section_title
;
Structure prediction by ZEFSAII (Michael W. Deem and Ramdas Pophale) SiO2 
 PCOD9343099
Probable space group: P M N 21
;
_chemical_formula_sum "Si O2"
_cell_formula_units_Z 32
_cell_length_a 14.106979
_cell_length_b 12.018609
_cell_length_c 9.729860
_cell_angle_alpha 90.000000
_cell_angle_beta 90.000000
_cell_angle_gamma 90.000000
_cell_volume 1649.661420
_symmetry_space_group_name_H-M "P M N 21"
_symmetry_group_IT_number 31
_symmetry_cell_setting 'orthorhombic'
loop_
_space_group_symop_operation_xyz
x,y,z
1/2-x,-y,1/2+z
-x,y,z
1/2+x,-y,1/2+z
loop_
_atom_site_type_symbol
_atom_site_label
_atom_site_fract_x
_atom_site_fract_y
_atom_site_fract_z
Si Si1 0.610597 0.866242 0.934680
Si Si2 0.614334 0.075214 0.760547
Si Si3 0.889554 0.676365 0.357333
Si Si4 0.714160 0.266468 0.393071
Si Si5 0.887897 0.592618 0.660466
Si Si6 0.611557 0.830266 0.257613
Si Si7 0.766567 0.375397 0.679075
Si Si8 0.114994 0.964184 0.950156
O O1 0.500000 0.846890 0.904274
O O2 0.677096 0.771316 0.871445
O O3 0.641563 0.983424 0.871445
O O4 0.621311 0.869822 0.099195
O O5 0.500000 0.074621 0.755415
O O6 0.638472 0.200249 0.804567
O O7 0.647104 0.037415 0.609589
O O8 0.880120 0.663280 0.520250
O O9 0.818953 0.592792 0.280489
O O10 0.000000 0.657827 0.322330
O O11 0.666611 0.346027 0.282951
O O12 0.718303 0.322670 0.543501
O O13 0.655370 0.151405 0.393101
O O14 0.835741 0.475223 0.639128
O O15 0.000000 0.578608 0.690283
O O16 0.500000 0.809039 0.282565
O O17 0.670044 0.716511 0.258331
O O18 0.642873 0.927266 0.362079
O O19 0.000000 0.960385 0.946218
#
# Coordination Sequence:
#
# PCOD9343099 Si02
#       8
#     4   4   4   4   4   4   4   4
#     4   9  20  36  56  85 123 162 200 242 300 372
#     4   9  18  35  56  82 121 161 195 242 302 365
#     4  10  22  39  61  89 122 161 203 252 310 371
#     4  11  23  37  62  89 122 157 207 256 317 365
#     4  11  25  43  64  90 120 160 212 268 313 366
#     4   9  20  36  58  88 122 162 203 250 308 367
#     4  11  22  42  63  87 122 165 212 255 311 371
#     4  10  20  34  55  88 124 156 197 253 312 369
#
# _framework density 19.397919000000002
#
# number of rings (size 3 to 8) (size 9 to 14) (size 15 to 20)
#    0.000    2.000    1.250    1.500    3.500    2.000 
#    0.000    0.625    0.000    0.750    0.000    0.000 
#    0.000    0.000    0.000    0.000    0.000    0.000 
#
# Total GULP energy -178596.673072 kJ/mol
# GULP energy per Si atom -5581.146033 kJ/mol
# Density = 1.935377 g / cm^3
# Si number density = 19.397919 Si / 1000 Ang^3
#
#
#
# Elastic Constant Matrix: (Units=GPa)
#
#
# Indices 1 2 3 4 5 6 
#
# 1 99.3715 31.0372 51.2913 0.0000 0.0000 0.0000
# 2 31.0372 77.0306 45.5263 0.0000 0.0000 0.0000
# 3 51.2913 45.5263 69.1875 0.0000 0.0000 0.0000
# 4 0.0000 0.0000 0.0000 22.0631 0.0000 0.0000
# 5 0.0000 0.0000 0.0000 0.0000 26.0141 0.0000
# 6 0.0000 0.0000 0.0000 0.0000 0.0000 31.8137
#
#
#
# Elastic Compliance Matrix: (Units=1/GPa)
#
#
# Indices 1 2 3 4 5 6 
#
# 1 0.016342 0.000942 -0.012735 0.000000 0.000000 0.000000
# 2 0.000942 0.021298 -0.014712 0.000000 0.000000 0.000000
# 3 -0.012735 -0.014712 0.033575 0.000000 0.000000 0.000000
# 4 0.000000 0.000000 0.000000 0.045325 0.000000 0.000000
# 5 0.000000 0.000000 0.000000 0.000000 0.038441 0.000000
# 6 0.000000 0.000000 0.000000 0.000000 0.000000 0.031433
#
#
# Mechanical properties :
#
#
# Convention : Reuss Voigt Hill
#
# Bulk Modulus (GPa) = 54.93184 55.69990 55.31587
# Shear Modulus (GPa) = 20.36721 23.82716 22.09718
#
# Velocity S-wave (km/s) = 3.24384 3.50856 3.37879
# Velocity P-wave (km/s) = 6.51229 6.72236 6.61815
#
# Compressibility (1/GPa) = 0.01820438
#
# Stress axis : x y z
#
# Youngs Moduli (GPa) = 61.19085 46.95362 29.78372
#
# Poissons Ratio (x) = -0.04423 0.37930
# Poissons Ratio (y) = -0.05764 0.43819
# Poissons Ratio (z) = 0.77926 0.69080
#
# Static dielectric constant tensor:
#      x y z
#    x 1.703910 0.000000 0.000000 
#    y 0.000000 1.673960 0.000000 
#    z 0.000000 0.000000 1.670370 
# 
# From -- ./inp_files/2591.got.cif
#   From: 2010.05.17/outbox.cif.g08.bks.cpg/sg31_2_cif.got.tgz:2591.got - 2010.06.03 17:08:30.
