data_PCOD9343598
_publ_section_title
;
Structure prediction by ZEFSAII (Michael W. Deem and Ramdas Pophale) SiO2 
 PCOD9343598
Probable space group: P M N 21
;
_chemical_formula_sum "Si O2"
_cell_formula_units_Z 24
_cell_length_a 17.360058
_cell_length_b 7.258425
_cell_length_c 6.689017
_cell_angle_alpha 90.000000
_cell_angle_beta 90.000000
_cell_angle_gamma 90.000000
_cell_volume 842.860818
_symmetry_space_group_name_H-M "P M N 21"
_symmetry_group_IT_number 31
_symmetry_cell_setting 'orthorhombic'
loop_
_space_group_symop_operation_xyz
x,y,z
1/2-x,-y,1/2+z
-x,y,z
1/2+x,-y,1/2+z
loop_
_atom_site_type_symbol
_atom_site_label
_atom_site_fract_x
_atom_site_fract_y
_atom_site_fract_z
Si Si1 0.249567 0.209204 0.285000
Si Si2 0.583773 0.819051 0.799384
Si Si3 0.582873 0.725521 0.275140
Si Si4 0.917216 0.611669 0.224026
Si Si5 0.751767 0.622879 0.224171
Si Si6 0.083185 0.871806 0.837231
O O1 0.169371 0.101721 0.252866
O O2 0.243675 0.406269 0.179962
O O3 0.251042 0.259147 0.520912
O O4 0.333318 0.132270 0.232845
O O5 0.500000 0.910663 0.766438
O O6 0.582025 0.611135 0.707798
O O7 0.584031 0.780575 0.040011
O O8 0.500000 0.626854 0.303193
O O9 0.666176 0.641051 0.312120
O O10 0.580105 0.914178 0.400136
O O11 0.835316 0.660355 0.323948
O O12 0.000000 0.655028 0.321244
O O13 0.915627 0.723424 0.015654
O O14 0.000000 0.843369 0.732215
#
# Coordination Sequence:
#
# PCOD9343598 Si02
#       6
#     4   4   4   4   4   4
#     4   9  17  30  48  72  99 131 173 217 260 311
#     4   8  14  27  49  73  97 131 175 219 261 311
#     4   9  17  29  46  71 103 136 170 213 266 318
#     4   8  14  27  49  73  97 131 175 219 261 311
#     4   9  17  30  48  72  99 131 173 217 260 311
#     4   9  17  29  46  71 103 136 170 213 266 318
#
# _framework density 28.474453
#
# number of rings (size 3 to 8) (size 9 to 14) (size 15 to 20)
#    0.000    3.333    0.000    0.000    0.000    0.667 
#    0.000    5.000    0.000    1.000    0.000    0.000 
#    0.000    0.000    0.000    0.000    0.000    0.000 
#
# Total GULP energy -133948.462161 kJ/mol
# GULP energy per Si atom -5581.185923 kJ/mol
# Density = 2.840964 g / cm^3
# Si number density = 28.474453 Si / 1000 Ang^3
#
#
#
# Elastic Constant Matrix: (Units=GPa)
#
#
# Indices 1 2 3 4 5 6 
#
# 1 458.3191 33.9810 56.9646 0.0000 0.0000 0.0000
# 2 33.9810 102.7534 1.2134 0.0000 0.0000 0.0000
# 3 56.9646 1.2134 69.2242 0.0000 0.0000 0.0000
# 4 0.0000 0.0000 0.0000 5.6273 0.0000 0.0000
# 5 0.0000 0.0000 0.0000 0.0000 10.9980 0.0000
# 6 0.0000 0.0000 0.0000 0.0000 0.0000 9.4341
#
#
#
# Elastic Compliance Matrix: (Units=1/GPa)
#
#
# Indices 1 2 3 4 5 6 
#
# 1 0.002495 -0.000801 -0.002039 0.000000 0.000000 0.000000
# 2 -0.000801 0.009991 0.000484 0.000000 0.000000 0.000000
# 3 -0.002039 0.000484 0.016115 0.000000 0.000000 0.000000
# 4 0.000000 0.000000 0.000000 0.177706 0.000000 0.000000
# 5 0.000000 0.000000 0.000000 0.000000 0.090926 0.000000
# 6 0.000000 0.000000 0.000000 0.000000 0.000000 0.105998
#
#
# Mechanical properties :
#
#
# Convention : Reuss Voigt Hill
#
# Bulk Modulus (GPa) = 41.85967 90.51274 66.18620
# Shear Modulus (GPa) = 12.02195 41.08771 26.55483
#
# Velocity S-wave (km/s) = 2.05698 3.80276 3.05714
# Velocity P-wave (km/s) = 4.51379 7.15106 5.97963
#
# Compressibility (1/GPa) = 0.02388934
#
# Stress axis : x y z
#
# Youngs Moduli (GPa) = 400.85389 100.08812 62.05364
#
# Poissons Ratio (x) = 0.08016 0.12652
# Poissons Ratio (y) = 0.32105 -0.03003
# Poissons Ratio (z) = 0.81727 -0.04844
#
# Static dielectric constant tensor:
#      x y z
#    x 2.192560 0.000000 0.000000 
#    y 0.000000 2.171740 0.000000 
#    z 0.000000 0.000000 2.284070 
# 
# From -- ./inp_files/2793.got.cif
#   From: 2010.05.17/outbox.cif.g08.bks.cpg/sg31_2_cif.got.tgz:2793.got - 2010.06.03 17:08:30.
