data_PCOD9343174
_publ_section_title
;
Structure prediction by ZEFSAII (Michael W. Deem and Ramdas Pophale) SiO2 
 PCOD9343174
Probable space group: P M N 21
;
_chemical_formula_sum "Si O2"
_cell_formula_units_Z 32
_cell_length_a 15.399051
_cell_length_b 11.533455
_cell_length_c 8.888279
_cell_angle_alpha 90.000000
_cell_angle_beta 90.000000
_cell_angle_gamma 90.000000
_cell_volume 1578.596230
_symmetry_space_group_name_H-M "P M N 21"
_symmetry_group_IT_number 31
_symmetry_cell_setting 'orthorhombic'
loop_
_space_group_symop_operation_xyz
x,y,z
1/2-x,-y,1/2+z
-x,y,z
1/2+x,-y,1/2+z
loop_
_atom_site_type_symbol
_atom_site_label
_atom_site_fract_x
_atom_site_fract_y
_atom_site_fract_z
Si Si1 0.603179 0.730469 0.134290
Si Si2 0.336955 0.511545 0.963022
Si Si3 0.399780 0.316090 0.162090
Si Si4 0.604577 0.229150 0.499422
Si Si5 0.755799 0.919976 0.152667
Si Si6 0.291658 0.148538 0.988365
Si Si7 0.404104 0.455931 0.656869
Si Si8 0.674687 0.628554 0.433934
O O1 0.500000 0.753965 0.110055
O O2 0.642430 0.641493 0.010903
O O3 0.668397 0.840713 0.138198
O O4 0.614799 0.663374 0.294009
O O5 0.348515 0.428730 0.106873
O O6 0.402413 0.471594 0.833766
O O7 0.245483 0.470773 0.892474
O O8 0.500000 0.347781 0.158200
O O9 0.380297 0.272123 0.329526
O O10 0.377922 0.213497 0.044911
O O11 0.500000 0.204664 0.517711
O O12 0.667549 0.124442 0.542741
O O13 0.637524 0.334205 0.608056
O O14 0.791737 0.905505 0.322057
O O15 0.732889 0.050102 0.106851
O O16 0.222728 0.253450 0.980300
O O17 0.500000 0.442002 0.594389
O O18 0.368939 0.569764 0.577128
#
# Coordination Sequence:
#
# PCOD9343174 Si02
#       8
#     4   4   4   4   4   4   4   4
#     4  11  23  39  60  87 122 161 200 242 298 366
#     4  11  21  35  56  87 119 151 190 238 292 348
#     4  10  20  36  59  86 116 150 193 242 296 359
#     4  10  21  37  60  88 117 155 197 243 301 362
#     4  11  23  42  61  84 116 154 201 254 303 359
#     4  10  23  39  60  83 111 152 199 248 300 356
#     4  11  21  34  55  85 118 146 181 231 287 347
#     4  10  21  38  58  82 113 155 195 236 291 353
#
# _framework density 20.271174999999999
#
# number of rings (size 3 to 8) (size 9 to 14) (size 15 to 20)
#    0.000    1.500    0.000    6.750    0.000    7.000 
#    0.000    4.375    0.000    0.000    0.000    0.000 
#    0.000    0.000    0.000    0.000    0.000    0.000 
#
# Total GULP energy -178562.662905 kJ/mol
# GULP energy per Si atom -5580.083216 kJ/mol
# Density = 2.022504 g / cm^3
# Si number density = 20.271175 Si / 1000 Ang^3
#
#
#
# Elastic Constant Matrix: (Units=GPa)
#
#
# Indices 1 2 3 4 5 6 
#
# 1 66.4256 3.2488 13.2960 0.0000 0.0000 0.0000
# 2 3.2488 51.4283 13.0239 0.0000 0.0000 0.0000
# 3 13.2960 13.0239 52.7404 0.0000 0.0000 0.0000
# 4 0.0000 0.0000 0.0000 33.3763 0.0000 0.0000
# 5 0.0000 0.0000 0.0000 0.0000 27.6443 0.0000
# 6 0.0000 0.0000 0.0000 0.0000 0.0000 12.8886
#
#
#
# Elastic Compliance Matrix: (Units=1/GPa)
#
#
# Indices 1 2 3 4 5 6 
#
# 1 0.015854 0.000011 -0.004000 0.000000 0.000000 0.000000
# 2 0.000011 0.020742 -0.005125 0.000000 0.000000 0.000000
# 3 -0.004000 -0.005125 0.021235 0.000000 0.000000 0.000000
# 4 0.000000 0.000000 0.000000 0.029961 0.000000 0.000000
# 5 0.000000 0.000000 0.000000 0.000000 0.036174 0.000000
# 6 0.000000 0.000000 0.000000 0.000000 0.000000 0.077588
#
#
# Mechanical properties :
#
#
# Convention : Reuss Voigt Hill
#
# Bulk Modulus (GPa) = 25.24979 25.52575 25.38777
# Shear Modulus (GPa) = 21.46090 24.18356 22.82223
#
# Velocity S-wave (km/s) = 3.25728 3.45773 3.35900
# Velocity P-wave (km/s) = 5.16038 5.34422 5.25311
#
# Compressibility (1/GPa) = 0.03960428
#
# Stress axis : x y z
#
# Youngs Moduli (GPa) = 63.07361 48.21211 47.09274
#
# Poissons Ratio (x) = -0.00055 0.18836
# Poissons Ratio (y) = -0.00072 0.24134
# Poissons Ratio (z) = 0.25228 0.24708
#
# Static dielectric constant tensor:
#      x y z
#    x 1.793580 0.000000 0.000000 
#    y 0.000000 1.707110 0.000000 
#    z 0.000000 0.000000 1.729840 
# 
# From -- ./inp_files/2585.got.cif
#   From: 2010.05.17/outbox.cif.g08.bks.cpg/sg31_2_cif.got.tgz:2585.got - 2010.06.03 17:08:30.
