data_PCOD9343376
_publ_section_title
;
Structure prediction by ZEFSAII (Michael W. Deem and Ramdas Pophale) SiO2 
 PCOD9343376
Probable space group: P M N 21
;
_chemical_formula_sum "Si O2"
_cell_formula_units_Z 32
_cell_length_a 15.495122
_cell_length_b 8.590886
_cell_length_c 11.500018
_cell_angle_alpha 90.000000
_cell_angle_beta 90.000000
_cell_angle_gamma 90.000000
_cell_volume 1530.845903
_symmetry_space_group_name_H-M "P M N 21"
_symmetry_group_IT_number 31
_symmetry_cell_setting 'orthorhombic'
loop_
_space_group_symop_operation_xyz
x,y,z
1/2-x,-y,1/2+z
-x,y,z
1/2+x,-y,1/2+z
loop_
_atom_site_type_symbol
_atom_site_label
_atom_site_fract_x
_atom_site_fract_y
_atom_site_fract_z
Si Si1 0.232957 0.481869 0.609040
Si Si2 0.598342 0.019549 0.590724
Si Si3 0.839373 0.913100 0.344333
Si Si4 0.666867 0.712060 0.325520
Si Si5 0.404900 0.949386 0.166764
Si Si6 0.400201 0.648075 0.573074
Si Si7 0.262883 0.831733 0.984712
Si Si8 0.905192 0.741329 0.564550
O O1 0.187261 0.405634 0.720917
O O2 0.328174 0.546242 0.638261
O O3 0.239342 0.351670 0.507529
O O4 0.171941 0.620983 0.568007
O O5 0.500000 0.050855 0.555918
O O6 0.610197 0.832737 0.596994
O O7 0.616937 0.087490 0.719180
O O8 0.669207 0.095142 0.506956
O O9 0.756344 0.801332 0.348487
O O10 0.897767 0.848033 0.448926
O O11 0.805615 0.087866 0.372916
O O12 0.603746 0.849689 0.282634
O O13 0.626333 0.632469 0.437668
O O14 0.500000 0.915856 0.115696
O O15 0.325369 0.893662 0.088198
O O16 0.397464 0.135333 0.170422
O O17 0.500000 0.605620 0.594178
O O18 0.000000 0.667020 0.568187
#
# Coordination Sequence:
#
# PCOD9343376 Si02
#       8
#     4   4   4   4   4   4   4   4
#     4  11  23  39  61  96 128 168 204 256 324 390
#     4  11  22  40  66  93 121 165 218 266 314 371
#     4  11  20  41  66  89 118 167 215 261 311 366
#     4  11  21  39  67  88 120 170 213 259 314 371
#     4   9  18  35  61  90 115 153 209 261 305 361
#     4  11  24  43  64  93 134 170 209 266 321 383
#     4  10  21  38  63  88 121 160 209 261 310 370
#     4  10  21  39  62  91 129 161 203 262 317 380
#
# _framework density 20.903476999999999
#
# number of rings (size 3 to 8) (size 9 to 14) (size 15 to 20)
#    0.000    1.500    5.000    1.500    0.000    4.500 
#    0.000    0.000    0.000    0.000    0.000    0.000 
#    0.000    0.000    0.000    0.000    0.000    0.000 
#
# Total GULP energy -178626.278875 kJ/mol
# GULP energy per Si atom -5582.071215 kJ/mol
# Density = 2.085590 g / cm^3
# Si number density = 20.903477 Si / 1000 Ang^3
#
#
#
# Elastic Constant Matrix: (Units=GPa)
#
#
# Indices 1 2 3 4 5 6 
#
# 1 138.8683 45.6108 -0.0422 0.0000 0.0000 0.0000
# 2 45.6108 76.7621 5.2789 0.0000 0.0000 0.0000
# 3 -0.0422 5.2789 39.9924 0.0000 0.0000 0.0000
# 4 0.0000 0.0000 0.0000 29.0366 0.0000 0.0000
# 5 0.0000 0.0000 0.0000 0.0000 6.6878 0.0000
# 6 0.0000 0.0000 0.0000 0.0000 0.0000 -21.8223
#
#
#
# Elastic Compliance Matrix: (Units=1/GPa)
#
#
# Indices 1 2 3 4 5 6 
#
# 1 0.008968 -0.005378 0.000719 0.000000 0.000000 0.000000
# 2 -0.005378 0.016372 -0.002167 0.000000 0.000000 0.000000
# 3 0.000719 -0.002167 0.025292 0.000000 0.000000 0.000000
# 4 0.000000 0.000000 0.000000 0.034439 0.000000 0.000000
# 5 0.000000 0.000000 0.000000 0.000000 0.149527 0.000000
# 6 0.000000 0.000000 0.000000 0.000000 0.000000 -0.045825
#
#
# Mechanical properties :
#
#
# Convention : Reuss Voigt Hill
#
# Bulk Modulus (GPa) = 27.04138 39.70197 33.37168
# Shear Modulus (GPa) = 23.28293 16.43211 19.85752
#
# Velocity S-wave (km/s) = 3.34103 2.80678 3.08549
# Velocity P-wave (km/s) = 5.27709 5.43491 5.35658
#
# Compressibility (1/GPa) = 0.03698036
#
# Stress axis : x y z
#
# Youngs Moduli (GPa) = 111.51210 61.08091 39.53896
#
# Poissons Ratio (x) = 0.32849 -0.02844
# Poissons Ratio (y) = 0.59970 0.08567
# Poissons Ratio (z) = -0.08021 0.13234
#
# Static dielectric constant tensor:
#      x y z
#    x 1.747190 0.000000 0.000000 
#    y 0.000000 1.764350 0.000000 
#    z 0.000000 0.000000 1.799680 
# 
# From -- ./inp_files/4287.got.cif
#   From: 2010.05.17/outbox.cif.g08.bks.cpg/sg31_3_cif.got.tgz:4287.got - 2010.06.03 17:08:30.
