data_PCOD9343274
_publ_section_title
;
Structure prediction by ZEFSAII (Michael W. Deem and Ramdas Pophale) SiO2 
 PCOD9343274
Probable space group: P M N 21
;
_chemical_formula_sum "Si O2"
_cell_formula_units_Z 24
_cell_length_a 8.681283
_cell_length_b 14.022227
_cell_length_c 10.348842
_cell_angle_alpha 90.000000
_cell_angle_beta 90.000000
_cell_angle_gamma 90.000000
_cell_volume 1259.774067
_symmetry_space_group_name_H-M "P M N 21"
_symmetry_group_IT_number 31
_symmetry_cell_setting 'orthorhombic'
loop_
_space_group_symop_operation_xyz
x,y,z
1/2-x,-y,1/2+z
-x,y,z
1/2+x,-y,1/2+z
loop_
_atom_site_type_symbol
_atom_site_label
_atom_site_fract_x
_atom_site_fract_y
_atom_site_fract_z
Si Si1 0.184685 0.578485 0.346070
Si Si2 0.313999 0.429900 0.551850
Si Si3 0.314254 0.859167 0.702247
Si Si4 0.686434 0.080484 0.704467
Si Si5 0.314985 0.783921 0.423417
Si Si6 0.685567 0.216246 0.469290
O O1 0.244050 0.503808 0.451132
O O2 0.248888 0.683033 0.377859
O O3 0.000000 0.582440 0.348609
O O4 0.232084 0.550700 0.200082
O O5 0.500000 0.435740 0.544843
O O6 0.268306 0.321820 0.515399
O O7 0.500000 0.856996 0.706979
O O8 0.266062 0.808036 0.569748
O O9 0.250313 0.809317 0.829641
O O10 0.266569 0.970195 0.699150
O O11 0.500000 0.084715 0.711944
O O12 0.755546 0.134244 0.827501
O O13 0.734171 0.138440 0.576171
O O14 0.500000 0.781115 0.419323
O O15 0.500000 0.214263 0.463900
#
# Coordination Sequence:
#
# PCOD9343274 Si02
#       6
#     4   4   4   4   4   4
#     4  11  24  43  66  90 121 159 197 246 304 359
#     4  10  23  43  64  90 120 155 199 249 299 356
#     4  10  23  38  58  90 125 159 200 248 295 351
#     4  10  20  40  63  86 120 161 203 247 298 354
#     4  11  23  40  62  90 124 159 201 250 298 354
#     4  10  21  40  63  86 120 159 200 246 298 356
#
# _framework density 19.051036
#
# number of rings (size 3 to 8) (size 9 to 14) (size 15 to 20)
#    0.000    1.667    1.667    2.000    2.333    6.000 
#    0.000    0.000    0.000    0.000    0.000    0.000 
#    0.000    0.000    0.000    0.000    0.000    0.000 
#
# Total GULP energy -134150.376443 kJ/mol
# GULP energy per Si atom -5589.599018 kJ/mol
# Density = 1.900767 g / cm^3
# Si number density = 19.051036 Si / 1000 Ang^3
#
#
#
# Elastic Constant Matrix: (Units=GPa)
#
#
# Indices 1 2 3 4 5 6 
#
# 1 19.4099 29.2631 38.7810 0.0000 0.0000 0.0000
# 2 29.2631 94.3290 67.8547 0.0000 0.0000 0.0000
# 3 38.7810 67.8547 195.9962 0.0000 0.0000 0.0000
# 4 0.0000 0.0000 0.0000 43.2120 0.0000 0.0000
# 5 0.0000 0.0000 0.0000 0.0000 44.9976 0.0000
# 6 0.0000 0.0000 0.0000 0.0000 0.0000 31.5773
#
#
#
# Elastic Compliance Matrix: (Units=1/GPa)
#
#
# Indices 1 2 3 4 5 6 
#
# 1 0.122014 -0.027278 -0.014699 0.000000 0.000000 0.000000
# 2 -0.027278 0.020215 -0.001601 0.000000 0.000000 0.000000
# 3 -0.014699 -0.001601 0.008565 0.000000 0.000000 0.000000
# 4 0.000000 0.000000 0.000000 0.023142 0.000000 0.000000
# 5 0.000000 0.000000 0.000000 0.000000 0.022223 0.000000
# 6 0.000000 0.000000 0.000000 0.000000 0.000000 0.031668
#
#
# Mechanical properties :
#
#
# Convention : Reuss Voigt Hill
#
# Bulk Modulus (GPa) = 15.71391 64.61473 40.16432
# Shear Modulus (GPa) = 14.87227 35.54647 25.20937
#
# Velocity S-wave (km/s) = 2.79705 4.32424 3.64160
# Velocity P-wave (km/s) = 4.32407 7.67609 6.22976
#
# Compressibility (1/GPa) = 0.06363789
#
# Stress axis : x y z
#
# Youngs Moduli (GPa) = 8.19580 49.46732 116.75666
#
# Poissons Ratio (x) = 1.34938 1.71615
# Poissons Ratio (y) = 0.22357 0.18695
# Poissons Ratio (z) = 0.12047 0.07921
#
# Static dielectric constant tensor:
#      x y z
#    x 1.647560 0.000000 0.000000 
#    y 0.000000 1.635240 0.000000 
#    z 0.000000 0.000000 1.636730 
# 
# From -- ./inp_files/1697.got.cif
#   From: 2010.05.17/outbox.cif.g08.bks.cpg/sg31_1_cif.got.tgz:1697.got - 2010.06.03 17:08:30.
