data_PCOD9343564
_publ_section_title
;
Structure prediction by ZEFSAII (Michael W. Deem and Ramdas Pophale) SiO2 
 PCOD9343564
Probable space group: P M N 21
;
_chemical_formula_sum "Si O2"
_cell_formula_units_Z 24
_cell_length_a 8.187694
_cell_length_b 8.432761
_cell_length_c 14.680481
_cell_angle_alpha 90.000000
_cell_angle_beta 90.000000
_cell_angle_gamma 90.000000
_cell_volume 1013.611853
_symmetry_space_group_name_H-M "P M N 21"
_symmetry_group_IT_number 31
_symmetry_cell_setting 'orthorhombic'
loop_
_space_group_symop_operation_xyz
x,y,z
1/2-x,-y,1/2+z
-x,y,z
1/2+x,-y,1/2+z
loop_
_atom_site_type_symbol
_atom_site_label
_atom_site_fract_x
_atom_site_fract_y
_atom_site_fract_z
Si Si1 0.689708 0.393119 0.690820
Si Si2 0.693684 0.416631 0.034182
Si Si3 0.685251 0.916896 0.094029
Si Si4 0.311503 0.897905 0.435081
Si Si5 0.699103 0.587519 0.856727
Si Si6 0.192999 0.084428 0.267701
O O1 0.500000 0.348357 0.697994
O O2 0.710041 0.546777 0.626126
O O3 0.781546 0.250935 0.641534
O O4 0.752418 0.446449 0.789350
O O5 0.500000 0.429335 0.051546
O O6 0.731053 0.250221 0.986632
O O7 0.745455 0.548215 0.959382
O O8 0.500000 0.923619 0.060797
O O9 0.795775 0.958927 0.007933
O O10 0.716608 0.043016 0.174536
O O11 0.500000 0.864727 0.415945
O O12 0.223100 0.947279 0.342184
O O13 0.500000 0.588323 0.854906
O O14 0.752724 0.754191 0.815330
O O15 0.000000 0.096411 0.248657
#
# Coordination Sequence:
#
# PCOD9343564 Si02
#       6
#     4   4   4   4   4   4
#     4  11  22  40  64  92 124 163 207 257 311 371
#     4  11  22  40  64  92 124 163 207 257 311 371
#     4  12  25  42  63  92 126 166 213 263 314 372
#     4  12  25  42  63  92 126 166 213 263 314 372
#     4   9  21  39  62  88 120 159 200 245 306 372
#     4  11  22  41  66  94 126 163 206 259 316 376
#
# _framework density 23.677700000000002
#
# number of rings (size 3 to 8) (size 9 to 14) (size 15 to 20)
#    0.000    1.000    0.000    7.500    0.000    4.000 
#    0.000    7.500    0.000    0.000    0.000    0.000 
#    0.000    0.000    0.000    0.000    0.000    0.000 
#
# Total GULP energy -134472.315222 kJ/mol
# GULP energy per Si atom -5603.013134 kJ/mol
# Density = 2.362381 g / cm^3
# Si number density = 23.677700 Si / 1000 Ang^3
#
#
#
# Elastic Constant Matrix: (Units=GPa)
#
#
# Indices 1 2 3 4 5 6 
#
# 1 60.4749 -4.6126 -8.6111 0.0000 0.0000 0.0000
# 2 -4.6126 67.2623 -10.0686 0.0000 0.0000 0.0000
# 3 -8.6111 -10.0686 82.8327 0.0000 0.0000 0.0000
# 4 0.0000 0.0000 0.0000 41.2914 0.0000 0.0000
# 5 0.0000 0.0000 0.0000 0.0000 19.1709 0.0000
# 6 0.0000 0.0000 0.0000 0.0000 0.0000 28.0019
#
#
#
# Elastic Compliance Matrix: (Units=1/GPa)
#
#
# Indices 1 2 3 4 5 6 
#
# 1 0.016922 0.001450 0.001935 0.000000 0.000000 0.000000
# 2 0.001450 0.015267 0.002006 0.000000 0.000000 0.000000
# 3 0.001935 0.002006 0.012518 0.000000 0.000000 0.000000
# 4 0.000000 0.000000 0.000000 0.024218 0.000000 0.000000
# 5 0.000000 0.000000 0.000000 0.000000 0.052162 0.000000
# 6 0.000000 0.000000 0.000000 0.000000 0.000000 0.035712
#
#
# Mechanical properties :
#
#
# Convention : Reuss Voigt Hill
#
# Bulk Modulus (GPa) = 18.02103 18.22062 18.12083
# Shear Modulus (GPa) = 30.39299 33.28366 31.83832
#
# Velocity S-wave (km/s) = 3.58664 3.75333 3.67093
# Velocity P-wave (km/s) = 4.97790 5.14736 5.06334
#
# Compressibility (1/GPa) = 0.05549073
#
# Stress axis : x y z
#
# Youngs Moduli (GPa) = 59.09477 65.50089 79.88739
#
# Poissons Ratio (x) = -0.09499 -0.15462
# Poissons Ratio (y) = -0.08570 -0.16029
# Poissons Ratio (z) = -0.11437 -0.13143
#
# Static dielectric constant tensor:
#      x y z
#    x 1.799940 0.000000 0.000000 
#    y 0.000000 1.959670 0.000000 
#    z 0.000000 0.000000 1.842510 
# 
# From -- ./inp_files/4760.got.cif
#   From: 2010.05.17/outbox.cif.g08.bks.cpg/sg31_3_cif.got.tgz:4760.got - 2010.06.03 17:08:30.
