data_PCOD9343640
_publ_section_title
;
Structure prediction by ZEFSAII (Michael W. Deem and Ramdas Pophale) SiO2 
 PCOD9343640
Probable space group: P B A 2
;
_chemical_formula_sum "Si O2"
_cell_formula_units_Z 28
_cell_length_a 8.732941
_cell_length_b 19.557670
_cell_length_c 9.616454
_cell_angle_alpha 90.000000
_cell_angle_beta 90.000000
_cell_angle_gamma 90.000000
_cell_volume 1642.451668
_symmetry_space_group_name_H-M "P B A 2"
_symmetry_group_IT_number 32
_symmetry_cell_setting 'orthorhombic'
loop_
_space_group_symop_operation_xyz
x,y,z
-x,-y,z
1/2-x,1/2+y,z
1/2+x,1/2-y,z
loop_
_atom_site_type_symbol
_atom_site_label
_atom_site_fract_x
_atom_site_fract_y
_atom_site_fract_z
Si Si1 0.884724 0.389322 0.239300
Si Si2 0.326774 0.479260 0.266774
Si Si3 0.491143 0.272712 0.850147
Si Si4 0.816911 0.619258 0.063170
Si Si5 0.795299 0.654432 0.751661
Si Si6 0.258395 0.720670 0.055298
Si Si7 0.087135 0.428630 0.488812
O O1 0.770360 0.452764 0.235448
O O2 0.794967 0.322897 0.185992
O O3 0.022614 0.401885 0.130969
O O4 0.968632 0.387258 0.389063
O O5 0.500000 0.500000 0.296317
O O6 0.310009 0.426697 0.138499
O O7 0.235860 0.445194 0.394984
O O8 0.382081 0.321014 0.759043
O O9 0.602288 0.223276 0.764515
O O10 0.596785 0.308030 0.968567
O O11 0.377774 0.225614 0.942400
O O12 0.792918 0.700289 0.092930
O O13 0.817133 0.614354 0.897194
O O14 0.855008 0.611617 0.622664
O O15 0.000000 0.500000 0.521725
#
# Coordination Sequence:
#
# PCOD9343640 Si02
#       7
#     4   4   4   4   4   4   4
#     4  10  19  36  57  80 111 149 181 232 280 344
#     4  10  22  37  56  79 113 145 193 242 278 323
#     4   8  18  31  55  83 113 140 171 244 282 317
#     4   9  19  34  57  84 109 145 180 234 283 334
#     4  10  18  37  57  80 115 146 186 227 289 341
#     4  10  16  33  56  85 113 135 184 227 294 325
#     4   9  21  40  55  76 116 160 188 221 290 341
#
# _framework density 17.047685000000001
#
# number of rings (size 3 to 8) (size 9 to 14) (size 15 to 20)
#    0.000    2.857    2.857    1.286    4.000    1.143 
#    5.143    6.429    0.000    0.000    0.000    0.000 
#    0.000    0.000    0.000    0.000    0.000    0.000 
#
# Total GULP energy -155887.605884 kJ/mol
# GULP energy per Si atom -5567.414496 kJ/mol
# Density = 1.700888 g / cm^3
# Si number density = 17.047685 Si / 1000 Ang^3
#
#
#
# Elastic Constant Matrix: (Units=GPa)
#
#
# Indices 1 2 3 4 5 6 
#
# 1 115.5546 43.1851 50.0456 0.0000 0.0000 0.0000
# 2 43.1851 70.1804 68.2261 0.0000 0.0000 0.0000
# 3 50.0456 68.2261 120.3309 0.0000 0.0000 0.0000
# 4 0.0000 0.0000 0.0000 31.3506 0.0000 0.0000
# 5 0.0000 0.0000 0.0000 0.0000 15.0011 0.0000
# 6 0.0000 0.0000 0.0000 0.0000 0.0000 25.2653
#
#
#
# Elastic Compliance Matrix: (Units=1/GPa)
#
#
# Indices 1 2 3 4 5 6 
#
# 1 0.011392 -0.005357 -0.001701 0.000000 0.000000 0.000000
# 2 -0.005357 0.034268 -0.017202 0.000000 0.000000 0.000000
# 3 -0.001701 -0.017202 0.018771 0.000000 0.000000 0.000000
# 4 0.000000 0.000000 0.000000 0.031897 0.000000 0.000000
# 5 0.000000 0.000000 0.000000 0.000000 0.066662 0.000000
# 6 0.000000 0.000000 0.000000 0.000000 0.000000 0.039580
#
#
# Mechanical properties :
#
#
# Convention : Reuss Voigt Hill
#
# Bulk Modulus (GPa) = 62.84269 69.88661 66.36465
# Shear Modulus (GPa) = 19.50133 23.96400 21.73266
#
# Velocity S-wave (km/s) = 3.38587 3.75334 3.57433
# Velocity P-wave (km/s) = 7.22692 7.73739 7.48651
#
# Compressibility (1/GPa) = 0.01591275
#
# Stress axis : x y z
#
# Youngs Moduli (GPa) = 87.77706 29.18196 53.27402
#
# Poissons Ratio (x) = 0.15632 0.09062
# Poissons Ratio (y) = 0.47020 0.91639
# Poissons Ratio (z) = 0.14930 0.50197
#
# Static dielectric constant tensor:
#      x y z
#    x 1.615140 0.000000 0.000000 
#    y 0.000000 1.589690 0.000000 
#    z 0.000000 0.000000 1.569050 
# 
# From -- ./inp_files/2528.got.cif
#   From: 2010.05.17/outbox.cif.g08.bks.cpg/sg32_2_cif.got.tgz:2528.got - 2010.06.03 17:12:27.
