data_PCOD9343603
_publ_section_title
;
Structure prediction by ZEFSAII (Michael W. Deem and Ramdas Pophale) SiO2 
 PCOD9343603
Probable space group: P M N 21
;
_chemical_formula_sum "Si O2"
_cell_formula_units_Z 32
_cell_length_a 9.000000
_cell_length_b 15.000000
_cell_length_c 12.000000
_cell_angle_alpha 90.000000
_cell_angle_beta 90.000000
_cell_angle_gamma 90.000000
_cell_volume 1620.000000
_symmetry_space_group_name_H-M "P M N 21"
_symmetry_group_IT_number 31
_symmetry_cell_setting 'orthorhombic'
loop_
_space_group_symop_operation_xyz
x,y,z
1/2-x,-y,1/2+z
-x,y,z
1/2+x,-y,1/2+z
loop_
_atom_site_type_symbol
_atom_site_label
_atom_site_fract_x
_atom_site_fract_y
_atom_site_fract_z
Si Si1 0.321909 0.174029 0.731430
Si Si2 0.320060 0.136678 0.980526
Si Si3 0.322194 0.943397 0.036518
Si Si4 0.829272 0.451972 0.248758
Si Si5 0.829002 0.365895 0.718351
Si Si6 0.321376 0.284842 0.144085
Si Si7 0.664122 0.667952 0.966069
Si Si8 0.673058 0.176189 0.368364
O O1 0.500000 0.175255 0.718063
O O2 0.282572 0.131728 0.850940
O O3 0.248904 0.117138 0.632703
O O4 0.259661 0.274593 0.736985
O O5 0.500000 0.138718 0.988145
O O6 0.269901 0.228888 0.036969
O O7 0.272626 0.046486 0.042577
O O8 0.500000 0.939329 0.044843
O O9 0.269439 0.903714 0.917683
O O10 0.745822 0.544979 0.262829
O O11 0.753821 0.380003 0.165969
O O12 0.826427 0.401942 0.367144
O O13 0.000000 0.467497 0.215830
O O14 0.828209 0.377432 0.584680
O O15 0.000000 0.356504 0.755088
O O16 0.500000 0.297893 0.141534
O O17 0.289163 0.218056 0.248174
O O18 0.500000 0.712932 0.958234
O O19 0.790906 0.741013 0.950265
O O20 0.500000 0.152641 0.369461
#
# Coordination Sequence:
#
# PCOD9343603 Si02
#       8
#     4   4   4   4   4   4   4   4
#     4  11  23  41  62  89 120 155 202 252 297 353
#     4   9  22  41  61  85 122 165 199 240 304 364
#     4  11  22  38  60  86 119 158 196 241 300 362
#     4  10  21  37  58  87 118 155 200 250 300 355
#     4  11  22  38  60  86 117 158 198 244 301 361
#     4   9  19  39  61  84 116 157 201 246 298 355
#     4   9  19  36  56  78 111 152 194 239 298 356
#     4  10  19  32  58  87 111 144 194 250 292 340
#
# _framework density 19.753086
#
# number of rings (size 3 to 8) (size 9 to 14) (size 15 to 20)
#    0.000    2.000    1.250    1.875    1.750    2.500 
#    0.000    9.375    0.000    0.000    0.000    0.000 
#    0.000    0.000    0.000    0.000    0.000    0.000 
#
# Total GULP energy -178540.031713 kJ/mol
# GULP energy per Si atom -5579.375991 kJ/mol
# Density = 1.970813 g / cm^3
# Si number density = 19.753086 Si / 1000 Ang^3
#
#
#
# Elastic Constant Matrix: (Units=GPa)
#
#
# Indices 1 2 3 4 5 6 
#
# 1 69.0169 36.1926 24.7808 0.0000 0.0000 0.0000
# 2 36.1926 108.7883 19.5130 0.0000 0.0000 0.0000
# 3 24.7808 19.5130 44.7063 0.0000 0.0000 0.0000
# 4 0.0000 0.0000 0.0000 9.7432 0.0000 0.0000
# 5 0.0000 0.0000 0.0000 0.0000 21.6300 0.0000
# 6 0.0000 0.0000 0.0000 0.0000 0.0000 22.0148
#
#
#
# Elastic Compliance Matrix: (Units=1/GPa)
#
#
# Indices 1 2 3 4 5 6 
#
# 1 0.020467 -0.005180 -0.009084 0.000000 0.000000 0.000000
# 2 -0.005180 0.011284 -0.002054 0.000000 0.000000 0.000000
# 3 -0.009084 -0.002054 0.028300 0.000000 0.000000 0.000000
# 4 0.000000 0.000000 0.000000 0.102635 0.000000 0.000000
# 5 0.000000 0.000000 0.000000 0.000000 0.046232 0.000000
# 6 0.000000 0.000000 0.000000 0.000000 0.000000 0.045424
#
#
# Mechanical properties :
#
#
# Convention : Reuss Voigt Hill
#
# Bulk Modulus (GPa) = 36.47593 42.60936 39.54265
# Shear Modulus (GPa) = 16.88524 20.14595 18.51559
#
# Velocity S-wave (km/s) = 2.92689 3.19703 3.06494
# Velocity P-wave (km/s) = 5.47068 5.93682 5.70851
#
# Compressibility (1/GPa) = 0.02741534
#
# Stress axis : x y z
#
# Youngs Moduli (GPa) = 48.85868 88.62242 35.33567
#
# Poissons Ratio (x) = 0.45905 0.32099
# Poissons Ratio (y) = 0.25308 0.07258
# Poissons Ratio (z) = 0.44384 0.18202
#
# Static dielectric constant tensor:
#      x y z
#    x 1.690810 0.000000 0.000000 
#    y 0.000000 1.680380 0.000000 
#    z 0.000000 0.000000 1.724980 
# 
# From -- ./inp_files/3735.got.cif
#   From: 2010.05.17/outbox.ucp.g08.bks.cvg/sg31_2_cif.got.tgz:3735.got - 2010.06.11 10:34:26.
