data_PCOD9343138
_publ_section_title
;
Structure prediction by ZEFSAII (Michael W. Deem and Ramdas Pophale) SiO2 
 PCOD9343138
Probable space group: P M N 21
;
_chemical_formula_sum "Si O2"
_cell_formula_units_Z 32
_cell_length_a 9.252271
_cell_length_b 14.620201
_cell_length_c 12.468565
_cell_angle_alpha 90.000000
_cell_angle_beta 90.000000
_cell_angle_gamma 90.000000
_cell_volume 1686.623557
_symmetry_space_group_name_H-M "P M N 21"
_symmetry_group_IT_number 31
_symmetry_cell_setting 'orthorhombic'
loop_
_space_group_symop_operation_xyz
x,y,z
1/2-x,-y,1/2+z
-x,y,z
1/2+x,-y,1/2+z
loop_
_atom_site_type_symbol
_atom_site_label
_atom_site_fract_x
_atom_site_fract_y
_atom_site_fract_z
Si Si1 0.171684 0.833886 0.304530
Si Si2 0.330792 0.340181 0.352941
Si Si3 0.330585 0.336393 0.101475
Si Si4 0.335006 0.815027 0.966179
Si Si5 0.671467 0.041222 0.599073
Si Si6 0.327936 0.844184 0.527593
Si Si7 0.674130 0.532098 0.021288
Si Si8 0.164701 0.313870 0.678839
O O1 0.202825 0.907760 0.210913
O O2 0.255501 0.858329 0.411919
O O3 0.230205 0.736244 0.261196
O O4 0.000000 0.830385 0.321677
O O5 0.500000 0.335121 0.381694
O O6 0.317976 0.359131 0.227230
O O7 0.254830 0.243764 0.381148
O O8 0.253892 0.417300 0.424572
O O9 0.500000 0.317011 0.079489
O O10 0.237645 0.248150 0.074814
O O11 0.288326 0.426280 0.034753
O O12 0.500000 0.830022 0.931522
O O13 0.258780 0.907122 0.005627
O O14 0.337510 0.750462 0.072522
O O15 0.500000 0.052883 0.578938
O O16 0.704489 0.933954 0.598455
O O17 0.500000 0.836580 0.516883
O O18 0.500000 0.540656 0.007986
O O19 0.708686 0.588149 0.130845
O O20 0.000000 0.318089 0.720727
#
# Coordination Sequence:
#
# PCOD9343138 Si02
#       8
#     4   4   4   4   4   4   4   4
#     4  10  20  36  58  83 112 146 184 228 279 331
#     4  10  20  35  57  85 116 149 185 228 280 332
#     4  10  23  41  57  79 114 151 187 229 276 329
#     4   9  17  31  55  84 111 142 182 227 274 326
#     4   9  20  38  58  82 111 144 187 235 278 329
#     4  11  24  40  57  81 114 148 185 229 277 332
#     4   9  19  37  59  83 112 146 189 236 278 327
#     4   8  15  30  53  81 110 140 177 224 274 322
#
# _framework density 18.972816000000002
#
# number of rings (size 3 to 8) (size 9 to 14) (size 15 to 20)
#    0.000    2.500    0.000    2.250    0.000    8.000 
#    0.000    3.750    0.000    0.000    0.000    0.000 
#    0.000    0.000    0.000    0.000    0.000    0.000 
#
# Total GULP energy -178590.655625 kJ/mol
# GULP energy per Si atom -5580.957988 kJ/mol
# Density = 1.892963 g / cm^3
# Si number density = 18.972816 Si / 1000 Ang^3
#
#
#
# Elastic Constant Matrix: (Units=GPa)
#
#
# Indices 1 2 3 4 5 6 
#
# 1 74.8047 62.5081 39.4194 0.0000 0.0000 0.0000
# 2 62.5081 134.0037 34.4420 0.0000 0.0000 0.0000
# 3 39.4194 34.4420 48.7684 0.0000 0.0000 0.0000
# 4 0.0000 0.0000 0.0000 19.6443 0.0000 0.0000
# 5 0.0000 0.0000 0.0000 0.0000 29.2244 0.0000
# 6 0.0000 0.0000 0.0000 0.0000 0.0000 26.0711
#
#
#
# Elastic Compliance Matrix: (Units=1/GPa)
#
#
# Indices 1 2 3 4 5 6 
#
# 1 0.031266 -0.009883 -0.018293 0.000000 0.000000 0.000000
# 2 -0.009883 0.012241 -0.000657 0.000000 0.000000 0.000000
# 3 -0.018293 -0.000657 0.035755 0.000000 0.000000 0.000000
# 4 0.000000 0.000000 0.000000 0.050905 0.000000 0.000000
# 5 0.000000 0.000000 0.000000 0.000000 0.034218 0.000000
# 6 0.000000 0.000000 0.000000 0.000000 0.000000 0.038357
#
#
# Mechanical properties :
#
#
# Convention : Reuss Voigt Hill
#
# Bulk Modulus (GPa) = 46.30195 58.92399 52.61297
# Shear Modulus (GPa) = 18.68419 23.06846 20.87633
#
# Velocity S-wave (km/s) = 3.14154 3.49071 3.32072
# Velocity P-wave (km/s) = 6.13322 6.88268 6.51873
#
# Compressibility (1/GPa) = 0.02159736
#
# Stress axis : x y z
#
# Youngs Moduli (GPa) = 31.98368 81.69015 27.96825
#
# Poissons Ratio (x) = 0.80734 0.51161
# Poissons Ratio (y) = 0.31609 0.01837
# Poissons Ratio (z) = 0.58506 0.05367
#
# Static dielectric constant tensor:
#      x y z
#    x 1.638010 0.000000 0.000000 
#    y 0.000000 1.667410 0.000000 
#    z 0.000000 0.000000 1.660250 
# 
# From -- ./inp_files/3640.got.cif
#   From: 2010.05.17/outbox.cif.g08.bks.cpg/sg31_2_cif.got.tgz:3640.got - 2010.06.03 17:08:30.
