data_PCOD9343408
_publ_section_title
;
Structure prediction by ZEFSAII (Michael W. Deem and Ramdas Pophale) SiO2 
 PCOD9343408
Probable space group: P M N 21
;
_chemical_formula_sum "Si O2"
_cell_formula_units_Z 20
_cell_length_a 13.236917
_cell_length_b 13.219884
_cell_length_c 5.308114
_cell_angle_alpha 90.000000
_cell_angle_beta 90.000000
_cell_angle_gamma 90.000000
_cell_volume 928.869561
_symmetry_space_group_name_H-M "P M N 21"
_symmetry_group_IT_number 31
_symmetry_cell_setting 'orthorhombic'
loop_
_space_group_symop_operation_xyz
x,y,z
1/2-x,-y,1/2+z
-x,y,z
1/2+x,-y,1/2+z
loop_
_atom_site_type_symbol
_atom_site_label
_atom_site_fract_x
_atom_site_fract_y
_atom_site_fract_z
Si Si1 0.387803 0.898688 0.979790
Si Si2 0.817085 0.892084 0.660574
Si Si3 0.764453 0.563790 0.590905
Si Si4 0.109340 0.695251 0.911666
Si Si5 0.221889 0.254161 0.791501
O O1 0.500000 0.897851 0.867303
O O2 0.292797 0.901619 0.790769
O O3 0.369823 0.799637 0.151193
O O4 0.372172 0.001779 0.136981
O O5 0.882417 0.808784 0.805237
O O6 0.789345 0.838432 0.397881
O O7 0.773839 0.495102 0.340473
O O8 0.867728 0.616427 0.687488
O O9 0.698957 0.662777 0.505683
O O10 0.000000 0.676850 0.025884
O O11 0.203336 0.689987 0.099435
#
# Coordination Sequence:
#
# PCOD9343408 Si02
#       5
#     4   4   4   4   4
#     4  11  22  39  63  94 136 187 228 274 346 412
#     4  10  21  40  59  93 137 176 226 284 331 401
#     4  11  22  44  71  94 133 182 221 289 349 396
#     4  10  22  40  69 101 129 172 230 286 343 407
#     4  10  22  41  65  92 137 175 226 281 338 404
#
# _framework density 21.531547
#
# number of rings (size 3 to 8) (size 9 to 14) (size 15 to 20)
#    0.000    1.600    4.000    0.600    0.000    4.800 
#    0.000    2.000    0.000    4.800    0.000    0.000 
#    0.000    0.000    0.000    0.000    0.000    0.000 
#
# Total GULP energy -111488.174372 kJ/mol
# GULP energy per Si atom -5574.408719 kJ/mol
# Density = 2.148254 g / cm^3
# Si number density = 21.531547 Si / 1000 Ang^3
#
#
#
# Elastic Constant Matrix: (Units=GPa)
#
#
# Indices 1 2 3 4 5 6 
#
# 1 94.8895 35.4554 17.3625 0.0000 0.0000 0.0000
# 2 35.4554 123.7169 43.5062 0.0000 0.0000 0.0000
# 3 17.3625 43.5062 81.4306 0.0000 0.0000 0.0000
# 4 0.0000 0.0000 0.0000 48.6504 0.0000 0.0000
# 5 0.0000 0.0000 0.0000 0.0000 5.8049 0.0000
# 6 0.0000 0.0000 0.0000 0.0000 0.0000 1.9425
#
#
#
# Elastic Compliance Matrix: (Units=1/GPa)
#
#
# Indices 1 2 3 4 5 6 
#
# 1 0.011853 -0.003088 -0.000877 0.000000 0.000000 0.000000
# 2 -0.003088 0.010758 -0.005089 0.000000 0.000000 0.000000
# 3 -0.000877 -0.005089 0.015186 0.000000 0.000000 0.000000
# 4 0.000000 0.000000 0.000000 0.020555 0.000000 0.000000
# 5 0.000000 0.000000 0.000000 0.000000 0.172268 0.000000
# 6 0.000000 0.000000 0.000000 0.000000 0.000000 0.514812
#
#
# Mechanical properties :
#
#
# Convention : Reuss Voigt Hill
#
# Bulk Modulus (GPa) = 50.79301 54.74280 52.76791
# Shear Modulus (GPa) = 6.49263 24.86040 15.67651
#
# Velocity S-wave (km/s) = 1.73838 3.40163 2.70121
# Velocity P-wave (km/s) = 5.26028 6.39592 5.85569
#
# Compressibility (1/GPa) = 0.01968775
#
# Stress axis : x y z
#
# Youngs Moduli (GPa) = 84.36624 92.95689 65.84849
#
# Poissons Ratio (x) = 0.28709 0.05776
# Poissons Ratio (y) = 0.26056 0.33510
# Poissons Ratio (z) = 0.07401 0.47306
#
# Static dielectric constant tensor:
#      x y z
#    x 1.756410 0.000000 0.000000 
#    y 0.000000 1.843150 0.000000 
#    z 0.000000 0.000000 1.892790 
# 
# From -- ./inp_files/321.got.cif
#   From: 2010.05.17/outbox.cif.g08.bks.cpg/sg31_1_cif.got.tgz:321.got - 2010.06.03 17:08:30.
