data_PCOD9343944
_publ_section_title
;
Structure prediction by ZEFSAII (Michael W. Deem and Ramdas Pophale) SiO2 
 PCOD9343944
Probable space group: P B A 2
;
_chemical_formula_sum "Si O2"
_cell_formula_units_Z 26
_cell_length_a 5.027706
_cell_length_b 16.224896
_cell_length_c 14.395775
_cell_angle_alpha 90.000000
_cell_angle_beta 90.000000
_cell_angle_gamma 90.000000
_cell_volume 1174.321050
_symmetry_space_group_name_H-M "P B A 2"
_symmetry_group_IT_number 32
_symmetry_cell_setting 'orthorhombic'
loop_
_space_group_symop_operation_xyz
x,y,z
-x,-y,z
1/2-x,1/2+y,z
1/2+x,1/2-y,z
loop_
_atom_site_type_symbol
_atom_site_label
_atom_site_fract_x
_atom_site_fract_y
_atom_site_fract_z
Si Si1 0.343629 0.913043 0.886090
Si Si2 0.843430 0.192641 0.057141
Si Si3 0.642992 0.070993 0.594925
Si Si4 0.000000 0.000000 0.751903
Si Si5 0.270879 0.304851 0.262967
Si Si6 0.418422 0.309125 0.460890
Si Si7 0.387462 0.195921 0.731984
O O1 0.528012 0.852198 0.825305
O O2 0.500000 0.000000 0.895738
O O3 0.079652 0.929141 0.824454
O O4 0.247124 0.872613 0.980866
O O5 0.637370 0.269421 0.047157
O O6 0.819715 0.157469 0.161833
O O7 0.856867 0.122473 0.537302
O O8 0.459872 0.138844 0.644819
O O9 0.768154 0.016896 0.678305
O O10 0.500000 0.000000 0.535372
O O11 0.465261 0.224239 0.264941
O O12 0.358540 0.346993 0.358601
O O13 0.702734 0.265422 0.468695
O O14 0.088031 0.226889 0.727616
#
# Coordination Sequence:
#
# PCOD9343944 Si02
#       7
#     4   4   4   2   4   4   4
#     4  11  25  39  60  85 123 163 198 247 313 358
#     4  10  21  39  65  93 121 157 206 250 296 360
#     4  11  25  39  60  85 123 163 198 247 313 358
#     4  10  24  40  56  72 120 158 200 240 302 354
#     4   8  16  34  61  91 120 152 194 252 300 344
#     4  10  21  39  65  93 121 157 206 250 296 360
#     4  11  24  39  60  82 110 151 206 251 285 345
#
# _framework density 22.140453999999998
#
# number of rings (size 3 to 8) (size 9 to 14) (size 15 to 20)
#    0.000    1.846    0.000    3.692   12.923    0.000 
#    0.000    0.769    0.000    0.923    0.000    0.000 
#    0.000    0.000    0.000    0.000    0.000    0.000 
#
# Total GULP energy -145132.859747 kJ/mol
# GULP energy per Si atom -5582.033067 kJ/mol
# Density = 2.209006 g / cm^3
# Si number density = 22.140454 Si / 1000 Ang^3
#
#
#
# Elastic Constant Matrix: (Units=GPa)
#
#
# Indices 1 2 3 4 5 6 
#
# 1 82.7659 20.9809 13.9590 0.0000 0.0000 0.0000
# 2 20.9809 62.4074 31.2201 0.0000 0.0000 0.0000
# 3 13.9590 31.2201 127.9753 0.0000 0.0000 0.0000
# 4 0.0000 0.0000 0.0000 -4.5119 0.0000 0.0000
# 5 0.0000 0.0000 0.0000 0.0000 16.9382 0.0000
# 6 0.0000 0.0000 0.0000 0.0000 0.0000 11.9124
#
#
#
# Elastic Compliance Matrix: (Units=1/GPa)
#
#
# Indices 1 2 3 4 5 6 
#
# 1 0.013227 -0.004243 -0.000408 0.000000 0.000000 0.000000
# 2 -0.004243 0.019612 -0.004322 0.000000 0.000000 0.000000
# 3 -0.000408 -0.004322 0.008913 0.000000 0.000000 0.000000
# 4 0.000000 0.000000 0.000000 -0.221638 0.000000 0.000000
# 5 0.000000 0.000000 0.000000 0.000000 0.059038 0.000000
# 6 0.000000 0.000000 0.000000 0.000000 0.000000 0.083946
#
#
# Mechanical properties :
#
#
# Convention : Reuss Voigt Hill
#
# Bulk Modulus (GPa) = 42.00395 45.05205 43.52800
# Shear Modulus (GPa) = -453.61086 18.66699 -217.47194
#
# Velocity S-wave (km/s) = -14.32911 2.90680 -9.92154
# Velocity P-wave (km/s) = 15.96095 5.62658 10.56157
#
# Compressibility (1/GPa) = 0.02380728
#
# Stress axis : x y z
#
# Youngs Moduli (GPa) = 75.60558 50.98894 112.19862
#
# Poissons Ratio (x) = 0.21633 0.04574
# Poissons Ratio (y) = 0.32077 0.48489
# Poissons Ratio (z) = 0.03082 0.22036
#
# Static dielectric constant tensor:
#      x y z
#    x 1.882300 0.000000 0.000000 
#    y 0.000000 1.822400 0.000000 
#    z 0.000000 0.000000 1.849090 
# 
# From -- ./inp_files/4102.got.cif
#   From: 2010.05.17/outbox.cif.g08.bks.cpg/sg32_3_cif.got.tgz:4102.got - 2010.06.03 17:12:27.
