data_PCOD9343841
_publ_section_title
;
Structure prediction by ZEFSAII (Michael W. Deem and Ramdas Pophale) SiO2 
 PCOD9343841
Probable space group: P B A 2
;
_chemical_formula_sum "Si O2"
_cell_formula_units_Z 28
_cell_length_a 8.672721
_cell_length_b 20.380196
_cell_length_c 8.319433
_cell_angle_alpha 90.000000
_cell_angle_beta 90.000000
_cell_angle_gamma 90.000000
_cell_volume 1470.474374
_symmetry_space_group_name_H-M "P B A 2"
_symmetry_group_IT_number 32
_symmetry_cell_setting 'orthorhombic'
loop_
_space_group_symop_operation_xyz
x,y,z
-x,-y,z
1/2-x,1/2+y,z
1/2+x,1/2-y,z
loop_
_atom_site_type_symbol
_atom_site_label
_atom_site_fract_x
_atom_site_fract_y
_atom_site_fract_z
Si Si1 0.518627 0.724465 0.189130
Si Si2 0.111501 0.594277 0.530593
Si Si3 0.327019 0.472817 0.474761
Si Si4 0.699850 0.177442 0.002583
Si Si5 0.301100 0.849605 0.635576
Si Si6 0.266397 0.717404 0.426016
Si Si7 0.915774 0.562820 0.211631
O O1 0.406742 0.763519 0.068694
O O2 0.635264 0.680899 0.089497
O O3 0.409334 0.692027 0.321265
O O4 0.629110 0.769639 0.299318
O O5 0.214368 0.529191 0.551035
O O6 0.215315 0.659140 0.540701
O O7 0.963332 0.610991 0.637657
O O8 0.030482 0.587604 0.353957
O O9 0.500000 0.500000 0.459658
O O10 0.318352 0.404859 0.574793
O O11 0.241621 0.455675 0.306249
O O12 0.616039 0.114272 0.074083
O O13 0.724383 0.176909 0.813470
O O14 0.302625 0.786902 0.513773
O O15 0.000000 0.500000 0.141898
#
# Coordination Sequence:
#
# PCOD9343841 Si02
#       7
#     4   4   4   4   4   4   4
#     4  10  21  37  61  86 120 154 209 249 301 363
#     4  10  20  38  64  88 115 165 211 245 297 369
#     4  10  22  39  63  90 116 159 217 260 290 362
#     4  11  23  39  59  92 127 159 195 259 323 363
#     4  11  24  39  60  89 133 158 199 251 323 370
#     4  11  20  38  63  90 115 160 208 254 294 367
#     4   9  19  40  61  84 116 163 210 243 300 369
#
# _framework density 19.041474000000001
#
# number of rings (size 3 to 8) (size 9 to 14) (size 15 to 20)
#    0.000    1.714    2.857    3.857    6.000    1.143 
#    0.000    0.714    0.000    0.000    0.000    0.000 
#    0.000    0.000    0.000    0.000    0.000    0.000 
#
# Total GULP energy -156069.134652 kJ/mol
# GULP energy per Si atom -5573.897666 kJ/mol
# Density = 1.899813 g / cm^3
# Si number density = 19.041474 Si / 1000 Ang^3
#
#
#
# Elastic Constant Matrix: (Units=GPa)
#
#
# Indices 1 2 3 4 5 6 
#
# 1 81.3000 17.1431 14.7763 0.0000 0.0000 0.0000
# 2 17.1431 80.4476 17.1054 0.0000 0.0000 0.0000
# 3 14.7763 17.1054 61.9372 0.0000 0.0000 0.0000
# 4 0.0000 0.0000 0.0000 16.4333 0.0000 0.0000
# 5 0.0000 0.0000 0.0000 0.0000 10.0689 0.0000
# 6 0.0000 0.0000 0.0000 0.0000 0.0000 25.3792
#
#
#
# Elastic Compliance Matrix: (Units=1/GPa)
#
#
# Indices 1 2 3 4 5 6 
#
# 1 0.013241 -0.002284 -0.002528 0.000000 0.000000 0.000000
# 2 -0.002284 0.013600 -0.003211 0.000000 0.000000 0.000000
# 3 -0.002528 -0.003211 0.017635 0.000000 0.000000 0.000000
# 4 0.000000 0.000000 0.000000 0.060852 0.000000 0.000000
# 5 0.000000 0.000000 0.000000 0.000000 0.099315 0.000000
# 6 0.000000 0.000000 0.000000 0.000000 0.000000 0.039402
#
#
# Mechanical properties :
#
#
# Convention : Reuss Voigt Hill
#
# Bulk Modulus (GPa) = 35.17415 35.74826 35.46120
# Shear Modulus (GPa) = 18.54811 22.02030 20.28420
#
# Velocity S-wave (km/s) = 3.12443 3.40433 3.26738
# Velocity P-wave (km/s) = 5.61503 5.85383 5.73567
#
# Compressibility (1/GPa) = 0.02842997
#
# Stress axis : x y z
#
# Youngs Moduli (GPa) = 75.52156 73.52973 56.70436
#
# Poissons Ratio (x) = 0.16795 0.14336
# Poissons Ratio (y) = 0.17250 0.18208
# Poissons Ratio (z) = 0.19093 0.23610
#
# Static dielectric constant tensor:
#      x y z
#    x 1.701670 0.000000 0.000000 
#    y 0.000000 1.702410 0.000000 
#    z 0.000000 0.000000 1.641600 
# 
# From -- ./inp_files/2512.got.cif
#   From: 2010.05.17/outbox.cif.g08.bks.cpg/sg32_2_cif.got.tgz:2512.got - 2010.06.03 17:12:27.
