data_PCOD9343189
_publ_section_title
;
Structure prediction by ZEFSAII (Michael W. Deem and Ramdas Pophale) SiO2 
 PCOD9343189
Probable space group: P M N 21
;
_chemical_formula_sum "Si O2"
_cell_formula_units_Z 28
_cell_length_a 12.425032
_cell_length_b 16.451454
_cell_length_c 5.356532
_cell_angle_alpha 90.000000
_cell_angle_beta 90.000000
_cell_angle_gamma 90.000000
_cell_volume 1094.927862
_symmetry_space_group_name_H-M "P M N 21"
_symmetry_group_IT_number 31
_symmetry_cell_setting 'orthorhombic'
loop_
_space_group_symop_operation_xyz
x,y,z
1/2-x,-y,1/2+z
-x,y,z
1/2+x,-y,1/2+z
loop_
_atom_site_type_symbol
_atom_site_label
_atom_site_fract_x
_atom_site_fract_y
_atom_site_fract_z
Si Si1 0.388802 0.488104 0.806770
Si Si2 0.669354 0.838366 0.726956
Si Si3 0.827312 0.591053 0.800021
Si Si4 0.376109 0.176654 0.915800
Si Si5 0.227908 0.282138 0.597219
Si Si6 0.000000 0.283143 0.092383
Si Si7 0.000000 0.368311 0.616427
Si Si8 0.817587 0.989876 0.177642
O O1 0.500000 0.538835 0.902073
O O2 0.284765 0.542109 0.788022
O O3 0.391493 0.445431 0.538473
O O4 0.379493 0.426437 0.034608
O O5 0.791684 0.844923 0.632672
O O6 0.603765 0.773871 0.557251
O O7 0.617568 0.926607 0.716342
O O8 0.671820 0.800116 0.001936
O O9 0.795811 0.681748 0.863622
O O10 0.500000 0.190979 0.985674
O O11 0.319453 0.254663 0.788557
O O12 0.370719 0.097106 0.733768
O O13 0.140752 0.353207 0.647255
O O14 0.000000 0.307975 0.377890
O O15 0.000000 0.363532 0.925801
O O16 0.728691 0.001375 0.398586
#
# Coordination Sequence:
#
# PCOD9343189 Si02
#       8
#     4   4   4   4   4   2   2   4
#     4  10  22  45  67  98 135 173 216 260 321 393
#     4  10  22  41  62  90 129 166 222 273 325 387
#     4  10  24  40  70  99 130 175 216 266 319 391
#     4  11  24  40  62  93 133 174 217 270 328 395
#     4  11  23  43  63  98 133 165 226 269 332 384
#     4  10  20  36  64  86 118 166 206 269 319 372
#     4  10  22  38  64  92 124 164 204 269 325 368
#     4  10  21  41  62  84 120 169 215 267 318 378
#
# _framework density 25.572462000000002
#
# number of rings (size 3 to 8) (size 9 to 14) (size 15 to 20)
#    0.000    1.714    2.857    0.429    4.000    1.714 
#    0.000    0.000    6.286    0.000    0.000    0.000 
#    0.000    0.000    0.000    0.000    0.000    0.000 
#
# Total GULP energy -155905.149180 kJ/mol
# GULP energy per Si atom -5568.041042 kJ/mol
# Density = 2.551426 g / cm^3
# Si number density = 25.572462 Si / 1000 Ang^3
#
#
#
# Elastic Constant Matrix: (Units=GPa)
#
#
# Indices 1 2 3 4 5 6 
#
# 1 170.2021 30.2313 26.8626 0.0000 0.0000 0.0000
# 2 30.2313 108.7338 16.2066 0.0000 0.0000 0.0000
# 3 26.8626 16.2066 86.4518 0.0000 0.0000 0.0000
# 4 0.0000 0.0000 0.0000 40.5792 0.0000 0.0000
# 5 0.0000 0.0000 0.0000 0.0000 -3.6014 0.0000
# 6 0.0000 0.0000 0.0000 0.0000 0.0000 25.9290
#
#
#
# Elastic Compliance Matrix: (Units=1/GPa)
#
#
# Indices 1 2 3 4 5 6 
#
# 1 0.006416 -0.001530 -0.001707 0.000000 0.000000 0.000000
# 2 -0.001530 0.009826 -0.001367 0.000000 0.000000 0.000000
# 3 -0.001707 -0.001367 0.012354 0.000000 0.000000 0.000000
# 4 0.000000 0.000000 0.000000 0.024643 0.000000 0.000000
# 5 0.000000 0.000000 0.000000 0.000000 -0.277669 0.000000
# 6 0.000000 0.000000 0.000000 0.000000 0.000000 0.038567
#
#
# Mechanical properties :
#
#
# Convention : Reuss Voigt Hill
#
# Bulk Modulus (GPa) = 51.57448 56.88762 54.23105
# Shear Modulus (GPa) = -29.37838 32.05382 1.33772
#
# Velocity S-wave (km/s) = -3.39312 3.54425 0.72405
# Velocity P-wave (km/s) = 2.20472 6.24843 4.68528
#
# Compressibility (1/GPa) = 0.01938943
#
# Stress axis : x y z
#
# Youngs Moduli (GPa) = 155.84914 101.77354 80.94700
#
# Poissons Ratio (x) = 0.15567 0.13818
# Poissons Ratio (y) = 0.23838 0.11063
# Poissons Ratio (z) = 0.26604 0.13909
#
# Static dielectric constant tensor:
#      x y z
#    x 2.221600 0.000000 0.000000 
#    y 0.000000 2.074510 0.000000 
#    z 0.000000 0.000000 2.089290 
# 
# From -- ./inp_files/425.got.cif
#   From: 2010.05.17/outbox.cif.g08.bks.cpg/sg31_1_cif.got.tgz:425.got - 2010.06.03 17:08:30.
