data_PCOD9343764
_publ_section_title
;
Structure prediction by ZEFSAII (Michael W. Deem and Ramdas Pophale) SiO2 
 PCOD9343764
Probable space group: P B A 2
;
_chemical_formula_sum "Si O2"
_cell_formula_units_Z 30
_cell_length_a 29.574135
_cell_length_b 5.015860
_cell_length_c 9.821448
_cell_angle_alpha 90.000000
_cell_angle_beta 90.000000
_cell_angle_gamma 90.000000
_cell_volume 1456.910854
_symmetry_space_group_name_H-M "P B A 2"
_symmetry_group_IT_number 32
_symmetry_cell_setting 'orthorhombic'
loop_
_space_group_symop_operation_xyz
x,y,z
-x,-y,z
1/2-x,1/2+y,z
1/2+x,1/2-y,z
loop_
_atom_site_type_symbol
_atom_site_label
_atom_site_fract_x
_atom_site_fract_y
_atom_site_fract_z
Si Si1 0.780953 0.340756 0.396500
Si Si2 0.862091 0.398780 0.204783
Si Si3 0.920443 0.918940 0.275496
Si Si4 0.500000 0.500000 0.068918
Si Si5 0.079757 0.238224 0.567770
Si Si6 0.881789 0.220020 0.905473
Si Si7 0.857589 0.263278 0.612145
Si Si8 0.056974 0.284392 0.861694
O O1 0.760197 0.046590 0.395161
O O2 0.813012 0.421405 0.270550
O O3 0.813700 0.344184 0.527750
O O4 0.886368 0.164683 0.290554
O O5 0.861154 0.296594 0.050017
O O6 0.892019 0.666254 0.219040
O O7 0.940671 0.826712 0.420392
O O8 0.957701 0.026443 0.170156
O O9 0.483368 0.724550 0.964238
O O10 0.120852 0.026729 0.584454
O O11 0.048376 0.226285 0.701816
O O12 0.103268 0.525793 0.573414
O O13 0.850252 0.267868 0.774964
O O14 0.902881 0.924488 0.901302
O O15 0.923349 0.422653 0.880713
#
# Coordination Sequence:
#
# PCOD9343764 Si02
#       8
#     4   4   4   2   4   4   4   4
#     4  12  24  39  63  97 124 155 204 263 311 366
#     4  12  22  42  62  90 126 165 205 245 322 380
#     4  12  23  37  63  89 126 167 207 260 302 365
#     4  12  24  38  58  98 126 166 212 268 300 346
#     4  10  19  39  59  86 115 163 208 241 303 368
#     4  10  20  40  61  87 111 169 201 240 301 382
#     4  10  20  38  65  85 117 155 205 245 302 375
#     4  10  22  35  60  84 122 156 208 257 299 342
#
# _framework density 20.591517
#
# number of rings (size 3 to 8) (size 9 to 14) (size 15 to 20)
#    0.000    1.067    5.333    1.600    0.000    2.667 
#    0.000    1.333    0.000    4.800    0.000    0.000 
#    0.000    0.000    0.000    0.000    0.000    0.000 
#
# Total GULP energy -167546.290044 kJ/mol
# GULP energy per Si atom -5584.876335 kJ/mol
# Density = 2.054465 g / cm^3
# Si number density = 20.591517 Si / 1000 Ang^3
#
#
#
# Elastic Constant Matrix: (Units=GPa)
#
#
# Indices 1 2 3 4 5 6 
#
# 1 53.7052 -4.6761 32.0234 0.0000 0.0000 0.0000
# 2 -4.6761 56.4400 -14.9494 0.0000 0.0000 0.0000
# 3 32.0234 -14.9494 160.9699 0.0000 0.0000 0.0000
# 4 0.0000 0.0000 0.0000 19.8323 0.0000 0.0000
# 5 0.0000 0.0000 0.0000 0.0000 32.3447 0.0000
# 6 0.0000 0.0000 0.0000 0.0000 0.0000 23.5973
#
#
#
# Elastic Compliance Matrix: (Units=1/GPa)
#
#
# Indices 1 2 3 4 5 6 
#
# 1 0.021150 0.000654 -0.004147 0.000000 0.000000 0.000000
# 2 0.000654 0.018185 0.001559 0.000000 0.000000 0.000000
# 3 -0.004147 0.001559 0.007182 0.000000 0.000000 0.000000
# 4 0.000000 0.000000 0.000000 0.050423 0.000000 0.000000
# 5 0.000000 0.000000 0.000000 0.000000 0.030917 0.000000
# 6 0.000000 0.000000 0.000000 0.000000 0.000000 0.042378
#
#
# Mechanical properties :
#
#
# Convention : Reuss Voigt Hill
#
# Bulk Modulus (GPa) = 23.44747 32.87899 28.16323
# Shear Modulus (GPa) = 26.55073 32.40268 29.47670
#
# Velocity S-wave (km/s) = 3.59472 3.97116 3.78762
# Velocity P-wave (km/s) = 5.35173 6.08512 5.73017
#
# Compressibility (1/GPa) = 0.04264853
#
# Stress axis : x y z
#
# Youngs Moduli (GPa) = 47.28188 54.99042 139.23564
#
# Poissons Ratio (x) = -0.03596 0.57738
# Poissons Ratio (y) = -0.03092 -0.21704
# Poissons Ratio (z) = 0.19607 -0.08572
#
# Static dielectric constant tensor:
#      x y z
#    x 1.733640 0.000000 0.000000 
#    y 0.000000 1.731080 0.000000 
#    z 0.000000 0.000000 1.797820 
# 
# From -- ./inp_files/3416.got.cif
#   From: 2010.05.17/outbox.cif.g08.bks.cpg/sg32_2_cif.got.tgz:3416.got - 2010.06.03 17:12:27.
