data_PCOD9343373
_publ_section_title
;
Structure prediction by ZEFSAII (Michael W. Deem and Ramdas Pophale) SiO2 
 PCOD9343373
Probable space group: P M N 21
;
_chemical_formula_sum "Si O2"
_cell_formula_units_Z 32
_cell_length_a 8.051327
_cell_length_b 12.478416
_cell_length_c 15.664173
_cell_angle_alpha 90.000000
_cell_angle_beta 90.000000
_cell_angle_gamma 90.000000
_cell_volume 1573.745120
_symmetry_space_group_name_H-M "P M N 21"
_symmetry_group_IT_number 31
_symmetry_cell_setting 'orthorhombic'
loop_
_space_group_symop_operation_xyz
x,y,z
1/2-x,-y,1/2+z
-x,y,z
1/2+x,-y,1/2+z
loop_
_atom_site_type_symbol
_atom_site_label
_atom_site_fract_x
_atom_site_fract_y
_atom_site_fract_z
Si Si1 0.799168 0.006256 0.297990
Si Si2 0.798266 0.238122 0.357960
Si Si3 0.803877 0.455672 0.279443
Si Si4 0.200637 0.000631 0.600238
Si Si5 0.693693 0.596610 0.438614
Si Si6 0.200994 0.845019 0.446763
Si Si7 0.701526 0.763932 0.051668
Si Si8 0.305831 0.538844 0.100680
O O1 0.743244 0.910628 0.361573
O O2 0.000000 0.004259 0.300739
O O3 0.739922 0.120018 0.334902
O O4 0.747501 0.007535 0.199336
O O5 0.740768 0.336608 0.301418
O O6 0.755470 0.262756 0.454842
O O7 0.000000 0.236070 0.352974
O O8 0.780666 0.532814 0.361118
O O9 0.714890 0.494180 0.194758
O O10 0.000000 0.449960 0.261148
O O11 0.257552 0.910152 0.532135
O O12 0.000000 0.999530 0.594729
O O13 0.263745 0.118090 0.572798
O O14 0.500000 0.594059 0.418993
O O15 0.746882 0.721002 0.445704
O O16 0.724937 0.534317 0.527588
O O17 0.000000 0.847309 0.447005
O O18 0.500000 0.770718 0.059281
O O19 0.759890 0.661063 0.103610
O O20 0.500000 0.543627 0.077000
#
# Coordination Sequence:
#
# PCOD9343373 Si02
#       8
#     4   4   4   4   4   4   4   4
#     4  10  21  38  62  90 120 156 199 245 302 365
#     4   9  17  36  64  87 113 154 199 246 301 361
#     4  11  23  41  65  93 126 163 204 253 311 372
#     4  10  21  38  62  90 120 156 199 245 302 365
#     4  12  26  43  62  88 124 167 213 260 308 363
#     4  10  22  41  62  86 122 165 203 248 306 371
#     4   9  17  36  64  87 113 154 199 246 301 361
#     4  11  23  41  65  93 126 163 204 253 311 372
#
# _framework density 20.333660999999999
#
# number of rings (size 3 to 8) (size 9 to 14) (size 15 to 20)
#    0.000    1.750    2.500    1.875    3.500    1.000 
#    0.000    1.250    0.000    0.000    0.000    0.000 
#    0.000    0.000    0.000    0.000    0.000    0.000 
#
# Total GULP energy -178597.476214 kJ/mol
# GULP energy per Si atom -5581.171132 kJ/mol
# Density = 2.028738 g / cm^3
# Si number density = 20.333661 Si / 1000 Ang^3
#
#
#
# Elastic Constant Matrix: (Units=GPa)
#
#
# Indices 1 2 3 4 5 6 
#
# 1 22.3709 -0.0688 -14.1858 0.0000 0.0000 0.0000
# 2 -0.0688 98.7946 -0.0642 0.0000 0.0000 0.0000
# 3 -14.1858 -0.0642 57.8214 0.0000 0.0000 0.0000
# 4 0.0000 0.0000 0.0000 39.6030 0.0000 0.0000
# 5 0.0000 0.0000 0.0000 0.0000 31.3289 0.0000
# 6 0.0000 0.0000 0.0000 0.0000 0.0000 8.6678
#
#
#
# Elastic Compliance Matrix: (Units=1/GPa)
#
#
# Indices 1 2 3 4 5 6 
#
# 1 0.052936 0.000045 0.012987 0.000000 0.000000 0.000000
# 2 0.000045 0.010122 0.000022 0.000000 0.000000 0.000000
# 3 0.012987 0.000022 0.020481 0.000000 0.000000 0.000000
# 4 0.000000 0.000000 0.000000 0.025251 0.000000 0.000000
# 5 0.000000 0.000000 0.000000 0.000000 0.031919 0.000000
# 6 0.000000 0.000000 0.000000 0.000000 0.000000 0.115369
#
#
# Mechanical properties :
#
#
# Convention : Reuss Voigt Hill
#
# Bulk Modulus (GPa) = 9.11997 16.70549 12.91273
# Shear Modulus (GPa) = 18.76044 28.80701 23.78372
#
# Velocity S-wave (km/s) = 3.04078 3.76801 3.42376
# Velocity P-wave (km/s) = 4.10163 5.21192 4.68974
#
# Compressibility (1/GPa) = 0.10964950
#
# Stress axis : x y z
#
# Youngs Moduli (GPa) = 18.89057 98.79417 48.82591
#
# Poissons Ratio (x) = -0.00448 -0.63412
# Poissons Ratio (y) = -0.00086 -0.00109
# Poissons Ratio (z) = -0.24534 -0.00221
#
# Static dielectric constant tensor:
#      x y z
#    x 1.730380 0.000000 0.000000 
#    y 0.000000 1.761570 0.000000 
#    z 0.000000 0.000000 1.724350 
# 
# From -- ./inp_files/5043.got.cif
#   From: 2010.05.17/outbox.cif.g08.bks.cpg/sg31_3_cif.got.tgz:5043.got - 2010.06.03 17:08:30.
