data_PCOD9343805
_publ_section_title
;
Structure prediction by ZEFSAII (Michael W. Deem and Ramdas Pophale) SiO2 
 PCOD9343805
Probable space group: P B A 2
;
_chemical_formula_sum "Si O2"
_cell_formula_units_Z 32
_cell_length_a 17.346803
_cell_length_b 13.494210
_cell_length_c 5.327578
_cell_angle_alpha 90.000000
_cell_angle_beta 90.000000
_cell_angle_gamma 90.000000
_cell_volume 1247.086930
_symmetry_space_group_name_H-M "P B A 2"
_symmetry_group_IT_number 32
_symmetry_cell_setting 'orthorhombic'
loop_
_space_group_symop_operation_xyz
x,y,z
-x,-y,z
1/2-x,1/2+y,z
1/2+x,1/2-y,z
loop_
_atom_site_type_symbol
_atom_site_label
_atom_site_fract_x
_atom_site_fract_y
_atom_site_fract_z
Si Si1 0.943291 0.090278 0.712670
Si Si2 0.594319 0.215754 0.840333
Si Si3 0.678165 0.502684 0.391505
Si Si4 0.799833 0.396465 0.693061
Si Si5 0.933025 0.837252 0.349515
Si Si6 0.416269 0.040485 0.333971
Si Si7 0.075182 0.709522 0.931854
Si Si8 0.290105 0.929849 0.035221
O O1 0.982213 0.140490 0.463715
O O2 0.859886 0.052210 0.635028
O O3 0.940254 0.173372 0.924434
O O4 0.000000 0.000000 0.777108
O O5 0.584247 0.267160 0.113932
O O6 0.507029 0.170078 0.810200
O O7 0.672626 0.151094 0.853420
O O8 0.603584 0.289533 0.604533
O O9 0.741236 0.418116 0.468312
O O10 0.607370 0.440968 0.279837
O O11 0.720099 0.585861 0.225790
O O12 0.878706 0.449461 0.604076
O O13 0.841123 0.298617 0.791564
O O14 0.767615 0.465126 0.910790
O O15 0.414177 0.144780 0.183208
O O16 0.500000 0.000000 0.342007
O O17 0.365080 0.959218 0.195192
#
# Coordination Sequence:
#
# PCOD9343805 Si02
#       8
#     4   4   4   4   4   4   4   4
#     4   9  21  47  73 101 136 194 250 311 360 430
#     4  11  24  42  70 105 142 184 248 303 366 439
#     4  10  23  48  67  98 144 188 249 299 373 442
#     4  10  24  39  65 100 143 187 234 296 369 439
#     4  10  25  45  71 102 142 188 245 311 365 431
#     4  10  20  35  64  98 149 180 233 290 363 436
#     4  10  22  39  67 104 139 181 243 293 365 426
#     4  10  23  40  64 105 134 191 233 297 373 434
#
# _framework density 25.659799
#
# number of rings (size 3 to 8) (size 9 to 14) (size 15 to 20)
#    0.000    2.000    1.250    0.000   10.500    1.000 
#    4.500    5.000    0.000    0.000    0.000    0.000 
#    0.000    0.000    0.000    0.000    0.000    0.000 
#
# Total GULP energy -178479.275080 kJ/mol
# GULP energy per Si atom -5577.477346 kJ/mol
# Density = 2.560140 g / cm^3
# Si number density = 25.659799 Si / 1000 Ang^3
#
#
#
# Elastic Constant Matrix: (Units=GPa)
#
#
# Indices 1 2 3 4 5 6 
#
# 1 102.8042 21.4399 21.4541 0.0000 0.0000 0.0000
# 2 21.4399 91.2090 32.3676 0.0000 0.0000 0.0000
# 3 21.4541 32.3676 83.7068 0.0000 0.0000 0.0000
# 4 0.0000 0.0000 0.0000 30.7004 0.0000 0.0000
# 5 0.0000 0.0000 0.0000 0.0000 18.9242 0.0000
# 6 0.0000 0.0000 0.0000 0.0000 0.0000 29.4656
#
#
#
# Elastic Compliance Matrix: (Units=1/GPa)
#
#
# Indices 1 2 3 4 5 6 
#
# 1 0.010514 -0.001756 -0.002016 0.000000 0.000000 0.000000
# 2 -0.001756 0.013001 -0.004577 0.000000 0.000000 0.000000
# 3 -0.002016 -0.004577 0.014233 0.000000 0.000000 0.000000
# 4 0.000000 0.000000 0.000000 0.032573 0.000000 0.000000
# 5 0.000000 0.000000 0.000000 0.000000 0.052842 0.000000
# 6 0.000000 0.000000 0.000000 0.000000 0.000000 0.033938
#
#
# Mechanical properties :
#
#
# Convention : Reuss Voigt Hill
#
# Bulk Modulus (GPa) = 47.50569 47.58258 47.54413
# Shear Modulus (GPa) = 27.65245 29.31525 28.48385
#
# Velocity S-wave (km/s) = 3.28633 3.38369 3.33537
# Velocity P-wave (km/s) = 5.74054 5.81805 5.77943
#
# Compressibility (1/GPa) = 0.02105011
#
# Stress axis : x y z
#
# Youngs Moduli (GPa) = 95.11000 76.91762 70.25953
#
# Poissons Ratio (x) = 0.13508 0.14162
# Poissons Ratio (y) = 0.16703 0.32158
# Poissons Ratio (z) = 0.19171 0.35206
#
# Static dielectric constant tensor:
#      x y z
#    x 2.094180 0.000000 0.000000 
#    y 0.000000 2.176770 0.000000 
#    z 0.000000 0.000000 2.060650 
# 
# From -- ./inp_files/1486.got.cif
#   From: 2010.05.17/outbox.cif.g08.bks.cpg/sg32_1_cif.got.tgz:1486.got - 2010.06.03 17:12:27.
