data_PCOD9343004
_publ_section_title
;
Structure prediction by ZEFSAII (Michael W. Deem and Ramdas Pophale) SiO2 
 PCOD9343004
Probable space group: P M N 21
;
_chemical_formula_sum "Si O2"
_cell_formula_units_Z 32
_cell_length_a 8.051256
_cell_length_b 34.171623
_cell_length_c 4.912356
_cell_angle_alpha 90.000000
_cell_angle_beta 90.000000
_cell_angle_gamma 90.000000
_cell_volume 1351.509413
_symmetry_space_group_name_H-M "P M N 21"
_symmetry_group_IT_number 31
_symmetry_cell_setting 'orthorhombic'
loop_
_space_group_symop_operation_xyz
x,y,z
1/2-x,-y,1/2+z
-x,y,z
1/2+x,-y,1/2+z
loop_
_atom_site_type_symbol
_atom_site_label
_atom_site_fract_x
_atom_site_fract_y
_atom_site_fract_z
Si Si1 0.693980 0.976962 0.760640
Si Si2 0.200609 0.650637 0.004680
Si Si3 0.305846 0.147353 0.056248
Si Si4 0.191933 0.775541 0.251700
Si Si5 0.688688 0.731255 0.739810
Si Si6 0.797984 0.603022 0.504356
Si Si7 0.305891 0.476833 0.729895
Si Si8 0.805903 0.101300 0.556481
O O1 0.500000 0.971187 0.695137
O O2 0.757762 0.937822 0.908413
O O3 0.784881 0.989217 0.486003
O O4 0.270856 0.690232 0.882002
O O5 0.249846 0.614671 0.807583
O O6 0.000000 0.654036 0.000526
O O7 0.252086 0.638603 0.306552
O O8 0.500000 0.153240 0.119288
O O9 0.240782 0.186309 0.907162
O O10 0.284486 0.113396 0.831878
O O11 0.215901 0.135213 0.331928
O O12 0.201958 0.741232 0.476779
O O13 0.000000 0.783011 0.180556
O O14 0.281648 0.763063 0.977075
O O15 0.500000 0.732105 0.645422
O O16 0.740346 0.562391 0.375923
O O17 0.000000 0.600875 0.502656
O O18 0.213954 0.489581 0.457145
O O19 0.500000 0.471216 0.660187
O O20 0.000000 0.095581 0.620890
#
# Coordination Sequence:
#
# PCOD9343004 Si02
#       8
#     4   4   4   4   4   4   4   4
#     4  11  24  41  62  90 122 160 203 248 297 355
#     4  10  19  36  60  83 110 154 201 240 286 347
#     4  11  24  41  64  92 120 155 204 251 292 345
#     4  11  24  43  64  88 120 161 204 243 287 355
#     4  12  25  40  61  93 125 154 193 248 305 353
#     4   9  19  35  58  83 111 152 201 240 281 349
#     4  11  22  39  61  89 121 156 199 246 295 353
#     4  11  24  41  62  90 125 160 197 244 305 363
#
# _framework density 23.677230000000002
#
# number of rings (size 3 to 8) (size 9 to 14) (size 15 to 20)
#    0.000    1.250    0.000    6.000    0.000   13.000 
#    0.000    3.750    0.000    0.000    0.000    0.000 
#    0.000    0.000    0.000    0.000    0.000    0.000 
#
# Total GULP energy -179212.146916 kJ/mol
# GULP energy per Si atom -5600.379591 kJ/mol
# Density = 2.362334 g / cm^3
# Si number density = 23.677230 Si / 1000 Ang^3
#
#
#
# Elastic Constant Matrix: (Units=GPa)
#
#
# Indices 1 2 3 4 5 6 
#
# 1 33.9215 -3.2374 -1.8236 0.0000 0.0000 0.0000
# 2 -3.2374 65.1265 -5.6102 0.0000 0.0000 0.0000
# 3 -1.8236 -5.6102 93.2293 0.0000 0.0000 0.0000
# 4 0.0000 0.0000 0.0000 39.1042 0.0000 0.0000
# 5 0.0000 0.0000 0.0000 0.0000 89.3315 0.0000
# 6 0.0000 0.0000 0.0000 0.0000 0.0000 5.2461
#
#
#
# Elastic Compliance Matrix: (Units=1/GPa)
#
#
# Indices 1 2 3 4 5 6 
#
# 1 0.029662 0.001532 0.000672 0.000000 0.000000 0.000000
# 2 0.001532 0.015514 0.000964 0.000000 0.000000 0.000000
# 3 0.000672 0.000964 0.010797 0.000000 0.000000 0.000000
# 4 0.000000 0.000000 0.000000 0.025573 0.000000 0.000000
# 5 0.000000 0.000000 0.000000 0.000000 0.011194 0.000000
# 6 0.000000 0.000000 0.000000 0.000000 0.000000 0.190619
#
#
# Mechanical properties :
#
#
# Convention : Reuss Voigt Hill
#
# Bulk Modulus (GPa) = 16.04872 18.99276 17.52074
# Shear Modulus (GPa) = 16.79020 40.26625 28.52822
#
# Velocity S-wave (km/s) = 2.66584 4.12835 3.47490
# Velocity P-wave (km/s) = 4.03341 5.54646 4.84931
#
# Compressibility (1/GPa) = 0.06231027
#
# Stress axis : x y z
#
# Youngs Moduli (GPa) = 33.71294 64.45826 92.61507
#
# Poissons Ratio (x) = -0.09878 -0.06228
# Poissons Ratio (y) = -0.05166 -0.08924
# Poissons Ratio (z) = -0.02267 -0.06211
#
# Static dielectric constant tensor:
#      x y z
#    x 1.798360 0.000000 0.000000 
#    y 0.000000 1.949110 0.000000 
#    z 0.000000 0.000000 1.826740 
# 
# From -- ./inp_files/175.got.cif
#   From: 2010.05.17/outbox.cif.g08.bks.cpg/sg31_1_cif.got.tgz:175.got - 2010.06.03 17:08:30.
