data_PCOD9343263
_publ_section_title
;
Structure prediction by ZEFSAII (Michael W. Deem and Ramdas Pophale) SiO2 
 PCOD9343263
Probable space group: P M N 21
;
_chemical_formula_sum "Si O2"
_cell_formula_units_Z 24
_cell_length_a 18.572787
_cell_length_b 7.534364
_cell_length_c 9.388972
_cell_angle_alpha 90.000000
_cell_angle_beta 90.000000
_cell_angle_gamma 90.000000
_cell_volume 1313.837701
_symmetry_space_group_name_H-M "P M N 21"
_symmetry_group_IT_number 31
_symmetry_cell_setting 'orthorhombic'
loop_
_space_group_symop_operation_xyz
x,y,z
1/2-x,-y,1/2+z
-x,y,z
1/2+x,-y,1/2+z
loop_
_atom_site_type_symbol
_atom_site_label
_atom_site_fract_x
_atom_site_fract_y
_atom_site_fract_z
Si Si1 0.585140 0.839144 0.526670
Si Si2 0.823399 0.030748 0.269997
Si Si3 0.684858 0.963254 0.104558
Si Si4 0.914255 0.840857 0.809957
Si Si5 0.728704 0.339206 0.720713
Si Si6 0.170823 0.505690 0.930943
O O1 0.500000 0.811368 0.522384
O O2 0.612127 0.875944 0.687316
O O3 0.625110 0.672403 0.456926
O O4 0.602544 0.015807 0.434774
O O5 0.753761 0.070287 0.169367
O O6 0.812942 0.067900 0.436070
O O7 0.825964 0.815938 0.267215
O O8 0.616826 0.067242 0.166945
O O9 0.699817 0.771199 0.173642
O O10 0.874253 0.658945 0.851197
O O11 0.000000 0.815996 0.802517
O O12 0.756518 0.465693 0.843406
O O13 0.694430 0.431251 0.586267
#
# Coordination Sequence:
#
# PCOD9343263 Si02
#       6
#     4   4   4   4   4   4
#     4  11  23  42  64  89 128 170 207 251 311 376
#     4  10  20  39  62  91 122 159 209 257 305 362
#     4  10  20  39  62  91 122 159 209 257 305 362
#     4  11  23  42  64  89 128 170 207 251 311 376
#     4  10  24  34  64  96 116 162 204 258 308 362
#     4  12  23  40  62  98 123 160 208 260 311 366
#
# _framework density 18.267098000000001
#
# number of rings (size 3 to 8) (size 9 to 14) (size 15 to 20)
#    1.000    0.333    3.333    3.500    7.000    0.667 
#    0.000    0.000    0.000    2.000    0.000    0.000 
#    0.000    0.000    0.000    0.000    0.000    0.000 
#
# Total GULP energy -133754.019672 kJ/mol
# GULP energy per Si atom -5573.084153 kJ/mol
# Density = 1.822552 g / cm^3
# Si number density = 18.267098 Si / 1000 Ang^3
#
#
#
# Elastic Constant Matrix: (Units=GPa)
#
#
# Indices 1 2 3 4 5 6 
#
# 1 43.2315 15.0671 5.1906 0.0000 0.0000 0.0000
# 2 15.0671 59.4752 -3.7917 0.0000 0.0000 0.0000
# 3 5.1906 -3.7917 77.8389 0.0000 0.0000 0.0000
# 4 0.0000 0.0000 0.0000 25.7203 0.0000 0.0000
# 5 0.0000 0.0000 0.0000 0.0000 24.1262 0.0000
# 6 0.0000 0.0000 0.0000 0.0000 0.0000 12.0185
#
#
#
# Elastic Compliance Matrix: (Units=1/GPa)
#
#
# Indices 1 2 3 4 5 6 
#
# 1 0.025689 -0.006638 -0.002036 0.000000 0.000000 0.000000
# 2 -0.006638 0.018581 0.001348 0.000000 0.000000 0.000000
# 3 -0.002036 0.001348 0.013049 0.000000 0.000000 0.000000
# 4 0.000000 0.000000 0.000000 0.038880 0.000000 0.000000
# 5 0.000000 0.000000 0.000000 0.000000 0.041449 0.000000
# 6 0.000000 0.000000 0.000000 0.000000 0.000000 0.083205
#
#
# Mechanical properties :
#
#
# Convention : Reuss Voigt Hill
#
# Bulk Modulus (GPa) = 23.43781 23.71974 23.57878
# Shear Modulus (GPa) = 20.02186 23.31165 21.66675
#
# Velocity S-wave (km/s) = 3.31427 3.57621 3.44773
# Velocity P-wave (km/s) = 5.24446 5.48320 5.36516
#
# Compressibility (1/GPa) = 0.04266609
#
# Stress axis : x y z
#
# Youngs Moduli (GPa) = 38.92689 53.81778 76.63715
#
# Poissons Ratio (x) = 0.35723 0.15606
# Poissons Ratio (y) = 0.25839 -0.10329
# Poissons Ratio (z) = 0.07927 -0.07253
#
# Static dielectric constant tensor:
#      x y z
#    x 1.621690 0.000000 0.000000 
#    y 0.000000 1.659490 0.000000 
#    z 0.000000 0.000000 1.618760 
# 
# From -- ./inp_files/2781.got.cif
#   From: 2010.05.17/outbox.cif.g08.bks.cpg/sg31_2_cif.got.tgz:2781.got - 2010.06.03 17:08:30.
