data_PCOD9343001
_publ_section_title
;
Structure prediction by ZEFSAII (Michael W. Deem and Ramdas Pophale) SiO2 
 PCOD9343001
Probable space group: P M N 21
;
_chemical_formula_sum "Si O2"
_cell_formula_units_Z 32
_cell_length_a 8.869246
_cell_length_b 7.633954
_cell_length_c 24.198690
_cell_angle_alpha 90.000000
_cell_angle_beta 90.000000
_cell_angle_gamma 90.000000
_cell_volume 1638.430770
_symmetry_space_group_name_H-M "P M N 21"
_symmetry_group_IT_number 31
_symmetry_cell_setting 'orthorhombic'
loop_
_space_group_symop_operation_xyz
x,y,z
1/2-x,-y,1/2+z
-x,y,z
1/2+x,-y,1/2+z
loop_
_atom_site_type_symbol
_atom_site_label
_atom_site_fract_x
_atom_site_fract_y
_atom_site_fract_z
Si Si1 0.181552 0.452401 0.198930
Si Si2 0.818918 0.641988 0.462627
Si Si3 0.316385 0.835121 0.787948
Si Si4 0.818023 0.853545 0.214010
Si Si5 0.677200 0.912866 0.098562
Si Si6 0.317962 0.717420 0.909308
Si Si7 0.677270 0.494609 0.083751
Si Si8 0.678661 0.993571 0.486439
O O1 0.233419 0.309472 0.243200
O O2 0.229923 0.650187 0.215639
O O3 0.238260 0.418996 0.136900
O O4 0.000000 0.450125 0.198413
O O5 0.783132 0.485959 0.420400
O O6 0.775321 0.574642 0.523979
O O7 0.736370 0.824059 0.453427
O O8 0.000000 0.669332 0.461835
O O9 0.500000 0.831068 0.788751
O O10 0.267942 0.784162 0.849323
O O11 0.271869 0.026156 0.765535
O O12 0.753073 0.937792 0.157971
O O13 0.000000 0.855696 0.210563
O O14 0.500000 0.952955 0.100586
O O15 0.695776 0.705139 0.085624
O O16 0.753505 0.013874 0.048186
O O17 0.500000 0.735265 0.914018
O O18 0.243956 0.836069 0.956210
O O19 0.500000 0.457243 0.089878
O O20 0.500000 0.000097 0.489084
#
# Coordination Sequence:
#
# PCOD9343001 Si02
#       8
#     4   4   4   4   4   4   4   4
#     4   9  18  32  51  80 115 148 181 225 281 341
#     4  10  21  38  60  86 115 151 198 242 290 350
#     4   9  19  35  59  85 110 145 194 238 281 341
#     4   9  18  33  53  84 119 149 183 232 290 344
#     4  10  19  36  59  84 117 155 195 238 288 348
#     4  10  21  42  65  85 114 156 201 247 289 342
#     4   9  18  34  56  83 114 147 186 235 285 340
#     4  12  25  38  57  87 120 155 194 243 302 354
#
# _framework density 19.530882999999999
#
# number of rings (size 3 to 8) (size 9 to 14) (size 15 to 20)
#    0.000    2.250    1.250    1.500    1.750    2.500 
#    0.000    5.000    0.000    3.000    0.000    0.000 
#    0.000    0.000    0.000    0.000    0.000    0.000 
#
# Total GULP energy -178685.416036 kJ/mol
# GULP energy per Si atom -5583.919251 kJ/mol
# Density = 1.948643 g / cm^3
# Si number density = 19.530883 Si / 1000 Ang^3
#
#
#
# Elastic Constant Matrix: (Units=GPa)
#
#
# Indices 1 2 3 4 5 6 
#
# 1 14.6612 8.1930 -2.4866 0.0000 0.0000 0.0000
# 2 8.1930 36.1996 -16.6987 0.0000 0.0000 0.0000
# 3 -2.4866 -16.6987 37.2110 0.0000 0.0000 0.0000
# 4 0.0000 0.0000 0.0000 26.4839 0.0000 0.0000
# 5 0.0000 0.0000 0.0000 0.0000 18.7838 0.0000
# 6 0.0000 0.0000 0.0000 0.0000 0.0000 27.3326
#
#
#
# Elastic Compliance Matrix: (Units=1/GPa)
#
#
# Indices 1 2 3 4 5 6 
#
# 1 0.078430 -0.019336 -0.003436 0.000000 0.000000 0.000000
# 2 -0.019336 0.039603 0.016480 0.000000 0.000000 0.000000
# 3 -0.003436 0.016480 0.034040 0.000000 0.000000 0.000000
# 4 0.000000 0.000000 0.000000 0.037759 0.000000 0.000000
# 5 0.000000 0.000000 0.000000 0.000000 0.053237 0.000000
# 6 0.000000 0.000000 0.000000 0.000000 0.000000 0.036586
#
#
# Mechanical properties :
#
#
# Convention : Reuss Voigt Hill
#
# Bulk Modulus (GPa) = 7.16907 7.34304 7.25605
# Shear Modulus (GPa) = 14.76079 21.12432 17.94256
#
# Velocity S-wave (km/s) = 2.75210 3.29231 3.03426
# Velocity P-wave (km/s) = 3.71179 4.26853 3.99985
#
# Compressibility (1/GPa) = 0.13948820
#
# Stress axis : x y z
#
# Youngs Moduli (GPa) = 12.75026 25.25064 29.37750
#
# Poissons Ratio (x) = 0.48825 0.10094
# Poissons Ratio (y) = 0.24654 -0.48414
# Poissons Ratio (z) = 0.04381 -0.41613
#
# Static dielectric constant tensor:
#      x y z
#    x 1.654460 0.000000 0.000000 
#    y 0.000000 1.712640 0.000000 
#    z 0.000000 0.000000 1.667910 
# 
# From -- ./inp_files/6471.got.cif
#   From: 2010.05.17/outbox.cif.g08.bks.cpg/sg31_4_cif.got.tgz:6471.got - 2010.06.03 17:08:30.
