data_PCOD9343406
_publ_section_title
;
Structure prediction by ZEFSAII (Michael W. Deem and Ramdas Pophale) SiO2 
 PCOD9343406
Probable space group: P M N 21
;
_chemical_formula_sum "Si O2"
_cell_formula_units_Z 32
_cell_length_a 13.927928
_cell_length_b 8.400861
_cell_length_c 12.732641
_cell_angle_alpha 90.000000
_cell_angle_beta 90.000000
_cell_angle_gamma 90.000000
_cell_volume 1489.802869
_symmetry_space_group_name_H-M "P M N 21"
_symmetry_group_IT_number 31
_symmetry_cell_setting 'orthorhombic'
loop_
_space_group_symop_operation_xyz
x,y,z
1/2-x,-y,1/2+z
-x,y,z
1/2+x,-y,1/2+z
loop_
_atom_site_type_symbol
_atom_site_label
_atom_site_fract_x
_atom_site_fract_y
_atom_site_fract_z
Si Si1 0.891618 0.314814 0.931460
Si Si2 0.612911 0.403741 0.850090
Si Si3 0.257159 0.095401 0.845235
Si Si4 0.886102 0.562234 0.744098
Si Si5 0.392041 0.932802 0.986062
Si Si6 0.392604 0.441244 0.610604
Si Si7 0.692551 0.609416 0.042191
Si Si8 0.612625 0.075824 0.202089
O O1 0.819002 0.171114 0.925053
O O2 0.865764 0.450301 0.844390
O O3 0.000000 0.263639 0.907754
O O4 0.889361 0.397984 0.043525
O O5 0.500000 0.388326 0.878910
O O6 0.663561 0.233235 0.832494
O O7 0.618539 0.477206 0.733546
O O8 0.666840 0.505873 0.939103
O O9 0.191214 0.044829 0.748141
O O10 0.314157 0.950665 0.895756
O O11 0.831993 0.494946 0.643664
O O12 0.867225 0.750614 0.750910
O O13 0.000000 0.548649 0.724699
O O14 0.500000 0.942040 0.945043
O O15 0.374094 0.763946 0.040298
O O16 0.379760 0.067948 0.075521
O O17 0.500000 0.370363 0.595465
O O18 0.304024 0.343893 0.560770
O O19 0.500000 0.034587 0.224435
#
# Coordination Sequence:
#
# PCOD9343406 Si02
#       8
#     4   4   4   4   4   4   4   4
#     4  10  21  40  64  95 128 167 216 268 319 381
#     4  11  23  41  65  94 129 174 222 270 321 381
#     4  12  23  40  63  93 132 172 212 264 327 393
#     4  10  21  39  69 100 126 163 223 281 320 378
#     4  11  25  43  63  94 134 171 214 268 327 388
#     4  10  23  40  63  93 129 164 213 273 319 373
#     4  12  23  41  71  96 126 173 224 268 324 386
#     4  10  23  42  64  95 130 168 214 270 333 390
#
# _framework density 21.479351999999999
#
# number of rings (size 3 to 8) (size 9 to 14) (size 15 to 20)
#    0.000    1.250    1.250    4.875    1.750    3.000 
#    0.000    0.625    0.000    2.250    0.000    0.000 
#    0.000    0.000    0.000    0.000    0.000    0.000 
#
# Total GULP energy -178761.725601 kJ/mol
# GULP energy per Si atom -5586.303925 kJ/mol
# Density = 2.143046 g / cm^3
# Si number density = 21.479352 Si / 1000 Ang^3
#
#
#
# Elastic Constant Matrix: (Units=GPa)
#
#
# Indices 1 2 3 4 5 6 
#
# 1 134.1497 23.5472 50.7543 0.0000 0.0000 0.0000
# 2 23.5472 35.1176 8.4371 0.0000 0.0000 0.0000
# 3 50.7543 8.4371 85.7273 0.0000 0.0000 0.0000
# 4 0.0000 0.0000 0.0000 17.1665 0.0000 0.0000
# 5 0.0000 0.0000 0.0000 0.0000 32.6707 0.0000
# 6 0.0000 0.0000 0.0000 0.0000 0.0000 29.7416
#
#
#
# Elastic Compliance Matrix: (Units=1/GPa)
#
#
# Indices 1 2 3 4 5 6 
#
# 1 0.010631 -0.005752 -0.005728 0.000000 0.000000 0.000000
# 2 -0.005752 0.032278 0.000229 0.000000 0.000000 0.000000
# 3 -0.005728 0.000229 0.015034 0.000000 0.000000 0.000000
# 4 0.000000 0.000000 0.000000 0.058253 0.000000 0.000000
# 5 0.000000 0.000000 0.000000 0.000000 0.030608 0.000000
# 6 0.000000 0.000000 0.000000 0.000000 0.000000 0.033623
#
#
# Mechanical properties :
#
#
# Convention : Reuss Voigt Hill
#
# Bulk Modulus (GPa) = 28.21687 46.71909 37.46798
# Shear Modulus (GPa) = 23.28363 27.39950 25.34156
#
# Velocity S-wave (km/s) = 3.29599 3.57546 3.43856
# Velocity P-wave (km/s) = 5.25832 6.23242 5.76598
#
# Compressibility (1/GPa) = 0.03543979
#
# Stress axis : x y z
#
# Youngs Moduli (GPa) = 94.06286 30.98101 66.51776
#
# Poissons Ratio (x) = 0.17821 0.38101
# Poissons Ratio (y) = 0.54108 -0.01523
# Poissons Ratio (z) = 0.53879 -0.00709
#
# Static dielectric constant tensor:
#      x y z
#    x 1.822160 0.000000 0.000000 
#    y 0.000000 1.777840 0.000000 
#    z 0.000000 0.000000 1.771030 
# 
# From -- ./inp_files/4303.got.cif
#   From: 2010.05.17/outbox.cif.g08.bks.cpg/sg31_3_cif.got.tgz:4303.got - 2010.06.03 17:08:30.
