data_PCOD9343123
_publ_section_title
;
Structure prediction by ZEFSAII (Michael W. Deem and Ramdas Pophale) SiO2 
 PCOD9343123
Probable space group: P M N 21
;
_chemical_formula_sum "Si O2"
_cell_formula_units_Z 32
_cell_length_a 8.168905
_cell_length_b 11.778497
_cell_length_c 16.565372
_cell_angle_alpha 90.000000
_cell_angle_beta 90.000000
_cell_angle_gamma 90.000000
_cell_volume 1593.877405
_symmetry_space_group_name_H-M "P M N 21"
_symmetry_group_IT_number 31
_symmetry_cell_setting 'orthorhombic'
loop_
_space_group_symop_operation_xyz
x,y,z
1/2-x,-y,1/2+z
-x,y,z
1/2+x,-y,1/2+z
loop_
_atom_site_type_symbol
_atom_site_label
_atom_site_fract_x
_atom_site_fract_y
_atom_site_fract_z
Si Si1 0.311669 0.514751 0.542430
Si Si2 0.697968 0.071902 0.893520
Si Si3 0.805255 0.765619 0.542265
Si Si4 0.308007 0.831780 0.224176
Si Si5 0.692082 0.832040 0.860220
Si Si6 0.698034 0.071611 0.190767
Si Si7 0.195046 0.423834 0.715720
Si Si8 0.695095 0.576405 0.869135
O O1 0.500000 0.479912 0.542625
O O2 0.293027 0.650107 0.542307
O O3 0.235348 0.472738 0.627077
O O4 0.235893 0.472476 0.457729
O O5 0.500000 0.069235 0.879745
O O6 0.783821 0.122730 0.814879
O O7 0.753076 0.942014 0.909999
O O8 0.729806 0.157141 0.965476
O O9 0.769677 0.843207 0.618822
O O10 0.000000 0.737564 0.542438
O O11 0.500000 0.820471 0.204535
O O12 0.236114 0.705521 0.218363
O O13 0.246745 0.941710 0.174436
O O14 0.500000 0.820783 0.879629
O O15 0.716663 0.877430 0.769519
O O16 0.763863 0.705772 0.866284
O O17 0.500000 0.068942 0.204276
O O18 0.250156 0.500126 0.792388
O O19 0.000000 0.418396 0.723395
O O20 0.500000 0.581744 0.861767
#
# Coordination Sequence:
#
# PCOD9343123 Si02
#       8
#     4   4   4   4   4   4   4   4
#     4  12  26  41  58  84 118 155 199 244 287 344
#     4   9  18  33  55  81 108 139 178 226 279 338
#     4  10  20  35  56  80 106 139 181 230 285 340
#     4   9  19  35  55  80 109 143 182 225 278 336
#     4   9  19  35  55  80 109 143 182 225 278 336
#     4   9  18  33  55  81 108 139 178 226 279 338
#     4  11  23  40  62  87 119 157 196 240 290 343
#     4  11  23  40  62  87 119 157 196 240 290 343
#
# _framework density 20.076826000000001
#
# number of rings (size 3 to 8) (size 9 to 14) (size 15 to 20)
#    0.000    2.000    0.000    3.375    0.000    8.000 
#    0.000    3.750    0.000    1.500    0.000    0.000 
#    0.000    0.000    0.000    0.000    0.000    0.000 
#
# Total GULP energy -178422.594629 kJ/mol
# GULP energy per Si atom -5575.706082 kJ/mol
# Density = 2.003113 g / cm^3
# Si number density = 20.076826 Si / 1000 Ang^3
#
#
#
# Elastic Constant Matrix: (Units=GPa)
#
#
# Indices 1 2 3 4 5 6 
#
# 1 19.3966 15.8671 3.3407 0.0000 0.0000 0.0000
# 2 15.8671 172.1805 48.6698 0.0000 0.0000 0.0000
# 3 3.3407 48.6698 73.6417 0.0000 0.0000 0.0000
# 4 0.0000 0.0000 0.0000 26.0540 0.0000 0.0000
# 5 0.0000 0.0000 0.0000 0.0000 24.5269 0.0000
# 6 0.0000 0.0000 0.0000 0.0000 0.0000 23.3015
#
#
#
# Elastic Compliance Matrix: (Units=1/GPa)
#
#
# Indices 1 2 3 4 5 6 
#
# 1 0.055827 -0.005446 0.001067 0.000000 0.000000 0.000000
# 2 -0.005446 0.007673 -0.004824 0.000000 0.000000 0.000000
# 3 0.001067 -0.004824 0.016719 0.000000 0.000000 0.000000
# 4 0.000000 0.000000 0.000000 0.038382 0.000000 0.000000
# 5 0.000000 0.000000 0.000000 0.000000 0.040772 0.000000
# 6 0.000000 0.000000 0.000000 0.000000 0.000000 0.042916
#
#
# Mechanical properties :
#
#
# Convention : Reuss Voigt Hill
#
# Bulk Modulus (GPa) = 16.17803 44.55267 30.36535
# Shear Modulus (GPa) = 20.72108 27.93255 24.32681
#
# Velocity S-wave (km/s) = 3.21610 3.73404 3.48470
# Velocity P-wave (km/s) = 4.67618 6.38983 5.59896
#
# Compressibility (1/GPa) = 0.06181223
#
# Stress axis : x y z
#
# Youngs Moduli (GPa) = 17.91251 130.32000 59.81134
#
# Poissons Ratio (x) = 0.70975 -0.06381
# Poissons Ratio (y) = 0.09756 0.28855
# Poissons Ratio (z) = -0.01911 0.62870
#
# Static dielectric constant tensor:
#      x y z
#    x 1.747640 0.000000 0.000000 
#    y 0.000000 1.751480 0.000000 
#    z 0.000000 0.000000 1.718390 
# 
# From -- ./inp_files/5105.got.cif
#   From: 2010.05.17/outbox.cif.g08.bks.cpg/sg31_3_cif.got.tgz:5105.got - 2010.06.03 17:08:30.
