data_PCOD9343394
_publ_section_title
;
Structure prediction by ZEFSAII (Michael W. Deem and Ramdas Pophale) SiO2 
 PCOD9343394
Probable space group: P M N 21
;
_chemical_formula_sum "Si O2"
_cell_formula_units_Z 24
_cell_length_a 8.843185
_cell_length_b 9.700644
_cell_length_c 15.194663
_cell_angle_alpha 90.000000
_cell_angle_beta 90.000000
_cell_angle_gamma 90.000000
_cell_volume 1303.467928
_symmetry_space_group_name_H-M "P M N 21"
_symmetry_group_IT_number 31
_symmetry_cell_setting 'orthorhombic'
loop_
_space_group_symop_operation_xyz
x,y,z
1/2-x,-y,1/2+z
-x,y,z
1/2+x,-y,1/2+z
loop_
_atom_site_type_symbol
_atom_site_label
_atom_site_fract_x
_atom_site_fract_y
_atom_site_fract_z
Si Si1 0.679632 0.154785 0.224280
Si Si2 0.681061 0.148664 0.726417
Si Si3 0.319862 0.650270 0.871793
Si Si4 0.180704 0.655857 0.062179
Si Si5 0.680014 0.649494 0.368839
Si Si6 0.178897 0.339387 0.076322
O O1 0.500000 0.146702 0.232391
O O2 0.748100 0.240171 0.305646
O O3 0.726442 0.238427 0.136945
O O4 0.750101 0.002951 0.221957
O O5 0.500000 0.141531 0.735519
O O6 0.714797 0.234292 0.637470
O O7 0.750647 0.234291 0.807018
O O8 0.500000 0.650987 0.864087
O O9 0.256791 0.497847 0.850115
O O10 0.268484 0.680596 0.971698
O O11 0.214993 0.500217 0.094363
O O12 0.000000 0.658160 0.043287
O O13 0.500000 0.637765 0.355186
O O14 0.704587 0.681344 0.472239
O O15 0.000000 0.318686 0.094278
#
# Coordination Sequence:
#
# PCOD9343394 Si02
#       6
#     4   4   4   4   4   4
#     4  12  25  39  57  83 118 157 196 239 288 343
#     4  11  23  39  60  86 119 156 193 236 288 345
#     4  11  22  38  62  88 115 150 195 242 286 339
#     4   9  20  39  62  87 115 148 188 238 293 343
#     4  10  21  39  63  89 118 151 190 237 288 342
#     4   9  19  38  62  87 115 148 188 236 289 342
#
# _framework density 18.412420999999998
#
# number of rings (size 3 to 8) (size 9 to 14) (size 15 to 20)
#    0.000    1.667    0.000    6.000    0.000    7.333 
#    0.000    1.667    0.000    0.000    0.000    0.000 
#    0.000    0.000    0.000    0.000    0.000    0.000 
#
# Total GULP energy -134184.035126 kJ/mol
# GULP energy per Si atom -5591.001464 kJ/mol
# Density = 1.837051 g / cm^3
# Si number density = 18.412421 Si / 1000 Ang^3
#
#
#
# Elastic Constant Matrix: (Units=GPa)
#
#
# Indices 1 2 3 4 5 6 
#
# 1 122.9183 96.3759 82.0329 0.0000 0.0000 0.0000
# 2 96.3759 171.2688 105.4004 0.0000 0.0000 0.0000
# 3 82.0329 105.4004 96.9472 0.0000 0.0000 0.0000
# 4 0.0000 0.0000 0.0000 -39.0934 0.0000 0.0000
# 5 0.0000 0.0000 0.0000 0.0000 35.1093 0.0000
# 6 0.0000 0.0000 0.0000 0.0000 0.0000 33.8008
#
#
#
# Elastic Compliance Matrix: (Units=1/GPa)
#
#
# Indices 1 2 3 4 5 6 
#
# 1 0.019014 -0.002412 -0.013466 0.000000 0.000000 0.000000
# 2 -0.002412 0.017949 -0.017473 0.000000 0.000000 0.000000
# 3 -0.013466 -0.017473 0.040707 0.000000 0.000000 0.000000
# 4 0.000000 0.000000 0.000000 -0.025580 0.000000 0.000000
# 5 0.000000 0.000000 0.000000 0.000000 0.028482 0.000000
# 6 0.000000 0.000000 0.000000 0.000000 0.000000 0.029585
#
#
# Mechanical properties :
#
#
# Convention : Reuss Voigt Hill
#
# Bulk Modulus (GPa) = 91.19043 106.52808 98.85925
# Shear Modulus (GPa) = 27.69821 13.11834 20.40828
#
# Velocity S-wave (km/s) = 3.88277 2.67211 3.33287
# Velocity P-wave (km/s) = 8.35076 8.21599 8.28365
#
# Compressibility (1/GPa) = 0.01096606
#
# Stress axis : x y z
#
# Youngs Moduli (GPa) = 52.59313 55.71195 24.56603
#
# Poissons Ratio (x) = 0.13439 0.33081
# Poissons Ratio (y) = 0.12686 0.42925
# Poissons Ratio (z) = 0.70824 0.97348
#
# Static dielectric constant tensor:
#      x y z
#    x 1.620870 0.000000 0.000000 
#    y 0.000000 1.600120 0.000000 
#    z 0.000000 0.000000 1.619410 
# 
# From -- ./inp_files/4755.got.cif
#   From: 2010.05.17/outbox.cif.g08.bks.cpg/sg31_3_cif.got.tgz:4755.got - 2010.06.03 17:08:30.
