data_PCOD9343666
_publ_section_title
;
Structure prediction by ZEFSAII (Michael W. Deem and Ramdas Pophale) SiO2 
 PCOD9343666
Probable space group: P B A 2
;
_chemical_formula_sum "Si O2"
_cell_formula_units_Z 32
_cell_length_a 9.217058
_cell_length_b 20.569917
_cell_length_c 8.608107
_cell_angle_alpha 90.000000
_cell_angle_beta 90.000000
_cell_angle_gamma 90.000000
_cell_volume 1632.046455
_symmetry_space_group_name_H-M "P B A 2"
_symmetry_group_IT_number 32
_symmetry_cell_setting 'orthorhombic'
loop_
_space_group_symop_operation_xyz
x,y,z
-x,-y,z
1/2-x,1/2+y,z
1/2+x,1/2-y,z
loop_
_atom_site_type_symbol
_atom_site_label
_atom_site_fract_x
_atom_site_fract_y
_atom_site_fract_z
Si Si1 0.336957 0.071316 0.211190
Si Si2 0.225115 0.317295 0.315099
Si Si3 0.042996 0.747476 0.909556
Si Si4 0.122319 0.369723 0.793483
Si Si5 0.191643 0.199018 0.091178
Si Si6 0.064747 0.641720 0.507375
Si Si7 0.853115 0.218910 0.607390
Si Si8 0.670406 0.067535 0.095838
O O1 0.243979 0.128072 0.133889
O O2 0.356528 0.091474 0.392224
O O3 0.499048 0.071547 0.138729
O O4 0.277501 0.000426 0.168655
O O5 0.214585 0.247724 0.233871
O O6 0.354111 0.315151 0.440836
O O7 0.241769 0.372882 0.187791
O O8 0.072636 0.330005 0.407167
O O9 0.022964 0.776293 0.737259
O O10 0.958480 0.679636 0.910124
O O11 0.205556 0.728351 0.955088
O O12 0.971957 0.794536 0.033738
O O13 0.237280 0.324889 0.702009
O O14 0.006762 0.390106 0.661342
O O15 0.185390 0.423679 0.909846
O O16 0.160493 0.703881 0.563733
#
# Coordination Sequence:
#
# PCOD9343666 Si02
#       8
#     4   4   4   4   4   4   4   4
#     4  10  20  35  56  84 122 154 197 251 292 360
#     4  10  19  33  56  83 116 147 194 241 298 358
#     4  11  20  33  55  86 115 144 189 245 295 345
#     4  10  18  33  55  82 117 150 186 235 304 358
#     4  12  20  35  59  89 112 151 196 250 295 345
#     4   9  19  33  53  88 118 144 191 245 305 349
#     4  10  19  32  55  84 113 150 187 241 295 356
#     4  10  19  36  56  85 120 156 198 244 302 359
#
# _framework density 19.607285000000001
#
# number of rings (size 3 to 8) (size 9 to 14) (size 15 to 20)
#    0.000    1.750    5.000    0.750    0.000    0.000 
#    0.000    7.500    0.000    3.000    3.250    0.000 
#    0.000    0.000    0.000    0.000    0.000    0.000 
#
# Total GULP energy -178166.266190 kJ/mol
# GULP energy per Si atom -5567.695818 kJ/mol
# Density = 1.956266 g / cm^3
# Si number density = 19.607285 Si / 1000 Ang^3
#
#
#
# Elastic Constant Matrix: (Units=GPa)
#
#
# Indices 1 2 3 4 5 6 
#
# 1 15.4261 23.2636 5.1511 0.0000 0.0000 0.0000
# 2 23.2636 90.3501 58.8714 0.0000 0.0000 0.0000
# 3 5.1511 58.8714 125.5071 0.0000 0.0000 0.0000
# 4 0.0000 0.0000 0.0000 28.0097 0.0000 0.0000
# 5 0.0000 0.0000 0.0000 0.0000 28.4574 0.0000
# 6 0.0000 0.0000 0.0000 0.0000 0.0000 21.1906
#
#
#
# Elastic Compliance Matrix: (Units=1/GPa)
#
#
# Indices 1 2 3 4 5 6 
#
# 1 0.120672 -0.040100 0.013857 0.000000 0.000000 0.000000
# 2 -0.040100 0.029266 -0.012082 0.000000 0.000000 0.000000
# 3 0.013857 -0.012082 0.013066 0.000000 0.000000 0.000000
# 4 0.000000 0.000000 0.000000 0.035702 0.000000 0.000000
# 5 0.000000 0.000000 0.000000 0.000000 0.035140 0.000000
# 6 0.000000 0.000000 0.000000 0.000000 0.000000 0.047191
#
#
# Mechanical properties :
#
#
# Convention : Reuss Voigt Hill
#
# Bulk Modulus (GPa) = 11.58021 45.09505 28.33763
# Shear Modulus (GPa) = 12.93756 25.13135 19.03446
#
# Velocity S-wave (km/s) = 2.57151 3.58402 3.11912
# Velocity P-wave (km/s) = 3.83872 6.33845 5.23984
#
# Compressibility (1/GPa) = 0.08635422
#
# Stress axis : x y z
#
# Youngs Moduli (GPa) = 8.28690 34.16980 76.53372
#
# Poissons Ratio (x) = 1.37022 -1.06054
# Poissons Ratio (y) = 0.33231 0.92466
# Poissons Ratio (z) = -0.11483 0.41283
#
# Static dielectric constant tensor:
#      x y z
#    x 1.749090 0.000000 0.000000 
#    y 0.000000 1.690790 0.000000 
#    z 0.000000 0.000000 1.734340 
# 
# From -- ./inp_files/2905.got.cif
#   From: 2010.05.17/outbox.cif.g08.bks.cpg/sg32_2_cif.got.tgz:2905.got - 2010.06.03 17:12:27.
