data_PCOD9343526
_publ_section_title
;
Structure prediction by ZEFSAII (Michael W. Deem and Ramdas Pophale) SiO2 
 PCOD9343526
Probable space group: P M N 21
;
_chemical_formula_sum "Si O2"
_cell_formula_units_Z 24
_cell_length_a 10.427621
_cell_length_b 12.406505
_cell_length_c 7.824778
_cell_angle_alpha 90.000000
_cell_angle_beta 90.000000
_cell_angle_gamma 90.000000
_cell_volume 1012.294128
_symmetry_space_group_name_H-M "P M N 21"
_symmetry_group_IT_number 31
_symmetry_cell_setting 'orthorhombic'
loop_
_space_group_symop_operation_xyz
x,y,z
1/2-x,-y,1/2+z
-x,y,z
1/2+x,-y,1/2+z
loop_
_atom_site_type_symbol
_atom_site_label
_atom_site_fract_x
_atom_site_fract_y
_atom_site_fract_z
Si Si1 0.000000 0.521394 0.772120
Si Si2 0.000000 0.416768 0.249830
Si Si3 0.000000 0.293439 0.886039
Si Si4 0.856898 0.987916 0.084084
Si Si5 0.770676 0.771445 0.267762
Si Si6 0.143466 0.868209 0.721117
Si Si7 0.230410 0.652919 0.903790
Si Si8 0.500000 0.360869 0.908237
O O1 0.000000 0.393907 0.755567
O O2 0.127056 0.558788 0.873688
O O3 0.000000 0.577596 0.587885
O O4 0.129577 0.382246 0.345500
O O5 0.000000 0.546949 0.260731
O O6 0.000000 0.353751 0.069159
O O7 0.129327 0.228110 0.848936
O O8 0.820720 0.887601 0.206749
O O9 0.000000 0.027793 0.126662
O O10 0.749751 0.078068 0.104266
O O11 0.857702 0.938800 0.894948
O O12 0.874103 0.712053 0.386221
O O13 0.767085 0.699355 0.094544
O O14 0.181516 0.750039 0.783542
O O15 0.000000 0.870742 0.649503
#
# Coordination Sequence:
#
# PCOD9343526 Si02
#       8
#     2   2   2   4   4   4   4   2
#     4  12  24  42  67  96 127 168 215 262 318 378
#     4  12  26  42  63  96 131 168 213 264 316 378
#     4  12  26  42  63  96 131 168 213 264 316 378
#     4  10  23  43  66  94 127 166 208 258 316 374
#     4  11  23  44  67  92 129 171 213 263 318 375
#     4  10  23  43  66  94 127 166 208 258 316 374
#     4  11  23  44  67  92 129 171 213 263 318 375
#     4  12  24  42  67  96 127 168 215 262 318 378
#
# _framework density 23.708523
#
# number of rings (size 3 to 8) (size 9 to 14) (size 15 to 20)
#    0.000    1.000    1.667    5.000    2.333    3.333 
#    0.000    0.000    0.000    0.000    0.000    0.000 
#    0.000    0.000    0.000    0.000    0.000    0.000 
#
# Total GULP energy -134630.377915 kJ/mol
# GULP energy per Si atom -5609.599080 kJ/mol
# Density = 2.365456 g / cm^3
# Si number density = 23.708523 Si / 1000 Ang^3
#
#
#
# Elastic Constant Matrix: (Units=GPa)
#
#
# Indices 1 2 3 4 5 6 
#
# 1 237.3029 53.0316 44.4706 0.0000 0.0000 0.0000
# 2 53.0316 65.6919 8.3722 0.0000 0.0000 0.0000
# 3 44.4706 8.3722 107.3792 0.0000 0.0000 0.0000
# 4 0.0000 0.0000 0.0000 44.5393 0.0000 0.0000
# 5 0.0000 0.0000 0.0000 0.0000 36.0211 0.0000
# 6 0.0000 0.0000 0.0000 0.0000 0.0000 41.3560
#
#
#
# Elastic Compliance Matrix: (Units=1/GPa)
#
#
# Indices 1 2 3 4 5 6 
#
# 1 0.005521 -0.004208 -0.001959 0.000000 0.000000 0.000000
# 2 -0.004208 0.018582 0.000294 0.000000 0.000000 0.000000
# 3 -0.001959 0.000294 0.010101 0.000000 0.000000 0.000000
# 4 0.000000 0.000000 0.000000 0.022452 0.000000 0.000000
# 5 0.000000 0.000000 0.000000 0.000000 0.027762 0.000000
# 6 0.000000 0.000000 0.000000 0.000000 0.000000 0.024180
#
#
# Mechanical properties :
#
#
# Convention : Reuss Voigt Hill
#
# Bulk Modulus (GPa) = 44.52485 69.12474 56.82479
# Shear Modulus (GPa) = 39.11456 44.68324 41.89890
#
# Velocity S-wave (km/s) = 4.06619 4.34601 4.20843
# Velocity P-wave (km/s) = 6.39266 7.37585 6.90178
#
# Compressibility (1/GPa) = 0.02245937
#
# Stress axis : x y z
#
# Youngs Moduli (GPa) = 181.11414 53.81578 98.99984
#
# Poissons Ratio (x) = 0.22644 0.19390
# Poissons Ratio (y) = 0.76207 -0.02909
# Poissons Ratio (z) = 0.35473 -0.01581
#
# Static dielectric constant tensor:
#      x y z
#    x 1.847720 0.000000 0.000000 
#    y 0.000000 1.855960 0.000000 
#    z 0.000000 0.000000 1.927290 
# 
# From -- ./inp_files/1748.got.cif
#   From: 2010.05.17/outbox.cif.g08.bks.cpg/sg31_1_cif.got.tgz:1748.got - 2010.06.03 17:08:30.
