data_PCOD9343900
_publ_section_title
;
Structure prediction by ZEFSAII (Michael W. Deem and Ramdas Pophale) SiO2 
 PCOD9343900
Probable space group: P B A 2
;
_chemical_formula_sum "Si O2"
_cell_formula_units_Z 28
_cell_length_a 6.899764
_cell_length_b 28.917272
_cell_length_c 5.465202
_cell_angle_alpha 90.000000
_cell_angle_beta 90.000000
_cell_angle_gamma 90.000000
_cell_volume 1090.429959
_symmetry_space_group_name_H-M "P B A 2"
_symmetry_group_IT_number 32
_symmetry_cell_setting 'orthorhombic'
loop_
_space_group_symop_operation_xyz
x,y,z
-x,-y,z
1/2-x,1/2+y,z
1/2+x,1/2-y,z
loop_
_atom_site_type_symbol
_atom_site_label
_atom_site_fract_x
_atom_site_fract_y
_atom_site_fract_z
Si Si1 0.214629 0.035393 0.643410
Si Si2 0.850986 0.569968 0.660181
Si Si3 0.088212 0.391453 0.165618
Si Si4 0.496907 0.292050 0.572214
Si Si5 0.121638 0.698535 0.356635
Si Si6 0.523335 0.320441 0.086827
Si Si7 0.660853 0.425542 0.136891
O O1 0.414471 0.064909 0.646793
O O2 0.110884 0.049770 0.391772
O O3 0.273296 0.982085 0.663204
O O4 0.103458 0.048702 0.889827
O O5 0.793147 0.592094 0.401552
O O6 0.811070 0.600422 0.903112
O O7 0.002566 0.341693 0.237985
O O8 0.896393 0.423786 0.144936
O O9 0.495960 0.238026 0.499460
O O10 0.397691 0.312454 0.330573
O O11 0.713033 0.315059 0.557951
O O12 0.425726 0.303936 0.839154
O O13 0.280672 0.710424 0.141719
O O14 0.591455 0.373051 0.101851
#
# Coordination Sequence:
#
# PCOD9343900 Si02
#       7
#     4   4   4   4   4   4   4
#     4   9  15  22  37  55  86 115 159 179 221 271
#     4   9  16  24  35  59  82 121 153 185 216 286
#     4   9  17  25  41  54  88 115 160 180 237 280
#     4  10  21  32  52  68  95 123 173 204 254 290
#     4   9  22  33  51  70  94 130 166 209 249 298
#     4   9  20  31  49  68  96 126 169 199 253 295
#     4   9  15  25  39  58  84 121 154 185 225 289
#
# _framework density 25.677948000000001
#
# number of rings (size 3 to 8) (size 9 to 14) (size 15 to 20)
#    0.857    2.000    0.000    1.714    8.000    3.429 
#    0.000    0.000    0.000    0.000    0.000    0.000 
#    0.000    0.000    0.000   19.286   17.143    1.286 
#
# Total GULP energy -156175.909016 kJ/mol
# GULP energy per Si atom -5577.711036 kJ/mol
# Density = 2.561950 g / cm^3
# Si number density = 25.677948 Si / 1000 Ang^3
#
#
#
# Elastic Constant Matrix: (Units=GPa)
#
#
# Indices 1 2 3 4 5 6 
#
# 1 77.4012 8.2957 20.3140 0.0000 0.0000 0.0000
# 2 8.2957 70.7073 64.5527 0.0000 0.0000 0.0000
# 3 20.3140 64.5527 257.0866 0.0000 0.0000 0.0000
# 4 0.0000 0.0000 0.0000 34.4368 0.0000 0.0000
# 5 0.0000 0.0000 0.0000 0.0000 -15.4560 0.0000
# 6 0.0000 0.0000 0.0000 0.0000 0.0000 27.0152
#
#
#
# Elastic Compliance Matrix: (Units=1/GPa)
#
#
# Indices 1 2 3 4 5 6 
#
# 1 0.013226 -0.000775 -0.000850 0.000000 0.000000 0.000000
# 2 -0.000775 0.018395 -0.004557 0.000000 0.000000 0.000000
# 3 -0.000850 -0.004557 0.005101 0.000000 0.000000 0.000000
# 4 0.000000 0.000000 0.000000 0.029039 0.000000 0.000000
# 5 0.000000 0.000000 0.000000 0.000000 -0.064700 0.000000
# 6 0.000000 0.000000 0.000000 0.000000 0.000000 0.037016
#
#
# Mechanical properties :
#
#
# Convention : Reuss Voigt Hill
#
# Bulk Modulus (GPa) = 41.05871 65.72443 53.39157
# Shear Modulus (GPa) = 85.37979 30.00138 57.69059
#
# Velocity S-wave (km/s) = 5.77256 3.42185 4.74508
# Velocity P-wave (km/s) = 7.77525 6.42365 7.13154
#
# Compressibility (1/GPa) = 0.02435537
#
# Stress axis : x y z
#
# Youngs Moduli (GPa) = 75.60873 54.36389 196.02905
#
# Poissons Ratio (x) = 0.04215 0.16670
# Poissons Ratio (y) = 0.05863 0.89340
# Poissons Ratio (z) = 0.06430 0.24776
#
# Static dielectric constant tensor:
#      x y z
#    x 2.024700 0.000000 0.000000 
#    y 0.000000 2.601550 0.000000 
#    z 0.000000 0.000000 2.087740 
# 
# From -- ./inp_files/1060.got.cif
#   From: 2010.05.17/outbox.cif.g08.bks.cpg/sg32_1_cif.got.tgz:1060.got - 2010.06.03 17:12:27.
