data_PCOD9343066
_publ_section_title
;
Structure prediction by ZEFSAII (Michael W. Deem and Ramdas Pophale) SiO2 
 PCOD9343066
Probable space group: P M N 21
;
_chemical_formula_sum "Si O2"
_cell_formula_units_Z 28
_cell_length_a 20.165294
_cell_length_b 11.101627
_cell_length_c 6.976827
_cell_angle_alpha 90.000000
_cell_angle_beta 90.000000
_cell_angle_gamma 90.000000
_cell_volume 1561.885323
_symmetry_space_group_name_H-M "P M N 21"
_symmetry_group_IT_number 31
_symmetry_cell_setting 'orthorhombic'
loop_
_space_group_symop_operation_xyz
x,y,z
1/2-x,-y,1/2+z
-x,y,z
1/2+x,-y,1/2+z
loop_
_atom_site_type_symbol
_atom_site_label
_atom_site_fract_x
_atom_site_fract_y
_atom_site_fract_z
Si Si1 0.817387 0.003386 0.184460
Si Si2 0.156115 0.265763 0.028270
Si Si3 0.684775 0.608327 0.138100
Si Si4 0.828292 0.906001 0.799577
Si Si5 0.921473 0.032997 0.512747
Si Si6 0.223144 0.650259 0.788189
Si Si7 0.425739 0.689069 0.876027
O O1 0.741423 0.026483 0.246930
O O2 0.868807 0.984404 0.355872
O O3 0.836559 0.124768 0.069910
O O4 0.827117 0.901754 0.028696
O O5 0.164988 0.300458 0.808427
O O6 0.215159 0.328622 0.145820
O O7 0.091347 0.302820 0.150065
O O8 0.694706 0.479562 0.236680
O O9 0.747183 0.648001 0.005257
O O10 0.625276 0.605286 0.986421
O O11 0.822916 0.765611 0.743335
O O12 0.889156 0.979447 0.706767
O O13 0.917654 0.177157 0.471379
O O14 0.000000 0.002089 0.494749
O O15 0.500000 0.649343 0.905124
#
# Coordination Sequence:
#
# PCOD9343066 Si02
#       7
#     4   4   4   4   4   4   4
#     4  10  20  33  56  86 114 148 187 233 282 342
#     4   9  19  33  54  78 113 142 182 231 287 333
#     4  11  19  36  56  80 112 151 184 239 287 331
#     4  11  21  34  56  87 115 151 188 236 284 344
#     4  10  21  39  58  85 121 152 185 232 291 351
#     4  10  22  33  53  83 113 145 192 232 285 341
#     4   9  20  36  57  85 111 143 190 235 281 342
#
# _framework density 17.927050999999999
#
# number of rings (size 3 to 8) (size 9 to 14) (size 15 to 20)
#    0.000    2.000    2.857    1.714    2.000    1.143 
#    0.000    3.571    0.000    0.000    0.000    0.000 
#    0.000    0.000    0.000    0.000    0.000    0.000 
#
# Total GULP energy -155897.087518 kJ/mol
# GULP energy per Si atom -5567.753126 kJ/mol
# Density = 1.788625 g / cm^3
# Si number density = 17.927051 Si / 1000 Ang^3
#
#
#
# Elastic Constant Matrix: (Units=GPa)
#
#
# Indices 1 2 3 4 5 6 
#
# 1 76.2018 27.0562 20.6912 0.0000 0.0000 0.0000
# 2 27.0562 18.8967 5.0308 0.0000 0.0000 0.0000
# 3 20.6912 5.0308 79.0013 0.0000 0.0000 0.0000
# 4 0.0000 0.0000 0.0000 26.8282 0.0000 0.0000
# 5 0.0000 0.0000 0.0000 0.0000 22.1744 0.0000
# 6 0.0000 0.0000 0.0000 0.0000 0.0000 15.5839
#
#
#
# Elastic Compliance Matrix: (Units=1/GPa)
#
#
# Indices 1 2 3 4 5 6 
#
# 1 0.028474 -0.039452 -0.004945 0.000000 0.000000 0.000000
# 2 -0.039452 0.108494 0.003424 0.000000 0.000000 0.000000
# 3 -0.004945 0.003424 0.013735 0.000000 0.000000 0.000000
# 4 0.000000 0.000000 0.000000 0.037274 0.000000 0.000000
# 5 0.000000 0.000000 0.000000 0.000000 0.045097 0.000000
# 6 0.000000 0.000000 0.000000 0.000000 0.000000 0.064169
#
#
# Mechanical properties :
#
#
# Convention : Reuss Voigt Hill
#
# Bulk Modulus (GPa) = 14.54398 31.07292 22.80845
# Shear Modulus (GPa) = 12.43446 21.00540 16.71993
#
# Velocity S-wave (km/s) = 2.63651 3.42675 3.05727
# Velocity P-wave (km/s) = 4.17118 5.74695 5.02126
#
# Compressibility (1/GPa) = 0.06875698
#
# Stress axis : x y z
#
# Youngs Moduli (GPa) = 35.12031 9.21706 72.80570
#
# Poissons Ratio (x) = 0.36363 0.36004
# Poissons Ratio (y) = 1.38556 -0.24927
# Poissons Ratio (z) = 0.17368 -0.03156
#
# Static dielectric constant tensor:
#      x y z
#    x 1.611120 0.000000 0.000000 
#    y 0.000000 1.630030 0.000000 
#    z 0.000000 0.000000 1.665210 
# 
# From -- ./inp_files/970.got.cif
#   From: 2010.05.17/outbox.cif.g08.bks.cpg/sg31_1_cif.got.tgz:970.got - 2010.06.03 17:08:30.
