data_PCOD9343668
_publ_section_title
;
Structure prediction by ZEFSAII (Michael W. Deem and Ramdas Pophale) SiO2 
 PCOD9343668
Probable space group: P B A 2
;
_chemical_formula_sum "Si O2"
_cell_formula_units_Z 22
_cell_length_a 14.333115
_cell_length_b 9.188151
_cell_length_c 8.352091
_cell_angle_alpha 90.000000
_cell_angle_beta 90.000000
_cell_angle_gamma 90.000000
_cell_volume 1099.927162
_symmetry_space_group_name_H-M "P B A 2"
_symmetry_group_IT_number 32
_symmetry_cell_setting 'orthorhombic'
loop_
_space_group_symop_operation_xyz
x,y,z
-x,-y,z
1/2-x,1/2+y,z
1/2+x,1/2-y,z
loop_
_atom_site_type_symbol
_atom_site_label
_atom_site_fract_x
_atom_site_fract_y
_atom_site_fract_z
Si Si1 0.000000 0.500000 0.237880
Si Si2 0.680200 0.943404 0.773856
Si Si3 0.706002 0.647109 0.196638
Si Si4 0.659111 0.258722 0.928300
Si Si5 0.546571 0.748049 0.984023
Si Si6 0.314595 0.071747 0.395745
O O1 0.090929 0.487524 0.347313
O O2 0.019631 0.633819 0.119960
O O3 0.772118 0.880642 0.859978
O O4 0.598237 0.838912 0.843374
O O5 0.661275 0.109786 0.823891
O O6 0.695103 0.932705 0.584969
O O7 0.733605 0.503065 0.290882
O O8 0.679620 0.764913 0.330759
O O9 0.794970 0.705312 0.095492
O O10 0.621709 0.643230 0.068860
O O11 0.553125 0.313184 0.933897
#
# Coordination Sequence:
#
# PCOD9343668 Si02
#       6
#     2   4   4   4   4   4
#     4  10  18  34  62  84 112 158 210 234 294 370
#     4  11  23  36  63  91 124 159 203 261 316 356
#     4  10  21  39  63  85 122 160 208 242 309 365
#     4  11  20  40  61  86 119 162 211 249 302 376
#     4  10  19  37  63  88 114 167 210 246 292 389
#     4  11  22  38  59  94 124 155 200 265 307 358
#
# _framework density 20.001325000000001
#
# number of rings (size 3 to 8) (size 9 to 14) (size 15 to 20)
#    0.000    1.455    3.636    3.273    2.545    0.000 
#    0.000    8.182    0.000    4.364    0.000    0.000 
#    0.000    0.000    0.000    0.000    0.000    0.000 
#
# Total GULP energy -122869.285314 kJ/mol
# GULP energy per Si atom -5584.967514 kJ/mol
# Density = 1.995580 g / cm^3
# Si number density = 20.001325 Si / 1000 Ang^3
#
#
#
# Elastic Constant Matrix: (Units=GPa)
#
#
# Indices 1 2 3 4 5 6 
#
# 1 133.7012 21.0951 11.3375 0.0000 0.0000 0.0000
# 2 21.0951 47.8549 19.1298 0.0000 0.0000 0.0000
# 3 11.3375 19.1298 93.7259 0.0000 0.0000 0.0000
# 4 0.0000 0.0000 0.0000 17.6452 0.0000 0.0000
# 5 0.0000 0.0000 0.0000 0.0000 17.0675 0.0000
# 6 0.0000 0.0000 0.0000 0.0000 0.0000 23.9797
#
#
#
# Elastic Compliance Matrix: (Units=1/GPa)
#
#
# Indices 1 2 3 4 5 6 
#
# 1 0.008045 -0.003438 -0.000271 0.000000 0.000000 0.000000
# 2 -0.003438 0.024222 -0.004528 0.000000 0.000000 0.000000
# 3 -0.000271 -0.004528 0.011626 0.000000 0.000000 0.000000
# 4 0.000000 0.000000 0.000000 0.056673 0.000000 0.000000
# 5 0.000000 0.000000 0.000000 0.000000 0.058591 0.000000
# 6 0.000000 0.000000 0.000000 0.000000 0.000000 0.041702
#
#
# Mechanical properties :
#
#
# Convention : Reuss Voigt Hill
#
# Bulk Modulus (GPa) = 36.47127 42.04520 39.25823
# Shear Modulus (GPa) = 22.07771 26.65310 24.36540
#
# Velocity S-wave (km/s) = 3.32597 3.65439 3.49404
# Velocity P-wave (km/s) = 5.74660 6.23482 5.99568
#
# Compressibility (1/GPa) = 0.02741884
#
# Stress axis : x y z
#
# Youngs Moduli (GPa) = 124.30412 41.28488 86.01105
#
# Poissons Ratio (x) = 0.14193 0.02335
# Poissons Ratio (y) = 0.42733 0.38945
# Poissons Ratio (z) = 0.03375 0.18694
#
# Static dielectric constant tensor:
#      x y z
#    x 1.750660 0.000000 0.000000 
#    y 0.000000 1.733580 0.000000 
#    z 0.000000 0.000000 1.671710 
# 
# From -- ./inp_files/2269.got.cif
#   From: 2010.05.17/outbox.cif.g08.bks.cpg/sg32_2_cif.got.tgz:2269.got - 2010.06.03 17:12:27.
