data_PCOD9343269
_publ_section_title
;
Structure prediction by ZEFSAII (Michael W. Deem and Ramdas Pophale) SiO2 
 PCOD9343269
Probable space group: P M N 21
;
_chemical_formula_sum "Si O2"
_cell_formula_units_Z 32
_cell_length_a 8.738156
_cell_length_b 11.623391
_cell_length_c 16.593505
_cell_angle_alpha 90.000000
_cell_angle_beta 90.000000
_cell_angle_gamma 90.000000
_cell_volume 1685.352586
_symmetry_space_group_name_H-M "P M N 21"
_symmetry_group_IT_number 31
_symmetry_cell_setting 'orthorhombic'
loop_
_space_group_symop_operation_xyz
x,y,z
1/2-x,-y,1/2+z
-x,y,z
1/2+x,-y,1/2+z
loop_
_atom_site_type_symbol
_atom_site_label
_atom_site_fract_x
_atom_site_fract_y
_atom_site_fract_z
Si Si1 0.323434 0.263284 0.081060
Si Si2 0.670481 0.597296 0.708796
Si Si3 0.814031 0.319317 0.505725
Si Si4 0.815789 0.066660 0.189628
Si Si5 0.322309 0.789109 0.841550
Si Si6 0.823092 0.640216 0.289855
Si Si7 0.181639 0.433377 0.957896
Si Si8 0.682869 0.814066 0.170010
O O1 0.500000 0.243504 0.061714
O O2 0.302042 0.358311 0.151228
O O3 0.247894 0.150861 0.120310
O O4 0.235526 0.321835 0.007766
O O5 0.500000 0.624710 0.674385
O O6 0.680309 0.669729 0.791277
O O7 0.678148 0.463936 0.726084
O O8 0.758655 0.240944 0.429672
O O9 0.750565 0.448393 0.494391
O O10 0.772638 0.258222 0.589825
O O11 0.000000 0.326636 0.501470
O O12 0.500000 0.927435 0.689946
O O13 0.760319 0.117925 0.276824
O O14 0.759005 0.938936 0.173256
O O15 0.500000 0.821378 0.854491
O O16 0.744186 0.589085 0.368661
O O17 0.736290 0.744995 0.248826
O O18 0.000000 0.669390 0.307337
O O19 0.000000 0.443330 0.958318
O O20 0.500000 0.826013 0.168869
#
# Coordination Sequence:
#
# PCOD9343269 Si02
#       8
#     4   4   4   4   4   4   4   4
#     4  11  22  37  60  88 119 156 198 244 300 360
#     4   9  17  33  59  87 118 152 193 240 295 357
#     4  10  20  39  64  91 122 157 202 251 306 367
#     4  10  21  41  64  85 117 161 209 254 303 361
#     4   8  15  33  61  88 112 150 198 246 296 355
#     4  11  22  39  61  84 120 164 201 243 301 366
#     4  12  24  38  59  92 127 155 197 250 306 366
#     4  11  24  40  60  89 125 163 206 258 307 362
#
# _framework density 18.987126
#
# number of rings (size 3 to 8) (size 9 to 14) (size 15 to 20)
#    0.000    1.750    1.250    4.875    0.000    4.000 
#    2.250    0.625    0.000    0.000    0.000    0.000 
#    0.000    0.000    0.000    0.000    0.000    0.000 
#
# Total GULP energy -178559.393726 kJ/mol
# GULP energy per Si atom -5579.981054 kJ/mol
# Density = 1.894391 g / cm^3
# Si number density = 18.987126 Si / 1000 Ang^3
#
#
#
# Elastic Constant Matrix: (Units=GPa)
#
#
# Indices 1 2 3 4 5 6 
#
# 1 66.6803 34.1420 24.9815 0.0000 0.0000 0.0000
# 2 34.1420 121.0865 48.3379 0.0000 0.0000 0.0000
# 3 24.9815 48.3379 61.6255 0.0000 0.0000 0.0000
# 4 0.0000 0.0000 0.0000 24.9472 0.0000 0.0000
# 5 0.0000 0.0000 0.0000 0.0000 24.1884 0.0000
# 6 0.0000 0.0000 0.0000 0.0000 0.0000 27.9863
#
#
#
# Elastic Compliance Matrix: (Units=1/GPa)
#
#
# Indices 1 2 3 4 5 6 
#
# 1 0.018515 -0.003238 -0.004966 0.000000 0.000000 0.000000
# 2 -0.003238 0.012590 -0.008562 0.000000 0.000000 0.000000
# 3 -0.004966 -0.008562 0.024956 0.000000 0.000000 0.000000
# 4 0.000000 0.000000 0.000000 0.040085 0.000000 0.000000
# 5 0.000000 0.000000 0.000000 0.000000 0.041342 0.000000
# 6 0.000000 0.000000 0.000000 0.000000 0.000000 0.035732
#
#
# Mechanical properties :
#
#
# Convention : Reuss Voigt Hill
#
# Bulk Modulus (GPa) = 44.38802 51.59055 47.98929
# Shear Modulus (GPa) = 23.33590 24.88646 24.11118
#
# Velocity S-wave (km/s) = 3.50957 3.62429 3.56739
# Velocity P-wave (km/s) = 6.31280 6.68912 6.50368
#
# Compressibility (1/GPa) = 0.02252860
#
# Stress axis : x y z
#
# Youngs Moduli (GPa) = 54.00910 79.42934 40.07030
#
# Poissons Ratio (x) = 0.25723 0.19897
# Poissons Ratio (y) = 0.17490 0.34310
# Poissons Ratio (z) = 0.26818 0.68011
#
# Static dielectric constant tensor:
#      x y z
#    x 1.653380 0.000000 0.000000 
#    y 0.000000 1.640360 0.000000 
#    z 0.000000 0.000000 1.704600 
# 
# From -- ./inp_files/5088.got.cif
#   From: 2010.05.17/outbox.cif.g08.bks.cpg/sg31_3_cif.got.tgz:5088.got - 2010.06.03 17:08:30.
