data_PCOD9343570
_publ_section_title
;
Structure prediction by ZEFSAII (Michael W. Deem and Ramdas Pophale) SiO2 
 PCOD9343570
Probable space group: P M N 21
;
_chemical_formula_sum "Si O2"
_cell_formula_units_Z 24
_cell_length_a 14.179736
_cell_length_b 9.731118
_cell_length_c 8.432781
_cell_angle_alpha 90.000000
_cell_angle_beta 90.000000
_cell_angle_gamma 90.000000
_cell_volume 1163.594623
_symmetry_space_group_name_H-M "P M N 21"
_symmetry_group_IT_number 31
_symmetry_cell_setting 'orthorhombic'
loop_
_space_group_symop_operation_xyz
x,y,z
1/2-x,-y,1/2+z
-x,y,z
1/2+x,-y,1/2+z
loop_
_atom_site_type_symbol
_atom_site_label
_atom_site_fract_x
_atom_site_fract_y
_atom_site_fract_z
Si Si1 0.198765 0.411833 0.185800
Si Si2 0.195642 0.836232 0.809749
Si Si3 0.202566 0.334214 0.819169
Si Si4 0.799882 0.917494 0.173750
Si Si5 0.000000 0.954200 0.685279
Si Si6 0.000000 0.281564 0.690666
Si Si7 0.500000 0.027747 0.804216
Si Si8 0.000000 0.299033 0.310917
O O1 0.275237 0.319686 0.279863
O O2 0.227338 0.567743 0.220876
O O3 0.094621 0.370433 0.245679
O O4 0.208014 0.374601 0.001933
O O5 0.091846 0.879880 0.755001
O O6 0.266076 0.927892 0.703783
O O7 0.211925 0.874876 0.992281
O O8 0.235711 0.179658 0.782976
O O9 0.095064 0.345171 0.761057
O O10 0.907196 0.907782 0.228438
O O11 0.000000 0.950007 0.493692
O O12 0.000000 0.117049 0.725855
O O13 0.000000 0.302537 0.501752
O O14 0.500000 0.863665 0.769964
#
# Coordination Sequence:
#
# PCOD9343570 Si02
#       8
#     4   4   4   4   2   2   2   2
#     4  12  26  45  69  98 135 176 221 272 332 395
#     4  12  24  41  66  98 132 171 220 271 325 386
#     4  12  26  45  69  98 135 176 221 272 332 395
#     4  12  24  41  66  98 132 171 220 271 325 386
#     4  11  23  40  67 100 134 173 221 275 328 386
#     4  11  23  42  69  98 132 173 221 271 330 394
#     4  11  23  40  67 100 134 173 221 275 328 386
#     4  11  23  42  69  98 132 173 221 271 330 394
#
# _framework density 20.625741000000001
#
# number of rings (size 3 to 8) (size 9 to 14) (size 15 to 20)
#    0.000    0.333    3.333    7.000    0.000    2.667 
#    0.000    6.667    0.000    0.000    0.000    0.000 
#    0.000    0.000    0.000    0.000    0.000    0.000 
#
# Total GULP energy -134395.953692 kJ/mol
# GULP energy per Si atom -5599.831404 kJ/mol
# Density = 2.057880 g / cm^3
# Si number density = 20.625741 Si / 1000 Ang^3
#
#
#
# Elastic Constant Matrix: (Units=GPa)
#
#
# Indices 1 2 3 4 5 6 
#
# 1 122.3832 -5.0338 18.7681 0.0000 0.0000 0.0000
# 2 -5.0338 42.7072 -3.9794 0.0000 0.0000 0.0000
# 3 18.7681 -3.9794 94.0552 0.0000 0.0000 0.0000
# 4 0.0000 0.0000 0.0000 29.4014 0.0000 0.0000
# 5 0.0000 0.0000 0.0000 0.0000 29.2380 0.0000
# 6 0.0000 0.0000 0.0000 0.0000 0.0000 39.3482
#
#
#
# Elastic Compliance Matrix: (Units=1/GPa)
#
#
# Indices 1 2 3 4 5 6 
#
# 1 0.008459 0.000843 -0.001652 0.000000 0.000000 0.000000
# 2 0.000843 0.023592 0.000830 0.000000 0.000000 0.000000
# 3 -0.001652 0.000830 0.010997 0.000000 0.000000 0.000000
# 4 0.000000 0.000000 0.000000 0.034012 0.000000 0.000000
# 5 0.000000 0.000000 0.000000 0.000000 0.034202 0.000000
# 6 0.000000 0.000000 0.000000 0.000000 0.000000 0.025414
#
#
# Mechanical properties :
#
#
# Convention : Reuss Voigt Hill
#
# Bulk Modulus (GPa) = 23.20758 30.96173 27.08466
# Shear Modulus (GPa) = 33.11307 36.22357 34.66832
#
# Velocity S-wave (km/s) = 4.01112 4.19529 4.10424
# Velocity P-wave (km/s) = 5.72087 6.20573 5.96822
#
# Compressibility (1/GPa) = 0.04308937
#
# Stress axis : x y z
#
# Youngs Moduli (GPa) = 118.21554 42.38734 90.93494
#
# Poissons Ratio (x) = -0.03574 0.15025
# Poissons Ratio (y) = -0.09967 -0.07547
# Poissons Ratio (z) = 0.19533 -0.03518
#
# Static dielectric constant tensor:
#      x y z
#    x 1.769410 0.000000 0.000000 
#    y 0.000000 1.691110 0.000000 
#    z 0.000000 0.000000 1.705200 
# 
# From -- ./inp_files/2495.got.cif
#   From: 2010.05.17/outbox.cif.g08.bks.cpg/sg31_2_cif.got.tgz:2495.got - 2010.06.03 17:08:30.
