data_PCOD9343808
_publ_section_title
;
Structure prediction by ZEFSAII (Michael W. Deem and Ramdas Pophale) SiO2 
 PCOD9343808
Probable space group: P B A 2
;
_chemical_formula_sum "Si O2"
_cell_formula_units_Z 30
_cell_length_a 13.788299
_cell_length_b 11.487642
_cell_length_c 8.662302
_cell_angle_alpha 90.000000
_cell_angle_beta 90.000000
_cell_angle_gamma 90.000000
_cell_volume 1372.065695
_symmetry_space_group_name_H-M "P B A 2"
_symmetry_group_IT_number 32
_symmetry_cell_setting 'orthorhombic'
loop_
_space_group_symop_operation_xyz
x,y,z
-x,-y,z
1/2-x,1/2+y,z
1/2+x,1/2-y,z
loop_
_atom_site_type_symbol
_atom_site_label
_atom_site_fract_x
_atom_site_fract_y
_atom_site_fract_z
Si Si1 0.171356 0.232689 0.339550
Si Si2 0.874353 0.922148 0.057156
Si Si3 0.535287 0.799674 0.420688
Si Si4 0.000000 0.000000 0.819843
Si Si5 0.661344 0.627569 0.632119
Si Si6 0.145304 0.807247 0.139351
Si Si7 0.701586 0.823219 0.853461
Si Si8 0.696869 0.940952 0.537463
O O1 0.123311 0.141506 0.219785
O O2 0.249944 0.295599 0.227930
O O3 0.232542 0.158933 0.464947
O O4 0.081142 0.299788 0.417799
O O5 0.864363 0.058363 0.095093
O O6 0.785742 0.878389 0.954651
O O7 0.962871 0.902551 0.939334
O O8 0.584321 0.711575 0.545898
O O9 0.570407 0.743376 0.261560
O O10 0.595706 0.918783 0.449193
O O11 0.908479 0.036441 0.718566
O O12 0.719652 0.705508 0.755104
O O13 0.739190 0.558050 0.529264
O O14 0.134092 0.725580 0.989083
O O15 0.676164 0.914573 0.718500
#
# Coordination Sequence:
#
# PCOD9343808 Si02
#       8
#     4   4   4   2   4   4   4   4
#     4  10  22  37  61  92 122 162 209 257 314 386
#     4  11  21  35  60  90 121 161 205 267 312 371
#     4  10  22  37  61  92 122 162 209 257 314 386
#     4  12  20  32  62  96 118 150 226 260 312 380
#     4  11  21  35  60  90 121 161 205 267 312 371
#     4  10  20  38  58  89 125 161 202 256 321 372
#     4  10  20  36  56  84 120 160 198 250 312 372
#     4  10  20  38  58  89 125 161 202 256 321 372
#
# _framework density 21.864843
#
# number of rings (size 3 to 8) (size 9 to 14) (size 15 to 20)
#    0.000    1.600    2.667    2.400    0.000    1.067 
#    0.000    0.000    0.000   28.800    6.933    0.000 
#    0.000    0.000    0.000    0.000    0.000    0.000 
#
# Total GULP energy -167205.990781 kJ/mol
# GULP energy per Si atom -5573.533026 kJ/mol
# Density = 2.181508 g / cm^3
# Si number density = 21.864843 Si / 1000 Ang^3
#
#
#
# Elastic Constant Matrix: (Units=GPa)
#
#
# Indices 1 2 3 4 5 6 
#
# 1 88.8931 15.3874 18.4028 0.0000 0.0000 0.0000
# 2 15.3874 49.8874 8.8717 0.0000 0.0000 0.0000
# 3 18.4028 8.8717 106.0418 0.0000 0.0000 0.0000
# 4 0.0000 0.0000 0.0000 36.4072 0.0000 0.0000
# 5 0.0000 0.0000 0.0000 0.0000 12.1068 0.0000
# 6 0.0000 0.0000 0.0000 0.0000 0.0000 22.4181
#
#
#
# Elastic Compliance Matrix: (Units=1/GPa)
#
#
# Indices 1 2 3 4 5 6 
#
# 1 0.012225 -0.003445 -0.001833 0.000000 0.000000 0.000000
# 2 -0.003445 0.021319 -0.001186 0.000000 0.000000 0.000000
# 3 -0.001833 -0.001186 0.009848 0.000000 0.000000 0.000000
# 4 0.000000 0.000000 0.000000 0.027467 0.000000 0.000000
# 5 0.000000 0.000000 0.000000 0.000000 0.082598 0.000000
# 6 0.000000 0.000000 0.000000 0.000000 0.000000 0.044607
#
#
# Mechanical properties :
#
#
# Convention : Reuss Voigt Hill
#
# Bulk Modulus (GPa) = 32.82604 36.68289 34.75447
# Shear Modulus (GPa) = 22.60951 27.66377 25.13664
#
# Velocity S-wave (km/s) = 3.21917 3.56085 3.39431
# Velocity P-wave (km/s) = 5.37244 5.80687 5.59387
#
# Compressibility (1/GPa) = 0.03046362
#
# Stress axis : x y z
#
# Youngs Moduli (GPa) = 81.79746 46.90757 101.54732
#
# Poissons Ratio (x) = 0.16159 0.18618
# Poissons Ratio (y) = 0.28177 0.12041
# Poissons Ratio (z) = 0.14997 0.05562
#
# Static dielectric constant tensor:
#      x y z
#    x 1.838800 0.000000 0.000000 
#    y 0.000000 1.847660 0.000000 
#    z 0.000000 0.000000 1.824120 
# 
# From -- ./inp_files/3062.got.cif
#   From: 2010.05.17/outbox.cif.g08.bks.cpg/sg32_2_cif.got.tgz:3062.got - 2010.06.03 17:12:27.
