data_PCOD9343363
_publ_section_title
;
Structure prediction by ZEFSAII (Michael W. Deem and Ramdas Pophale) SiO2 
 PCOD9343363
Probable space group: P M N 21
;
_chemical_formula_sum "Si O2"
_cell_formula_units_Z 32
_cell_length_a 8.523317
_cell_length_b 14.783934
_cell_length_c 12.521440
_cell_angle_alpha 90.000000
_cell_angle_beta 90.000000
_cell_angle_gamma 90.000000
_cell_volume 1577.803565
_symmetry_space_group_name_H-M "P M N 21"
_symmetry_group_IT_number 31
_symmetry_cell_setting 'orthorhombic'
loop_
_space_group_symop_operation_xyz
x,y,z
1/2-x,-y,1/2+z
-x,y,z
1/2+x,-y,1/2+z
loop_
_atom_site_type_symbol
_atom_site_label
_atom_site_fract_x
_atom_site_fract_y
_atom_site_fract_z
Si Si1 0.681181 0.668268 0.317570
Si Si2 0.313643 0.353167 0.447778
Si Si3 0.191864 0.450975 0.006555
Si Si4 0.678217 0.167048 0.921399
Si Si5 0.317310 0.045257 0.719099
Si Si6 0.814817 0.338535 0.214898
Si Si7 0.687540 0.776453 0.114294
Si Si8 0.680019 0.145704 0.169514
O O1 0.500000 0.645171 0.296502
O O2 0.749630 0.590196 0.393170
O O3 0.697404 0.755870 0.393805
O O4 0.749393 0.706156 0.206250
O O5 0.500000 0.343723 0.457334
O O6 0.263379 0.444194 0.510248
O O7 0.268905 0.365680 0.324430
O O8 0.234735 0.266085 0.501678
O O9 0.242868 0.392718 0.109374
O O10 0.000000 0.445844 0.003956
O O11 0.500000 0.204154 0.905690
O O12 0.697918 0.087383 0.837023
O O13 0.691022 0.136163 0.041844
O O14 0.500000 0.030472 0.695241
O O15 0.253574 0.124423 0.641330
O O16 0.230104 0.950415 0.714956
O O17 0.783166 0.231907 0.200357
O O18 0.000000 0.355422 0.225119
O O19 0.500000 0.781083 0.124006
O O20 0.500000 0.166716 0.198379
#
# Coordination Sequence:
#
# PCOD9343363 Si02
#       8
#     4   4   4   4   4   4   4   4
#     4   9  17  34  60  85 111 149 195 247 299 354
#     4  11  24  41  61  88 127 168 205 252 310 372
#     4   9  20  38  61  88 119 156 199 250 305 364
#     4   9  19  35  55  82 114 148 193 248 301 354
#     4  10  21  38  60  87 120 163 209 256 310 367
#     4  11  23  42  64  90 123 160 206 256 310 370
#     4  10  21  38  61  89 122 159 205 256 308 367
#     4  11  22  38  60  89 122 159 204 257 311 368
#
# _framework density 20.281358000000001
#
# number of rings (size 3 to 8) (size 9 to 14) (size 15 to 20)
#    0.000    2.000    1.250    1.875    1.750    2.500 
#    0.000    6.875    0.000    0.000    0.000    0.000 
#    0.000    0.000    0.000    0.000    0.000    0.000 
#
# Total GULP energy -178564.340883 kJ/mol
# GULP energy per Si atom -5580.135653 kJ/mol
# Density = 2.023520 g / cm^3
# Si number density = 20.281358 Si / 1000 Ang^3
#
#
#
# Elastic Constant Matrix: (Units=GPa)
#
#
# Indices 1 2 3 4 5 6 
#
# 1 19.9039 -6.3783 -0.8178 0.0000 0.0000 0.0000
# 2 -6.3783 72.8292 13.9651 0.0000 0.0000 0.0000
# 3 -0.8178 13.9651 42.1917 0.0000 0.0000 0.0000
# 4 0.0000 0.0000 0.0000 15.1229 0.0000 0.0000
# 5 0.0000 0.0000 0.0000 0.0000 25.0619 0.0000
# 6 0.0000 0.0000 0.0000 0.0000 0.0000 20.2410
#
#
#
# Elastic Compliance Matrix: (Units=1/GPa)
#
#
# Indices 1 2 3 4 5 6 
#
# 1 0.051703 0.004630 -0.000530 0.000000 0.000000 0.000000
# 2 0.004630 0.015076 -0.004900 0.000000 0.000000 0.000000
# 3 -0.000530 -0.004900 0.025313 0.000000 0.000000 0.000000
# 4 0.000000 0.000000 0.000000 0.066125 0.000000 0.000000
# 5 0.000000 0.000000 0.000000 0.000000 0.039901 0.000000
# 6 0.000000 0.000000 0.000000 0.000000 0.000000 0.049405
#
#
# Mechanical properties :
#
#
# Convention : Reuss Voigt Hill
#
# Bulk Modulus (GPa) = 11.05084 16.49587 13.77336
# Shear Modulus (GPa) = 17.90266 20.62887 19.26576
#
# Velocity S-wave (km/s) = 2.97428 3.19271 3.08543
# Velocity P-wave (km/s) = 4.15400 4.66288 4.41577
#
# Compressibility (1/GPa) = 0.09049083
#
# Stress axis : x y z
#
# Youngs Moduli (GPa) = 19.34110 66.33122 39.50534
#
# Poissons Ratio (x) = -0.30710 0.02095
# Poissons Ratio (y) = -0.08954 0.19359
# Poissons Ratio (z) = 0.01026 0.32504
#
# Static dielectric constant tensor:
#      x y z
#    x 1.711770 0.000000 0.000000 
#    y 0.000000 1.703070 0.000000 
#    z 0.000000 0.000000 1.734290 
# 
# From -- ./inp_files/3626.got.cif
#   From: 2010.05.17/outbox.cif.g08.bks.cpg/sg31_2_cif.got.tgz:3626.got - 2010.06.03 17:08:30.
