data_PCOD9343371
_publ_section_title
;
Structure prediction by ZEFSAII (Michael W. Deem and Ramdas Pophale) SiO2 
 PCOD9343371
Probable space group: P M N 21
;
_chemical_formula_sum "Si O2"
_cell_formula_units_Z 24
_cell_length_a 22.059958
_cell_length_b 5.603042
_cell_length_c 9.302149
_cell_angle_alpha 90.000000
_cell_angle_beta 90.000000
_cell_angle_gamma 90.000000
_cell_volume 1149.772325
_symmetry_space_group_name_H-M "P M N 21"
_symmetry_group_IT_number 31
_symmetry_cell_setting 'orthorhombic'
loop_
_space_group_symop_operation_xyz
x,y,z
1/2-x,-y,1/2+z
-x,y,z
1/2+x,-y,1/2+z
loop_
_atom_site_type_symbol
_atom_site_label
_atom_site_fract_x
_atom_site_fract_y
_atom_site_fract_z
Si Si1 0.365847 0.107489 0.560210
Si Si2 0.842926 0.988099 0.370741
Si Si3 0.568668 0.639899 0.929997
Si Si4 0.685320 0.403846 0.078882
Si Si5 0.069613 0.408295 0.090847
Si Si6 0.267458 0.306790 0.380274
O O1 0.345096 0.158232 0.724417
O O2 0.403716 0.348029 0.523301
O O3 0.309602 0.108870 0.452787
O O4 0.397569 0.846849 0.560813
O O5 0.819026 0.859296 0.512183
O O6 0.909113 0.087334 0.409872
O O7 0.796067 0.196027 0.329192
O O8 0.500000 0.615321 0.984344
O O9 0.569937 0.553076 0.764415
O O10 0.622047 0.522984 0.025435
O O11 0.696665 0.415747 0.247264
O O12 0.744273 0.516043 0.002798
O O13 0.000000 0.380656 0.046147
#
# Coordination Sequence:
#
# PCOD9343371 Si02
#       6
#     4   4   4   4   4   4
#     4  11  22  40  64  97 126 168 218 270 328 389
#     4  10  21  38  61  91 126 166 219 270 330 389
#     4   9  20  38  61  92 123 167 220 269 322 389
#     4  11  22  41  62  92 126 171 214 271 331 392
#     4  10  21  40  67  94 127 170 222 272 319 390
#     4  11  25  37  63  92 133 168 215 270 334 397
#
# _framework density 20.873698000000001
#
# number of rings (size 3 to 8) (size 9 to 14) (size 15 to 20)
#    0.000    1.667    1.667    2.500    7.000    2.667 
#    0.000    1.667    0.000    0.000    0.000    0.000 
#    0.000    0.000    0.000    0.000    0.000    0.000 
#
# Total GULP energy -133754.198690 kJ/mol
# GULP energy per Si atom -5573.091612 kJ/mol
# Density = 2.082619 g / cm^3
# Si number density = 20.873698 Si / 1000 Ang^3
#
#
#
# Elastic Constant Matrix: (Units=GPa)
#
#
# Indices 1 2 3 4 5 6 
#
# 1 124.8289 30.8701 45.0919 0.0000 0.0000 0.0000
# 2 30.8701 58.7568 19.9707 0.0000 0.0000 0.0000
# 3 45.0919 19.9707 68.9902 0.0000 0.0000 0.0000
# 4 0.0000 0.0000 0.0000 21.3517 0.0000 0.0000
# 5 0.0000 0.0000 0.0000 0.0000 24.9056 0.0000
# 6 0.0000 0.0000 0.0000 0.0000 0.0000 23.9825
#
#
#
# Elastic Compliance Matrix: (Units=1/GPa)
#
#
# Indices 1 2 3 4 5 6 
#
# 1 0.011190 -0.003764 -0.006224 0.000000 0.000000 0.000000
# 2 -0.003764 0.020142 -0.003371 0.000000 0.000000 0.000000
# 3 -0.006224 -0.003371 0.019539 0.000000 0.000000 0.000000
# 4 0.000000 0.000000 0.000000 0.046835 0.000000 0.000000
# 5 0.000000 0.000000 0.000000 0.000000 0.040152 0.000000
# 6 0.000000 0.000000 0.000000 0.000000 0.000000 0.041697
#
#
# Mechanical properties :
#
#
# Convention : Reuss Voigt Hill
#
# Bulk Modulus (GPa) = 41.40138 49.38237 45.39187
# Shear Modulus (GPa) = 23.32924 24.49085 23.91005
#
# Velocity S-wave (km/s) = 3.34674 3.42904 3.38814
# Velocity P-wave (km/s) = 5.90013 6.27589 6.09091
#
# Compressibility (1/GPa) = 0.02415378
#
# Stress axis : x y z
#
# Youngs Moduli (GPa) = 89.36445 49.64674 51.18017
#
# Poissons Ratio (x) = 0.18685 0.31857
# Poissons Ratio (y) = 0.33633 0.17252
# Poissons Ratio (z) = 0.55624 0.16735
#
# Static dielectric constant tensor:
#      x y z
#    x 1.751200 0.000000 0.000000 
#    y 0.000000 1.849180 0.000000 
#    z 0.000000 0.000000 1.730330 
# 
# From -- ./inp_files/3041.got.cif
#   From: 2010.05.17/outbox.cif.g08.bks.cpg/sg31_2_cif.got.tgz:3041.got - 2010.06.03 17:08:30.
