data_PCOD9343610
_publ_section_title
;
Structure prediction by ZEFSAII (Michael W. Deem and Ramdas Pophale) SiO2 
 PCOD9343610
Probable space group: P M N 21
;
_chemical_formula_sum "Si O2"
_cell_formula_units_Z 32
_cell_length_a 15.000000
_cell_length_b 12.000000
_cell_length_c 9.000000
_cell_angle_alpha 90.000000
_cell_angle_beta 90.000000
_cell_angle_gamma 90.000000
_cell_volume 1620.000000
_symmetry_space_group_name_H-M "P M N 21"
_symmetry_group_IT_number 31
_symmetry_cell_setting 'orthorhombic'
loop_
_space_group_symop_operation_xyz
x,y,z
1/2-x,-y,1/2+z
-x,y,z
1/2+x,-y,1/2+z
loop_
_atom_site_type_symbol
_atom_site_label
_atom_site_fract_x
_atom_site_fract_y
_atom_site_fract_z
Si Si1 0.399549 0.324202 0.038030
Si Si2 0.751920 0.656666 0.963349
Si Si3 0.393665 0.763524 0.767088
Si Si4 0.745993 0.957695 0.695375
Si Si5 0.817417 0.479339 0.725162
Si Si6 0.730653 0.155354 0.885370
Si Si7 0.898472 0.300575 0.936551
Si Si8 0.103760 0.820632 0.841576
O O1 0.500000 0.335503 0.980317
O O2 0.363918 0.441762 0.101008
O O3 0.401289 0.248337 0.186821
O O4 0.335896 0.257216 0.925035
O O5 0.659657 0.713210 0.907210
O O6 0.767656 0.560748 0.839546
O O7 0.835532 0.741543 0.947088
O O8 0.741463 0.604613 0.126201
O O9 0.500000 0.778959 0.790591
O O10 0.337059 0.875282 0.730670
O O11 0.382675 0.688686 0.615629
O O12 0.773341 0.929800 0.526310
O O13 0.831802 0.923829 0.797510
O O14 0.717524 0.082162 0.738429
O O15 0.881263 0.408310 0.834297
O O16 0.828200 0.209192 0.883658
O O17 0.000000 0.263689 0.919918
O O18 0.000000 0.842723 0.886634
#
# Coordination Sequence:
#
# PCOD9343610 Si02
#       8
#     4   4   4   4   4   4   4   4
#     4   9  18  33  53  77 107 142 181 223 268 324
#     4  10  20  33  53  81 111 145 185 233 282 335
#     4   9  19  37  56  79 113 149 188 234 285 339
#     4   9  19  34  55  78 106 146 184 227 280 330
#     4  11  20  35  56  80 111 148 186 232 285 337
#     4  10  20  36  55  81 113 144 185 232 279 335
#     4  10  21  37  57  79 108 148 190 233 283 339
#     4   8  16  33  54  75 101 138 182 222 265 323
#
# _framework density 19.753086
#
# number of rings (size 3 to 8) (size 9 to 14) (size 15 to 20)
#    0.000    2.500    0.000    4.125    0.000    4.500 
#    0.000    0.625    0.000    3.750    0.000    0.000 
#    0.000    0.000    0.000    0.000    0.000    0.000 
#
# Total GULP energy -178458.937848 kJ/mol
# GULP energy per Si atom -5576.841808 kJ/mol
# Density = 1.970813 g / cm^3
# Si number density = 19.753086 Si / 1000 Ang^3
#
#
#
# Elastic Constant Matrix: (Units=GPa)
#
#
# Indices 1 2 3 4 5 6 
#
# 1 135.0616 28.0960 23.8763 0.0000 0.0000 0.0000
# 2 28.0960 55.5943 17.5664 0.0000 0.0000 0.0000
# 3 23.8763 17.5664 39.9571 0.0000 0.0000 0.0000
# 4 0.0000 0.0000 0.0000 44.1685 0.0000 0.0000
# 5 0.0000 0.0000 0.0000 0.0000 21.2633 0.0000
# 6 0.0000 0.0000 0.0000 0.0000 0.0000 13.6947
#
#
#
# Elastic Compliance Matrix: (Units=1/GPa)
#
#
# Indices 1 2 3 4 5 6 
#
# 1 0.008747 -0.003216 -0.003813 0.000000 0.000000 0.000000
# 2 -0.003216 0.022071 -0.007782 0.000000 0.000000 0.000000
# 3 -0.003813 -0.007782 0.030726 0.000000 0.000000 0.000000
# 4 0.000000 0.000000 0.000000 0.022641 0.000000 0.000000
# 5 0.000000 0.000000 0.000000 0.000000 0.047029 0.000000
# 6 0.000000 0.000000 0.000000 0.000000 0.000000 0.073021
#
#
# Mechanical properties :
#
#
# Convention : Reuss Voigt Hill
#
# Bulk Modulus (GPa) = 31.32455 41.07673 36.20064
# Shear Modulus (GPa) = 20.45004 26.56359 23.50682
#
# Velocity S-wave (km/s) = 3.22107 3.67110 3.45343
# Velocity P-wave (km/s) = 5.45218 6.22973 5.85388
#
# Compressibility (1/GPa) = 0.03192385
#
# Stress axis : x y z
#
# Youngs Moduli (GPa) = 114.32428 45.30745 32.54528
#
# Poissons Ratio (x) = 0.14570 0.12410
# Poissons Ratio (y) = 0.36763 0.25326
# Poissons Ratio (z) = 0.43592 0.35257
#
# Static dielectric constant tensor:
#      x y z
#    x 1.687830 0.000000 0.000000 
#    y 0.000000 1.729360 0.000000 
#    z 0.000000 0.000000 1.702740 
# 
# From -- ./inp_files/2580.got.cif
#   From: 2010.05.17/outbox.ucp.g08.bks.cvg/sg31_2_cif.got.tgz:2580.got - 2010.06.11 10:34:26.
