data_PCOD9343040
_publ_section_title
;
Structure prediction by ZEFSAII (Michael W. Deem and Ramdas Pophale) SiO2 
 PCOD9343040
Probable space group: P M N 21
;
_chemical_formula_sum "Si O2"
_cell_formula_units_Z 20
_cell_length_a 9.931110
_cell_length_b 11.321129
_cell_length_c 7.493622
_cell_angle_alpha 90.000000
_cell_angle_beta 90.000000
_cell_angle_gamma 90.000000
_cell_volume 842.518243
_symmetry_space_group_name_H-M "P M N 21"
_symmetry_group_IT_number 31
_symmetry_cell_setting 'orthorhombic'
loop_
_space_group_symop_operation_xyz
x,y,z
1/2-x,-y,1/2+z
-x,y,z
1/2+x,-y,1/2+z
loop_
_atom_site_type_symbol
_atom_site_label
_atom_site_fract_x
_atom_site_fract_y
_atom_site_fract_z
Si Si1 0.000000 0.708266 0.939410
Si Si2 0.000000 0.979069 0.971074
Si Si3 0.000000 0.218892 0.609266
Si Si4 0.275391 0.342126 0.144966
Si Si5 0.271491 0.863551 0.364425
Si Si6 0.000000 0.463712 0.060356
Si Si7 0.000000 0.476690 0.616577
Si Si8 0.000000 0.005720 0.334423
O O1 0.864032 0.691801 0.819598
O O2 0.000000 0.605326 0.085153
O O3 0.000000 0.841468 0.004009
O O4 0.000000 0.065548 0.141626
O O5 0.134598 0.019842 0.876695
O O6 0.861589 0.209759 0.723798
O O7 0.000000 0.348848 0.529397
O O8 0.000000 0.106000 0.481353
O O9 0.372236 0.444138 0.064749
O O10 0.130478 0.403184 0.143978
O O11 0.255073 0.224334 0.028693
O O12 0.128427 0.921578 0.330970
O O13 0.000000 0.455286 0.837471
#
# Coordination Sequence:
#
# PCOD9343040 Si02
#       8
#     2   2   2   4   4   2   2   2
#     4  10  26  44  72 103 149 197 239 313 367 435
#     4  11  27  47  64 104 151 188 244 299 362 444
#     4  11  24  47  73 101 148 192 240 306 372 426
#     4  10  21  42  74  98 140 192 245 298 369 421
#     4  11  24  44  72  97 144 188 244 306 353 433
#     4  10  19  44  67 106 142 185 246 306 363 430
#     4  10  22  44  67 104 149 186 238 311 362 441
#     4  12  26  42  69 106 135 190 241 295 368 438
#
# _framework density 23.738358999999999
#
# number of rings (size 3 to 8) (size 9 to 14) (size 15 to 20)
#    0.000    1.600    2.000    3.000    8.400    3.200 
#    3.600    8.000    0.000    0.000    0.000    0.000 
#    0.000    0.000    0.000    0.000    0.000    0.000 
#
# Total GULP energy -111646.550935 kJ/mol
# GULP energy per Si atom -5582.327547 kJ/mol
# Density = 2.368433 g / cm^3
# Si number density = 23.738359 Si / 1000 Ang^3
#
#
#
# Elastic Constant Matrix: (Units=GPa)
#
#
# Indices 1 2 3 4 5 6 
#
# 1 232.3107 64.9564 24.7410 0.0000 0.0000 0.0000
# 2 64.9564 144.0078 22.4596 0.0000 0.0000 0.0000
# 3 24.7410 22.4596 41.2622 0.0000 0.0000 0.0000
# 4 0.0000 0.0000 0.0000 27.4847 0.0000 0.0000
# 5 0.0000 0.0000 0.0000 0.0000 32.0590 0.0000
# 6 0.0000 0.0000 0.0000 0.0000 0.0000 63.0518
#
#
#
# Elastic Compliance Matrix: (Units=1/GPa)
#
#
# Indices 1 2 3 4 5 6 
#
# 1 0.005067 -0.001980 -0.001961 0.000000 0.000000 0.000000
# 2 -0.001980 0.008362 -0.003364 0.000000 0.000000 0.000000
# 3 -0.001961 -0.003364 0.027242 0.000000 0.000000 0.000000
# 4 0.000000 0.000000 0.000000 0.036384 0.000000 0.000000
# 5 0.000000 0.000000 0.000000 0.000000 0.031192 0.000000
# 6 0.000000 0.000000 0.000000 0.000000 0.000000 0.015860
#
#
# Mechanical properties :
#
#
# Convention : Reuss Voigt Hill
#
# Bulk Modulus (GPa) = 38.37081 71.32163 54.84622
# Shear Modulus (GPa) = 33.92048 44.88069 39.40059
#
# Velocity S-wave (km/s) = 3.78422 4.35287 4.07847
# Velocity P-wave (km/s) = 5.94078 7.44133 6.73299
#
# Compressibility (1/GPa) = 0.02606148
#
# Stress axis : x y z
#
# Youngs Moduli (GPa) = 197.35809 119.59207 36.70788
#
# Poissons Ratio (x) = 0.23676 0.07197
# Poissons Ratio (y) = 0.39072 0.12350
# Poissons Ratio (z) = 0.38693 0.40235
#
# Static dielectric constant tensor:
#      x y z
#    x 1.900710 0.000000 0.000000 
#    y 0.000000 1.867870 0.000000 
#    z 0.000000 0.000000 2.031520 
# 
# From -- ./inp_files/1627.got.cif
#   From: 2010.05.17/outbox.cif.g08.bks.cpg/sg31_1_cif.got.tgz:1627.got - 2010.06.03 17:08:30.
