data_PCOD9343806
_publ_section_title
;
Structure prediction by ZEFSAII (Michael W. Deem and Ramdas Pophale) SiO2 
 PCOD9343806
Probable space group: P B A 2
;
_chemical_formula_sum "Si O2"
_cell_formula_units_Z 26
_cell_length_a 18.571844
_cell_length_b 9.813550
_cell_length_c 5.177417
_cell_angle_alpha 90.000000
_cell_angle_beta 90.000000
_cell_angle_gamma 90.000000
_cell_volume 943.613861
_symmetry_space_group_name_H-M "P B A 2"
_symmetry_group_IT_number 32
_symmetry_cell_setting 'orthorhombic'
loop_
_space_group_symop_operation_xyz
x,y,z
-x,-y,z
1/2-x,1/2+y,z
1/2+x,1/2-y,z
loop_
_atom_site_type_symbol
_atom_site_label
_atom_site_fract_x
_atom_site_fract_y
_atom_site_fract_z
Si Si1 0.398152 0.810806 0.488340
Si Si2 0.742494 0.464653 0.096591
Si Si3 0.386876 0.093370 0.220814
Si Si4 0.500000 0.000000 0.832152
Si Si5 0.463323 0.334227 0.401742
Si Si6 0.749234 0.133644 0.620527
Si Si7 0.886840 0.070808 0.883588
O O1 0.382929 0.933679 0.289643
O O2 0.446156 0.894033 0.694065
O O3 0.452023 0.696185 0.390060
O O4 0.317651 0.766659 0.568591
O O5 0.803956 0.361331 0.190627
O O6 0.731030 0.559697 0.350859
O O7 0.780987 0.528574 0.839685
O O8 0.662299 0.443455 0.983124
O O9 0.424338 0.186853 0.433834
O O10 0.446213 0.093694 0.999023
O O11 0.437061 0.427703 0.635685
O O12 0.432070 0.384900 0.130033
O O13 0.821772 0.168985 0.775669
#
# Coordination Sequence:
#
# PCOD9343806 Si02
#       7
#     4   4   4   2   4   4   4
#     4  11  21  29  47  74 106 142 163 200 249 330
#     4   9  18  34  49  60  91 147 172 186 242 306
#     4  11  21  29  47  74 106 142 163 200 249 330
#     4  12  14  32  40  70 112 132 162 190 238 312
#     4  12  21  30  50  78 106 123 174 220 254 278
#     4   9  18  34  49  60  91 147 172 186 242 306
#     4  10  20  36  45  67 100 143 167 218 238 294
#
# _framework density 27.553642
#
# number of rings (size 3 to 8) (size 9 to 14) (size 15 to 20)
#    0.923    0.615    6.154    0.923    0.000    0.000 
#    0.000    0.000    0.000    0.000    0.000    0.000 
#    0.000    7.385    0.000    0.000    0.000    0.000 
#
# Total GULP energy -145006.532948 kJ/mol
# GULP energy per Si atom -5577.174344 kJ/mol
# Density = 2.749093 g / cm^3
# Si number density = 27.553642 Si / 1000 Ang^3
#
#
#
# Elastic Constant Matrix: (Units=GPa)
#
#
# Indices 1 2 3 4 5 6 
#
# 1 199.7534 58.8771 53.7164 0.0000 0.0000 0.0000
# 2 58.8771 59.7150 36.4503 0.0000 0.0000 0.0000
# 3 53.7164 36.4503 163.9554 0.0000 0.0000 0.0000
# 4 0.0000 0.0000 0.0000 17.0030 0.0000 0.0000
# 5 0.0000 0.0000 0.0000 0.0000 28.1590 0.0000
# 6 0.0000 0.0000 0.0000 0.0000 0.0000 15.9903
#
#
#
# Elastic Compliance Matrix: (Units=1/GPa)
#
#
# Indices 1 2 3 4 5 6 
#
# 1 0.007170 -0.006520 -0.000899 0.000000 0.000000 0.000000
# 2 -0.006520 0.025305 -0.003490 0.000000 0.000000 0.000000
# 3 -0.000899 -0.003490 0.007170 0.000000 0.000000 0.000000
# 4 0.000000 0.000000 0.000000 0.058813 0.000000 0.000000
# 5 0.000000 0.000000 0.000000 0.000000 0.035513 0.000000
# 6 0.000000 0.000000 0.000000 0.000000 0.000000 0.062538
#
#
# Mechanical properties :
#
#
# Convention : Reuss Voigt Hill
#
# Bulk Modulus (GPa) = 56.09770 80.16793 68.13282
# Shear Modulus (GPa) = 22.29465 30.52244 26.40854
#
# Velocity S-wave (km/s) = 2.84762 3.33189 3.09923
# Velocity P-wave (km/s) = 5.58709 6.63026 6.13090
#
# Compressibility (1/GPa) = 0.01782604
#
# Stress axis : x y z
#
# Youngs Moduli (GPa) = 139.47208 39.51787 139.47564
#
# Poissons Ratio (x) = 0.25767 0.12546
# Poissons Ratio (y) = 0.90939 0.48671
# Poissons Ratio (z) = 0.12545 0.13790
#
# Static dielectric constant tensor:
#      x y z
#    x 2.173500 0.000000 0.000000 
#    y 0.000000 2.374380 0.000000 
#    z 0.000000 0.000000 2.150120 
# 
# From -- ./inp_files/1496.got.cif
#   From: 2010.05.17/outbox.cif.g08.bks.cpg/sg32_1_cif.got.tgz:1496.got - 2010.06.03 17:12:27.
