data_PCOD9343223
_publ_section_title
;
Structure prediction by ZEFSAII (Michael W. Deem and Ramdas Pophale) SiO2 
 PCOD9343223
Probable space group: P M N 21
;
_chemical_formula_sum "Si O2"
_cell_formula_units_Z 24
_cell_length_a 8.905509
_cell_length_b 11.250708
_cell_length_c 13.005469
_cell_angle_alpha 90.000000
_cell_angle_beta 90.000000
_cell_angle_gamma 90.000000
_cell_volume 1303.060615
_symmetry_space_group_name_H-M "P M N 21"
_symmetry_group_IT_number 31
_symmetry_cell_setting 'orthorhombic'
loop_
_space_group_symop_operation_xyz
x,y,z
1/2-x,-y,1/2+z
-x,y,z
1/2+x,-y,1/2+z
loop_
_atom_site_type_symbol
_atom_site_label
_atom_site_fract_x
_atom_site_fract_y
_atom_site_fract_z
Si Si1 0.178317 0.694808 0.021690
Si Si2 0.681372 0.882141 0.422924
Si Si3 0.820203 0.131908 0.358954
Si Si4 0.677524 0.723099 0.228806
Si Si5 0.319370 0.770153 0.639463
Si Si6 0.323093 0.487195 0.131725
O O1 0.229164 0.760800 0.127837
O O2 0.244681 0.562740 0.040450
O O3 0.000000 0.692110 0.013046
O O4 0.252160 0.762216 0.927113
O O5 0.500000 0.894324 0.423424
O O6 0.721092 0.789314 0.332297
O O7 0.728570 0.832114 0.533571
O O8 0.754046 0.008161 0.398263
O O9 0.779488 0.154104 0.240003
O O10 0.000000 0.132167 0.368412
O O11 0.500000 0.745090 0.209861
O O12 0.696645 0.579615 0.227301
O O13 0.500000 0.758568 0.636845
O O14 0.249828 0.639450 0.647617
O O15 0.500000 0.475840 0.112427
#
# Coordination Sequence:
#
# PCOD9343223 Si02
#       6
#     4   4   4   4   4   4
#     4  10  20  37  62  87 115 158 202 239 294 351
#     4  10  22  41  62  86 119 158 199 243 295 358
#     4  11  24  40  58  87 124 158 199 249 297 349
#     4   8  18  37  60  87 118 153 192 241 295 348
#     4  10  23  40  59  89 122 154 196 247 297 355
#     4   9  19  37  61  92 122 153 194 243 296 353
#
# _framework density 18.418175999999999
#
# number of rings (size 3 to 8) (size 9 to 14) (size 15 to 20)
#    1.000    1.333    0.000    2.000    2.333    4.000 
#    0.000    1.667    0.000    0.000    0.000    0.000 
#    0.000    0.000    0.000    0.000    0.000    0.000 
#
# Total GULP energy -133759.529148 kJ/mol
# GULP energy per Si atom -5573.313714 kJ/mol
# Density = 1.837626 g / cm^3
# Si number density = 18.418176 Si / 1000 Ang^3
#
#
#
# Elastic Constant Matrix: (Units=GPa)
#
#
# Indices 1 2 3 4 5 6 
#
# 1 34.6041 25.7519 31.2562 0.0000 0.0000 0.0000
# 2 25.7519 84.5128 25.1053 0.0000 0.0000 0.0000
# 3 31.2562 25.1053 91.0264 0.0000 0.0000 0.0000
# 4 0.0000 0.0000 0.0000 37.5146 0.0000 0.0000
# 5 0.0000 0.0000 0.0000 0.0000 2.1366 0.0000
# 6 0.0000 0.0000 0.0000 0.0000 0.0000 35.6583
#
#
#
# Elastic Compliance Matrix: (Units=1/GPa)
#
#
# Indices 1 2 3 4 5 6 
#
# 1 0.049779 -0.010991 -0.014061 0.000000 0.000000 0.000000
# 2 -0.010991 0.015315 -0.000450 0.000000 0.000000 0.000000
# 3 -0.014061 -0.000450 0.015938 0.000000 0.000000 0.000000
# 4 0.000000 0.000000 0.000000 0.026656 0.000000 0.000000
# 5 0.000000 0.000000 0.000000 0.000000 0.468031 0.000000
# 6 0.000000 0.000000 0.000000 0.000000 0.000000 0.028044
#
#
# Mechanical properties :
#
#
# Convention : Reuss Voigt Hill
#
# Bulk Modulus (GPa) = 33.30284 41.59669 37.44976
# Shear Modulus (GPa) = 7.52131 23.59721 15.55926
#
# Velocity S-wave (km/s) = 2.02299 3.58326 2.90966
# Velocity P-wave (km/s) = 4.85566 6.30502 5.62720
#
# Compressibility (1/GPa) = 0.03002747
#
# Stress axis : x y z
#
# Youngs Moduli (GPa) = 20.08888 65.29432 62.74207
#
# Poissons Ratio (x) = 0.71765 0.88224
# Poissons Ratio (y) = 0.22080 0.02823
# Poissons Ratio (z) = 0.28248 0.02938
#
# Static dielectric constant tensor:
#      x y z
#    x 1.612790 0.000000 0.000000 
#    y 0.000000 1.612950 0.000000 
#    z 0.000000 0.000000 1.638450 
# 
# From -- ./inp_files/3470.got.cif
#   From: 2010.05.17/outbox.cif.g08.bks.cpg/sg31_2_cif.got.tgz:3470.got - 2010.06.03 17:08:30.
