data_PCOD9343057
_publ_section_title
;
Structure prediction by ZEFSAII (Michael W. Deem and Ramdas Pophale) SiO2 
 PCOD9343057
Probable space group: P M N 21
;
_chemical_formula_sum "Si O2"
_cell_formula_units_Z 24
_cell_length_a 9.707629
_cell_length_b 15.529097
_cell_length_c 7.195962
_cell_angle_alpha 90.000000
_cell_angle_beta 90.000000
_cell_angle_gamma 90.000000
_cell_volume 1084.796398
_symmetry_space_group_name_H-M "P M N 21"
_symmetry_group_IT_number 31
_symmetry_cell_setting 'orthorhombic'
loop_
_space_group_symop_operation_xyz
x,y,z
1/2-x,-y,1/2+z
-x,y,z
1/2+x,-y,1/2+z
loop_
_atom_site_type_symbol
_atom_site_label
_atom_site_fract_x
_atom_site_fract_y
_atom_site_fract_z
Si Si1 0.340883 0.706884 0.885100
Si Si2 0.654501 0.947312 0.213245
Si Si3 0.345598 0.894482 0.782754
Si Si4 0.156440 0.607802 0.411190
Si Si5 0.340213 0.761806 0.323049
Si Si6 0.155927 0.554535 0.979849
O O1 0.500000 0.682076 0.842186
O O2 0.305375 0.794278 0.774655
O O3 0.234770 0.628836 0.864490
O O4 0.339217 0.732818 0.104883
O O5 0.500000 0.969794 0.274775
O O6 0.701234 0.862686 0.328260
O O7 0.747516 0.031217 0.211033
O O8 0.647290 0.914273 0.002693
O O9 0.500000 0.903412 0.706832
O O10 0.238776 0.697016 0.426089
O O11 0.249191 0.529616 0.483866
O O12 0.000000 0.610085 0.483767
O O13 0.146465 0.588741 0.190082
O O14 0.500000 0.753940 0.382844
O O15 0.000000 0.536332 0.914150
#
# Coordination Sequence:
#
# PCOD9343057 Si02
#       6
#     4   4   4   4   4   4
#     4   8  15  30  50  69  93 127 163 198 237 282
#     4   9  18  32  50  73  99 127 161 199 239 285
#     4   9  18  32  50  73  99 127 161 199 239 285
#     4  10  20  33  51  75  99 125 160 199 239 286
#     4   8  15  30  50  69  93 127 163 198 237 282
#     4  10  20  33  51  75  99 125 160 199 239 286
#
# _framework density 22.123967
#
# number of rings (size 3 to 8) (size 9 to 14) (size 15 to 20)
#    0.000    3.000    0.000    3.000    0.000    4.000 
#    0.000    5.000    0.000    2.000    0.000    0.000 
#    0.000    0.000    0.000    0.000    0.000    0.000 
#
# Total GULP energy -134076.418400 kJ/mol
# GULP energy per Si atom -5586.517433 kJ/mol
# Density = 2.207361 g / cm^3
# Si number density = 22.123967 Si / 1000 Ang^3
#
#
#
# Elastic Constant Matrix: (Units=GPa)
#
#
# Indices 1 2 3 4 5 6 
#
# 1 158.8754 124.7986 26.2885 0.0000 0.0000 0.0000
# 2 124.7986 161.2717 35.7965 0.0000 0.0000 0.0000
# 3 26.2885 35.7965 49.8602 0.0000 0.0000 0.0000
# 4 0.0000 0.0000 0.0000 40.3655 0.0000 0.0000
# 5 0.0000 0.0000 0.0000 0.0000 18.1537 0.0000
# 6 0.0000 0.0000 0.0000 0.0000 0.0000 40.5712
#
#
#
# Elastic Compliance Matrix: (Units=1/GPa)
#
#
# Indices 1 2 3 4 5 6 
#
# 1 0.016063 -0.012551 0.000541 0.000000 0.000000 0.000000
# 2 -0.012551 0.017182 -0.005719 0.000000 0.000000 0.000000
# 3 0.000541 -0.005719 0.023876 0.000000 0.000000 0.000000
# 4 0.000000 0.000000 0.000000 0.024774 0.000000 0.000000
# 5 0.000000 0.000000 0.000000 0.000000 0.055085 0.000000
# 6 0.000000 0.000000 0.000000 0.000000 0.000000 0.024648
#
#
# Mechanical properties :
#
#
# Convention : Reuss Voigt Hill
#
# Bulk Modulus (GPa) = 46.15516 82.64164 64.39840
# Shear Modulus (GPa) = 24.47306 32.02633 28.24969
#
# Velocity S-wave (km/s) = 3.32953 3.80884 3.57723
# Velocity P-wave (km/s) = 5.97398 7.53512 6.79950
#
# Compressibility (1/GPa) = 0.02166605
#
# Stress axis : x y z
#
# Youngs Moduli (GPa) = 62.25356 58.19981 41.88261
#
# Poissons Ratio (x) = 0.73044 -0.02267
# Poissons Ratio (y) = 0.78132 0.23951
# Poissons Ratio (z) = -0.03369 0.33282
#
# Static dielectric constant tensor:
#      x y z
#    x 1.774500 0.000000 0.000000 
#    y 0.000000 1.786280 0.000000 
#    z 0.000000 0.000000 1.924570 
# 
# From -- ./inp_files/1702.got.cif
#   From: 2010.05.17/outbox.cif.g08.bks.cpg/sg31_1_cif.got.tgz:1702.got - 2010.06.03 17:08:30.
