data_PCOD9343309
_publ_section_title
;
Structure prediction by ZEFSAII (Michael W. Deem and Ramdas Pophale) SiO2 
 PCOD9343309
Probable space group: P M N 21
;
_chemical_formula_sum "Si O2"
_cell_formula_units_Z 32
_cell_length_a 8.672223
_cell_length_b 14.950488
_cell_length_c 12.671934
_cell_angle_alpha 90.000000
_cell_angle_beta 90.000000
_cell_angle_gamma 90.000000
_cell_volume 1642.966499
_symmetry_space_group_name_H-M "P M N 21"
_symmetry_group_IT_number 31
_symmetry_cell_setting 'orthorhombic'
loop_
_space_group_symop_operation_xyz
x,y,z
1/2-x,-y,1/2+z
-x,y,z
1/2+x,-y,1/2+z
loop_
_atom_site_type_symbol
_atom_site_label
_atom_site_fract_x
_atom_site_fract_y
_atom_site_fract_z
Si Si1 0.814003 0.140169 0.058610
Si Si2 0.685248 0.447234 0.779402
Si Si3 0.812085 0.946314 0.993119
Si Si4 0.184040 0.833590 0.788569
Si Si5 0.180072 0.357160 0.342826
Si Si6 0.683850 0.730175 0.380854
Si Si7 0.322922 0.170780 0.684311
Si Si8 0.324339 0.358250 0.562066
O O1 0.749931 0.135754 0.176467
O O2 0.000000 0.142548 0.064967
O O3 0.762977 0.226701 0.991408
O O4 0.771018 0.050412 0.994692
O O5 0.500000 0.445232 0.792293
O O6 0.739558 0.547236 0.802158
O O7 0.750466 0.367210 0.851394
O O8 0.717786 0.422291 0.658412
O O9 0.759595 0.891532 0.889908
O O10 0.000000 0.938960 0.994941
O O11 0.758961 0.903855 0.104743
O O12 0.232213 0.730575 0.804122
O O13 0.000000 0.840605 0.786840
O O14 0.205553 0.361417 0.467941
O O15 0.000000 0.348245 0.315075
O O16 0.500000 0.723630 0.382640
O O17 0.732057 0.799333 0.288029
O O18 0.500000 0.148762 0.713986
O O19 0.327843 0.259499 0.611683
O O20 0.500000 0.378128 0.525318
#
# Coordination Sequence:
#
# PCOD9343309 Si02
#       8
#     4   4   4   4   4   4   4   4
#     4  10  23  41  59  85 124 162 195 244 301 349
#     4   9  21  39  58  81 115 158 202 243 294 356
#     4   9  19  38  61  83 114 155 194 238 292 347
#     4  11  23  41  63  88 119 157 200 242 293 358
#     4  11  22  37  59  87 118 152 193 247 300 351
#     4  10  21  36  57  86 120 153 193 246 298 346
#     4   9  17  34  59  81 109 149 192 240 291 346
#     4   9  17  34  56  79 109 148 193 240 291 349
#
# _framework density 19.476965
#
# number of rings (size 3 to 8) (size 9 to 14) (size 15 to 20)
#    0.000    2.250    1.250    1.875    1.750    5.000 
#    0.000    5.000    0.000    0.000    0.000    0.000 
#    0.000    0.000    0.000    0.000    0.000    0.000 
#
# Total GULP energy -178513.393925 kJ/mol
# GULP energy per Si atom -5578.543560 kJ/mol
# Density = 1.943263 g / cm^3
# Si number density = 19.476965 Si / 1000 Ang^3
#
#
#
# Elastic Constant Matrix: (Units=GPa)
#
#
# Indices 1 2 3 4 5 6 
#
# 1 13.8012 16.0857 12.5788 0.0000 0.0000 0.0000
# 2 16.0857 104.3757 49.5589 0.0000 0.0000 0.0000
# 3 12.5788 49.5589 63.5916 0.0000 0.0000 0.0000
# 4 0.0000 0.0000 0.0000 15.6524 0.0000 0.0000
# 5 0.0000 0.0000 0.0000 0.0000 29.4949 0.0000
# 6 0.0000 0.0000 0.0000 0.0000 0.0000 22.2672
#
#
#
# Elastic Compliance Matrix: (Units=1/GPa)
#
#
# Indices 1 2 3 4 5 6 
#
# 1 0.093347 -0.008919 -0.011513 0.000000 0.000000 0.000000
# 2 -0.008919 0.016061 -0.010752 0.000000 0.000000 0.000000
# 3 -0.011513 -0.010752 0.026382 0.000000 0.000000 0.000000
# 4 0.000000 0.000000 0.000000 0.063888 0.000000 0.000000
# 5 0.000000 0.000000 0.000000 0.000000 0.033904 0.000000
# 6 0.000000 0.000000 0.000000 0.000000 0.000000 0.044909
#
#
# Mechanical properties :
#
#
# Convention : Reuss Voigt Hill
#
# Bulk Modulus (GPa) = 13.62030 37.57947 25.59989
# Shear Modulus (GPa) = 13.68610 20.38592 17.03601
#
# Velocity S-wave (km/s) = 2.65369 3.23874 2.96070
# Velocity P-wave (km/s) = 4.04940 5.77253 4.98597
#
# Compressibility (1/GPa) = 0.07341982
#
# Stress axis : x y z
#
# Youngs Moduli (GPa) = 10.71274 62.26387 37.90416
#
# Poissons Ratio (x) = 0.55535 0.43641
# Poissons Ratio (y) = 0.09555 0.40756
# Poissons Ratio (z) = 0.12334 0.66948
#
# Static dielectric constant tensor:
#      x y z
#    x 1.670360 0.000000 0.000000 
#    y 0.000000 1.700520 0.000000 
#    z 0.000000 0.000000 1.682120 
# 
# From -- ./inp_files/3689.got.cif
#   From: 2010.05.17/outbox.cif.g08.bks.cpg/sg31_2_cif.got.tgz:3689.got - 2010.06.03 17:08:30.
