data_PCOD9343593
_publ_section_title
;
Structure prediction by ZEFSAII (Michael W. Deem and Ramdas Pophale) SiO2 
 PCOD9343593
Probable space group: P M N 21
;
_chemical_formula_sum "Si O2"
_cell_formula_units_Z 16
_cell_length_a 24.232900
_cell_length_b 5.753106
_cell_length_c 4.728634
_cell_angle_alpha 90.000000
_cell_angle_beta 90.000000
_cell_angle_gamma 90.000000
_cell_volume 659.239872
_symmetry_space_group_name_H-M "P M N 21"
_symmetry_group_IT_number 31
_symmetry_cell_setting 'orthorhombic'
loop_
_space_group_symop_operation_xyz
x,y,z
1/2-x,-y,1/2+z
-x,y,z
1/2+x,-y,1/2+z
loop_
_atom_site_type_symbol
_atom_site_label
_atom_site_fract_x
_atom_site_fract_y
_atom_site_fract_z
Si Si1 0.330353 0.509196 0.356900
Si Si2 0.000000 0.270012 0.618531
Si Si3 0.240873 0.147126 0.186104
Si Si4 0.093360 0.524921 0.348923
Si Si5 0.500000 0.234311 0.149755
O O1 0.278777 0.335902 0.343337
O O2 0.308515 0.740568 0.508084
O O3 0.382340 0.429178 0.542572
O O4 0.353439 0.522173 0.043172
O O5 0.946965 0.308220 0.416935
O O6 0.000000 0.511035 0.806270
O O7 0.000000 0.023604 0.771734
O O8 0.223771 0.976174 0.438018
O O9 0.054829 0.734978 0.458018
#
# Coordination Sequence:
#
# PCOD9343593 Si02
#       5
#     4   2   4   4   2
#     4  12  23  47  63 100 137 175 233 282 344 416
#     4   8  20  42  66 102 137 175 227 286 344 418
#     4  12  26  42  68 100 136 186 230 292 346 416
#     4   9  23  38  71  92 135 184 221 285 350 412
#     4   8  20  42  66 102 137 175 227 286 344 418
#
# _framework density 24.270375000000001
#
# number of rings (size 3 to 8) (size 9 to 14) (size 15 to 20)
#    1.500    0.000    0.000    6.000    0.000   10.000 
#    0.000    2.500    0.000    0.000    0.000    0.000 
#    0.000    0.000    0.000    0.000    0.000    0.000 
#
# Total GULP energy -89241.030911 kJ/mol
# GULP energy per Si atom -5577.564432 kJ/mol
# Density = 2.421513 g / cm^3
# Si number density = 24.270375 Si / 1000 Ang^3
#
#
#
# Elastic Constant Matrix: (Units=GPa)
#
#
# Indices 1 2 3 4 5 6 
#
# 1 78.9565 1.2852 -3.2798 0.0000 0.0000 0.0000
# 2 1.2852 118.7895 14.4215 0.0000 0.0000 0.0000
# 3 -3.2798 14.4215 90.9127 0.0000 0.0000 0.0000
# 4 0.0000 0.0000 0.0000 32.1820 0.0000 0.0000
# 5 0.0000 0.0000 0.0000 0.0000 33.4408 0.0000
# 6 0.0000 0.0000 0.0000 0.0000 0.0000 4.9714
#
#
#
# Elastic Compliance Matrix: (Units=1/GPa)
#
#
# Indices 1 2 3 4 5 6 
#
# 1 0.012689 -0.000197 0.000489 0.000000 0.000000 0.000000
# 2 -0.000197 0.008587 -0.001369 0.000000 0.000000 0.000000
# 3 0.000489 -0.001369 0.011234 0.000000 0.000000 0.000000
# 4 0.000000 0.000000 0.000000 0.031073 0.000000 0.000000
# 5 0.000000 0.000000 0.000000 0.000000 0.029904 0.000000
# 6 0.000000 0.000000 0.000000 0.000000 0.000000 0.201149
#
#
# Mechanical properties :
#
#
# Convention : Reuss Voigt Hill
#
# Bulk Modulus (GPa) = 32.94246 34.83472 33.88859
# Shear Modulus (GPa) = 16.29153 32.53430 24.41291
#
# Velocity S-wave (km/s) = 2.59366 3.66525 3.17499
# Velocity P-wave (km/s) = 4.75100 5.68296 5.23775
#
# Compressibility (1/GPa) = 0.03035596
#
# Stress axis : x y z
#
# Youngs Moduli (GPa) = 78.81018 116.46042 89.01237
#
# Poissons Ratio (x) = 0.02290 -0.04352
# Poissons Ratio (y) = 0.01550 0.12187
# Poissons Ratio (z) = -0.03853 0.15946
#
# Static dielectric constant tensor:
#      x y z
#    x 1.910750 0.000000 0.000000 
#    y 0.000000 1.998570 0.000000 
#    z 0.000000 0.000000 1.876460 
# 
# From -- ./inp_files/1061.got.cif
#   From: 2010.05.17/outbox.cif.g08.bks.cpg/sg31_1_cif.got.tgz:1061.got - 2010.06.03 17:08:30.
