data_PCOD9343261
_publ_section_title
;
Structure prediction by ZEFSAII (Michael W. Deem and Ramdas Pophale) SiO2 
 PCOD9343261
Probable space group: P M N 21
;
_chemical_formula_sum "Si O2"
_cell_formula_units_Z 32
_cell_length_a 17.687335
_cell_length_b 16.382615
_cell_length_c 5.430327
_cell_angle_alpha 90.000000
_cell_angle_beta 90.000000
_cell_angle_gamma 90.000000
_cell_volume 1573.517615
_symmetry_space_group_name_H-M "P M N 21"
_symmetry_group_IT_number 31
_symmetry_cell_setting 'orthorhombic'
loop_
_space_group_symop_operation_xyz
x,y,z
1/2-x,-y,1/2+z
-x,y,z
1/2+x,-y,1/2+z
loop_
_atom_site_type_symbol
_atom_site_label
_atom_site_fract_x
_atom_site_fract_y
_atom_site_fract_z
Si Si1 0.414993 0.661877 0.780390
Si Si2 0.417603 0.804489 0.380011
Si Si3 0.186253 0.206128 0.503830
Si Si4 0.591703 0.388240 0.179495
Si Si5 0.591924 0.477891 0.676856
Si Si6 0.590049 0.123131 0.798759
Si Si7 0.353372 0.206145 0.296378
Si Si8 0.914653 0.063965 0.273034
O O1 0.500000 0.650867 0.884867
O O2 0.421491 0.726883 0.560085
O O3 0.387176 0.572702 0.705653
O O4 0.358360 0.709594 0.955668
O O5 0.500000 0.798483 0.239128
O O6 0.330115 0.801447 0.291123
O O7 0.421171 0.891967 0.510893
O O8 0.266302 0.206087 0.379607
O O9 0.137449 0.128121 0.415066
O O10 0.500000 0.387082 0.175323
O O11 0.616712 0.441957 0.414647
O O12 0.619938 0.297255 0.230841
O O13 0.616498 0.425916 0.916617
O O14 0.500000 0.474999 0.674131
O O15 0.500000 0.127922 0.842478
O O16 0.606227 0.171161 0.543619
O O17 0.612709 0.028468 0.762036
O O18 0.629986 0.156050 0.046261
O O19 0.000000 0.061708 0.377300
#
# Coordination Sequence:
#
# PCOD9343261 Si02
#       8
#     4   4   4   4   4   4   4   4
#     4   9  19  36  60  95 126 167 216 260 312 381
#     4   9  18  35  63  94 132 173 211 256 313 387
#     4  11  23  37  61  91 137 171 204 255 321 393
#     4  10  20  39  61  87 120 161 212 270 316 366
#     4   9  19  35  63  93 120 155 213 270 310 361
#     4  11  25  46  70  95 121 164 223 277 318 376
#     4  12  27  42  67  95 130 171 213 266 329 383
#     4   9  21  40  65  94 125 166 214 262 316 375
#
# _framework density 20.336603
#
# number of rings (size 3 to 8) (size 9 to 14) (size 15 to 20)
#    0.000    2.000    0.000    3.750    7.000    2.000 
#    0.000    1.250    0.000    0.000    0.000    0.000 
#    0.000    0.000    0.000    0.000    0.000    0.000 
#
# Total GULP energy -178157.458329 kJ/mol
# GULP energy per Si atom -5567.420573 kJ/mol
# Density = 2.029032 g / cm^3
# Si number density = 20.336603 Si / 1000 Ang^3
#
#
#
# Elastic Constant Matrix: (Units=GPa)
#
#
# Indices 1 2 3 4 5 6 
#
# 1 47.0741 12.7549 11.0063 0.0000 0.0000 0.0000
# 2 12.7549 113.1517 19.1550 0.0000 0.0000 0.0000
# 3 11.0063 19.1550 73.3553 0.0000 0.0000 0.0000
# 4 0.0000 0.0000 0.0000 -3.5871 0.0000 0.0000
# 5 0.0000 0.0000 0.0000 0.0000 24.3419 0.0000
# 6 0.0000 0.0000 0.0000 0.0000 0.0000 27.3421
#
#
#
# Elastic Compliance Matrix: (Units=1/GPa)
#
#
# Indices 1 2 3 4 5 6 
#
# 1 0.022462 -0.002052 -0.002834 0.000000 0.000000 0.000000
# 2 -0.002052 0.009434 -0.002156 0.000000 0.000000 0.000000
# 3 -0.002834 -0.002156 0.014620 0.000000 0.000000 0.000000
# 4 0.000000 0.000000 0.000000 -0.278780 0.000000 0.000000
# 5 0.000000 0.000000 0.000000 0.000000 0.041081 0.000000
# 6 0.000000 0.000000 0.000000 0.000000 0.000000 0.036574
#
#
# Mechanical properties :
#
#
# Convention : Reuss Voigt Hill
#
# Bulk Modulus (GPa) = 30.83363 35.49038 33.16200
# Shear Modulus (GPa) = -38.54618 22.33040 -8.10789
#
# Velocity S-wave (km/s) = -4.35835 3.31726 -1.99888
# Velocity P-wave (km/s) = 3.18315 5.67113 3.31883
#
# Compressibility (1/GPa) = 0.03243212
#
# Stress axis : x y z
#
# Youngs Moduli (GPa) = 44.51998 106.00047 68.39758
#
# Poissons Ratio (x) = 0.21753 0.19386
# Poissons Ratio (y) = 0.09136 0.14743
# Poissons Ratio (z) = 0.12618 0.22849
#
# Static dielectric constant tensor:
#      x y z
#    x 1.719370 0.000000 0.000000 
#    y 0.000000 1.685790 0.000000 
#    z 0.000000 0.000000 1.842430 
# 
# From -- ./inp_files/868.got.cif
#   From: 2010.05.17/outbox.cif.g08.bks.cpg/sg31_1_cif.got.tgz:868.got - 2010.06.03 17:08:30.
