data_PCOD9343993
_publ_section_title
;
Structure prediction by ZEFSAII (Michael W. Deem and Ramdas Pophale) SiO2 
 PCOD9343993
Probable space group: P B A 2
;
_chemical_formula_sum "Si O2"
_cell_formula_units_Z 18
_cell_length_a 5.442580
_cell_length_b 13.010260
_cell_length_c 10.549612
_cell_angle_alpha 90.000000
_cell_angle_beta 90.000000
_cell_angle_gamma 90.000000
_cell_volume 747.011494
_symmetry_space_group_name_H-M "P B A 2"
_symmetry_group_IT_number 32
_symmetry_cell_setting 'orthorhombic'
loop_
_space_group_symop_operation_xyz
x,y,z
-x,-y,z
1/2-x,1/2+y,z
1/2+x,1/2-y,z
loop_
_atom_site_type_symbol
_atom_site_label
_atom_site_fract_x
_atom_site_fract_y
_atom_site_fract_z
Si Si1 0.247462 0.440211 0.273910
Si Si2 0.896332 0.801943 0.720456
Si Si3 0.803363 0.183754 0.023107
Si Si4 0.500000 0.500000 0.857496
Si Si5 0.121729 0.278066 0.434229
O O1 0.500000 0.500000 0.270990
O O2 0.279272 0.352562 0.168513
O O3 0.213532 0.393774 0.415489
O O4 0.000000 0.500000 0.240846
O O5 0.662003 0.737603 0.766260
O O6 0.908631 0.775366 0.570625
O O7 0.863194 0.918630 0.765438
O O8 0.557338 0.252080 0.003286
O O9 0.835069 0.075047 0.945884
O O10 0.351159 0.217884 0.375140
#
# Coordination Sequence:
#
# PCOD9343993 Si02
#       5
#     4   4   4   2   4
#     4  12  24  44  73 112 146 195 251 301 379 453
#     4  10  24  47  70 105 144 194 246 304 368 430
#     4  12  27  46  75 110 153 193 247 315 377 442
#     4  12  26  48  78 108 150 200 254 300 374 460
#     4  10  21  44  68  99 146 186 237 306 366 425
#
# _framework density 24.096014
#
# number of rings (size 3 to 8) (size 9 to 14) (size 15 to 20)
#    0.000    0.889    1.111    5.333    0.000    2.667 
#   24.000    0.000    0.000    0.000    0.000    0.000 
#    0.000    0.000    0.000    0.000    0.000    0.000 
#
# Total GULP energy -100362.897920 kJ/mol
# GULP energy per Si atom -5575.716551 kJ/mol
# Density = 2.404117 g / cm^3
# Si number density = 24.096014 Si / 1000 Ang^3
#
#
#
# Elastic Constant Matrix: (Units=GPa)
#
#
# Indices 1 2 3 4 5 6 
#
# 1 211.3738 59.3826 34.2550 0.0000 0.0000 0.0000
# 2 59.3826 128.3401 70.3913 0.0000 0.0000 0.0000
# 3 34.2550 70.3913 122.0425 0.0000 0.0000 0.0000
# 4 0.0000 0.0000 0.0000 44.7930 0.0000 0.0000
# 5 0.0000 0.0000 0.0000 0.0000 12.0799 0.0000
# 6 0.0000 0.0000 0.0000 0.0000 0.0000 32.0335
#
#
#
# Elastic Compliance Matrix: (Units=1/GPa)
#
#
# Indices 1 2 3 4 5 6 
#
# 1 0.005439 -0.002456 -0.000110 0.000000 0.000000 0.000000
# 2 -0.002456 0.012507 -0.006524 0.000000 0.000000 0.000000
# 3 -0.000110 -0.006524 0.011988 0.000000 0.000000 0.000000
# 4 0.000000 0.000000 0.000000 0.022325 0.000000 0.000000
# 5 0.000000 0.000000 0.000000 0.000000 0.082782 0.000000
# 6 0.000000 0.000000 0.000000 0.000000 0.000000 0.031217
#
#
# Mechanical properties :
#
#
# Convention : Reuss Voigt Hill
#
# Bulk Modulus (GPa) = 85.08732 87.75715 86.42224
# Shear Modulus (GPa) = 26.54551 37.62977 32.08764
#
# Velocity S-wave (km/s) = 3.32272 3.95607 3.65315
# Velocity P-wave (km/s) = 7.07878 7.57405 7.33060
#
# Compressibility (1/GPa) = 0.01175263
#
# Stress axis : x y z
#
# Youngs Moduli (GPa) = 183.86362 79.95778 83.41927
#
# Poissons Ratio (x) = 0.19640 0.00916
# Poissons Ratio (y) = 0.45162 0.54423
# Poissons Ratio (z) = 0.02020 0.52165
#
# Static dielectric constant tensor:
#      x y z
#    x 2.052840 0.000000 0.000000 
#    y 0.000000 1.932400 0.000000 
#    z 0.000000 0.000000 2.156540 
# 
# From -- ./inp_files/3466.got.cif
#   From: 2010.05.17/outbox.cif.g08.bks.cpg/sg32_2_cif.got.tgz:3466.got - 2010.06.03 17:12:27.
