data_PCOD9343382
_publ_section_title
;
Structure prediction by ZEFSAII (Michael W. Deem and Ramdas Pophale) SiO2 
 PCOD9343382
Probable space group: P M N 21
;
_chemical_formula_sum "Si O2"
_cell_formula_units_Z 32
_cell_length_a 8.880595
_cell_length_b 12.410050
_cell_length_c 15.680471
_cell_angle_alpha 90.000000
_cell_angle_beta 90.000000
_cell_angle_gamma 90.000000
_cell_volume 1728.123195
_symmetry_space_group_name_H-M "P M N 21"
_symmetry_group_IT_number 31
_symmetry_cell_setting 'orthorhombic'
loop_
_space_group_symop_operation_xyz
x,y,z
1/2-x,-y,1/2+z
-x,y,z
1/2+x,-y,1/2+z
loop_
_atom_site_type_symbol
_atom_site_label
_atom_site_fract_x
_atom_site_fract_y
_atom_site_fract_z
Si Si1 0.818502 0.026563 0.472460
Si Si2 0.819937 0.474978 0.466097
Si Si3 0.318405 0.018142 0.776353
Si Si4 0.327948 0.253564 0.518906
Si Si5 0.827227 0.742240 0.222836
Si Si6 0.682114 0.128544 0.128647
Si Si7 0.679200 0.526874 0.284406
Si Si8 0.816623 0.621681 0.626007
O O1 0.744542 0.140300 0.494353
O O2 0.000000 0.035712 0.476751
O O3 0.778221 0.998519 0.375180
O O4 0.773599 0.937491 0.543161
O O5 0.765546 0.354587 0.485769
O O6 0.754618 0.506554 0.374979
O O7 0.767982 0.554958 0.542247
O O8 0.000000 0.479047 0.464011
O O9 0.500000 0.009987 0.768185
O O10 0.275226 0.139496 0.750585
O O11 0.245728 0.933469 0.711102
O O12 0.500000 0.259928 0.487369
O O13 0.329829 0.260198 0.620971
O O14 0.724334 0.646147 0.255063
O O15 0.000000 0.726688 0.254033
O O16 0.500000 0.127475 0.132932
O O17 0.731386 0.253511 0.125437
O O18 0.500000 0.516718 0.291996
O O19 0.730921 0.442731 0.211046
O O20 0.000000 0.621338 0.625495
#
# Coordination Sequence:
#
# PCOD9343382 Si02
#       8
#     4   4   4   4   4   4   4   4
#     4  10  22  38  61  88 118 155 201 246 296 361
#     4  11  23  41  64  89 120 160 202 245 300 360
#     4  10  22  40  60  88 120 155 198 247 298 354
#     4  11  22  39  63  88 120 156 200 253 302 354
#     4  10  21  39  63  87 117 157 201 250 303 355
#     4  10  21  39  61  85 115 157 199 240 295 356
#     4  11  23  40  61  91 124 156 201 251 298 355
#     4   9  21  40  61  84 118 158 196 242 296 353
#
# _framework density 18.517199000000002
#
# number of rings (size 3 to 8) (size 9 to 14) (size 15 to 20)
#    0.000    1.750    2.500    1.125    3.500    1.500 
#    0.000    1.875    0.000    0.000    0.000    0.000 
#    0.000    0.000    0.000    0.000    0.000    0.000 
#
# Total GULP energy -178704.557083 kJ/mol
# GULP energy per Si atom -5584.517409 kJ/mol
# Density = 1.847505 g / cm^3
# Si number density = 18.517199 Si / 1000 Ang^3
#
#
#
# Elastic Constant Matrix: (Units=GPa)
#
#
# Indices 1 2 3 4 5 6 
#
# 1 30.2710 24.7529 28.3497 0.0000 0.0000 0.0000
# 2 24.7529 119.3513 39.7144 0.0000 0.0000 0.0000
# 3 28.3497 39.7144 110.8954 0.0000 0.0000 0.0000
# 4 0.0000 0.0000 0.0000 33.1750 0.0000 0.0000
# 5 0.0000 0.0000 0.0000 0.0000 34.6553 0.0000
# 6 0.0000 0.0000 0.0000 0.0000 0.0000 16.0577
#
#
#
# Elastic Compliance Matrix: (Units=1/GPa)
#
#
# Indices 1 2 3 4 5 6 
#
# 1 0.047628 -0.006615 -0.009807 0.000000 0.000000 0.000000
# 2 -0.006615 0.010431 -0.002045 0.000000 0.000000 0.000000
# 3 -0.009807 -0.002045 0.012257 0.000000 0.000000 0.000000
# 4 0.000000 0.000000 0.000000 0.030143 0.000000 0.000000
# 5 0.000000 0.000000 0.000000 0.000000 0.028856 0.000000
# 6 0.000000 0.000000 0.000000 0.000000 0.000000 0.062276
#
#
# Mechanical properties :
#
#
# Convention : Reuss Voigt Hill
#
# Bulk Modulus (GPa) = 29.95485 49.57244 39.76364
# Shear Modulus (GPa) = 20.86372 27.95764 24.41068
#
# Velocity S-wave (km/s) = 3.36031 3.88986 3.63474
# Velocity P-wave (km/s) = 5.59173 6.85593 6.25585
#
# Compressibility (1/GPa) = 0.03338358
#
# Stress axis : x y z
#
# Youngs Moduli (GPa) = 20.99592 95.87004 81.58729
#
# Poissons Ratio (x) = 0.63414 0.80013
# Poissons Ratio (y) = 0.13888 0.16681
# Poissons Ratio (z) = 0.20591 0.19601
#
# Static dielectric constant tensor:
#      x y z
#    x 1.634620 0.000000 0.000000 
#    y 0.000000 1.594120 0.000000 
#    z 0.000000 0.000000 1.640480 
# 
# From -- ./inp_files/4974.got.cif
#   From: 2010.05.17/outbox.cif.g08.bks.cpg/sg31_3_cif.got.tgz:4974.got - 2010.06.03 17:08:30.
