data_PCOD9343419
_publ_section_title
;
Structure prediction by ZEFSAII (Michael W. Deem and Ramdas Pophale) SiO2 
 PCOD9343419
Probable space group: P M N 21
;
_chemical_formula_sum "Si O2"
_cell_formula_units_Z 20
_cell_length_a 27.712516
_cell_length_b 6.237687
_cell_length_c 4.779956
_cell_angle_alpha 90.000000
_cell_angle_beta 90.000000
_cell_angle_gamma 90.000000
_cell_volume 826.272758
_symmetry_space_group_name_H-M "P M N 21"
_symmetry_group_IT_number 31
_symmetry_cell_setting 'orthorhombic'
loop_
_space_group_symop_operation_xyz
x,y,z
1/2-x,-y,1/2+z
-x,y,z
1/2+x,-y,1/2+z
loop_
_atom_site_type_symbol
_atom_site_label
_atom_site_fract_x
_atom_site_fract_y
_atom_site_fract_z
Si Si1 0.446580 0.664458 0.827670
Si Si2 0.152401 0.132850 0.181079
Si Si3 0.553765 0.366353 0.325290
Si Si4 0.282121 0.488469 0.519857
Si Si5 0.846778 0.852185 0.682564
O O1 0.500000 0.752150 0.766604
O O2 0.402535 0.815646 0.758924
O O3 0.440770 0.447256 0.642651
O O4 0.444785 0.585450 0.145420
O O5 0.166410 0.929819 0.372886
O O6 0.184266 0.345986 0.192170
O O7 0.156216 0.067379 0.861123
O O8 0.500000 0.271609 0.287160
O O9 0.598470 0.229386 0.219842
O O10 0.248562 0.398791 0.770232
O O11 0.312983 0.319564 0.337988
#
# Coordination Sequence:
#
# PCOD9343419 Si02
#       5
#     4   4   4   4   4
#     4  10  21  40  69 102 143 188 225 272 343 420
#     4  12  26  44  75 107 138 182 236 288 351 427
#     4  10  21  40  69 102 143 188 225 272 343 420
#     4  12  28  50  75  98 141 188 234 306 370 414
#     4  12  26  44  75 107 138 182 236 288 351 427
#
# _framework density 24.205078
#
# number of rings (size 3 to 8) (size 9 to 14) (size 15 to 20)
#    0.000    0.800    2.000    4.800    2.800    4.800 
#    0.000    0.000    0.000    0.000    0.000    0.000 
#    0.000    0.000    0.000    0.000    0.000    0.000 
#
# Total GULP energy -111850.004314 kJ/mol
# GULP energy per Si atom -5592.500216 kJ/mol
# Density = 2.414999 g / cm^3
# Si number density = 24.205078 Si / 1000 Ang^3
#
#
#
# Elastic Constant Matrix: (Units=GPa)
#
#
# Indices 1 2 3 4 5 6 
#
# 1 127.9935 52.7591 32.9725 0.0000 0.0000 0.0000
# 2 52.7591 53.6321 1.7216 0.0000 0.0000 0.0000
# 3 32.9725 1.7216 93.4151 0.0000 0.0000 0.0000
# 4 0.0000 0.0000 0.0000 45.8820 0.0000 0.0000
# 5 0.0000 0.0000 0.0000 0.0000 -22.7430 0.0000
# 6 0.0000 0.0000 0.0000 0.0000 0.0000 -20.5752
#
#
#
# Elastic Compliance Matrix: (Units=1/GPa)
#
#
# Indices 1 2 3 4 5 6 
#
# 1 0.015241 -0.014829 -0.005106 0.000000 0.000000 0.000000
# 2 -0.014829 0.033084 0.004624 0.000000 0.000000 0.000000
# 3 -0.005106 0.004624 0.012422 0.000000 0.000000 0.000000
# 4 0.000000 0.000000 0.000000 0.021795 0.000000 0.000000
# 5 0.000000 0.000000 0.000000 0.000000 -0.043970 0.000000
# 6 0.000000 0.000000 0.000000 0.000000 0.000000 -0.048602
#
#
# Mechanical properties :
#
#
# Convention : Reuss Voigt Hill
#
# Bulk Modulus (GPa) = 33.19391 49.99413 41.59402
# Shear Modulus (GPa) = 163.21843 13.01859 88.11851
#
# Velocity S-wave (km/s) = 8.22058 2.32167 6.04020
# Velocity P-wave (km/s) = 10.19055 5.28073 8.11583
#
# Compressibility (1/GPa) = 0.03012601
#
# Stress axis : x y z
#
# Youngs Moduli (GPa) = 65.61363 30.22564 80.50227
#
# Poissons Ratio (x) = 0.44821 0.41106
# Poissons Ratio (y) = 0.97297 -0.37227
# Poissons Ratio (z) = 0.33504 -0.13977
#
# Static dielectric constant tensor:
#      x y z
#    x 2.004660 0.000000 0.000000 
#    y 0.000000 1.955390 0.000000 
#    z 0.000000 0.000000 1.859930 
# 
# From -- ./inp_files/1297.got.cif
#   From: 2010.05.17/outbox.cif.g08.bks.cpg/sg31_1_cif.got.tgz:1297.got - 2010.06.03 17:08:30.
