data_PCOD9343496
_publ_section_title
;
Structure prediction by ZEFSAII (Michael W. Deem and Ramdas Pophale) SiO2 
 PCOD9343496
Probable space group: P M N 21
;
_chemical_formula_sum "Si O2"
_cell_formula_units_Z 20
_cell_length_a 7.827826
_cell_length_b 10.231043
_cell_length_c 10.078514
_cell_angle_alpha 90.000000
_cell_angle_beta 90.000000
_cell_angle_gamma 90.000000
_cell_volume 807.156181
_symmetry_space_group_name_H-M "P M N 21"
_symmetry_group_IT_number 31
_symmetry_cell_setting 'orthorhombic'
loop_
_space_group_symop_operation_xyz
x,y,z
1/2-x,-y,1/2+z
-x,y,z
1/2+x,-y,1/2+z
loop_
_atom_site_type_symbol
_atom_site_label
_atom_site_fract_x
_atom_site_fract_y
_atom_site_fract_z
Si Si1 0.307474 0.750000 0.589530
Si Si2 0.699546 0.470444 0.278689
Si Si3 0.795030 0.750000 0.994035
Si Si4 0.253551 0.250000 0.780503
Si Si5 0.800454 0.970443 0.778689
O O1 0.500000 0.749999 0.642215
O O2 0.220178 0.621525 0.650322
O O3 0.220178 0.878475 0.650322
O O4 0.313394 0.750000 0.431609
O O5 0.500000 0.512673 0.288466
O O6 0.736134 0.375928 0.402602
O O7 0.814611 0.598900 0.277384
O O8 0.763866 0.875928 0.902603
O O9 0.000000 0.749999 0.027614
O O10 0.688267 0.750000 0.128000
O O11 0.314611 0.098900 0.777383
O O12 0.000000 0.012672 0.788465
#
# Coordination Sequence:
#
# PCOD9343496 Si02
#       5
#     4   4   4   4   4
#     4  11  24  43  63  89 125 164 203 250 304 362
#     4  10  22  43  65  89 123 163 203 250 304 362
#     4   9  21  41  62  86 124 165 204 251 303 357
#     4  12  22  36  65  95 122 159 204 251 304 361
#     4  10  22  43  65  89 123 163 203 250 304 362
#
# _framework density 24.778352000000002
#
# number of rings (size 3 to 8) (size 9 to 14) (size 15 to 20)
#    0.000    1.600    0.000    6.000    0.000    6.400 
#    0.000   20.000    0.000    0.000    0.000    0.000 
#    0.000    0.000    0.000    0.000    0.000    0.000 
#
# Total GULP energy -111414.411972 kJ/mol
# GULP energy per Si atom -5570.720599 kJ/mol
# Density = 2.472196 g / cm^3
# Si number density = 24.778352 Si / 1000 Ang^3
#
#
#
# Elastic Constant Matrix: (Units=GPa)
#
#
# Indices 1 2 3 4 5 6 
#
# 1 93.5852 44.6071 36.9616 0.0000 0.0000 0.0000
# 2 44.6071 240.7919 71.4942 0.0000 0.0000 0.0000
# 3 36.9616 71.4942 201.6429 0.0000 0.0000 0.0000
# 4 0.0000 0.0000 0.0000 36.5069 0.0000 0.0000
# 5 0.0000 0.0000 0.0000 0.0000 -17.4997 0.0000
# 6 0.0000 0.0000 0.0000 0.0000 0.0000 36.9435
#
#
#
# Elastic Compliance Matrix: (Units=1/GPa)
#
#
# Indices 1 2 3 4 5 6 
#
# 1 0.012165 -0.001779 -0.001599 0.000000 0.000000 0.000000
# 2 -0.001779 0.004902 -0.001412 0.000000 0.000000 0.000000
# 3 -0.001599 -0.001412 0.005753 0.000000 0.000000 0.000000
# 4 0.000000 0.000000 0.000000 0.027392 0.000000 0.000000
# 5 0.000000 0.000000 0.000000 0.000000 -0.057144 0.000000
# 6 0.000000 0.000000 0.000000 0.000000 0.000000 0.027068
#
#
# Mechanical properties :
#
#
# Convention : Reuss Voigt Hill
#
# Bulk Modulus (GPa) = 75.52910 93.57176 84.55043
# Shear Modulus (GPa) = 146.50219 36.72060 91.61140
#
# Velocity S-wave (km/s) = 7.69762 3.85380 6.08709
# Velocity P-wave (km/s) = 10.46674 7.59262 9.14332
#
# Compressibility (1/GPa) = 0.01323993
#
# Stress axis : x y z
#
# Youngs Moduli (GPa) = 82.20384 204.01139 173.82258
#
# Poissons Ratio (x) = 0.36288 0.27797
# Poissons Ratio (y) = 0.14622 0.24542
# Poissons Ratio (z) = 0.13146 0.28804
#
# Static dielectric constant tensor:
#      x y z
#    x 1.989480 0.000000 0.000000 
#    y 0.000000 1.932060 0.000000 
#    z 0.000000 0.000000 1.894410 
# 
# From -- ./inp_files/4695.got.cif
#   From: 2010.05.17/outbox.cif.g08.bks.cpg/sg31_3_cif.got.tgz:4695.got - 2010.06.03 17:08:30.
