data_PCOD9343783
_publ_section_title
;
Structure prediction by ZEFSAII (Michael W. Deem and Ramdas Pophale) SiO2 
 PCOD9343783
Probable space group: P B A 2
;
_chemical_formula_sum "Si O2"
_cell_formula_units_Z 28
_cell_length_a 21.501589
_cell_length_b 5.612648
_cell_length_c 10.796274
_cell_angle_alpha 90.000000
_cell_angle_beta 90.000000
_cell_angle_gamma 90.000000
_cell_volume 1302.903529
_symmetry_space_group_name_H-M "P B A 2"
_symmetry_group_IT_number 32
_symmetry_cell_setting 'orthorhombic'
loop_
_space_group_symop_operation_xyz
x,y,z
-x,-y,z
1/2-x,1/2+y,z
1/2+x,1/2-y,z
loop_
_atom_site_type_symbol
_atom_site_label
_atom_site_fract_x
_atom_site_fract_y
_atom_site_fract_z
Si Si1 0.725741 0.446446 0.864130
Si Si2 0.225741 0.053555 0.153627
Si Si3 0.000000 0.000000 0.777650
Si Si4 0.068706 0.623505 0.371427
Si Si5 0.931294 0.376495 0.646329
Si Si6 0.500000 0.500000 0.240106
Si Si7 0.899952 0.676817 0.873203
Si Si8 0.399952 0.823183 0.144553
O O1 0.741110 0.707586 0.810827
O O2 0.653383 0.376506 0.864323
O O3 0.746022 0.465326 0.008879
O O4 0.258890 0.292415 0.206931
O O5 0.153383 0.123495 0.153434
O O6 0.966963 0.801178 0.859656
O O7 0.052428 0.889331 0.689088
O O8 0.095803 0.608509 0.508878
O O9 0.105528 0.498095 0.260792
O O10 0.000000 0.500000 0.376299
O O11 0.052428 0.889331 0.328668
O O12 0.894472 0.501906 0.756963
O O13 0.000000 0.500000 0.641457
O O14 0.466963 0.698822 0.158100
O O15 0.894470 0.561039 0.008878
#
# Coordination Sequence:
#
# PCOD9343783 Si02
#       8
#     4   4   2   4   4   2   4   4
#     4   9  19  35  56  81 112 151 196 241 291 352
#     4   9  19  35  56  81 112 151 196 241 291 352
#     4  10  20  32  54  84 116 150 186 234 290 348
#     4   9  19  35  53  76 108 148 188 224 274 344
#     4   9  19  35  53  76 108 148 188 224 274 344
#     4  10  20  32  54  84 116 150 186 234 290 348
#     4  10  21  34  55  84 114 145 186 243 298 345
#     4  10  21  34  55  84 114 145 186 243 298 345
#
# _framework density 21.490461
#
# number of rings (size 3 to 8) (size 9 to 14) (size 15 to 20)
#    0.000    2.571    0.000    0.857    4.000    7.429 
#    0.000    0.000    0.000    1.714    0.000    0.000 
#    0.000    0.000    0.000    0.000    0.000    0.000 
#
# Total GULP energy -156098.879892 kJ/mol
# GULP energy per Si atom -5574.959996 kJ/mol
# Density = 2.144155 g / cm^3
# Si number density = 21.490461 Si / 1000 Ang^3
#
#
#
# Elastic Constant Matrix: (Units=GPa)
#
#
# Indices 1 2 3 4 5 6 
#
# 1 43.4846 9.4153 26.1345 0.0000 0.0000 0.0000
# 2 9.4153 77.7660 31.2121 0.0000 0.0000 0.0000
# 3 26.1345 31.2121 147.5240 0.0000 0.0000 0.0000
# 4 0.0000 0.0000 0.0000 15.0146 0.0000 0.0000
# 5 0.0000 0.0000 0.0000 0.0000 0.1199 0.0000
# 6 0.0000 0.0000 0.0000 0.0000 0.0000 43.3326
#
#
#
# Elastic Compliance Matrix: (Units=1/GPa)
#
#
# Indices 1 2 3 4 5 6 
#
# 1 0.025878 -0.001413 -0.004285 0.000000 0.000000 0.000000
# 2 -0.001413 0.014130 -0.002739 0.000000 0.000000 0.000000
# 3 -0.004285 -0.002739 0.008117 0.000000 0.000000 0.000000
# 4 0.000000 0.000000 0.000000 0.066602 0.000000 0.000000
# 5 0.000000 0.000000 0.000000 0.000000 8.338010 0.000000
# 6 0.000000 0.000000 0.000000 0.000000 0.000000 0.023077
#
#
# Mechanical properties :
#
#
# Convention : Reuss Voigt Hill
#
# Bulk Modulus (GPa) = 32.00036 44.69983 38.35010
# Shear Modulus (GPa) = 0.58802 25.16094 12.87448
#
# Velocity S-wave (km/s) = 0.52365 3.42540 2.45026
# Velocity P-wave (km/s) = 3.91004 6.04065 5.08812
#
# Compressibility (1/GPa) = 0.03124965
#
# Stress axis : x y z
#
# Youngs Moduli (GPa) = 38.64259 70.77377 123.19424
#
# Poissons Ratio (x) = 0.10001 0.52794
# Poissons Ratio (y) = 0.05461 0.33744
# Poissons Ratio (z) = 0.16560 0.19386
#
# Static dielectric constant tensor:
#      x y z
#    x 1.795480 0.000000 0.000000 
#    y 0.000000 1.854170 0.000000 
#    z 0.000000 0.000000 1.769730 
# 
# From -- ./inp_files/3583.got.cif
#   From: 2010.05.17/outbox.cif.g08.bks.cpg/sg32_2_cif.got.tgz:3583.got - 2010.06.03 17:12:27.
