data_PCOD9343429
_publ_section_title
;
Structure prediction by ZEFSAII (Michael W. Deem and Ramdas Pophale) SiO2 
 PCOD9343429
Probable space group: P M N 21
;
_chemical_formula_sum "Si O2"
_cell_formula_units_Z 20
_cell_length_a 22.127566
_cell_length_b 6.983084
_cell_length_c 5.582299
_cell_angle_alpha 90.000000
_cell_angle_beta 90.000000
_cell_angle_gamma 90.000000
_cell_volume 862.569317
_symmetry_space_group_name_H-M "P M N 21"
_symmetry_group_IT_number 31
_symmetry_cell_setting 'orthorhombic'
loop_
_space_group_symop_operation_xyz
x,y,z
1/2-x,-y,1/2+z
-x,y,z
1/2+x,-y,1/2+z
loop_
_atom_site_type_symbol
_atom_site_label
_atom_site_fract_x
_atom_site_fract_y
_atom_site_fract_z
Si Si1 0.567321 0.130723 0.317690
Si Si2 0.734398 0.888899 0.013747
Si Si3 0.119721 0.262549 0.726559
Si Si4 0.065795 0.577959 0.425948
Si Si5 0.835580 0.585251 0.046928
O O1 0.500000 0.162975 0.413068
O O2 0.585280 0.912233 0.347267
O O3 0.565978 0.212454 0.046243
O O4 0.618478 0.260373 0.432909
O O5 0.772177 0.691934 0.040471
O O6 0.749740 0.986637 0.755846
O O7 0.663899 0.837820 0.034738
O O8 0.071644 0.412804 0.625147
O O9 0.129463 0.552245 0.293521
O O10 0.161675 0.387549 0.902894
O O11 0.000000 0.549468 0.305359
#
# Coordination Sequence:
#
# PCOD9343429 Si02
#       5
#     4   4   4   4   4
#     4  10  21  44  68  98 139 182 230 290 354 423
#     4  12  28  48  74 103 145 192 245 298 360 427
#     4  11  25  42  69 101 139 186 237 295 356 423
#     4  10  23  42  68 101 140 183 235 293 356 426
#     4  11  25  42  69 101 139 185 237 296 354 421
#
# _framework density 23.186540000000001
#
# number of rings (size 3 to 8) (size 9 to 14) (size 15 to 20)
#    0.000    1.200    2.000    2.400    8.400    4.000 
#    0.000    0.000    0.000    0.000    0.000    0.000 
#    0.000    0.000    0.000    0.000    0.000    0.000 
#
# Total GULP energy -111626.541206 kJ/mol
# GULP energy per Si atom -5581.327060 kJ/mol
# Density = 2.313377 g / cm^3
# Si number density = 23.186540 Si / 1000 Ang^3
#
#
#
# Elastic Constant Matrix: (Units=GPa)
#
#
# Indices 1 2 3 4 5 6 
#
# 1 81.8218 0.8444 -5.5837 0.0000 0.0000 0.0000
# 2 0.8444 117.0603 31.4733 0.0000 0.0000 0.0000
# 3 -5.5837 31.4733 56.4497 0.0000 0.0000 0.0000
# 4 0.0000 0.0000 0.0000 21.2655 0.0000 0.0000
# 5 0.0000 0.0000 0.0000 0.0000 37.7410 0.0000
# 6 0.0000 0.0000 0.0000 0.0000 0.0000 29.3649
#
#
#
# Elastic Compliance Matrix: (Units=1/GPa)
#
#
# Indices 1 2 3 4 5 6 
#
# 1 0.012329 -0.000490 0.001493 0.000000 0.000000 0.000000
# 2 -0.000490 0.010068 -0.005662 0.000000 0.000000 0.000000
# 3 0.001493 -0.005662 0.021019 0.000000 0.000000 0.000000
# 4 0.000000 0.000000 0.000000 0.047025 0.000000 0.000000
# 5 0.000000 0.000000 0.000000 0.000000 0.026496 0.000000
# 6 0.000000 0.000000 0.000000 0.000000 0.000000 0.034054
#
#
# Mechanical properties :
#
#
# Convention : Reuss Voigt Hill
#
# Bulk Modulus (GPa) = 29.32776 34.31108 31.81942
# Shear Modulus (GPa) = 29.12450 32.91412 31.01931
#
# Velocity S-wave (km/s) = 3.54799 3.77176 3.66158
# Velocity P-wave (km/s) = 5.42774 5.81362 5.62399
#
# Compressibility (1/GPa) = 0.03409739
#
# Stress axis : x y z
#
# Youngs Moduli (GPa) = 81.11203 99.31972 47.57495
#
# Poissons Ratio (x) = 0.04870 -0.07102
# Poissons Ratio (y) = 0.03977 0.26938
# Poissons Ratio (z) = -0.12109 0.56236
#
# Static dielectric constant tensor:
#      x y z
#    x 1.813550 0.000000 0.000000 
#    y 0.000000 1.838100 0.000000 
#    z 0.000000 0.000000 2.026610 
# 
# From -- ./inp_files/1221.got.cif
#   From: 2010.05.17/outbox.cif.g08.bks.cpg/sg31_1_cif.got.tgz:1221.got - 2010.06.03 17:08:30.
