data_PCOD9343089
_publ_section_title
;
Structure prediction by ZEFSAII (Michael W. Deem and Ramdas Pophale) SiO2 
 PCOD9343089
Probable space group: P M N 21
;
_chemical_formula_sum "Si O2"
_cell_formula_units_Z 32
_cell_length_a 7.610385
_cell_length_b 11.657431
_cell_length_c 16.643932
_cell_angle_alpha 90.000000
_cell_angle_beta 90.000000
_cell_angle_gamma 90.000000
_cell_volume 1476.608670
_symmetry_space_group_name_H-M "P M N 21"
_symmetry_group_IT_number 31
_symmetry_cell_setting 'orthorhombic'
loop_
_space_group_symop_operation_xyz
x,y,z
1/2-x,-y,1/2+z
-x,y,z
1/2+x,-y,1/2+z
loop_
_atom_site_type_symbol
_atom_site_label
_atom_site_fract_x
_atom_site_fract_y
_atom_site_fract_z
Si Si1 0.300152 0.506350 0.555530
Si Si2 0.713951 0.072699 0.893623
Si Si3 0.787595 0.766601 0.540561
Si Si4 0.298541 0.831566 0.220856
Si Si5 0.702281 0.828868 0.861402
Si Si6 0.714125 0.073423 0.187561
Si Si7 0.207382 0.423635 0.731123
Si Si8 0.795527 0.569528 0.884516
O O1 0.500000 0.463248 0.561009
O O2 0.294636 0.642199 0.542748
O O3 0.221932 0.481102 0.643429
O O4 0.217680 0.455413 0.473227
O O5 0.500000 0.070572 0.885337
O O6 0.793196 0.120948 0.811649
O O7 0.770229 0.941027 0.908909
O O8 0.760486 0.160053 0.963098
O O9 0.737082 0.841869 0.616890
O O10 0.000000 0.752530 0.541229
O O11 0.500000 0.817728 0.192669
O O12 0.216553 0.705217 0.222778
O O13 0.223813 0.942285 0.174373
O O14 0.500000 0.810845 0.884011
O O15 0.715581 0.873814 0.770076
O O16 0.789271 0.705437 0.868811
O O17 0.500000 0.070180 0.193144
O O18 0.277128 0.498960 0.806897
O O19 0.000000 0.410110 0.747661
O O20 0.000000 0.535224 0.891256
#
# Coordination Sequence:
#
# PCOD9343089 Si02
#       8
#     4   4   4   4   4   4   4   4
#     4  11  24  39  56  82 112 142 183 231 273 320
#     4   9  19  34  53  79 108 135 170 222 273 316
#     4  10  20  35  54  76 104 138 174 215 268 324
#     4   9  18  34  56  79 104 140 182 217 260 322
#     4  10  20  34  54  80 107 137 177 221 266 317
#     4   9  18  33  54  78 105 138 175 217 266 322
#     4  10  21  38  59  81 109 148 188 224 267 323
#     4  10  22  39  56  77 111 150 183 221 271 324
#
# _framework density 21.671279999999999
#
# number of rings (size 3 to 8) (size 9 to 14) (size 15 to 20)
#    0.000    2.250    0.000    2.250    0.000    8.500 
#    0.000    2.500    0.000    0.000    0.000    0.000 
#    0.000    0.000    0.000    0.000    0.000    0.000 
#
# Total GULP energy -178479.683691 kJ/mol
# GULP energy per Si atom -5577.490115 kJ/mol
# Density = 2.162196 g / cm^3
# Si number density = 21.671280 Si / 1000 Ang^3
#
#
#
# Elastic Constant Matrix: (Units=GPa)
#
#
# Indices 1 2 3 4 5 6 
#
# 1 41.8839 -2.9936 -5.7418 0.0000 0.0000 0.0000
# 2 -2.9936 142.0859 34.7185 0.0000 0.0000 0.0000
# 3 -5.7418 34.7185 60.0461 0.0000 0.0000 0.0000
# 4 0.0000 0.0000 0.0000 35.1021 0.0000 0.0000
# 5 0.0000 0.0000 0.0000 0.0000 121.0385 0.0000
# 6 0.0000 0.0000 0.0000 0.0000 0.0000 20.9092
#
#
#
# Elastic Compliance Matrix: (Units=1/GPa)
#
#
# Indices 1 2 3 4 5 6 
#
# 1 0.024193 -0.000065 0.002351 0.000000 0.000000 0.000000
# 2 -0.000065 0.008196 -0.004745 0.000000 0.000000 0.000000
# 3 0.002351 -0.004745 0.019622 0.000000 0.000000 0.000000
# 4 0.000000 0.000000 0.000000 0.028488 0.000000 0.000000
# 5 0.000000 0.000000 0.000000 0.000000 0.008262 0.000000
# 6 0.000000 0.000000 0.000000 0.000000 0.000000 0.047826
#
#
# Mechanical properties :
#
#
# Convention : Reuss Voigt Hill
#
# Bulk Modulus (GPa) = 21.23433 32.88690 27.06062
# Shear Modulus (GPa) = 31.80592 49.94548 40.87570
#
# Velocity S-wave (km/s) = 3.83515 4.80592 4.34772
# Velocity P-wave (km/s) = 5.42502 6.78263 6.14146
#
# Compressibility (1/GPa) = 0.04709354
#
# Stress axis : x y z
#
# Youngs Moduli (GPa) = 41.33396 122.00916 50.96246
#
# Poissons Ratio (x) = 0.00789 -0.11980
# Poissons Ratio (y) = 0.00267 0.24182
# Poissons Ratio (z) = -0.09717 0.57895
#
# Static dielectric constant tensor:
#      x y z
#    x 1.503400 0.000000 0.000000 
#    y 0.000000 1.780220 0.000000 
#    z 0.000000 0.000000 1.773820 
# 
# From -- ./inp_files/4933.got.cif
#   From: 2010.05.17/outbox.cif.g08.bks.cpg/sg31_3_cif.got.tgz:4933.got - 2010.06.03 17:08:30.
