data_PCOD9343708
_publ_section_title
;
Structure prediction by ZEFSAII (Michael W. Deem and Ramdas Pophale) SiO2 
 PCOD9343708
Probable space group: P B A 2
;
_chemical_formula_sum "Si O2"
_cell_formula_units_Z 30
_cell_length_a 4.833116
_cell_length_b 12.385433
_cell_length_c 20.212367
_cell_angle_alpha 90.000000
_cell_angle_beta 90.000000
_cell_angle_gamma 90.000000
_cell_volume 1209.917026
_symmetry_space_group_name_H-M "P B A 2"
_symmetry_group_IT_number 32
_symmetry_cell_setting 'orthorhombic'
loop_
_space_group_symop_operation_xyz
x,y,z
-x,-y,z
1/2-x,1/2+y,z
1/2+x,1/2-y,z
loop_
_atom_site_type_symbol
_atom_site_label
_atom_site_fract_x
_atom_site_fract_y
_atom_site_fract_z
Si Si1 0.741934 0.828829 0.133700
Si Si2 0.603216 0.823722 0.559425
Si Si3 0.233028 0.435550 0.675372
Si Si4 0.310449 0.174178 0.416159
Si Si5 0.670159 0.669992 0.947809
Si Si6 0.581364 0.825802 0.275353
Si Si7 0.000000 0.500000 0.034174
Si Si8 0.241220 0.314943 0.802788
O O1 0.044065 0.776978 0.127986
O O2 0.674804 0.877470 0.206707
O O3 0.670099 0.917725 0.080352
O O4 0.919879 0.786112 0.564745
O O5 0.459252 0.889962 0.616994
O O6 0.597197 0.875227 0.486148
O O7 0.500000 0.500000 0.650824
O O8 0.337668 0.355032 0.731154
O O9 0.000000 0.500000 0.716120
O O10 0.995694 0.215525 0.416374
O O11 0.361861 0.118739 0.345830
O O12 0.373305 0.725752 0.957872
O O13 0.680539 0.629635 0.871564
O O14 0.789193 0.573837 0.992016
O O15 0.767763 0.715699 0.275452
O O16 0.414388 0.203522 0.806673
#
# Coordination Sequence:
#
# PCOD9343708 Si02
#       8
#     4   4   4   4   4   4   2   4
#     4  10  22  38  59  88 122 157 200 246 298 358
#     4  10  19  34  55  80 108 149 195 235 281 347
#     4  12  24  36  56  85 118 149 188 238 295 354
#     4   8  14  25  48  77 101 137 191 232 273 332
#     4  10  24  43  63  91 122 155 201 247 299 361
#     4   8  14  28  49  77 108 142 184 238 281 329
#     4  12  24  40  66  90 124 162 198 246 310 364
#     4  10  21  42  63  82 111 150 192 242 287 342
#
# _framework density 24.795089999999998
#
# number of rings (size 3 to 8) (size 9 to 14) (size 15 to 20)
#    0.000    2.133    0.000    3.200    0.933    2.133 
#    0.000    0.000    1.467    0.000    0.000    0.000 
#    0.000    0.000    0.000    0.000    0.000    0.000 
#
# Total GULP energy -167432.612466 kJ/mol
# GULP energy per Si atom -5581.087082 kJ/mol
# Density = 2.473866 g / cm^3
# Si number density = 24.795090 Si / 1000 Ang^3
#
#
#
# Elastic Constant Matrix: (Units=GPa)
#
#
# Indices 1 2 3 4 5 6 
#
# 1 99.0329 -6.3616 -8.2123 0.0000 0.0000 0.0000
# 2 -6.3616 39.9344 27.0748 0.0000 0.0000 0.0000
# 3 -8.2123 27.0748 153.6566 0.0000 0.0000 0.0000
# 4 0.0000 0.0000 0.0000 -27.3362 0.0000 0.0000
# 5 0.0000 0.0000 0.0000 0.0000 28.6723 0.0000
# 6 0.0000 0.0000 0.0000 0.0000 0.0000 13.5569
#
#
#
# Elastic Compliance Matrix: (Units=1/GPa)
#
#
# Indices 1 2 3 4 5 6 
#
# 1 0.010214 0.001428 0.000294 0.000000 0.000000 0.000000
# 2 0.001428 0.028638 -0.004970 0.000000 0.000000 0.000000
# 3 0.000294 -0.004970 0.007399 0.000000 0.000000 0.000000
# 4 0.000000 0.000000 0.000000 -0.036582 0.000000 0.000000
# 5 0.000000 0.000000 0.000000 0.000000 0.034877 0.000000
# 6 0.000000 0.000000 0.000000 0.000000 0.000000 0.073763
#
#
# Mechanical properties :
#
#
# Convention : Reuss Voigt Hill
#
# Bulk Modulus (GPa) = 25.15395 35.29176 30.22285
# Shear Modulus (GPa) = 36.21693 21.65347 28.93520
#
# Velocity S-wave (km/s) = 3.82599 2.95837 3.41980
# Velocity P-wave (km/s) = 5.44833 5.09249 5.27342
#
# Compressibility (1/GPa) = 0.03975519
#
# Stress axis : x y z
#
# Youngs Moduli (GPa) = 97.90713 34.91879 135.14520
#
# Poissons Ratio (x) = -0.04985 -0.03978
# Poissons Ratio (y) = -0.13976 0.67165
# Poissons Ratio (z) = -0.02882 0.17354
#
# Static dielectric constant tensor:
#      x y z
#    x 1.909090 0.000000 0.000000 
#    y 0.000000 2.016450 0.000000 
#    z 0.000000 0.000000 2.083320 
# 
# From -- ./inp_files/4266.got.cif
#   From: 2010.05.17/outbox.cif.g08.bks.cpg/sg32_3_cif.got.tgz:4266.got - 2010.06.03 17:12:27.
