data_PCOD9343232
_publ_section_title
;
Structure prediction by ZEFSAII (Michael W. Deem and Ramdas Pophale) SiO2 
 PCOD9343232
Probable space group: P M N 21
;
_chemical_formula_sum "Si O2"
_cell_formula_units_Z 16
_cell_length_a 17.339008
_cell_length_b 7.451082
_cell_length_c 4.977241
_cell_angle_alpha 90.000000
_cell_angle_beta 90.000000
_cell_angle_gamma 90.000000
_cell_volume 643.031517
_symmetry_space_group_name_H-M "P M N 21"
_symmetry_group_IT_number 31
_symmetry_cell_setting 'orthorhombic'
loop_
_space_group_symop_operation_xyz
x,y,z
1/2-x,-y,1/2+z
-x,y,z
1/2+x,-y,1/2+z
loop_
_atom_site_type_symbol
_atom_site_label
_atom_site_fract_x
_atom_site_fract_y
_atom_site_fract_z
Si Si1 0.644935 0.695367 0.132220
Si Si2 0.360739 0.060264 0.405730
Si Si3 0.762136 0.236976 0.115884
Si Si4 0.500000 0.218873 0.729324
Si Si5 0.000000 0.552766 0.733548
O O1 0.716402 0.665375 0.339520
O O2 0.575331 0.561308 0.168538
O O3 0.614679 0.894500 0.216068
O O4 0.679345 0.691057 0.837802
O O5 0.323566 0.219970 0.230659
O O6 0.425028 0.116752 0.616737
O O7 0.289805 0.969779 0.567515
O O8 0.500000 0.398765 0.547627
O O9 0.500000 0.270430 0.041621
#
# Coordination Sequence:
#
# PCOD9343232 Si02
#       5
#     4   4   4   2   2
#     4  10  21  40  69  90 128 176 223 271 328 403
#     4  10  22  42  69 104 119 171 224 300 328 385
#     4  10  20  37  75  95 121 159 241 286 322 391
#     4  12  29  39  66  94 152 167 220 281 351 389
#     4  12  27  45  56 100 144 187 216 263 335 443
#
# _framework density 24.882138999999999
#
# number of rings (size 3 to 8) (size 9 to 14) (size 15 to 20)
#    1.500    0.000    2.500    2.250    3.500    1.000 
#    0.000    5.000    0.000    0.000    0.000    0.000 
#    0.000    0.000    0.000    0.000    0.000    0.000 
#
# Total GULP energy -89508.189728 kJ/mol
# GULP energy per Si atom -5594.261858 kJ/mol
# Density = 2.482551 g / cm^3
# Si number density = 24.882139 Si / 1000 Ang^3
#
#
#
# Elastic Constant Matrix: (Units=GPa)
#
#
# Indices 1 2 3 4 5 6 
#
# 1 87.8338 35.8891 1.1695 0.0000 0.0000 0.0000
# 2 35.8891 68.6967 -6.9247 0.0000 0.0000 0.0000
# 3 1.1695 -6.9247 93.8273 0.0000 0.0000 0.0000
# 4 0.0000 0.0000 0.0000 33.3087 0.0000 0.0000
# 5 0.0000 0.0000 0.0000 0.0000 34.4411 0.0000
# 6 0.0000 0.0000 0.0000 0.0000 0.0000 55.4847
#
#
#
# Elastic Compliance Matrix: (Units=1/GPa)
#
#
# Indices 1 2 3 4 5 6 
#
# 1 0.014527 -0.007665 -0.000747 0.000000 0.000000 0.000000
# 2 -0.007665 0.018710 0.001476 0.000000 0.000000 0.000000
# 3 -0.000747 0.001476 0.010776 0.000000 0.000000 0.000000
# 4 0.000000 0.000000 0.000000 0.030022 0.000000 0.000000
# 5 0.000000 0.000000 0.000000 0.000000 0.029035 0.000000
# 6 0.000000 0.000000 0.000000 0.000000 0.000000 0.018023
#
#
# Mechanical properties :
#
#
# Convention : Reuss Voigt Hill
#
# Bulk Modulus (GPa) = 33.17528 34.51397 33.84462
# Shear Modulus (GPa) = 34.48030 39.32848 36.90439
#
# Velocity S-wave (km/s) = 3.72660 3.97998 3.85537
# Velocity P-wave (km/s) = 5.64612 5.91789 5.78360
#
# Compressibility (1/GPa) = 0.03014293
#
# Stress axis : x y z
#
# Youngs Moduli (GPa) = 68.83816 53.44819 92.79759
#
# Poissons Ratio (x) = 0.40965 0.06929
# Poissons Ratio (y) = 0.52761 -0.13700
# Poissons Ratio (z) = 0.05140 -0.07891
#
# Static dielectric constant tensor:
#      x y z
#    x 1.942040 0.000000 0.000000 
#    y 0.000000 2.034700 0.000000 
#    z 0.000000 0.000000 1.926130 
# 
# From -- ./inp_files/726.got.cif
#   From: 2010.05.17/outbox.cif.g08.bks.cpg/sg31_1_cif.got.tgz:726.got - 2010.06.03 17:08:30.
