data_PCOD9343575
_publ_section_title
;
Structure prediction by ZEFSAII (Michael W. Deem and Ramdas Pophale) SiO2 
 PCOD9343575
Probable space group: P M N 21
;
_chemical_formula_sum "Si O2"
_cell_formula_units_Z 16
_cell_length_a 13.220997
_cell_length_b 7.215261
_cell_length_c 7.253179
_cell_angle_alpha 90.000000
_cell_angle_beta 90.000000
_cell_angle_gamma 90.000000
_cell_volume 691.902098
_symmetry_space_group_name_H-M "P M N 21"
_symmetry_group_IT_number 31
_symmetry_cell_setting 'orthorhombic'
loop_
_space_group_symop_operation_xyz
x,y,z
1/2-x,-y,1/2+z
-x,y,z
1/2+x,-y,1/2+z
loop_
_atom_site_type_symbol
_atom_site_label
_atom_site_fract_x
_atom_site_fract_y
_atom_site_fract_z
Si Si1 0.811457 0.091969 0.918260
Si Si2 0.114637 0.120628 0.330772
Si Si3 0.303366 0.603222 0.102916
Si Si4 0.616184 0.312588 0.361001
O O1 0.818403 0.257844 0.774616
O O2 0.695855 0.019333 0.920001
O O3 0.853294 0.140008 0.118631
O O4 0.872337 0.908781 0.854813
O O5 0.130227 0.313816 0.437237
O O6 0.000000 0.056197 0.345685
O O7 0.338958 0.406568 0.177179
O O8 0.810803 0.619268 0.027175
O O9 0.500000 0.366027 0.385906
#
# Coordination Sequence:
#
# PCOD9343575 Si02
#       4
#     4   4   4   4
#     4  11  24  47  72 109 147 190 256 308 364 459
#     4  11  23  44  74 104 147 196 240 308 380 434
#     4  11  27  47  72 111 152 190 253 314 362 452
#     4  11  26  48  76 106 148 200 245 304 376 443
#
# _framework density 23.124656999999999
#
# number of rings (size 3 to 8) (size 9 to 14) (size 15 to 20)
#    0.000    1.000    5.000    1.500    7.000    4.000 
#    0.000    1.250    0.000    0.000    0.000    0.000 
#    0.000    0.000    0.000    0.000    0.000    0.000 
#
# Total GULP energy -89622.873803 kJ/mol
# GULP energy per Si atom -5601.429613 kJ/mol
# Density = 2.307202 g / cm^3
# Si number density = 23.124657 Si / 1000 Ang^3
#
#
#
# Elastic Constant Matrix: (Units=GPa)
#
#
# Indices 1 2 3 4 5 6 
#
# 1 161.2171 5.1914 11.5440 0.0000 0.0000 0.0000
# 2 5.1914 96.1587 40.5899 0.0000 0.0000 0.0000
# 3 11.5440 40.5899 102.9309 0.0000 0.0000 0.0000
# 4 0.0000 0.0000 0.0000 25.9828 0.0000 0.0000
# 5 0.0000 0.0000 0.0000 0.0000 15.2600 0.0000
# 6 0.0000 0.0000 0.0000 0.0000 0.0000 0.6652
#
#
#
# Elastic Compliance Matrix: (Units=1/GPa)
#
#
# Indices 1 2 3 4 5 6 
#
# 1 0.006253 -0.000050 -0.000682 0.000000 0.000000 0.000000
# 2 -0.000050 0.012477 -0.004914 0.000000 0.000000 0.000000
# 3 -0.000682 -0.004914 0.011730 0.000000 0.000000 0.000000
# 4 0.000000 0.000000 0.000000 0.038487 0.000000 0.000000
# 5 0.000000 0.000000 0.000000 0.000000 0.065531 0.000000
# 6 0.000000 0.000000 0.000000 0.000000 0.000000 1.503233
#
#
# Mechanical properties :
#
#
# Convention : Reuss Voigt Hill
#
# Bulk Modulus (GPa) = 52.17141 52.77304 52.47223
# Shear Modulus (GPa) = 3.02043 28.58038 15.80041
#
# Velocity S-wave (km/s) = 1.14411 3.51939 2.61678
# Velocity P-wave (km/s) = 4.93510 6.27578 5.64538
#
# Compressibility (1/GPa) = 0.01916759
#
# Stress axis : x y z
#
# Youngs Moduli (GPa) = 159.91732 80.14988 85.25380
#
# Poissons Ratio (x) = 0.00400 0.05811
# Poissons Ratio (y) = 0.00797 0.41898
# Poissons Ratio (z) = 0.10901 0.39389
#
# Static dielectric constant tensor:
#      x y z
#    x 1.850930 0.000000 0.000000 
#    y 0.000000 1.900430 0.000000 
#    z 0.000000 0.000000 1.861320 
# 
# From -- ./inp_files/266.got.cif
#   From: 2010.05.17/outbox.cif.g08.bks.cpg/sg31_1_cif.got.tgz:266.got - 2010.06.03 17:08:30.
