data_PCOD9343984
_publ_section_title
;
Structure prediction by ZEFSAII (Michael W. Deem and Ramdas Pophale) SiO2 
 PCOD9343984
Probable space group: P B A 2
;
_chemical_formula_sum "Si O2"
_cell_formula_units_Z 26
_cell_length_a 12.440844
_cell_length_b 8.143978
_cell_length_c 12.131019
_cell_angle_alpha 90.000000
_cell_angle_beta 90.000000
_cell_angle_gamma 90.000000
_cell_volume 1229.090096
_symmetry_space_group_name_H-M "P B A 2"
_symmetry_group_IT_number 32
_symmetry_cell_setting 'orthorhombic'
loop_
_space_group_symop_operation_xyz
x,y,z
-x,-y,z
1/2-x,1/2+y,z
1/2+x,1/2-y,z
loop_
_atom_site_type_symbol
_atom_site_label
_atom_site_fract_x
_atom_site_fract_y
_atom_site_fract_z
Si Si1 0.387024 0.428545 0.895960
Si Si2 0.342941 0.544945 0.124451
Si Si3 0.924238 0.659782 0.405784
Si Si4 0.884036 0.588288 0.161568
Si Si5 0.753273 0.319348 0.771377
Si Si6 0.000000 0.000000 0.322963
Si Si7 0.377919 0.935019 0.641246
O O1 0.500000 0.500000 0.858869
O O2 0.296979 0.557341 0.858521
O O3 0.352695 0.267092 0.831857
O O4 0.383928 0.426040 0.027654
O O5 0.214658 0.526742 0.128365
O O6 0.376882 0.734254 0.102111
O O7 0.398917 0.490989 0.238851
O O8 0.863900 0.636249 0.290081
O O9 0.863051 0.645437 0.520985
O O10 0.000000 0.500000 0.408752
O O11 0.985668 0.833663 0.393030
O O12 0.000000 0.500000 0.150476
O O13 0.660465 0.195971 0.731893
O O14 0.798770 0.413491 0.664968
O O15 0.500000 0.000000 0.652816
#
# Coordination Sequence:
#
# PCOD9343984 Si02
#       7
#     4   4   4   4   4   2   4
#     4  11  22  41  64  93 127 174 224 280 338 403
#     4  11  23  39  67  92 138 179 233 283 347 406
#     4   9  21  42  64  93 136 168 223 271 339 400
#     4  10  24  40  62  96 136 181 229 284 337 419
#     4  10  23  40  64  93 127 172 227 278 341 397
#     4  10  22  42  64 100 134 180 222 282 332 420
#     4  10  21  43  63  93 132 169 223 283 338 409
#
# _framework density 21.153860000000002
#
# number of rings (size 3 to 8) (size 9 to 14) (size 15 to 20)
#    0.000    1.846    0.769    1.846    6.462    3.692 
#   15.231    3.846    0.000    0.000    0.000    0.000 
#    0.000    0.000    0.000    0.000    0.000    0.000 
#
# Total GULP energy -145070.171113 kJ/mol
# GULP energy per Si atom -5579.621966 kJ/mol
# Density = 2.110571 g / cm^3
# Si number density = 21.153860 Si / 1000 Ang^3
#
#
#
# Elastic Constant Matrix: (Units=GPa)
#
#
# Indices 1 2 3 4 5 6 
#
# 1 110.2152 36.1450 11.3041 0.0000 0.0000 0.0000
# 2 36.1450 115.9526 38.7784 0.0000 0.0000 0.0000
# 3 11.3041 38.7784 76.4882 0.0000 0.0000 0.0000
# 4 0.0000 0.0000 0.0000 25.6250 0.0000 0.0000
# 5 0.0000 0.0000 0.0000 0.0000 23.8558 0.0000
# 6 0.0000 0.0000 0.0000 0.0000 0.0000 32.1827
#
#
#
# Elastic Compliance Matrix: (Units=1/GPa)
#
#
# Indices 1 2 3 4 5 6 
#
# 1 0.010107 -0.003192 0.000125 0.000000 0.000000 0.000000
# 2 -0.003192 0.011393 -0.005304 0.000000 0.000000 0.000000
# 3 0.000125 -0.005304 0.015745 0.000000 0.000000 0.000000
# 4 0.000000 0.000000 0.000000 0.039024 0.000000 0.000000
# 5 0.000000 0.000000 0.000000 0.000000 0.041919 0.000000
# 6 0.000000 0.000000 0.000000 0.000000 0.000000 0.031073
#
#
# Mechanical properties :
#
#
# Convention : Reuss Voigt Hill
#
# Bulk Modulus (GPa) = 48.77764 52.79013 50.78389
# Shear Modulus (GPa) = 28.92867 30.76126 29.84496
#
# Velocity S-wave (km/s) = 3.70203 3.81749 3.76021
# Velocity P-wave (km/s) = 6.43288 6.66637 6.55067
#
# Compressibility (1/GPa) = 0.02050120
#
# Stress axis : x y z
#
# Youngs Moduli (GPa) = 98.93827 87.77058 63.51324
#
# Poissons Ratio (x) = 0.28020 -0.00792
# Poissons Ratio (y) = 0.31585 0.33690
# Poissons Ratio (z) = -0.01234 0.46558
#
# Static dielectric constant tensor:
#      x y z
#    x 1.752430 0.000000 0.000000 
#    y 0.000000 1.760960 0.000000 
#    z 0.000000 0.000000 1.791430 
# 
# From -- ./inp_files/3838.got.cif
#   From: 2010.05.17/outbox.cif.g08.bks.cpg/sg32_2_cif.got.tgz:3838.got - 2010.06.03 17:12:27.
