data_PCOD9343692
_publ_section_title
;
Structure prediction by ZEFSAII (Michael W. Deem and Ramdas Pophale) SiO2 
 PCOD9343692
Probable space group: P B A 2
;
_chemical_formula_sum "Si O2"
_cell_formula_units_Z 32
_cell_length_a 11.215387
_cell_length_b 14.068287
_cell_length_c 8.478772
_cell_angle_alpha 90.000000
_cell_angle_beta 90.000000
_cell_angle_gamma 90.000000
_cell_volume 1337.791526
_symmetry_space_group_name_H-M "P B A 2"
_symmetry_group_IT_number 32
_symmetry_cell_setting 'orthorhombic'
loop_
_space_group_symop_operation_xyz
x,y,z
-x,-y,z
1/2-x,1/2+y,z
1/2+x,1/2-y,z
loop_
_atom_site_type_symbol
_atom_site_label
_atom_site_fract_x
_atom_site_fract_y
_atom_site_fract_z
Si Si1 0.486641 0.391129 0.164270
Si Si2 0.735701 0.392682 0.257956
Si Si3 0.044668 0.863069 0.799401
Si Si4 0.197926 0.139823 0.629738
Si Si5 0.207198 0.371092 0.655200
Si Si6 0.744240 0.106397 0.289117
Si Si7 0.509523 0.883658 0.319776
Si Si8 0.045467 0.647086 0.688597
O O1 0.500000 0.500000 0.225620
O O2 0.618847 0.349168 0.181497
O O3 0.372549 0.347808 0.254764
O O4 0.462038 0.389602 0.980405
O O5 0.708460 0.383442 0.444878
O O6 0.744321 0.503256 0.211759
O O7 0.869919 0.358607 0.228030
O O8 0.171797 0.899093 0.739437
O O9 0.047425 0.749011 0.772759
O O10 0.925997 0.894282 0.704861
O O11 0.201364 0.255191 0.646248
O O12 0.322147 0.104618 0.707328
O O13 0.224853 0.404858 0.476046
O O14 0.080564 0.401845 0.729184
O O15 0.615251 0.147504 0.243441
O O16 0.528046 0.842921 0.497029
O O17 0.500000 0.000000 0.335459
#
# Coordination Sequence:
#
# PCOD9343692 Si02
#       8
#     4   4   4   4   4   4   4   4
#     4  10  21  34  47  70 104 136 165 196 234 289
#     4   9  17  31  51  74  99 125 159 205 249 289
#     4  10  19  31  47  67 101 139 164 194 236 283
#     4   9  17  31  52  74  95 124 164 208 247 286
#     4   9  17  31  52  74  95 124 164 208 247 286
#     4   9  17  31  51  74  99 125 159 205 249 289
#     4   8  14  28  54  81  98 118 155 206 256 292
#     4   8  16  31  50  72  97 121 156 204 248 286
#
# _framework density 23.920020000000001
#
# number of rings (size 3 to 8) (size 9 to 14) (size 15 to 20)
#    0.000    3.000    0.000    0.750    0.000    1.000 
#    0.000    5.000    0.000    0.000    0.000    0.000 
#    0.000    0.000    0.000    0.000    0.000    0.000 
#
# Total GULP energy -178466.265819 kJ/mol
# GULP energy per Si atom -5577.070807 kJ/mol
# Density = 2.386558 g / cm^3
# Si number density = 23.920020 Si / 1000 Ang^3
#
#
#
# Elastic Constant Matrix: (Units=GPa)
#
#
# Indices 1 2 3 4 5 6 
#
# 1 299.6701 -6.2695 45.4559 0.0000 0.0000 0.0000
# 2 -6.2695 83.1736 -9.7170 0.0000 0.0000 0.0000
# 3 45.4559 -9.7170 18.2096 0.0000 0.0000 0.0000
# 4 0.0000 0.0000 0.0000 16.7709 0.0000 0.0000
# 5 0.0000 0.0000 0.0000 0.0000 -11.7863 0.0000
# 6 0.0000 0.0000 0.0000 0.0000 0.0000 -3.0331
#
#
#
# Elastic Compliance Matrix: (Units=1/GPa)
#
#
# Indices 1 2 3 4 5 6 
#
# 1 0.005493 -0.001267 -0.014388 0.000000 0.000000 0.000000
# 2 -0.001267 0.013115 0.010161 0.000000 0.000000 0.000000
# 3 -0.014388 0.010161 0.096254 0.000000 0.000000 0.000000
# 4 0.000000 0.000000 0.000000 0.059627 0.000000 0.000000
# 5 0.000000 0.000000 0.000000 0.000000 -0.084844 0.000000
# 6 0.000000 0.000000 0.000000 0.000000 0.000000 -0.329700
#
#
# Mechanical properties :
#
#
# Convention : Reuss Voigt Hill
#
# Bulk Modulus (GPa) = 9.62712 51.11023 30.36867
# Shear Modulus (GPa) = -25.71451 25.16255 -0.27598
#
# Velocity S-wave (km/s) = -3.28231 3.24689 -0.34004
# Velocity P-wave (km/s) = 3.21423 5.95566 3.54532
#
# Compressibility (1/GPa) = 0.10387320
#
# Stress axis : x y z
#
# Youngs Moduli (GPa) = 182.05205 76.25102 10.38919
#
# Poissons Ratio (x) = 0.09660 0.14948
# Poissons Ratio (y) = 0.23063 -0.10556
# Poissons Ratio (z) = 2.61933 -0.77475
#
# Static dielectric constant tensor:
#      x y z
#    x 2.099680 0.000000 0.000000 
#    y 0.000000 1.918570 0.000000 
#    z 0.000000 0.000000 1.813090 
# 
# From -- ./inp_files/2934.got.cif
#   From: 2010.05.17/outbox.cif.g08.bks.cpg/sg32_2_cif.got.tgz:2934.got - 2010.06.03 17:12:27.
