data_PCOD9343680
_publ_section_title
;
Structure prediction by ZEFSAII (Michael W. Deem and Ramdas Pophale) SiO2 
 PCOD9343680
Probable space group: P B A 2
;
_chemical_formula_sum "Si O2"
_cell_formula_units_Z 32
_cell_length_a 18.521521
_cell_length_b 10.679228
_cell_length_c 6.411287
_cell_angle_alpha 90.000000
_cell_angle_beta 90.000000
_cell_angle_gamma 90.000000
_cell_volume 1268.124011
_symmetry_space_group_name_H-M "P B A 2"
_symmetry_group_IT_number 32
_symmetry_cell_setting 'orthorhombic'
loop_
_space_group_symop_operation_xyz
x,y,z
-x,-y,z
1/2-x,1/2+y,z
1/2+x,1/2-y,z
loop_
_atom_site_type_symbol
_atom_site_label
_atom_site_fract_x
_atom_site_fract_y
_atom_site_fract_z
Si Si1 0.111830 0.485817 0.167110
Si Si2 0.818345 0.131918 0.311244
Si Si3 0.859374 0.917152 0.648433
Si Si4 0.168754 0.345753 0.510872
Si Si5 0.923881 0.101552 0.948024
Si Si6 0.587515 0.803525 0.591425
Si Si7 0.292690 0.035334 0.826371
Si Si8 0.001059 0.701394 0.200124
O O1 0.122656 0.458140 0.409814
O O2 0.057683 0.597547 0.114598
O O3 0.074270 0.352635 0.110269
O O4 0.187379 0.520811 0.065546
O O5 0.735318 0.166937 0.350117
O O6 0.860636 0.247742 0.412257
O O7 0.842808 0.014758 0.458929
O O8 0.848616 0.111962 0.078782
O O9 0.872729 0.782272 0.549018
O O10 0.916434 0.971854 0.816795
O O11 0.782753 0.905215 0.767591
O O12 0.203566 0.398574 0.721361
O O13 0.931556 0.198277 0.760088
O O14 0.979913 0.158263 0.121805
O O15 0.516233 0.823070 0.447822
O O16 0.639804 0.891010 0.727975
#
# Coordination Sequence:
#
# PCOD9343680 Si02
#       8
#     4   4   4   4   4   4   4   4
#     4  11  23  37  58  93 127 168 206 277 324 374
#     4   9  20  36  60  89 120 161 200 256 316 385
#     4  10  22  38  61  92 129 165 203 257 323 397
#     4  11  22  38  58  92 135 158 203 260 330 383
#     4  10  20  38  64  86 116 169 213 253 310 388
#     4  10  18  37  61  87 122 154 207 254 313 386
#     4  11  21  37  60  94 127 159 204 256 329 383
#     4  10  22  39  60  88 124 164 223 264 323 373
#
# _framework density 25.234126
#
# number of rings (size 3 to 8) (size 9 to 14) (size 15 to 20)
#    0.000    1.750    3.750    0.750    0.000    2.000 
#    2.250    0.000    0.000   18.000    0.000    0.000 
#    0.000    0.000    0.000    0.000    0.000    0.000 
#
# Total GULP energy -178347.947338 kJ/mol
# GULP energy per Si atom -5573.373354 kJ/mol
# Density = 2.517669 g / cm^3
# Si number density = 25.234126 Si / 1000 Ang^3
#
#
#
# Elastic Constant Matrix: (Units=GPa)
#
#
# Indices 1 2 3 4 5 6 
#
# 1 76.0392 10.2404 7.6619 0.0000 0.0000 0.0000
# 2 10.2404 90.4339 16.5758 0.0000 0.0000 0.0000
# 3 7.6619 16.5758 88.1853 0.0000 0.0000 0.0000
# 4 0.0000 0.0000 0.0000 35.8832 0.0000 0.0000
# 5 0.0000 0.0000 0.0000 0.0000 22.0358 0.0000
# 6 0.0000 0.0000 0.0000 0.0000 0.0000 29.3857
#
#
#
# Elastic Compliance Matrix: (Units=1/GPa)
#
#
# Indices 1 2 3 4 5 6 
#
# 1 0.013425 -0.001353 -0.000912 0.000000 0.000000 0.000000
# 2 -0.001353 0.011589 -0.002061 0.000000 0.000000 0.000000
# 3 -0.000912 -0.002061 0.011806 0.000000 0.000000 0.000000
# 4 0.000000 0.000000 0.000000 0.027868 0.000000 0.000000
# 5 0.000000 0.000000 0.000000 0.000000 0.045381 0.000000
# 6 0.000000 0.000000 0.000000 0.000000 0.000000 0.034030
#
#
# Mechanical properties :
#
#
# Convention : Reuss Voigt Hill
#
# Bulk Modulus (GPa) = 35.50060 35.95720 35.72890
# Shear Modulus (GPa) = 30.83743 32.13962 31.48852
#
# Velocity S-wave (km/s) = 3.49958 3.57270 3.53633
# Velocity P-wave (km/s) = 5.51620 5.59458 5.55553
#
# Compressibility (1/GPa) = 0.02816854
#
# Stress axis : x y z
#
# Youngs Moduli (GPa) = 74.48657 86.29075 84.70010
#
# Poissons Ratio (x) = 0.11676 0.07726
# Poissons Ratio (y) = 0.10078 0.17454
# Poissons Ratio (z) = 0.06794 0.17782
#
# Static dielectric constant tensor:
#      x y z
#    x 2.055430 0.000000 0.000000 
#    y 0.000000 2.055200 0.000000 
#    z 0.000000 0.000000 2.010640 
# 
# From -- ./inp_files/1688.got.cif
#   From: 2010.05.17/outbox.cif.g08.bks.cpg/sg32_1_cif.got.tgz:1688.got - 2010.06.03 17:12:27.
