data_PCOD9343053
_publ_section_title
;
Structure prediction by ZEFSAII (Michael W. Deem and Ramdas Pophale) SiO2 
 PCOD9343053
Probable space group: P M N 21
;
_chemical_formula_sum "Si O2"
_cell_formula_units_Z 24
_cell_length_a 7.770397
_cell_length_b 14.583434
_cell_length_c 7.970919
_cell_angle_alpha 90.000000
_cell_angle_beta 90.000000
_cell_angle_gamma 90.000000
_cell_volume 903.257142
_symmetry_space_group_name_H-M "P M N 21"
_symmetry_group_IT_number 31
_symmetry_cell_setting 'orthorhombic'
loop_
_space_group_symop_operation_xyz
x,y,z
1/2-x,-y,1/2+z
-x,y,z
1/2+x,-y,1/2+z
loop_
_atom_site_type_symbol
_atom_site_label
_atom_site_fract_x
_atom_site_fract_y
_atom_site_fract_z
Si Si1 0.798395 0.026730 0.825220
Si Si2 0.203065 0.303063 0.923372
Si Si3 0.790642 0.473573 0.729551
Si Si4 0.703131 0.354807 0.404635
Si Si5 0.698389 0.144328 0.142848
Si Si6 0.300515 0.186134 0.602960
O O1 0.783788 0.091544 0.660534
O O2 0.000000 0.020237 0.867409
O O3 0.727358 0.926004 0.780651
O O4 0.711712 0.083149 0.973608
O O5 0.254935 0.407729 0.889034
O O6 0.235460 0.244527 0.091030
O O7 0.000000 0.297172 0.891775
O O8 0.291751 0.247303 0.772379
O O9 0.723667 0.576115 0.764533
O O10 0.000000 0.477120 0.717218
O O11 0.720351 0.418635 0.570890
O O12 0.500000 0.342541 0.371719
O O13 0.772282 0.255095 0.460661
O O14 0.500000 0.156064 0.183691
O O15 0.500000 0.167617 0.566829
#
# Coordination Sequence:
#
# PCOD9343053 Si02
#       6
#     4   4   4   4   4   4
#     4  10  20  33  50  72  96 123 157 195 234 279
#     4   9  16  28  48  69  92 124 158 192 230 275
#     4   9  18  32  49  71  97 124 157 194 232 277
#     4   9  18  32  49  71  97 124 157 194 232 277
#     4  10  20  33  50  72  96 123 157 195 234 279
#     4   9  16  28  48  69  92 124 158 192 230 275
#
# _framework density 26.570506999999999
#
# number of rings (size 3 to 8) (size 9 to 14) (size 15 to 20)
#    0.000    2.667    0.000    4.000    0.000    4.667 
#    0.000    1.667    0.000    8.000    0.000    0.000 
#    0.000    0.000    0.000    0.000    0.000    0.000 
#
# Total GULP energy -134162.993261 kJ/mol
# GULP energy per Si atom -5590.124719 kJ/mol
# Density = 2.651003 g / cm^3
# Si number density = 26.570507 Si / 1000 Ang^3
#
#
#
# Elastic Constant Matrix: (Units=GPa)
#
#
# Indices 1 2 3 4 5 6 
#
# 1 63.7834 13.5322 -8.3888 0.0000 0.0000 0.0000
# 2 13.5322 218.5313 24.7622 0.0000 0.0000 0.0000
# 3 -8.3888 24.7622 100.0927 0.0000 0.0000 0.0000
# 4 0.0000 0.0000 0.0000 53.4269 0.0000 0.0000
# 5 0.0000 0.0000 0.0000 0.0000 10.0531 0.0000
# 6 0.0000 0.0000 0.0000 0.0000 0.0000 18.2684
#
#
#
# Elastic Compliance Matrix: (Units=1/GPa)
#
#
# Indices 1 2 3 4 5 6 
#
# 1 0.016146 -0.001186 0.001647 0.000000 0.000000 0.000000
# 2 -0.001186 0.004795 -0.001286 0.000000 0.000000 0.000000
# 3 0.001647 -0.001286 0.010447 0.000000 0.000000 0.000000
# 4 0.000000 0.000000 0.000000 0.018717 0.000000 0.000000
# 5 0.000000 0.000000 0.000000 0.000000 0.099472 0.000000
# 6 0.000000 0.000000 0.000000 0.000000 0.000000 0.054739
#
#
# Mechanical properties :
#
#
# Convention : Reuss Voigt Hill
#
# Bulk Modulus (GPa) = 33.62754 49.13541 41.38147
# Shear Modulus (GPa) = 23.16104 39.84981 31.50543
#
# Velocity S-wave (km/s) = 2.95563 3.87690 3.44718
# Velocity P-wave (km/s) = 4.93266 6.21072 5.60821
#
# Compressibility (1/GPa) = 0.02973753
#
# Stress axis : x y z
#
# Youngs Moduli (GPa) = 61.93348 208.54369 95.72282
#
# Poissons Ratio (x) = 0.24742 -0.15763
# Poissons Ratio (y) = 0.07348 0.12307
# Poissons Ratio (z) = -0.10199 0.26813
#
# Static dielectric constant tensor:
#      x y z
#    x 1.910680 0.000000 0.000000 
#    y 0.000000 2.130120 0.000000 
#    z 0.000000 0.000000 2.198680 
# 
# From -- ./inp_files/1760.got.cif
#   From: 2010.05.17/outbox.cif.g08.bks.cpg/sg31_1_cif.got.tgz:1760.got - 2010.06.03 17:08:30.
