data_PCOD9343258
_publ_section_title
;
Structure prediction by ZEFSAII (Michael W. Deem and Ramdas Pophale) SiO2 
 PCOD9343258
Probable space group: P M N 21
;
_chemical_formula_sum "Si O2"
_cell_formula_units_Z 30
_cell_length_a 11.796610
_cell_length_b 9.164749
_cell_length_c 13.939394
_cell_angle_alpha 90.000000
_cell_angle_beta 90.000000
_cell_angle_gamma 90.000000
_cell_volume 1507.029281
_symmetry_space_group_name_H-M "P M N 21"
_symmetry_group_IT_number 31
_symmetry_cell_setting 'orthorhombic'
loop_
_space_group_symop_operation_xyz
x,y,z
1/2-x,-y,1/2+z
-x,y,z
1/2+x,-y,1/2+z
loop_
_atom_site_type_symbol
_atom_site_label
_atom_site_fract_x
_atom_site_fract_y
_atom_site_fract_z
Si Si1 0.375903 0.518009 0.681240
Si Si2 0.313853 0.366341 0.488895
Si Si3 0.780893 0.316069 0.805553
Si Si4 0.868069 0.011362 0.780811
Si Si5 0.752203 0.203899 0.139943
Si Si6 0.134178 0.607442 0.480350
Si Si7 0.366639 0.041763 0.508413
Si Si8 0.500000 0.499482 0.368135
O O1 0.500000 0.487574 0.722671
O O2 0.373956 0.464137 0.571131
O O3 0.278263 0.429252 0.734091
O O4 0.347494 0.688194 0.681356
O O5 0.194652 0.448468 0.474546
O O6 0.309570 0.199979 0.521172
O O7 0.398835 0.382517 0.399381
O O8 0.803765 0.161406 0.757149
O O9 0.694524 0.304163 0.894655
O O10 0.899566 0.380527 0.842968
O O11 0.000000 0.022527 0.755055
O O12 0.813091 0.878578 0.723736
O O13 0.859492 0.994450 0.895547
O O14 0.670473 0.310311 0.078055
O O15 0.807721 0.084017 0.070170
O O16 0.000000 0.599115 0.472207
O O17 0.500000 0.052959 0.534136
#
# Coordination Sequence:
#
# PCOD9343258 Si02
#       8
#     4   4   4   4   4   4   4   2
#     4  11  23  40  64  95 128 168 218 270 316 386
#     4  10  21  38  67  92 124 167 213 264 316 387
#     4  11  22  40  66  94 126 169 215 273 320 383
#     4  11  24  40  65  97 129 167 217 270 327 392
#     4  11  24  41  64  96 134 170 219 263 328 390
#     4  10  22  42  63  91 130 177 212 263 325 382
#     4  11  22  40  67  96 129 168 213 271 328 384
#     4  10  20  38  68  94 124 156 226 260 320 378
#
# _framework density 19.906713
#
# number of rings (size 3 to 8) (size 9 to 14) (size 15 to 20)
#    0.000    1.333    3.333    2.000    3.733    0.000 
#    4.800    3.333    0.000    0.000    0.000    0.000 
#    0.000    0.000    0.000    0.000    0.000    0.000 
#
# Total GULP energy -167100.162475 kJ/mol
# GULP energy per Si atom -5570.005416 kJ/mol
# Density = 1.986140 g / cm^3
# Si number density = 19.906713 Si / 1000 Ang^3
#
#
#
# Elastic Constant Matrix: (Units=GPa)
#
#
# Indices 1 2 3 4 5 6 
#
# 1 150.9075 44.8621 16.7055 0.0000 0.0000 0.0000
# 2 44.8621 126.6307 8.4623 0.0000 0.0000 0.0000
# 3 16.7055 8.4623 32.7727 0.0000 0.0000 0.0000
# 4 0.0000 0.0000 0.0000 37.7588 0.0000 0.0000
# 5 0.0000 0.0000 0.0000 0.0000 11.8228 0.0000
# 6 0.0000 0.0000 0.0000 0.0000 0.0000 12.7093
#
#
#
# Elastic Compliance Matrix: (Units=1/GPa)
#
#
# Indices 1 2 3 4 5 6 
#
# 1 0.007741 -0.002522 -0.003295 0.000000 0.000000 0.000000
# 2 -0.002522 0.008857 -0.001001 0.000000 0.000000 0.000000
# 3 -0.003295 -0.001001 0.032451 0.000000 0.000000 0.000000
# 4 0.000000 0.000000 0.000000 0.026484 0.000000 0.000000
# 5 0.000000 0.000000 0.000000 0.000000 0.084582 0.000000
# 6 0.000000 0.000000 0.000000 0.000000 0.000000 0.078682
#
#
# Mechanical properties :
#
#
# Convention : Reuss Voigt Hill
#
# Bulk Modulus (GPa) = 28.23817 50.04118 39.13968
# Shear Modulus (GPa) = 18.92222 28.47693 23.69957
#
# Velocity S-wave (km/s) = 3.08644 3.78632 3.45415
# Velocity P-wave (km/s) = 5.18821 6.65638 5.96762
#
# Compressibility (1/GPa) = 0.03541306
#
# Stress axis : x y z
#
# Youngs Moduli (GPa) = 129.18006 112.89875 30.81555
#
# Poissons Ratio (x) = 0.28477 0.10153
# Poissons Ratio (y) = 0.32583 0.03086
# Poissons Ratio (z) = 0.42560 0.11306
#
# Static dielectric constant tensor:
#      x y z
#    x 1.671780 0.000000 0.000000 
#    y 0.000000 1.716310 0.000000 
#    z 0.000000 0.000000 1.767830 
# 
# From -- ./inp_files/5313.got.cif
#   From: 2010.05.17/outbox.cif.g08.bks.cpg/sg31_3_cif.got.tgz:5313.got - 2010.06.03 17:08:30.
