data_PCOD9343831
_publ_section_title
;
Structure prediction by ZEFSAII (Michael W. Deem and Ramdas Pophale) SiO2 
 PCOD9343831
Probable space group: P B A 2
;
_chemical_formula_sum "Si O2"
_cell_formula_units_Z 32
_cell_length_a 13.977165
_cell_length_b 9.562749
_cell_length_c 10.770241
_cell_angle_alpha 90.000000
_cell_angle_beta 90.000000
_cell_angle_gamma 90.000000
_cell_volume 1439.551711
_symmetry_space_group_name_H-M "P B A 2"
_symmetry_group_IT_number 32
_symmetry_cell_setting 'orthorhombic'
loop_
_space_group_symop_operation_xyz
x,y,z
-x,-y,z
1/2-x,1/2+y,z
1/2+x,1/2-y,z
loop_
_atom_site_type_symbol
_atom_site_label
_atom_site_fract_x
_atom_site_fract_y
_atom_site_fract_z
Si Si1 0.789735 0.969827 0.347590
Si Si2 0.843294 0.262197 0.244129
Si Si3 0.311078 0.266679 0.957532
Si Si4 0.522231 0.158453 0.958950
Si Si5 0.905459 0.912323 0.588215
Si Si6 0.269666 0.521311 0.797109
Si Si7 0.454315 0.648154 0.169262
Si Si8 0.586111 0.103855 0.681601
O O1 0.688467 0.902655 0.312463
O O2 0.825404 0.941314 0.485403
O O3 0.869427 0.893833 0.260485
O O4 0.795965 0.132695 0.316094
O O5 0.956515 0.229344 0.233641
O O6 0.802419 0.262510 0.103611
O O7 0.423362 0.238947 0.938167
O O8 0.280957 0.419116 0.914199
O O9 0.260492 0.165537 0.859467
O O10 0.567720 0.143476 0.825370
O O11 0.500000 0.000000 0.004752
O O12 0.578465 0.251504 0.057832
O O13 0.866875 0.966663 0.720382
O O14 0.917393 0.745366 0.602340
O O15 0.000000 0.000000 0.553806
O O16 0.188582 0.471087 0.698792
O O17 0.500000 0.500000 0.124304
O O18 0.500000 0.000000 0.644724
#
# Coordination Sequence:
#
# PCOD9343831 Si02
#       8
#     4   4   4   4   4   4   4   4
#     4  11  25  46  67  96 133 183 232 286 333 411
#     4  10  23  42  68  99 135 170 226 283 344 409
#     4  11  22  40  66 103 135 176 216 285 350 423
#     4  10  20  37  65  95 136 166 213 281 343 415
#     4  12  28  46  71  95 135 194 237 287 339 412
#     4  12  24  42  67 100 138 175 229 275 353 411
#     4   9  21  41  64  93 129 176 217 275 339 414
#     4  11  24  44  66 102 137 177 222 291 340 415
#
# _framework density 22.229140999999998
#
# number of rings (size 3 to 8) (size 9 to 14) (size 15 to 20)
#    0.000    1.250    3.750    2.625    3.500    5.500 
#    2.250    0.625    0.000    0.000    0.000    0.000 
#    0.000    0.000    0.000    0.000    0.000    0.000 
#
# Total GULP energy -178954.271252 kJ/mol
# GULP energy per Si atom -5592.320977 kJ/mol
# Density = 2.217855 g / cm^3
# Si number density = 22.229141 Si / 1000 Ang^3
#
#
#
# Elastic Constant Matrix: (Units=GPa)
#
#
# Indices 1 2 3 4 5 6 
#
# 1 52.9985 -4.7921 -15.0786 0.0000 0.0000 0.0000
# 2 -4.7921 44.3457 10.5776 0.0000 0.0000 0.0000
# 3 -15.0786 10.5776 60.9135 0.0000 0.0000 0.0000
# 4 0.0000 0.0000 0.0000 8.0564 0.0000 0.0000
# 5 0.0000 0.0000 0.0000 0.0000 27.1335 0.0000
# 6 0.0000 0.0000 0.0000 0.0000 0.0000 17.2256
#
#
#
# Elastic Compliance Matrix: (Units=1/GPa)
#
#
# Indices 1 2 3 4 5 6 
#
# 1 0.020344 0.001040 0.004855 0.000000 0.000000 0.000000
# 2 0.001040 0.023578 -0.003837 0.000000 0.000000 0.000000
# 3 0.004855 -0.003837 0.018285 0.000000 0.000000 0.000000
# 4 0.000000 0.000000 0.000000 0.124125 0.000000 0.000000
# 5 0.000000 0.000000 0.000000 0.000000 0.036855 0.000000
# 6 0.000000 0.000000 0.000000 0.000000 0.000000 0.058053
#
#
# Mechanical properties :
#
#
# Convention : Reuss Voigt Hill
#
# Bulk Modulus (GPa) = 15.07746 15.51906 15.29826
# Shear Modulus (GPa) = 16.70956 21.65314 19.18135
#
# Velocity S-wave (km/s) = 2.74468 3.12442 2.94069
# Velocity P-wave (km/s) = 4.10388 4.47354 4.29269
#
# Compressibility (1/GPa) = 0.06632415
#
# Stress axis : x y z
#
# Youngs Moduli (GPa) = 49.15477 42.41297 54.69012
#
# Poissons Ratio (x) = -0.04412 -0.26554
# Poissons Ratio (y) = -0.05114 0.20983
# Poissons Ratio (z) = -0.23866 0.16273
#
# Static dielectric constant tensor:
#      x y z
#    x 1.844690 0.000000 0.000000 
#    y 0.000000 1.807330 0.000000 
#    z 0.000000 0.000000 1.786640 
# 
# From -- ./inp_files/3965.got.cif
#   From: 2010.05.17/outbox.cif.g08.bks.cpg/sg32_2_cif.got.tgz:3965.got - 2010.06.03 17:12:27.
