data_PCOD9343380
_publ_section_title
;
Structure prediction by ZEFSAII (Michael W. Deem and Ramdas Pophale) SiO2 
 PCOD9343380
Probable space group: P M N 21
;
_chemical_formula_sum "Si O2"
_cell_formula_units_Z 32
_cell_length_a 15.197861
_cell_length_b 17.465927
_cell_length_c 4.998256
_cell_angle_alpha 90.000000
_cell_angle_beta 90.000000
_cell_angle_gamma 90.000000
_cell_volume 1326.760718
_symmetry_space_group_name_H-M "P M N 21"
_symmetry_group_IT_number 31
_symmetry_cell_setting 'orthorhombic'
loop_
_space_group_symop_operation_xyz
x,y,z
1/2-x,-y,1/2+z
-x,y,z
1/2+x,-y,1/2+z
loop_
_atom_site_type_symbol
_atom_site_label
_atom_site_fract_x
_atom_site_fract_y
_atom_site_fract_z
Si Si1 0.280196 0.337238 0.609410
Si Si2 0.657202 0.124535 0.204850
Si Si3 0.102393 0.014129 0.047706
Si Si4 0.600728 0.885534 0.045789
Si Si5 0.308286 0.765902 0.736681
Si Si6 0.189535 0.501745 0.176933
Si Si7 0.899294 0.358024 0.930430
Si Si8 0.903335 0.794814 0.224930
O O1 0.256995 0.302475 0.321431
O O2 0.339945 0.412373 0.604940
O O3 0.183486 0.356334 0.727131
O O4 0.330184 0.270057 0.765410
O O5 0.749766 0.163755 0.132865
O O6 0.608564 0.178893 0.419474
O O7 0.659271 0.047360 0.379285
O O8 0.608437 0.132010 0.921688
O O9 0.103489 0.086114 0.846787
O O10 0.000000 0.986702 0.051686
O O11 0.127563 0.045527 0.340403
O O12 0.500000 0.870645 0.969712
O O13 0.653516 0.808193 0.998597
O O14 0.385175 0.723013 0.581806
O O15 0.273847 0.493245 0.977853
O O16 0.123501 0.432370 0.115527
O O17 0.000000 0.363481 0.831179
O O18 0.000000 0.763441 0.269901
#
# Coordination Sequence:
#
# PCOD9343380 Si02
#       8
#     4   4   4   4   4   4   4   4
#     4  10  23  42  65  96 139 172 218 275 330 385
#     4  11  23  39  64  91 126 168 221 273 333 390
#     4  10  21  39  58  85 121 165 217 275 326 383
#     4  10  23  38  59  87 124 167 215 268 325 389
#     4  11  23  41  61  93 133 171 216 271 330 388
#     4  10  21  42  66  90 127 169 211 264 316 375
#     4  11  23  41  68  99 133 181 223 262 328 397
#     4  11  22  38  64  95 127 169 220 274 333 393
#
# _framework density 24.118893
#
# number of rings (size 3 to 8) (size 9 to 14) (size 15 to 20)
#    0.000    1.500    2.500    2.250    1.750    3.500 
#    0.000    0.000    0.000    2.250    0.000    0.000 
#    0.000    0.000    0.000    0.000    0.000    0.000 
#
# Total GULP energy -178545.532266 kJ/mol
# GULP energy per Si atom -5579.547883 kJ/mol
# Density = 2.406400 g / cm^3
# Si number density = 24.118893 Si / 1000 Ang^3
#
#
#
# Elastic Constant Matrix: (Units=GPa)
#
#
# Indices 1 2 3 4 5 6 
#
# 1 113.5634 31.0737 18.0639 0.0000 0.0000 0.0000
# 2 31.0737 87.5088 1.7079 0.0000 0.0000 0.0000
# 3 18.0639 1.7079 80.3493 0.0000 0.0000 0.0000
# 4 0.0000 0.0000 0.0000 41.3572 0.0000 0.0000
# 5 0.0000 0.0000 0.0000 0.0000 18.9841 0.0000
# 6 0.0000 0.0000 0.0000 0.0000 0.0000 29.0313
#
#
#
# Elastic Compliance Matrix: (Units=1/GPa)
#
#
# Indices 1 2 3 4 5 6 
#
# 1 0.010128 -0.003553 -0.002201 0.000000 0.000000 0.000000
# 2 -0.003553 0.012679 0.000529 0.000000 0.000000 0.000000
# 3 -0.002201 0.000529 0.012929 0.000000 0.000000 0.000000
# 4 0.000000 0.000000 0.000000 0.024180 0.000000 0.000000
# 5 0.000000 0.000000 0.000000 0.000000 0.052676 0.000000
# 6 0.000000 0.000000 0.000000 0.000000 0.000000 0.034446
#
#
# Mechanical properties :
#
#
# Convention : Reuss Voigt Hill
#
# Bulk Modulus (GPa) = 39.54868 42.56807 41.05837
# Shear Modulus (GPa) = 30.13558 33.24623 31.69091
#
# Velocity S-wave (km/s) = 3.53860 3.71675 3.62877
# Velocity P-wave (km/s) = 5.75575 6.00887 5.88367
#
# Compressibility (1/GPa) = 0.02528530
#
# Stress axis : x y z
#
# Youngs Moduli (GPa) = 98.73482 78.87123 77.34351
#
# Poissons Ratio (x) = 0.28027 0.17027
# Poissons Ratio (y) = 0.35085 -0.04094
# Poissons Ratio (z) = 0.21736 -0.04175
#
# Static dielectric constant tensor:
#      x y z
#    x 1.933490 0.000000 0.000000 
#    y 0.000000 2.008700 0.000000 
#    z 0.000000 0.000000 1.968260 
# 
# From -- ./inp_files/676.got.cif
#   From: 2010.05.17/outbox.cif.g08.bks.cpg/sg31_1_cif.got.tgz:676.got - 2010.06.03 17:08:30.
