data_PCOD9343449
_publ_section_title
;
Structure prediction by ZEFSAII (Michael W. Deem and Ramdas Pophale) SiO2 
 PCOD9343449
Probable space group: P M N 21
;
_chemical_formula_sum "Si O2"
_cell_formula_units_Z 28
_cell_length_a 19.036483
_cell_length_b 11.346395
_cell_length_c 6.736091
_cell_angle_alpha 90.000000
_cell_angle_beta 90.000000
_cell_angle_gamma 90.000000
_cell_volume 1454.965044
_symmetry_space_group_name_H-M "P M N 21"
_symmetry_group_IT_number 31
_symmetry_cell_setting 'orthorhombic'
loop_
_space_group_symop_operation_xyz
x,y,z
1/2-x,-y,1/2+z
-x,y,z
1/2+x,-y,1/2+z
loop_
_atom_site_type_symbol
_atom_site_label
_atom_site_fract_x
_atom_site_fract_y
_atom_site_fract_z
Si Si1 0.918772 0.808685 0.449790
Si Si2 0.916378 0.527131 0.489885
Si Si3 0.182263 0.931474 0.739438
Si Si4 0.179083 0.789171 0.124147
Si Si5 0.706041 0.833138 0.429892
Si Si6 0.178843 0.376622 0.187770
Si Si7 0.673121 0.423834 0.373163
O O1 0.908648 0.666660 0.437527
O O2 0.884024 0.863448 0.645454
O O3 0.877194 0.856415 0.259749
O O4 0.000000 0.834581 0.443362
O O5 0.876378 0.437078 0.340438
O O6 0.878053 0.528047 0.703552
O O7 0.000000 0.501941 0.498444
O O8 0.242768 0.904292 0.579648
O O9 0.169585 0.068059 0.793006
O O10 0.203067 0.870288 0.944901
O O11 0.242779 0.761569 0.276798
O O12 0.143722 0.677177 0.017706
O O13 0.662537 0.745064 0.571501
O O14 0.255127 0.367561 0.289536
O O15 0.191886 0.469518 0.014013
#
# Coordination Sequence:
#
# PCOD9343449 Si02
#       7
#     4   4   4   4   4   4   4
#     4  10  22  39  59  87 122 161 208 257 309 379
#     4  11  24  40  59  91 131 166 204 259 321 382
#     4  11  21  38  60  89 124 155 206 261 319 364
#     4  11  20  36  61  92 122 153 202 264 317 364
#     4  11  23  37  60  93 124 160 206 262 316 378
#     4  12  23  37  62  93 127 164 207 261 317 378
#     4  12  21  37  63  95 123 159 207 260 316 377
#
# _framework density 19.244447000000001
#
# number of rings (size 3 to 8) (size 9 to 14) (size 15 to 20)
#    0.000    0.857    7.143    1.714    0.000    1.714 
#    0.000    0.714    0.000    1.714    0.000    0.000 
#    0.000    0.000    0.000    0.000    0.000    0.000 
#
# Total GULP energy -156039.516975 kJ/mol
# GULP energy per Si atom -5572.839892 kJ/mol
# Density = 1.920065 g / cm^3
# Si number density = 19.244447 Si / 1000 Ang^3
#
#
#
# Elastic Constant Matrix: (Units=GPa)
#
#
# Indices 1 2 3 4 5 6 
#
# 1 79.5830 20.5681 42.1067 0.0000 0.0000 0.0000
# 2 20.5681 89.6437 35.8932 0.0000 0.0000 0.0000
# 3 42.1067 35.8932 122.8103 0.0000 0.0000 0.0000
# 4 0.0000 0.0000 0.0000 43.6617 0.0000 0.0000
# 5 0.0000 0.0000 0.0000 0.0000 12.2211 0.0000
# 6 0.0000 0.0000 0.0000 0.0000 0.0000 13.0195
#
#
#
# Elastic Compliance Matrix: (Units=1/GPa)
#
#
# Indices 1 2 3 4 5 6 
#
# 1 0.015556 -0.001624 -0.004859 0.000000 0.000000 0.000000
# 2 -0.001624 0.012803 -0.003185 0.000000 0.000000 0.000000
# 3 -0.004859 -0.003185 0.010740 0.000000 0.000000 0.000000
# 4 0.000000 0.000000 0.000000 0.022903 0.000000 0.000000
# 5 0.000000 0.000000 0.000000 0.000000 0.081826 0.000000
# 6 0.000000 0.000000 0.000000 0.000000 0.000000 0.076808
#
#
# Mechanical properties :
#
#
# Convention : Reuss Voigt Hill
#
# Bulk Modulus (GPa) = 50.59987 54.35257 52.47622
# Shear Modulus (GPa) = 20.27914 26.67840 23.47877
#
# Velocity S-wave (km/s) = 3.24970 3.72733 3.49668
# Velocity P-wave (km/s) = 6.35854 6.84314 6.60529
#
# Compressibility (1/GPa) = 0.01976289
#
# Stress axis : x y z
#
# Youngs Moduli (GPa) = 64.28399 78.10561 93.11401
#
# Poissons Ratio (x) = 0.12682 0.45244
# Poissons Ratio (y) = 0.10438 0.29659
# Poissons Ratio (z) = 0.31235 0.24878
#
# Static dielectric constant tensor:
#      x y z
#    x 1.652470 0.000000 0.000000 
#    y 0.000000 1.743500 0.000000 
#    z 0.000000 0.000000 1.719570 
# 
# From -- ./inp_files/979.got.cif
#   From: 2010.05.17/outbox.cif.g08.bks.cpg/sg31_1_cif.got.tgz:979.got - 2010.06.03 17:08:30.
