data_PCOD9343769
_publ_section_title
;
Structure prediction by ZEFSAII (Michael W. Deem and Ramdas Pophale) SiO2 
 PCOD9343769
Probable space group: P B A 2
;
_chemical_formula_sum "Si O2"
_cell_formula_units_Z 32
_cell_length_a 7.693297
_cell_length_b 30.005798
_cell_length_c 5.637308
_cell_angle_alpha 90.000000
_cell_angle_beta 90.000000
_cell_angle_gamma 90.000000
_cell_volume 1301.335998
_symmetry_space_group_name_H-M "P B A 2"
_symmetry_group_IT_number 32
_symmetry_cell_setting 'orthorhombic'
loop_
_space_group_symop_operation_xyz
x,y,z
-x,-y,z
1/2-x,1/2+y,z
1/2+x,1/2-y,z
loop_
_atom_site_type_symbol
_atom_site_label
_atom_site_fract_x
_atom_site_fract_y
_atom_site_fract_z
Si Si1 0.253474 0.542947 0.170880
Si Si2 0.164681 0.445104 0.123533
Si Si3 0.991279 0.691303 0.047604
Si Si4 0.429237 0.684011 0.567804
Si Si5 0.710984 0.748911 0.791026
Si Si6 0.073394 0.391070 0.746768
Si Si7 0.299904 0.587362 0.654008
Si Si8 0.225576 0.851911 0.348565
O O1 0.266960 0.489451 0.181899
O O2 0.347619 0.563488 0.403858
O O3 0.041605 0.550430 0.182479
O O4 0.310059 0.561739 0.908767
O O5 0.250465 0.399154 0.216205
O O6 0.154261 0.436592 0.842101
O O7 0.875291 0.683271 0.277176
O O8 0.868930 0.718075 0.867579
O O9 0.007521 0.641497 0.946559
O O10 0.162965 0.720231 0.019372
O O11 0.565391 0.714308 0.710451
O O12 0.259573 0.715240 0.585610
O O13 0.387250 0.635731 0.674412
O O14 0.537654 0.670976 0.331311
O O15 0.224146 0.365734 0.613149
O O16 0.903340 0.402311 0.602483
#
# Coordination Sequence:
#
# PCOD9343769 Si02
#       8
#     4   4   4   4   4   4   4   4
#     4  10  22  40  70 105 136 181 234 288 343 421
#     4   9  21  37  68 100 134 173 231 285 341 416
#     4  10  21  40  61  91 126 174 227 287 350 418
#     4  11  24  41  67  96 135 177 231 289 362 414
#     4  10  22  42  64  92 134 169 231 295 345 435
#     4  10  19  39  64  93 130 174 224 281 344 413
#     4  11  23  41  67 101 140 181 229 289 349 422
#     4  11  22  39  66  94 130 181 229 284 357 416
#
# _framework density 24.590112999999999
#
# number of rings (size 3 to 8) (size 9 to 14) (size 15 to 20)
#    0.000    1.750    3.750    0.000    1.750    3.000 
#    0.000    3.125    0.000    0.000    0.000    0.000 
#    0.000    0.000    0.000    0.000    0.000    0.000 
#
# Total GULP energy -178284.868614 kJ/mol
# GULP energy per Si atom -5571.402144 kJ/mol
# Density = 2.453415 g / cm^3
# Si number density = 24.590113 Si / 1000 Ang^3
#
#
#
# Elastic Constant Matrix: (Units=GPa)
#
#
# Indices 1 2 3 4 5 6 
#
# 1 46.3932 36.4639 33.9571 0.0000 0.0000 0.0000
# 2 36.4639 151.0047 45.4989 0.0000 0.0000 0.0000
# 3 33.9571 45.4989 66.7610 0.0000 0.0000 0.0000
# 4 0.0000 0.0000 0.0000 27.0310 0.0000 0.0000
# 5 0.0000 0.0000 0.0000 0.0000 11.3760 0.0000
# 6 0.0000 0.0000 0.0000 0.0000 0.0000 48.0439
#
#
#
# Elastic Compliance Matrix: (Units=1/GPa)
#
#
# Indices 1 2 3 4 5 6 
#
# 1 0.036176 -0.004016 -0.015664 0.000000 0.000000 0.000000
# 2 -0.004016 0.008779 -0.003941 0.000000 0.000000 0.000000
# 3 -0.015664 -0.003941 0.025631 0.000000 0.000000 0.000000
# 4 0.000000 0.000000 0.000000 0.036995 0.000000 0.000000
# 5 0.000000 0.000000 0.000000 0.000000 0.087904 0.000000
# 6 0.000000 0.000000 0.000000 0.000000 0.000000 0.020814
#
#
# Mechanical properties :
#
#
# Convention : Reuss Voigt Hill
#
# Bulk Modulus (GPa) = 42.83275 55.11097 48.97186
# Shear Modulus (GPa) = 18.42823 27.17279 22.80051
#
# Velocity S-wave (km/s) = 2.74052 3.32780 3.04834
# Velocity P-wave (km/s) = 5.24122 6.10133 5.68756
#
# Compressibility (1/GPa) = 0.02334662
#
# Stress axis : x y z
#
# Youngs Moduli (GPa) = 27.64249 113.90256 39.01454
#
# Poissons Ratio (x) = 0.45744 0.61111
# Poissons Ratio (y) = 0.11102 0.15374
# Poissons Ratio (z) = 0.43298 0.44885
#
# Static dielectric constant tensor:
#      x y z
#    x 2.119720 0.000000 0.000000 
#    y 0.000000 1.887720 0.000000 
#    z 0.000000 0.000000 2.091060 
# 
# From -- ./inp_files/644.got.cif
#   From: 2010.05.17/outbox.cif.g08.bks.cpg/sg32_1_cif.got.tgz:644.got - 2010.06.03 17:12:27.
