data_PCOD9343447
_publ_section_title
;
Structure prediction by ZEFSAII (Michael W. Deem and Ramdas Pophale) SiO2 
 PCOD9343447
Probable space group: P M N 21
;
_chemical_formula_sum "Si O2"
_cell_formula_units_Z 32
_cell_length_a 9.373313
_cell_length_b 5.458454
_cell_length_c 31.513923
_cell_angle_alpha 90.000000
_cell_angle_beta 90.000000
_cell_angle_gamma 90.000000
_cell_volume 1612.371985
_symmetry_space_group_name_H-M "P M N 21"
_symmetry_group_IT_number 31
_symmetry_cell_setting 'orthorhombic'
loop_
_space_group_symop_operation_xyz
x,y,z
1/2-x,-y,1/2+z
-x,y,z
1/2+x,-y,1/2+z
loop_
_atom_site_type_symbol
_atom_site_label
_atom_site_fract_x
_atom_site_fract_y
_atom_site_fract_z
Si Si1 0.663953 0.408862 0.549270
Si Si2 0.669862 0.346407 0.828748
Si Si3 0.669425 0.850711 0.776976
Si Si4 0.158154 0.549555 0.905941
Si Si5 0.171095 0.862583 0.687699
Si Si6 0.171470 0.361903 0.637040
Si Si7 0.847109 0.196965 0.986129
Si Si8 0.162066 0.193451 0.469236
O O1 0.500000 0.324081 0.552639
O O2 0.747196 0.371144 0.592497
O O3 0.655866 0.688788 0.532838
O O4 0.749768 0.290446 0.509997
O O5 0.500000 0.342255 0.838984
O O6 0.695257 0.588694 0.799710
O O7 0.766140 0.392849 0.869832
O O8 0.705069 0.089083 0.805774
O O9 0.500000 0.865495 0.768627
O O10 0.753722 0.863965 0.733115
O O11 0.140732 0.392783 0.948642
O O12 0.264326 0.755427 0.923875
O O13 0.000000 0.635493 0.892795
O O14 0.208286 0.111041 0.661981
O O15 0.000000 0.864227 0.693274
O O16 0.207230 0.610143 0.663033
O O17 0.000000 0.361285 0.630199
O O18 0.000000 0.053468 0.981983
O O19 0.691890 0.089825 0.976936
O O20 0.000000 0.271680 0.469734
#
# Coordination Sequence:
#
# PCOD9343447 Si02
#       8
#     4   4   4   4   4   4   4   4
#     4  10  22  39  58  85 118 156 203 252 299 356
#     4  10  22  39  60  90 123 157 200 250 302 361
#     4  10  22  40  62  88 121 156 198 249 303 364
#     4  10  22  39  58  85 118 156 203 252 299 356
#     4  10  22  40  62  88 121 156 198 249 303 364
#     4  10  22  39  60  90 123 157 200 250 302 361
#     4   9  20  38  57  81 117 155 199 250 297 348
#     4  11  22  36  59  85 117 159 199 246 303 360
#
# _framework density 19.846534999999999
#
# number of rings (size 3 to 8) (size 9 to 14) (size 15 to 20)
#    0.000    2.000    0.000    3.375    3.500    5.000 
#    0.000    0.000    0.000    0.000    0.000    0.000 
#    0.000    0.000    0.000    0.000    0.000    0.000 
#
# Total GULP energy -178249.849183 kJ/mol
# GULP energy per Si atom -5570.307787 kJ/mol
# Density = 1.980136 g / cm^3
# Si number density = 19.846535 Si / 1000 Ang^3
#
#
#
# Elastic Constant Matrix: (Units=GPa)
#
#
# Indices 1 2 3 4 5 6 
#
# 1 63.2743 13.8997 26.0242 0.0000 0.0000 0.0000
# 2 13.8997 75.1396 14.1536 0.0000 0.0000 0.0000
# 3 26.0242 14.1536 75.7266 0.0000 0.0000 0.0000
# 4 0.0000 0.0000 0.0000 18.8345 0.0000 0.0000
# 5 0.0000 0.0000 0.0000 0.0000 17.8008 0.0000
# 6 0.0000 0.0000 0.0000 0.0000 0.0000 16.0284
#
#
#
# Elastic Compliance Matrix: (Units=1/GPa)
#
#
# Indices 1 2 3 4 5 6 
#
# 1 0.018795 -0.002343 -0.006021 0.000000 0.000000 0.000000
# 2 -0.002343 0.014086 -0.001828 0.000000 0.000000 0.000000
# 3 -0.006021 -0.001828 0.015616 0.000000 0.000000 0.000000
# 4 0.000000 0.000000 0.000000 0.053094 0.000000 0.000000
# 5 0.000000 0.000000 0.000000 0.000000 0.056177 0.000000
# 6 0.000000 0.000000 0.000000 0.000000 0.000000 0.062389
#
#
# Mechanical properties :
#
#
# Convention : Reuss Voigt Hill
#
# Bulk Modulus (GPa) = 35.56890 35.81061 35.68976
# Shear Modulus (GPa) = 20.00694 21.20361 20.60527
#
# Velocity S-wave (km/s) = 3.17848 3.27215 3.22565
# Velocity P-wave (km/s) = 5.60635 5.68849 5.64757
#
# Compressibility (1/GPa) = 0.02811445
#
# Stress axis : x y z
#
# Youngs Moduli (GPa) = 53.20469 70.99153 64.03570
#
# Poissons Ratio (x) = 0.16631 0.38558
# Poissons Ratio (y) = 0.12464 0.11704
# Poissons Ratio (z) = 0.32036 0.12975
#
# Static dielectric constant tensor:
#      x y z
#    x 1.750120 0.000000 0.000000 
#    y 0.000000 1.846560 0.000000 
#    z 0.000000 0.000000 1.646020 
# 
# From -- ./inp_files/6621.got.cif
#   From: 2010.05.17/outbox.cif.g08.bks.cpg/sg31_4_cif.got.tgz:6621.got - 2010.06.03 17:08:30.
