data_PCOD9343342
_publ_section_title
;
Structure prediction by ZEFSAII (Michael W. Deem and Ramdas Pophale) SiO2 
 PCOD9343342
Probable space group: P M N 21
;
_chemical_formula_sum "Si O2"
_cell_formula_units_Z 20
_cell_length_a 16.316325
_cell_length_b 9.177024
_cell_length_c 5.056992
_cell_angle_alpha 90.000000
_cell_angle_beta 90.000000
_cell_angle_gamma 90.000000
_cell_volume 757.210245
_symmetry_space_group_name_H-M "P M N 21"
_symmetry_group_IT_number 31
_symmetry_cell_setting 'orthorhombic'
loop_
_space_group_symop_operation_xyz
x,y,z
1/2-x,-y,1/2+z
-x,y,z
1/2+x,-y,1/2+z
loop_
_atom_site_type_symbol
_atom_site_label
_atom_site_fract_x
_atom_site_fract_y
_atom_site_fract_z
Si Si1 0.500000 0.356541 0.997761
Si Si2 0.649414 0.649878 0.159442
Si Si3 0.500000 0.534210 0.485626
Si Si4 0.827161 0.636795 0.300072
Si Si5 0.160425 0.877937 0.918333
Si Si6 0.855367 0.056675 0.417125
O O1 0.500000 0.498177 0.794726
O O2 0.500000 0.387530 0.307407
O O3 0.589461 0.300207 0.925253
O O4 0.581881 0.608165 0.376381
O O5 0.732562 0.687268 0.325796
O O6 0.673550 0.520834 0.950439
O O7 0.614134 0.783706 0.991972
O O8 0.840310 0.706210 0.001933
O O9 0.257158 0.916133 0.903328
O O10 0.121801 0.976285 0.150021
O O11 0.125430 0.949647 0.657203
#
# Coordination Sequence:
#
# PCOD9343342 Si02
#       6
#     2   4   2   4   4   4
#     4  10  22  38  56  86 122 150 187 246 301 344
#     4  10  21  37  62  90 118 156 202 246 295 355
#     4  10  22  38  56  86 122 150 187 246 301 344
#     4  10  21  37  62  90 118 156 202 246 295 355
#     4   9  19  35  55  81 116 153 190 238 295 350
#     4   9  19  35  55  81 116 153 190 238 295 350
#
# _framework density 26.412747
#
# number of rings (size 3 to 8) (size 9 to 14) (size 15 to 20)
#    0.000    2.400    0.000    1.200    0.000   14.400 
#    0.000    2.000    0.000    0.000    0.000    0.000 
#    0.000    0.000    0.000    0.000    0.000    0.000 
#
# Total GULP energy -111350.629119 kJ/mol
# GULP energy per Si atom -5567.531456 kJ/mol
# Density = 2.635263 g / cm^3
# Si number density = 26.412747 Si / 1000 Ang^3
#
#
#
# Elastic Constant Matrix: (Units=GPa)
#
#
# Indices 1 2 3 4 5 6 
#
# 1 131.9284 20.4258 21.4051 0.0000 0.0000 0.0000
# 2 20.4258 130.5511 42.9411 0.0000 0.0000 0.0000
# 3 21.4051 42.9411 108.5118 0.0000 0.0000 0.0000
# 4 0.0000 0.0000 0.0000 33.5671 0.0000 0.0000
# 5 0.0000 0.0000 0.0000 0.0000 -41.3479 0.0000
# 6 0.0000 0.0000 0.0000 0.0000 0.0000 -5.4693
#
#
#
# Elastic Compliance Matrix: (Units=1/GPa)
#
#
# Indices 1 2 3 4 5 6 
#
# 1 0.007908 -0.000833 -0.001231 0.000000 0.000000 0.000000
# 2 -0.000833 0.008894 -0.003355 0.000000 0.000000 0.000000
# 3 -0.001231 -0.003355 0.010786 0.000000 0.000000 0.000000
# 4 0.000000 0.000000 0.000000 0.029791 0.000000 0.000000
# 5 0.000000 0.000000 0.000000 0.000000 -0.024185 0.000000
# 6 0.000000 0.000000 0.000000 0.000000 0.000000 -0.182837
#
#
# Mechanical properties :
#
#
# Convention : Reuss Voigt Hill
#
# Bulk Modulus (GPa) = 59.69624 60.05946 59.87785
# Shear Modulus (GPa) = -37.53129 16.43124 -10.55002
#
# Velocity S-wave (km/s) = -3.77364 2.49689 -2.00074
# Velocity P-wave (km/s) = 1.91395 5.57681 4.16917
#
# Compressibility (1/GPa) = 0.01675147
#
# Stress axis : x y z
#
# Youngs Moduli (GPa) = 126.44744 112.43892 92.71203
#
# Poissons Ratio (x) = 0.09362 0.11409
# Poissons Ratio (y) = 0.10528 0.31107
# Poissons Ratio (z) = 0.15560 0.37726
#
# Static dielectric constant tensor:
#      x y z
#    x 2.068770 0.000000 0.000000 
#    y 0.000000 3.568080 0.000000 
#    z 0.000000 0.000000 2.105410 
# 
# From -- ./inp_files/772.got.cif
#   From: 2010.05.17/outbox.cif.g08.bks.cpg/sg31_1_cif.got.tgz:772.got - 2010.06.03 17:08:30.
