data_PCOD9343729
_publ_section_title
;
Structure prediction by ZEFSAII (Michael W. Deem and Ramdas Pophale) SiO2 
 PCOD9343729
Probable space group: P B A 2
;
_chemical_formula_sum "Si O2"
_cell_formula_units_Z 32
_cell_length_a 9.919897
_cell_length_b 13.972846
_cell_length_c 10.541207
_cell_angle_alpha 90.000000
_cell_angle_beta 90.000000
_cell_angle_gamma 90.000000
_cell_volume 1461.108197
_symmetry_space_group_name_H-M "P B A 2"
_symmetry_group_IT_number 32
_symmetry_cell_setting 'orthorhombic'
loop_
_space_group_symop_operation_xyz
x,y,z
-x,-y,z
1/2-x,1/2+y,z
1/2+x,1/2-y,z
loop_
_atom_site_type_symbol
_atom_site_label
_atom_site_fract_x
_atom_site_fract_y
_atom_site_fract_z
Si Si1 0.609240 0.067058 0.832370
Si Si2 0.623714 0.068505 0.118375
Si Si3 0.646997 0.454501 0.229666
Si Si4 0.926793 0.213332 0.564259
Si Si5 0.351614 0.474690 0.657827
Si Si6 0.356907 0.714168 0.028353
Si Si7 0.085148 0.748201 0.862498
Si Si8 0.294093 0.650511 0.491752
O O1 0.744556 0.069129 0.754004
O O2 0.519312 0.159720 0.856379
O O3 0.500000 0.000000 0.765804
O O4 0.647662 0.032869 0.973218
O O5 0.612606 0.184477 0.103166
O O6 0.500000 0.000000 0.161491
O O7 0.748094 0.039488 0.204317
O O8 0.500000 0.500000 0.220970
O O9 0.670912 0.370675 0.126317
O O10 0.671181 0.404214 0.364034
O O11 0.882031 0.102867 0.547753
O O12 0.901365 0.228712 0.714342
O O13 0.839969 0.287818 0.486666
O O14 0.083039 0.219717 0.531020
O O15 0.500000 0.500000 0.711663
O O16 0.289308 0.571319 0.602326
O O17 0.226468 0.729787 0.935135
O O18 0.490370 0.683735 0.948078
#
# Coordination Sequence:
#
# PCOD9343729 Si02
#       8
#     4   4   4   4   4   4   4   4
#     4  10  19  35  60  91 128 163 207 269 333 395
#     4  10  23  42  64  94 129 172 222 273 334 404
#     4  12  26  44  66  95 133 176 225 273 327 401
#     4  11  22  42  66  92 130 170 211 274 331 383
#     4  10  22  39  62  92 127 167 217 270 325 394
#     4  11  23  41  67  99 137 176 217 281 344 400
#     4  11  22  39  66 101 133 169 222 273 343 418
#     4  11  26  44  65  92 127 175 225 267 322 393
#
# _framework density 21.901185000000002
#
# number of rings (size 3 to 8) (size 9 to 14) (size 15 to 20)
#    0.000    1.250    0.000    7.875    0.000    7.500 
#    0.000    1.875    0.000    0.000    0.000    0.000 
#    0.000    0.000    0.000    0.000    0.000    0.000 
#
# Total GULP energy -178635.519896 kJ/mol
# GULP energy per Si atom -5582.359997 kJ/mol
# Density = 2.185134 g / cm^3
# Si number density = 21.901185 Si / 1000 Ang^3
#
#
#
# Elastic Constant Matrix: (Units=GPa)
#
#
# Indices 1 2 3 4 5 6 
#
# 1 90.0351 18.9849 34.2522 0.0000 0.0000 0.0000
# 2 18.9849 78.0275 9.4075 0.0000 0.0000 0.0000
# 3 34.2522 9.4075 59.6159 0.0000 0.0000 0.0000
# 4 0.0000 0.0000 0.0000 20.9858 0.0000 0.0000
# 5 0.0000 0.0000 0.0000 0.0000 24.6831 0.0000
# 6 0.0000 0.0000 0.0000 0.0000 0.0000 42.6899
#
#
#
# Elastic Compliance Matrix: (Units=1/GPa)
#
#
# Indices 1 2 3 4 5 6 
#
# 1 0.014718 -0.002611 -0.008044 0.000000 0.000000 0.000000
# 2 -0.002611 0.013528 -0.000635 0.000000 0.000000 0.000000
# 3 -0.008044 -0.000635 0.021496 0.000000 0.000000 0.000000
# 4 0.000000 0.000000 0.000000 0.047651 0.000000 0.000000
# 5 0.000000 0.000000 0.000000 0.000000 0.040513 0.000000
# 6 0.000000 0.000000 0.000000 0.000000 0.000000 0.023425
#
#
# Mechanical properties :
#
#
# Convention : Reuss Voigt Hill
#
# Bulk Modulus (GPa) = 36.81601 39.21866 38.01733
# Shear Modulus (GPa) = 25.91161 28.67401 27.29281
#
# Velocity S-wave (km/s) = 3.44337 3.62227 3.53396
# Velocity P-wave (km/s) = 5.71451 5.95319 5.83507
#
# Compressibility (1/GPa) = 0.02716210
#
# Stress axis : x y z
#
# Youngs Moduli (GPa) = 67.94628 73.92182 46.52071
#
# Poissons Ratio (x) = 0.19302 0.37421
# Poissons Ratio (y) = 0.17741 0.02952
# Poissons Ratio (z) = 0.54655 0.04690
#
# Static dielectric constant tensor:
#      x y z
#    x 1.788100 0.000000 0.000000 
#    y 0.000000 1.938480 0.000000 
#    z 0.000000 0.000000 1.808720 
# 
# From -- ./inp_files/3788.got.cif
#   From: 2010.05.17/outbox.cif.g08.bks.cpg/sg32_2_cif.got.tgz:3788.got - 2010.06.03 17:12:27.
