data_PCOD9343476
_publ_section_title
;
Structure prediction by ZEFSAII (Michael W. Deem and Ramdas Pophale) SiO2 
 PCOD9343476
Probable space group: P M N 21
;
_chemical_formula_sum "Si O2"
_cell_formula_units_Z 32
_cell_length_a 12.295160
_cell_length_b 7.883376
_cell_length_c 15.159882
_cell_angle_alpha 90.000000
_cell_angle_beta 90.000000
_cell_angle_gamma 90.000000
_cell_volume 1469.407481
_symmetry_space_group_name_H-M "P M N 21"
_symmetry_group_IT_number 31
_symmetry_cell_setting 'orthorhombic'
loop_
_space_group_symop_operation_xyz
x,y,z
1/2-x,-y,1/2+z
-x,y,z
1/2+x,-y,1/2+z
loop_
_atom_site_type_symbol
_atom_site_label
_atom_site_fract_x
_atom_site_fract_y
_atom_site_fract_z
Si Si1 0.119515 0.046013 0.215980
Si Si2 0.622235 0.763600 0.175541
Si Si3 0.369917 0.398828 0.475987
Si Si4 0.617579 0.144680 0.964058
Si Si5 0.713652 0.052004 0.554161
Si Si6 0.824827 0.692029 0.283171
Si Si7 0.813347 0.575249 0.593979
Si Si8 0.253485 0.661480 0.788551
O O1 0.197557 0.149588 0.281212
O O2 0.000000 0.101081 0.239534
O O3 0.143897 0.077681 0.112764
O O4 0.125466 0.840209 0.222060
O O5 0.500000 0.808022 0.198365
O O6 0.687397 0.905188 0.121850
O O7 0.696575 0.715398 0.259821
O O8 0.627202 0.603991 0.108911
O O9 0.500000 0.436920 0.471264
O O10 0.351611 0.216038 0.522899
O O11 0.296644 0.525469 0.537874
O O12 0.314746 0.379345 0.377710
O O13 0.500000 0.056674 0.964088
O O14 0.633588 0.250753 0.876426
O O15 0.624579 0.282290 0.040925
O O16 0.722187 0.026940 0.973352
O O17 0.842551 0.490994 0.277228
O O18 0.804640 0.642416 0.694017
#
# Coordination Sequence:
#
# PCOD9343476 Si02
#       8
#     4   4   4   4   4   4   4   4
#     4  11  23  42  66  92 134 181 224 285 347 404
#     4   9  19  39  65  90 123 169 209 268 333 387
#     4  11  24  45  72  98 138 184 227 294 357 405
#     4  12  22  39  63  90 131 172 209 277 343 393
#     4  10  22  41  63  96 134 167 231 278 335 424
#     4  10  23  40  61  95 132 164 226 276 326 415
#     4  10  22  42  64  98 132 166 228 277 330 424
#     4  11  23  44  68  99 136 175 238 287 335 428
#
# _framework density 21.777484999999999
#
# number of rings (size 3 to 8) (size 9 to 14) (size 15 to 20)
#    0.000    1.500    2.500    3.000    0.000    4.000 
#    0.000    6.875    0.000    0.000    0.000    0.000 
#    0.000    0.000    0.000    0.000    0.000    0.000 
#
# Total GULP energy -178191.114752 kJ/mol
# GULP energy per Si atom -5568.472336 kJ/mol
# Density = 2.172792 g / cm^3
# Si number density = 21.777485 Si / 1000 Ang^3
#
#
#
# Elastic Constant Matrix: (Units=GPa)
#
#
# Indices 1 2 3 4 5 6 
#
# 1 107.4490 8.1083 26.2639 0.0000 0.0000 0.0000
# 2 8.1083 56.5749 2.3536 0.0000 0.0000 0.0000
# 3 26.2639 2.3536 115.7039 0.0000 0.0000 0.0000
# 4 0.0000 0.0000 0.0000 33.0017 0.0000 0.0000
# 5 0.0000 0.0000 0.0000 0.0000 14.6731 0.0000
# 6 0.0000 0.0000 0.0000 0.0000 0.0000 12.6337
#
#
#
# Elastic Compliance Matrix: (Units=1/GPa)
#
#
# Indices 1 2 3 4 5 6 
#
# 1 0.009953 -0.001334 -0.002232 0.000000 0.000000 0.000000
# 2 -0.001334 0.017869 -0.000061 0.000000 0.000000 0.000000
# 3 -0.002232 -0.000061 0.009151 0.000000 0.000000 0.000000
# 4 0.000000 0.000000 0.000000 0.030301 0.000000 0.000000
# 5 0.000000 0.000000 0.000000 0.000000 0.068152 0.000000
# 6 0.000000 0.000000 0.000000 0.000000 0.000000 0.079153
#
#
# Mechanical properties :
#
#
# Convention : Reuss Voigt Hill
#
# Bulk Modulus (GPa) = 33.64739 39.24216 36.44478
# Shear Modulus (GPa) = 21.57596 28.26183 24.91889
#
# Velocity S-wave (km/s) = 3.15103 3.60634 3.38635
# Velocity P-wave (km/s) = 5.35936 5.94976 5.66226
#
# Compressibility (1/GPa) = 0.02971998
#
# Stress axis : x y z
#
# Youngs Moduli (GPa) = 100.47248 55.96175 109.28176
#
# Poissons Ratio (x) = 0.07463 0.24393
# Poissons Ratio (y) = 0.13399 0.00664
# Poissons Ratio (z) = 0.22427 0.00340
#
# Static dielectric constant tensor:
#      x y z
#    x 1.858990 0.000000 0.000000 
#    y 0.000000 1.908310 0.000000 
#    z 0.000000 0.000000 1.857230 
# 
# From -- ./inp_files/5359.got.cif
#   From: 2010.05.17/outbox.cif.g08.bks.cpg/sg31_3_cif.got.tgz:5359.got - 2010.06.03 17:08:30.
