data_PCOD9343946
_publ_section_title
;
Structure prediction by ZEFSAII (Michael W. Deem and Ramdas Pophale) SiO2 
 PCOD9343946
Probable space group: P B A 2
;
_chemical_formula_sum "Si O2"
_cell_formula_units_Z 28
_cell_length_a 7.744586
_cell_length_b 18.282125
_cell_length_c 8.672492
_cell_angle_alpha 90.000000
_cell_angle_beta 90.000000
_cell_angle_gamma 90.000000
_cell_volume 1227.916368
_symmetry_space_group_name_H-M "P B A 2"
_symmetry_group_IT_number 32
_symmetry_cell_setting 'orthorhombic'
loop_
_space_group_symop_operation_xyz
x,y,z
-x,-y,z
1/2-x,1/2+y,z
1/2+x,1/2-y,z
loop_
_atom_site_type_symbol
_atom_site_label
_atom_site_fract_x
_atom_site_fract_y
_atom_site_fract_z
Si Si1 0.218031 0.536751 0.375000
Si Si2 0.741118 0.570101 0.899064
Si Si3 0.476949 0.632474 0.479156
Si Si4 0.166280 0.283248 0.447328
Si Si5 0.884303 0.907974 0.813214
Si Si6 0.591361 0.102073 0.224269
Si Si7 0.045248 0.617365 0.669370
O O1 0.407235 0.570572 0.365574
O O2 0.194633 0.450852 0.346223
O O3 0.129895 0.563181 0.538098
O O4 0.102649 0.573715 0.242614
O O5 0.683392 0.486125 0.872758
O O6 0.557219 0.613798 0.905059
O O7 0.884348 0.585997 0.767355
O O8 0.834126 0.586192 0.058915
O O9 0.649002 0.678699 0.464067
O O10 0.333685 0.696724 0.462444
O O11 0.470919 0.592154 0.642921
O O12 0.101241 0.315315 0.284118
O O13 0.039846 0.315842 0.577416
O O14 0.706195 0.863910 0.782974
#
# Coordination Sequence:
#
# PCOD9343946 Si02
#       7
#     4   4   4   4   4   4   4
#     4   9  22  38  65  99 129 172 227 277 334 394
#     4  11  23  39  64  96 140 172 214 273 342 406
#     4  11  22  41  68  96 127 169 236 277 331 397
#     4  11  23  41  70  94 130 174 223 289 333 399
#     4  10  23  36  64  98 127 170 227 271 332 395
#     4  10  23  40  61  98 136 174 217 271 351 404
#     4  10  21  39  66  92 130 168 220 276 327 388
#
# _framework density 22.802855000000001
#
# number of rings (size 3 to 8) (size 9 to 14) (size 15 to 20)
#    0.000    1.714    1.429    3.000   18.000    2.857 
#    0.000    0.000    9.429    0.000    0.000    0.000 
#    0.000    0.000    0.000    0.000    0.000    0.000 
#
# Total GULP energy -156132.934359 kJ/mol
# GULP energy per Si atom -5576.176227 kJ/mol
# Density = 2.275095 g / cm^3
# Si number density = 22.802855 Si / 1000 Ang^3
#
#
#
# Elastic Constant Matrix: (Units=GPa)
#
#
# Indices 1 2 3 4 5 6 
#
# 1 156.8790 14.4362 22.0585 0.0000 0.0000 0.0000
# 2 14.4362 86.1553 32.9730 0.0000 0.0000 0.0000
# 3 22.0585 32.9730 91.9264 0.0000 0.0000 0.0000
# 4 0.0000 0.0000 0.0000 12.0772 0.0000 0.0000
# 5 0.0000 0.0000 0.0000 0.0000 25.4478 0.0000
# 6 0.0000 0.0000 0.0000 0.0000 0.0000 36.0876
#
#
#
# Elastic Compliance Matrix: (Units=1/GPa)
#
#
# Indices 1 2 3 4 5 6 
#
# 1 0.006622 -0.000581 -0.001381 0.000000 0.000000 0.000000
# 2 -0.000581 0.013505 -0.004705 0.000000 0.000000 0.000000
# 3 -0.001381 -0.004705 0.012897 0.000000 0.000000 0.000000
# 4 0.000000 0.000000 0.000000 0.082800 0.000000 0.000000
# 5 0.000000 0.000000 0.000000 0.000000 0.039296 0.000000
# 6 0.000000 0.000000 0.000000 0.000000 0.000000 0.027710
#
#
# Mechanical properties :
#
#
# Convention : Reuss Voigt Hill
#
# Bulk Modulus (GPa) = 50.78417 52.65513 51.71965
# Shear Modulus (GPa) = 24.66370 32.42204 28.54287
#
# Velocity S-wave (km/s) = 3.29235 3.77482 3.54181
# Velocity P-wave (km/s) = 6.06400 6.49158 6.28143
#
# Compressibility (1/GPa) = 0.01969117
#
# Stress axis : x y z
#
# Youngs Moduli (GPa) = 151.01321 74.04742 77.53731
#
# Poissons Ratio (x) = 0.04304 0.10704
# Poissons Ratio (y) = 0.08777 0.36478
# Poissons Ratio (z) = 0.20847 0.34836
#
# Static dielectric constant tensor:
#      x y z
#    x 2.018820 0.000000 0.000000 
#    y 0.000000 1.855810 0.000000 
#    z 0.000000 0.000000 1.863230 
# 
# From -- ./inp_files/2522.got.cif
#   From: 2010.05.17/outbox.cif.g08.bks.cpg/sg32_2_cif.got.tgz:2522.got - 2010.06.03 17:12:27.
