data_PCOD9343377
_publ_section_title
;
Structure prediction by ZEFSAII (Michael W. Deem and Ramdas Pophale) SiO2 
 PCOD9343377
Probable space group: P M N 21
;
_chemical_formula_sum "Si O2"
_cell_formula_units_Z 32
_cell_length_a 8.062809
_cell_length_b 12.251751
_cell_length_c 15.741066
_cell_angle_alpha 90.000000
_cell_angle_beta 90.000000
_cell_angle_gamma 90.000000
_cell_volume 1554.958038
_symmetry_space_group_name_H-M "P M N 21"
_symmetry_group_IT_number 31
_symmetry_cell_setting 'orthorhombic'
loop_
_space_group_symop_operation_xyz
x,y,z
1/2-x,-y,1/2+z
-x,y,z
1/2+x,-y,1/2+z
loop_
_atom_site_type_symbol
_atom_site_label
_atom_site_fract_x
_atom_site_fract_y
_atom_site_fract_z
Si Si1 0.693768 0.243725 0.156550
Si Si2 0.697777 0.736495 0.361187
Si Si3 0.307954 0.498230 0.924300
Si Si4 0.799303 0.716348 0.843485
Si Si5 0.307466 0.517865 0.611261
Si Si6 0.203069 0.850173 0.009698
Si Si7 0.196137 0.097474 0.002847
Si Si8 0.201130 0.713832 0.174384
O O1 0.500000 0.215360 0.155998
O O2 0.758296 0.237802 0.252969
O O3 0.714037 0.369688 0.128406
O O4 0.779921 0.165862 0.088753
O O5 0.500000 0.725954 0.373258
O O6 0.776477 0.620665 0.385831
O O7 0.762477 0.829477 0.425134
O O8 0.735945 0.759603 0.263302
O O9 0.500000 0.509527 0.947006
O O10 0.259756 0.593169 0.859202
O O11 0.205336 0.509767 0.011290
O O12 0.000000 0.715162 0.841582
O O13 0.745537 0.787665 0.924202
O O14 0.500000 0.535980 0.633347
O O15 0.244475 0.411924 0.661515
O O16 0.255993 0.784424 0.093430
O O17 0.000000 0.849616 0.010771
O O18 0.262787 0.974911 0.009553
O O19 0.000000 0.085788 0.987306
O O20 0.000000 0.712650 0.175223
#
# Coordination Sequence:
#
# PCOD9343377 Si02
#       8
#     4   4   4   4   4   4   4   4
#     4  11  23  37  60  91 121 154 194 246 296 345
#     4  11  23  38  59  88 122 159 197 238 291 353
#     4  12  23  36  60  91 122 153 193 242 296 353
#     4  10  21  40  63  88 120 156 196 240 295 356
#     4  11  21  37  61  87 119 157 194 235 296 362
#     4   9  19  40  64  85 113 157 205 244 293 352
#     4  10  22  40  62  83 114 162 205 243 292 350
#     4  10  21  38  63  89 117 154 194 244 297 349
#
# _framework density 20.579332999999998
#
# number of rings (size 3 to 8) (size 9 to 14) (size 15 to 20)
#    0.000    1.500    2.500    3.000    0.000    5.500 
#    0.000    2.500    0.000    0.000    0.000    0.000 
#    0.000    0.000    0.000    0.000    0.000    0.000 
#
# Total GULP energy -178890.369951 kJ/mol
# GULP energy per Si atom -5590.324061 kJ/mol
# Density = 2.053249 g / cm^3
# Si number density = 20.579333 Si / 1000 Ang^3
#
#
#
# Elastic Constant Matrix: (Units=GPa)
#
#
# Indices 1 2 3 4 5 6 
#
# 1 17.4084 2.7287 -7.7730 0.0000 0.0000 0.0000
# 2 2.7287 115.1230 23.9511 0.0000 0.0000 0.0000
# 3 -7.7730 23.9511 93.2739 0.0000 0.0000 0.0000
# 4 0.0000 0.0000 0.0000 2.4380 0.0000 0.0000
# 5 0.0000 0.0000 0.0000 0.0000 11.4200 0.0000
# 6 0.0000 0.0000 0.0000 0.0000 0.0000 8.1295
#
#
#
# Elastic Compliance Matrix: (Units=1/GPa)
#
#
# Indices 1 2 3 4 5 6 
#
# 1 0.060402 -0.002619 0.005706 0.000000 0.000000 0.000000
# 2 -0.002619 0.009290 -0.002604 0.000000 0.000000 0.000000
# 3 0.005706 -0.002604 0.011865 0.000000 0.000000 0.000000
# 4 0.000000 0.000000 0.000000 0.410177 0.000000 0.000000
# 5 0.000000 0.000000 0.000000 0.000000 0.087566 0.000000
# 6 0.000000 0.000000 0.000000 0.000000 0.000000 0.123009
#
#
# Mechanical properties :
#
#
# Convention : Reuss Voigt Hill
#
# Bulk Modulus (GPa) = 12.11767 29.29100 20.70433
# Shear Modulus (GPa) = 6.86012 18.19072 12.52542
#
# Velocity S-wave (km/s) = 1.82777 2.97632 2.46974
# Velocity P-wave (km/s) = 3.21798 5.10641 4.26795
#
# Compressibility (1/GPa) = 0.08252413
#
# Stress axis : x y z
#
# Youngs Moduli (GPa) = 16.55579 107.64090 84.27978
#
# Poissons Ratio (x) = 0.28189 -0.48091
# Poissons Ratio (y) = 0.04336 0.21945
# Poissons Ratio (z) = -0.09447 0.28027
#
# Static dielectric constant tensor:
#      x y z
#    x 1.717880 0.000000 0.000000 
#    y 0.000000 1.705140 0.000000 
#    z 0.000000 0.000000 1.725740 
# 
# From -- ./inp_files/4987.got.cif
#   From: 2010.05.17/outbox.cif.g08.bks.cpg/sg31_3_cif.got.tgz:4987.got - 2010.06.03 17:08:30.
