data_PCOD9343615
_publ_section_title
;
Structure prediction by ZEFSAII (Michael W. Deem and Ramdas Pophale) SiO2 
 PCOD9343615
Probable space group: P M N 21
;
_chemical_formula_sum "Si O2"
_cell_formula_units_Z 24
_cell_length_a 9.000000
_cell_length_b 15.000000
_cell_length_c 9.000000
_cell_angle_alpha 90.000000
_cell_angle_beta 90.000000
_cell_angle_gamma 90.000000
_cell_volume 1215.000000
_symmetry_space_group_name_H-M "P M N 21"
_symmetry_group_IT_number 31
_symmetry_cell_setting 'orthorhombic'
loop_
_space_group_symop_operation_xyz
x,y,z
1/2-x,-y,1/2+z
-x,y,z
1/2+x,-y,1/2+z
loop_
_atom_site_type_symbol
_atom_site_label
_atom_site_fract_x
_atom_site_fract_y
_atom_site_fract_z
Si Si1 0.822434 0.790417 0.630070
Si Si2 0.677937 0.720026 0.329810
Si Si3 0.178040 0.952831 0.840108
Si Si4 0.175553 0.544435 0.433257
Si Si5 0.175458 0.607744 0.768663
Si Si6 0.679208 0.883609 0.143615
O O1 0.734888 0.768137 0.480431
O O2 0.788043 0.883633 0.706975
O O3 0.789548 0.711839 0.748610
O O4 0.000000 0.785278 0.598344
O O5 0.500000 0.713984 0.332480
O O6 0.745900 0.621361 0.335927
O O7 0.722587 0.783745 0.192864
O O8 0.000000 0.952119 0.862298
O O9 0.222663 0.049510 0.778079
O O10 0.253336 0.919622 0.990834
O O11 0.206652 0.566417 0.605399
O O12 0.233613 0.448081 0.387026
O O13 0.000000 0.551135 0.411564
O O14 0.000000 0.598271 0.798475
O O15 0.500000 0.886970 0.132074
#
# Coordination Sequence:
#
# PCOD9343615 Si02
#       6
#     4   4   4   4   4   4
#     4   9  19  36  56  79 107 139 178 221 263 313
#     4  10  20  35  55  79 108 141 177 219 266 314
#     4  10  21  37  57  81 109 142 179 218 262 314
#     4  10  21  36  55  79 106 140 180 219 264 317
#     4   9  19  35  53  77 108 138 174 221 266 312
#     4  10  22  37  54  81 112 140 176 220 263 312
#
# _framework density 19.753086
#
# number of rings (size 3 to 8) (size 9 to 14) (size 15 to 20)
#    0.000    2.333    0.000    3.000    0.000    7.333 
#    0.000    3.333    0.000    0.000    0.000    0.000 
#    0.000    0.000    0.000    0.000    0.000    0.000 
#
# Total GULP energy -134018.323712 kJ/mol
# GULP energy per Si atom -5584.096821 kJ/mol
# Density = 1.970813 g / cm^3
# Si number density = 19.753086 Si / 1000 Ang^3
#
#
#
# Elastic Constant Matrix: (Units=GPa)
#
#
# Indices 1 2 3 4 5 6 
#
# 1 8.9705 -4.5701 -0.6686 0.0000 0.0000 0.0000
# 2 -4.5701 36.2857 -23.5158 0.0000 0.0000 0.0000
# 3 -0.6686 -23.5158 11.1426 0.0000 0.0000 0.0000
# 4 0.0000 0.0000 0.0000 30.7324 0.0000 0.0000
# 5 0.0000 0.0000 0.0000 0.0000 33.0886 0.0000
# 6 0.0000 0.0000 0.0000 0.0000 0.0000 37.6600
#
#
#
# Elastic Compliance Matrix: (Units=1/GPa)
#
#
# Indices 1 2 3 4 5 6 
#
# 1 0.086121 -0.038606 -0.076307 0.000000 0.000000 0.000000
# 2 -0.038606 -0.057640 -0.123962 0.000000 0.000000 0.000000
# 3 -0.076307 -0.123962 -0.176449 0.000000 0.000000 0.000000
# 4 0.000000 0.000000 0.000000 0.032539 0.000000 0.000000
# 5 0.000000 0.000000 0.000000 0.000000 0.030222 0.000000
# 6 0.000000 0.000000 0.000000 0.000000 0.000000 0.026553
#
#
# Mechanical properties :
#
#
# Convention : Reuss Voigt Hill
#
# Bulk Modulus (GPa) = -1.59817 -0.12338 -0.86077
# Shear Modulus (GPa) = 23.75032 25.97307 24.86169
#
# Velocity S-wave (km/s) = 3.47127 3.63007 3.55156
# Velocity P-wave (km/s) = 3.90582 4.18417 4.04739
#
# Compressibility (1/GPa) = -0.62571704
#
# Stress axis : x y z
#
# Youngs Moduli (GPa) = 11.61158 -17.34906 -5.66737
#
# Poissons Ratio (x) = -0.66977 -0.43246
# Poissons Ratio (y) = 0.44827 -0.70254
# Poissons Ratio (z) = 0.88604 -2.15063
#
# Static dielectric constant tensor:
#      x y z
#    x 1.660460 0.000000 0.000000 
#    y 0.000000 1.703910 0.000000 
#    z 0.000000 0.000000 1.672330 
# 
# From -- ./inp_files/1673.got.cif
#   From: 2010.05.17/outbox.ucp.g08.bks.cvg/sg31_1_cif.got.tgz:1673.got - 2010.06.11 10:34:26.
