data_PCOD9343911
_publ_section_title
;
Structure prediction by ZEFSAII (Michael W. Deem and Ramdas Pophale) SiO2 
 PCOD9343911
Probable space group: P B A 2
;
_chemical_formula_sum "Si O2"
_cell_formula_units_Z 22
_cell_length_a 11.885442
_cell_length_b 4.873805
_cell_length_c 15.088214
_cell_angle_alpha 90.000000
_cell_angle_beta 90.000000
_cell_angle_gamma 90.000000
_cell_volume 874.019901
_symmetry_space_group_name_H-M "P B A 2"
_symmetry_group_IT_number 32
_symmetry_cell_setting 'orthorhombic'
loop_
_space_group_symop_operation_xyz
x,y,z
-x,-y,z
1/2-x,1/2+y,z
1/2+x,1/2-y,z
loop_
_atom_site_type_symbol
_atom_site_label
_atom_site_fract_x
_atom_site_fract_y
_atom_site_fract_z
Si Si1 0.178111 0.898102 0.550920
Si Si2 0.834102 0.674852 0.278912
Si Si3 0.814819 0.796123 0.086903
Si Si4 0.922693 0.766422 0.717179
Si Si5 0.500000 0.500000 0.398701
Si Si6 0.082738 0.249682 0.898657
O O1 0.293015 0.076031 0.550678
O O2 0.124628 0.057881 0.635102
O O3 0.099638 0.924359 0.466539
O O4 0.771895 0.385584 0.293349
O O5 0.874612 0.702263 0.177006
O O6 0.937998 0.770932 0.339234
O O7 0.698801 0.621966 0.094650
O O8 0.851243 0.710906 0.989359
O O9 0.845955 0.728666 0.805145
O O10 0.000000 0.500000 0.693015
O O11 0.000000 0.000000 0.759506
O O12 0.000000 0.500000 0.883467
O O13 0.000000 0.000000 0.922844
#
# Coordination Sequence:
#
# PCOD9343911 Si02
#       6
#     4   4   4   4   2   4
#     4  12  27  43  69 102 131 172 230 279 335 412
#     4  10  24  45  65  97 131 168 223 273 329 406
#     4  10  21  39  61  90 130 165 210 271 321 386
#     4  10  21  42  64  92 135 179 216 272 334 396
#     4  12  26  46  72  92 136 178 220 284 354 392
#     4  10  21  36  63  95 129 171 219 258 317 402
#
# _framework density 25.171050000000001
#
# number of rings (size 3 to 8) (size 9 to 14) (size 15 to 20)
#    0.000    1.455    0.909    3.273    1.273    3.636 
#    0.000    0.000    0.000    0.000    0.000    0.000 
#    0.000    0.000    0.000    0.000    0.000    0.000 
#
# Total GULP energy -122480.044878 kJ/mol
# GULP energy per Si atom -5567.274767 kJ/mol
# Density = 2.511376 g / cm^3
# Si number density = 25.171050 Si / 1000 Ang^3
#
#
#
# Elastic Constant Matrix: (Units=GPa)
#
#
# Indices 1 2 3 4 5 6 
#
# 1 37.6937 4.9911 35.4229 0.0000 0.0000 0.0000
# 2 4.9911 103.7494 -22.7030 0.0000 0.0000 0.0000
# 3 35.4229 -22.7030 162.1183 0.0000 0.0000 0.0000
# 4 0.0000 0.0000 0.0000 23.0893 0.0000 0.0000
# 5 0.0000 0.0000 0.0000 0.0000 35.2186 0.0000
# 6 0.0000 0.0000 0.0000 0.0000 0.0000 33.6650
#
#
#
# Elastic Compliance Matrix: (Units=1/GPa)
#
#
# Indices 1 2 3 4 5 6 
#
# 1 0.034520 -0.003416 -0.008021 0.000000 0.000000 0.000000
# 2 -0.003416 0.010281 0.002186 0.000000 0.000000 0.000000
# 3 -0.008021 0.002186 0.008227 0.000000 0.000000 0.000000
# 4 0.000000 0.000000 0.000000 0.043310 0.000000 0.000000
# 5 0.000000 0.000000 0.000000 0.000000 0.028394 0.000000
# 6 0.000000 0.000000 0.000000 0.000000 0.000000 0.029704
#
#
# Mechanical properties :
#
#
# Convention : Reuss Voigt Hill
#
# Bulk Modulus (GPa) = 28.96298 37.66484 33.31391
# Shear Modulus (GPa) = 27.10809 37.45126 32.27968
#
# Velocity S-wave (km/s) = 3.28526 3.86148 3.58496
# Velocity P-wave (km/s) = 5.09137 5.90571 5.51359
#
# Compressibility (1/GPa) = 0.03452683
#
# Stress axis : x y z
#
# Youngs Moduli (GPa) = 28.96905 97.26375 121.55016
#
# Poissons Ratio (x) = 0.33224 0.97494
# Poissons Ratio (y) = 0.09895 -0.26573
# Poissons Ratio (z) = 0.23236 -0.21263
#
# Static dielectric constant tensor:
#      x y z
#    x 2.017870 0.000000 0.000000 
#    y 0.000000 2.078320 0.000000 
#    z 0.000000 0.000000 2.200880 
# 
# From -- ./inp_files/4160.got.cif
#   From: 2010.05.17/outbox.cif.g08.bks.cpg/sg32_3_cif.got.tgz:4160.got - 2010.06.03 17:12:27.
