data_PCOD9343341
_publ_section_title
;
Structure prediction by ZEFSAII (Michael W. Deem and Ramdas Pophale) SiO2 
 PCOD9343341
Probable space group: P M N 21
;
_chemical_formula_sum "Si O2"
_cell_formula_units_Z 20
_cell_length_a 18.463571
_cell_length_b 8.229538
_cell_length_c 6.593275
_cell_angle_alpha 90.000000
_cell_angle_beta 90.000000
_cell_angle_gamma 90.000000
_cell_volume 1001.826109
_symmetry_space_group_name_H-M "P M N 21"
_symmetry_group_IT_number 31
_symmetry_cell_setting 'orthorhombic'
loop_
_space_group_symop_operation_xyz
x,y,z
1/2-x,-y,1/2+z
-x,y,z
1/2+x,-y,1/2+z
loop_
_atom_site_type_symbol
_atom_site_label
_atom_site_fract_x
_atom_site_fract_y
_atom_site_fract_z
Si Si1 0.712607 0.234716 0.416160
Si Si2 0.162994 0.339861 0.658932
Si Si3 0.584974 0.438072 0.478900
Si Si4 0.917220 0.255036 0.272709
Si Si5 0.215197 0.130193 0.036686
O O1 0.768836 0.366513 0.508310
O O2 0.633893 0.278738 0.500108
O O3 0.724846 0.220470 0.174397
O O4 0.734469 0.054673 0.489528
O O5 0.123124 0.480363 0.782729
O O6 0.103108 0.265570 0.508461
O O7 0.195708 0.223620 0.831535
O O8 0.500000 0.408624 0.448909
O O9 0.592168 0.568239 0.662659
O O10 0.858597 0.140229 0.167405
O O11 0.000000 0.205953 0.240479
#
# Coordination Sequence:
#
# PCOD9343341 Si02
#       5
#     4   4   4   4   4
#     4  11  22  37  61  87 122 158 206 253 296 354
#     4  10  21  37  62  85 119 160 197 251 299 358
#     4  10  23  39  60  91 122 154 198 250 311 368
#     4   9  20  39  61  88 118 155 197 244 304 366
#     4  10  21  38  59  89 119 159 206 246 293 358
#
# _framework density 19.963546000000001
#
# number of rings (size 3 to 8) (size 9 to 14) (size 15 to 20)
#    0.000    2.000    2.000    0.600    8.400    1.600 
#    0.000    0.000    0.000    0.000    0.000    0.000 
#    0.000    0.000    0.000    0.000    0.000    0.000 
#
# Total GULP energy -111475.519467 kJ/mol
# GULP energy per Si atom -5573.775973 kJ/mol
# Density = 1.991811 g / cm^3
# Si number density = 19.963546 Si / 1000 Ang^3
#
#
#
# Elastic Constant Matrix: (Units=GPa)
#
#
# Indices 1 2 3 4 5 6 
#
# 1 110.2571 26.0411 11.4538 0.0000 0.0000 0.0000
# 2 26.0411 31.0034 11.3779 0.0000 0.0000 0.0000
# 3 11.4538 11.3779 85.9557 0.0000 0.0000 0.0000
# 4 0.0000 0.0000 0.0000 19.9379 0.0000 0.0000
# 5 0.0000 0.0000 0.0000 0.0000 23.7693 0.0000
# 6 0.0000 0.0000 0.0000 0.0000 0.0000 24.8240
#
#
#
# Elastic Compliance Matrix: (Units=1/GPa)
#
#
# Indices 1 2 3 4 5 6 
#
# 1 0.011320 -0.009412 -0.000263 0.000000 0.000000 0.000000
# 2 -0.009412 0.041727 -0.004269 0.000000 0.000000 0.000000
# 3 -0.000263 -0.004269 0.012234 0.000000 0.000000 0.000000
# 4 0.000000 0.000000 0.000000 0.050156 0.000000 0.000000
# 5 0.000000 0.000000 0.000000 0.000000 0.042071 0.000000
# 6 0.000000 0.000000 0.000000 0.000000 0.000000 0.040284
#
#
# Mechanical properties :
#
#
# Convention : Reuss Voigt Hill
#
# Bulk Modulus (GPa) = 26.74263 36.10688 31.42475
# Shear Modulus (GPa) = 20.99586 25.59581 23.29584
#
# Velocity S-wave (km/s) = 3.24653 3.58457 3.41973
# Velocity P-wave (km/s) = 5.24195 5.93783 5.60071
#
# Compressibility (1/GPa) = 0.03739349
#
# Stress axis : x y z
#
# Youngs Moduli (GPa) = 88.34014 23.96558 81.73942
#
# Poissons Ratio (x) = 0.22556 0.02146
# Poissons Ratio (y) = 0.83143 0.34896
# Poissons Ratio (z) = 0.02320 0.10231
#
# Static dielectric constant tensor:
#      x y z
#    x 1.700010 0.000000 0.000000 
#    y 0.000000 1.728940 0.000000 
#    z 0.000000 0.000000 1.761580 
# 
# From -- ./inp_files/760.got.cif
#   From: 2010.05.17/outbox.cif.g08.bks.cpg/sg31_1_cif.got.tgz:760.got - 2010.06.03 17:08:30.
