data_PCOD9343471
_publ_section_title
;
Structure prediction by ZEFSAII (Michael W. Deem and Ramdas Pophale) SiO2 
 PCOD9343471
Probable space group: P M N 21
;
_chemical_formula_sum "Si O2"
_cell_formula_units_Z 14
_cell_length_a 10.444328
_cell_length_b 8.806385
_cell_length_c 8.301784
_cell_angle_alpha 90.000000
_cell_angle_beta 90.000000
_cell_angle_gamma 90.000000
_cell_volume 763.571306
_symmetry_space_group_name_H-M "P M N 21"
_symmetry_group_IT_number 31
_symmetry_cell_setting 'orthorhombic'
loop_
_space_group_symop_operation_xyz
x,y,z
1/2-x,-y,1/2+z
-x,y,z
1/2+x,-y,1/2+z
loop_
_atom_site_type_symbol
_atom_site_label
_atom_site_fract_x
_atom_site_fract_y
_atom_site_fract_z
Si Si1 0.744009 0.728571 0.216590
Si Si2 0.645520 0.469067 0.434196
Si Si3 0.500000 0.151888 0.857538
Si Si4 0.000000 0.728521 0.699365
Si Si5 0.500000 0.933175 0.138720
O O1 0.706689 0.621924 0.367022
O O2 0.872351 0.821572 0.256307
O O3 0.625337 0.836509 0.176735
O O4 0.774375 0.618090 0.067435
O O5 0.500000 0.498434 0.496398
O O6 0.619095 0.356494 0.282214
O O7 0.500000 0.273535 0.006261
O O8 0.500000 0.993326 0.954270
O O9 0.000000 0.907940 0.737357
#
# Coordination Sequence:
#
# PCOD9343471 Si02
#       5
#     4   4   2   2   2
#     4  12  22  44  66  96 129 171 216 262 335 372
#     4  10  22  40  65  96 123 172 212 268 308 391
#     4  10  23  38  67  92 129 171 208 272 313 391
#     4   8  20  40  59  97 126 164 210 267 307 388
#     4  10  25  38  66  91 133 165 208 271 322 385
#
# _framework density 18.334893999999998
#
# number of rings (size 3 to 8) (size 9 to 14) (size 15 to 20)
#    1.714    0.000    2.857    1.714    4.000    1.143 
#    0.000    0.000    0.000    0.000    0.000    0.000 
#    0.000    0.000    0.000    0.000    0.000    0.000 
#
# Total GULP energy -77975.264131 kJ/mol
# GULP energy per Si atom -5569.661724 kJ/mol
# Density = 1.829316 g / cm^3
# Si number density = 18.334894 Si / 1000 Ang^3
#
#
#
# Elastic Constant Matrix: (Units=GPa)
#
#
# Indices 1 2 3 4 5 6 
#
# 1 154.2953 77.3876 30.3215 0.0000 0.0000 0.0000
# 2 77.3876 97.3027 27.5194 0.0000 0.0000 0.0000
# 3 30.3215 27.5194 44.1009 0.0000 0.0000 0.0000
# 4 0.0000 0.0000 0.0000 41.2735 0.0000 0.0000
# 5 0.0000 0.0000 0.0000 0.0000 29.1574 0.0000
# 6 0.0000 0.0000 0.0000 0.0000 0.0000 10.0222
#
#
#
# Elastic Compliance Matrix: (Units=1/GPa)
#
#
# Indices 1 2 3 4 5 6 
#
# 1 0.011015 -0.008037 -0.002558 0.000000 0.000000 0.000000
# 2 -0.008037 0.018344 -0.005921 0.000000 0.000000 0.000000
# 3 -0.002558 -0.005921 0.028129 0.000000 0.000000 0.000000
# 4 0.000000 0.000000 0.000000 0.024229 0.000000 0.000000
# 5 0.000000 0.000000 0.000000 0.000000 0.034297 0.000000
# 6 0.000000 0.000000 0.000000 0.000000 0.000000 0.099778
#
#
# Mechanical properties :
#
#
# Convention : Reuss Voigt Hill
#
# Bulk Modulus (GPa) = 40.89058 62.90622 51.89840
# Shear Modulus (GPa) = 19.45721 26.78865 23.12293
#
# Velocity S-wave (km/s) = 3.26116 3.82655 3.55511
# Velocity P-wave (km/s) = 6.04406 7.34216 6.72451
#
# Compressibility (1/GPa) = 0.02445551
#
# Stress axis : x y z
#
# Youngs Moduli (GPa) = 90.78778 54.51471 35.55075
#
# Poissons Ratio (x) = 0.43812 0.09094
# Poissons Ratio (y) = 0.72964 0.21049
# Poissons Ratio (z) = 0.23224 0.32278
#
# Static dielectric constant tensor:
#      x y z
#    x 1.612170 0.000000 0.000000 
#    y 0.000000 1.612580 0.000000 
#    z 0.000000 0.000000 1.635910 
# 
# From -- ./inp_files/1492.got.cif
#   From: 2010.05.17/outbox.cif.g08.bks.cpg/sg31_1_cif.got.tgz:1492.got - 2010.06.03 17:08:30.
