data_PCOD9343929
_publ_section_title
;
Structure prediction by ZEFSAII (Michael W. Deem and Ramdas Pophale) SiO2 
 PCOD9343929
Probable space group: P B A 2
;
_chemical_formula_sum "Si O2"
_cell_formula_units_Z 26
_cell_length_a 9.982588
_cell_length_b 22.670932
_cell_length_c 5.204180
_cell_angle_alpha 90.000000
_cell_angle_beta 90.000000
_cell_angle_gamma 90.000000
_cell_volume 1177.781778
_symmetry_space_group_name_H-M "P B A 2"
_symmetry_group_IT_number 32
_symmetry_cell_setting 'orthorhombic'
loop_
_space_group_symop_operation_xyz
x,y,z
-x,-y,z
1/2-x,1/2+y,z
1/2+x,1/2-y,z
loop_
_atom_site_type_symbol
_atom_site_label
_atom_site_fract_x
_atom_site_fract_y
_atom_site_fract_z
Si Si1 0.331156 0.366954 0.730210
Si Si2 0.861020 0.874767 0.590328
Si Si3 0.267083 0.083077 0.084219
Si Si4 0.163036 0.737452 0.611839
Si Si5 0.000000 0.500000 0.217496
Si Si6 0.961253 0.303564 0.115906
Si Si7 0.680359 0.106603 0.239727
O O1 0.490839 0.364018 0.698792
O O2 0.281513 0.299302 0.710296
O O3 0.282938 0.395918 0.468957
O O4 0.263149 0.398442 0.973723
O O5 0.839242 0.907001 0.315513
O O6 0.775882 0.813514 0.593294
O O7 0.795748 0.915984 0.805192
O O8 0.367575 0.028036 0.091151
O O9 0.359775 0.141050 0.112395
O O10 0.092905 0.741186 0.332398
O O11 0.052832 0.719984 0.827582
O O12 0.067439 0.440882 0.327173
O O13 0.101212 0.331484 0.203497
#
# Coordination Sequence:
#
# PCOD9343929 Si02
#       7
#     4   4   4   4   2   4   4
#     4  12  25  40  60  96 135 168 212 260 311 399
#     4  10  22  40  61  92 137 166 204 258 318 385
#     4   9  20  40  66  91 118 164 211 264 319 369
#     4  10  21  38  61  88 124 178 203 247 315 371
#     4  10  24  48  74  92 120 166 224 284 320 368
#     4   9  19  37  61  88 121 159 215 256 302 373
#     4  11  25  41  65  96 125 162 223 271 312 370
#
# _framework density 22.075393999999999
#
# number of rings (size 3 to 8) (size 9 to 14) (size 15 to 20)
#    0.000    1.846    0.000    2.769    4.308    6.154 
#    0.000    4.615    0.000    0.000    0.000    0.000 
#    0.000    0.000    0.000    0.000    0.000    0.000 
#
# Total GULP energy -144898.830736 kJ/mol
# GULP energy per Si atom -5573.031951 kJ/mol
# Density = 2.202515 g / cm^3
# Si number density = 22.075394 Si / 1000 Ang^3
#
#
#
# Elastic Constant Matrix: (Units=GPa)
#
#
# Indices 1 2 3 4 5 6 
#
# 1 63.6458 -8.5090 -8.1819 0.0000 0.0000 0.0000
# 2 -8.5090 40.9509 -12.2205 0.0000 0.0000 0.0000
# 3 -8.1819 -12.2205 75.0120 0.0000 0.0000 0.0000
# 4 0.0000 0.0000 0.0000 -14.0025 0.0000 0.0000
# 5 0.0000 0.0000 0.0000 0.0000 28.7721 0.0000
# 6 0.0000 0.0000 0.0000 0.0000 0.0000 12.6147
#
#
#
# Elastic Compliance Matrix: (Units=1/GPa)
#
#
# Indices 1 2 3 4 5 6 
#
# 1 0.016593 0.004192 0.002493 0.000000 0.000000 0.000000
# 2 0.004192 0.026726 0.004811 0.000000 0.000000 0.000000
# 3 0.002493 0.004811 0.014387 0.000000 0.000000 0.000000
# 4 0.000000 0.000000 0.000000 -0.071416 0.000000 0.000000
# 5 0.000000 0.000000 0.000000 0.000000 0.034756 0.000000
# 6 0.000000 0.000000 0.000000 0.000000 0.000000 0.079273
#
#
# Mechanical properties :
#
#
# Convention : Reuss Voigt Hill
#
# Bulk Modulus (GPa) = 12.39202 13.53177 12.96189
# Shear Modulus (GPa) = 47.97257 19.37821 33.67539
#
# Velocity S-wave (km/s) = 4.66674 2.96602 3.90997
# Velocity P-wave (km/s) = 5.88758 4.22762 5.12525
#
# Compressibility (1/GPa) = 0.08069712
#
# Stress axis : x y z
#
# Youngs Moduli (GPa) = 60.26709 37.41647 69.50761
#
# Poissons Ratio (x) = -0.15684 -0.17326
# Poissons Ratio (y) = -0.25262 -0.33442
# Poissons Ratio (z) = -0.15023 -0.18002
#
# Static dielectric constant tensor:
#      x y z
#    x 1.830050 0.000000 0.000000 
#    y 0.000000 1.858240 0.000000 
#    z 0.000000 0.000000 1.808950 
# 
# From -- ./inp_files/578.got.cif
#   From: 2010.05.17/outbox.cif.g08.bks.cpg/sg32_1_cif.got.tgz:578.got - 2010.06.03 17:12:27.
