data_PCOD9343134
_publ_section_title
;
Structure prediction by ZEFSAII (Michael W. Deem and Ramdas Pophale) SiO2 
 PCOD9343134
Probable space group: P M N 21
;
_chemical_formula_sum "Si O2"
_cell_formula_units_Z 24
_cell_length_a 7.579854
_cell_length_b 12.127613
_cell_length_c 12.478600
_cell_angle_alpha 90.000000
_cell_angle_beta 90.000000
_cell_angle_gamma 90.000000
_cell_volume 1147.101992
_symmetry_space_group_name_H-M "P M N 21"
_symmetry_group_IT_number 31
_symmetry_cell_setting 'orthorhombic'
loop_
_space_group_symop_operation_xyz
x,y,z
1/2-x,-y,1/2+z
-x,y,z
1/2+x,-y,1/2+z
loop_
_atom_site_type_symbol
_atom_site_label
_atom_site_fract_x
_atom_site_fract_y
_atom_site_fract_z
Si Si1 0.204919 0.697136 0.523920
Si Si2 0.208051 0.679231 0.761246
Si Si3 0.285725 0.429425 0.818856
Si Si4 0.209065 0.089841 0.892117
Si Si5 0.712144 0.221667 0.682400
Si Si6 0.216719 0.842966 0.945539
O O1 0.284647 0.695885 0.642205
O O2 0.279434 0.613951 0.434517
O O3 0.212201 0.817274 0.469889
O O4 0.000000 0.665175 0.536033
O O5 0.228019 0.552098 0.793133
O O6 0.278675 0.758676 0.854053
O O7 0.000000 0.706033 0.754748
O O8 0.500000 0.427126 0.819738
O O9 0.226479 0.338594 0.731423
O O10 0.243224 0.129168 0.770690
O O11 0.000000 0.092137 0.909867
O O12 0.272482 0.967136 0.917265
O O13 0.500000 0.227423 0.677547
O O14 0.776183 0.193446 0.563823
O O15 0.000000 0.841906 0.946897
#
# Coordination Sequence:
#
# PCOD9343134 Si02
#       6
#     4   4   4   4   4   4
#     4   9  20  38  57  78 110 147 177 214 275 330
#     4  10  21  36  57  81 107 143 182 219 264 319
#     4   9  19  35  54  78 108 142 178 220 266 317
#     4  10  20  35  57  84 108 136 184 229 261 313
#     4   9  19  38  58  76 109 149 177 213 276 330
#     4   9  20  36  55  81 110 141 178 221 268 319
#
# _framework density 20.92229
#
# number of rings (size 3 to 8) (size 9 to 14) (size 15 to 20)
#    0.000    2.667    0.000    1.500    4.667    3.333 
#    0.000    3.333    0.000    0.000    0.000    0.000 
#    0.000    0.000    0.000    0.000    0.000    0.000 
#
# Total GULP energy -133976.347932 kJ/mol
# GULP energy per Si atom -5582.347831 kJ/mol
# Density = 2.087467 g / cm^3
# Si number density = 20.922290 Si / 1000 Ang^3
#
#
#
# Elastic Constant Matrix: (Units=GPa)
#
#
# Indices 1 2 3 4 5 6 
#
# 1 41.4911 -20.2418 -4.6375 0.0000 0.0000 0.0000
# 2 -20.2418 110.9009 93.4539 0.0000 0.0000 0.0000
# 3 -4.6375 93.4539 212.4523 0.0000 0.0000 0.0000
# 4 0.0000 0.0000 0.0000 11.7063 0.0000 0.0000
# 5 0.0000 0.0000 0.0000 0.0000 10.2645 0.0000
# 6 0.0000 0.0000 0.0000 0.0000 0.0000 23.1018
#
#
#
# Elastic Compliance Matrix: (Units=1/GPa)
#
#
# Indices 1 2 3 4 5 6 
#
# 1 0.027290 0.007117 -0.002535 0.000000 0.000000 0.000000
# 2 0.007117 0.016184 -0.006964 0.000000 0.000000 0.000000
# 3 -0.002535 -0.006964 0.007715 0.000000 0.000000 0.000000
# 4 0.000000 0.000000 0.000000 0.085424 0.000000 0.000000
# 5 0.000000 0.000000 0.000000 0.000000 0.097423 0.000000
# 6 0.000000 0.000000 0.000000 0.000000 0.000000 0.043287
#
#
# Mechanical properties :
#
#
# Convention : Reuss Voigt Hill
#
# Bulk Modulus (GPa) = 21.53941 55.77704 38.65822
# Shear Modulus (GPa) = 16.80321 28.76584 22.78452
#
# Velocity S-wave (km/s) = 2.83702 3.71197 3.30359
# Velocity P-wave (km/s) = 4.58791 6.71481 5.75055
#
# Compressibility (1/GPa) = 0.04642654
#
# Stress axis : x y z
#
# Youngs Moduli (GPa) = 36.64288 61.78773 129.61958
#
# Poissons Ratio (x) = -0.43976 0.32860
# Poissons Ratio (y) = -0.26080 0.90265
# Poissons Ratio (z) = 0.09289 0.43028
#
# Static dielectric constant tensor:
#      x y z
#    x 1.793050 0.000000 0.000000 
#    y 0.000000 1.697730 0.000000 
#    z 0.000000 0.000000 1.749620 
# 
# From -- ./inp_files/3435.got.cif
#   From: 2010.05.17/outbox.cif.g08.bks.cpg/sg31_2_cif.got.tgz:3435.got - 2010.06.03 17:08:30.
