data_PCOD9343082
_publ_section_title
;
Structure prediction by ZEFSAII (Michael W. Deem and Ramdas Pophale) SiO2 
 PCOD9343082
Probable space group: P M N 21
;
_chemical_formula_sum "Si O2"
_cell_formula_units_Z 32
_cell_length_a 8.752866
_cell_length_b 11.678114
_cell_length_c 16.634398
_cell_angle_alpha 90.000000
_cell_angle_beta 90.000000
_cell_angle_gamma 90.000000
_cell_volume 1700.317711
_symmetry_space_group_name_H-M "P M N 21"
_symmetry_group_IT_number 31
_symmetry_cell_setting 'orthorhombic'
loop_
_space_group_symop_operation_xyz
x,y,z
1/2-x,-y,1/2+z
-x,y,z
1/2+x,-y,1/2+z
loop_
_atom_site_type_symbol
_atom_site_label
_atom_site_fract_x
_atom_site_fract_y
_atom_site_fract_z
Si Si1 0.176928 0.791569 0.905550
Si Si2 0.313031 0.571627 0.224872
Si Si3 0.316148 0.831072 0.201462
Si Si4 0.321158 0.071426 0.242425
Si Si5 0.821145 0.174350 0.084680
Si Si6 0.820595 0.049790 0.533582
Si Si7 0.316175 0.475876 0.400259
Si Si8 0.682892 0.424896 0.066329
O O1 0.186579 0.848382 0.818664
O O2 0.282856 0.865018 0.962546
O O3 0.218205 0.658997 0.902080
O O4 0.000000 0.800533 0.933208
O O5 0.500000 0.569334 0.224440
O O6 0.258092 0.703395 0.216671
O O7 0.265990 0.524574 0.312890
O O8 0.265834 0.497205 0.146139
O O9 0.500000 0.819377 0.203276
O O10 0.277505 0.938727 0.258908
O O11 0.273521 0.881590 0.114364
O O12 0.500000 0.070345 0.215447
O O13 0.219906 0.124542 0.172362
O O14 0.733889 0.293387 0.074402
O O15 0.000000 0.194055 0.075016
O O16 0.765967 0.070857 0.027517
O O17 0.000000 0.026247 0.538682
O O18 0.500000 0.490716 0.403855
O O19 0.246814 0.529483 0.481269
O O20 0.500000 0.432410 0.064409
#
# Coordination Sequence:
#
# PCOD9343082 Si02
#       8
#     4   4   4   4   4   4   4   4
#     4  10  20  34  53  80 115 151 187 230 282 335
#     4   9  18  34  57  82 112 153 194 230 275 334
#     4   8  15  30  53  79 104 136 182 228 271 323
#     4   9  18  34  56  82 112 147 185 227 277 337
#     4  11  22  37  57  81 109 143 186 235 289 343
#     4  10  20  35  56  81 109 142 184 235 286 339
#     4  10  21  36  55  83 116 150 193 241 283 333
#     4  11  22  38  59  82 113 154 195 236 287 346
#
# _framework density 18.820011999999998
#
# number of rings (size 3 to 8) (size 9 to 14) (size 15 to 20)
#    0.000    2.250    0.000    4.125    0.000    5.000 
#    0.000    5.000    0.000    4.500    0.000    0.000 
#    0.000    0.000    0.000    0.000    0.000    0.000 
#
# Total GULP energy -178411.955713 kJ/mol
# GULP energy per Si atom -5575.373616 kJ/mol
# Density = 1.877718 g / cm^3
# Si number density = 18.820012 Si / 1000 Ang^3
#
#
#
# Elastic Constant Matrix: (Units=GPa)
#
#
# Indices 1 2 3 4 5 6 
#
# 1 18.8749 30.7826 28.0802 0.0000 0.0000 0.0000
# 2 30.7826 169.5870 73.1478 0.0000 0.0000 0.0000
# 3 28.0802 73.1478 101.0072 0.0000 0.0000 0.0000
# 4 0.0000 0.0000 0.0000 30.2953 0.0000 0.0000
# 5 0.0000 0.0000 0.0000 0.0000 25.3296 0.0000
# 6 0.0000 0.0000 0.0000 0.0000 0.0000 24.5008
#
#
#
# Elastic Compliance Matrix: (Units=1/GPa)
#
#
# Indices 1 2 3 4 5 6 
#
# 1 0.098692 -0.008842 -0.021034 0.000000 0.000000 0.000000
# 2 -0.008842 0.009367 -0.004326 0.000000 0.000000 0.000000
# 3 -0.021034 -0.004326 0.018880 0.000000 0.000000 0.000000
# 4 0.000000 0.000000 0.000000 0.033008 0.000000 0.000000
# 5 0.000000 0.000000 0.000000 0.000000 0.039480 0.000000
# 6 0.000000 0.000000 0.000000 0.000000 0.000000 0.040815
#
#
# Mechanical properties :
#
#
# Convention : Reuss Voigt Hill
#
# Bulk Modulus (GPa) = 17.08304 61.49894 39.29099
# Shear Modulus (GPa) = 15.23663 26.52236 20.87950
#
# Velocity S-wave (km/s) = 2.84843 3.75809 3.33442
# Velocity P-wave (km/s) = 4.46260 7.18188 5.97889
#
# Compressibility (1/GPa) = 0.05853757
#
# Stress axis : x y z
#
# Youngs Moduli (GPa) = 10.13256 106.75344 52.96538
#
# Poissons Ratio (x) = 0.94388 1.11405
# Poissons Ratio (y) = 0.08959 0.22911
# Poissons Ratio (z) = 0.21312 0.46178
#
# Static dielectric constant tensor:
#      x y z
#    x 1.672230 0.000000 0.000000 
#    y 0.000000 1.650800 0.000000 
#    z 0.000000 0.000000 1.660230 
# 
# From -- ./inp_files/4919.got.cif
#   From: 2010.05.17/outbox.cif.g08.bks.cpg/sg31_3_cif.got.tgz:4919.got - 2010.06.03 17:08:30.
