data_PCOD9343519
_publ_section_title
;
Structure prediction by ZEFSAII (Michael W. Deem and Ramdas Pophale) SiO2 
 PCOD9343519
Probable space group: P M N 21
;
_chemical_formula_sum "Si O2"
_cell_formula_units_Z 24
_cell_length_a 8.513720
_cell_length_b 10.318453
_cell_length_c 14.206982
_cell_angle_alpha 90.000000
_cell_angle_beta 90.000000
_cell_angle_gamma 90.000000
_cell_volume 1248.060917
_symmetry_space_group_name_H-M "P M N 21"
_symmetry_group_IT_number 31
_symmetry_cell_setting 'orthorhombic'
loop_
_space_group_symop_operation_xyz
x,y,z
1/2-x,-y,1/2+z
-x,y,z
1/2+x,-y,1/2+z
loop_
_atom_site_type_symbol
_atom_site_label
_atom_site_fract_x
_atom_site_fract_y
_atom_site_fract_z
Si Si1 0.316554 0.519756 0.912340
Si Si2 0.811439 0.874081 0.198666
Si Si3 0.815949 0.599108 0.109309
Si Si4 0.182704 0.629310 0.728795
Si Si5 0.312149 0.769210 0.391808
Si Si6 0.310102 0.859984 0.599850
O O1 0.500000 0.521663 0.935925
O O2 0.280380 0.611076 0.823929
O O3 0.267034 0.372567 0.887235
O O4 0.217119 0.567177 0.001250
O O5 0.778434 0.745969 0.137279
O O6 0.736527 0.852188 0.301009
O O7 0.000000 0.881237 0.210913
O O8 0.760112 0.002591 0.143442
O O9 0.712096 0.501481 0.170040
O O10 0.000000 0.575071 0.131125
O O11 0.241014 0.746203 0.663949
O O12 0.000000 0.643994 0.751479
O O13 0.500000 0.751214 0.391997
O O14 0.265866 0.835588 0.490947
O O15 0.500000 0.853426 0.603747
#
# Coordination Sequence:
#
# PCOD9343519 Si02
#       6
#     4   4   4   4   4   4
#     4  12  24  39  63  94 128 167 213 266 316 371
#     4  10  23  42  65  92 129 170 209 258 320 379
#     4  11  22  39  63  93 128 164 207 262 313 372
#     4  12  24  39  63  94 125 164 212 261 313 373
#     4  11  22  38  64  92 125 167 212 261 318 379
#     4  10  23  43  64  91 129 170 209 260 318 376
#
# _framework density 19.22983
#
# number of rings (size 3 to 8) (size 9 to 14) (size 15 to 20)
#    0.000    1.000    3.333    4.000    0.000    3.333 
#    0.000    1.667    0.000    0.000    0.000    0.000 
#    0.000    0.000    0.000    0.000    0.000    0.000 
#
# Total GULP energy -134202.820329 kJ/mol
# GULP energy per Si atom -5591.784180 kJ/mol
# Density = 1.918606 g / cm^3
# Si number density = 19.229830 Si / 1000 Ang^3
#
#
#
# Elastic Constant Matrix: (Units=GPa)
#
#
# Indices 1 2 3 4 5 6 
#
# 1 32.8595 24.0435 -0.1099 0.0000 0.0000 0.0000
# 2 24.0435 99.9825 21.2025 0.0000 0.0000 0.0000
# 3 -0.1099 21.2025 77.2260 0.0000 0.0000 0.0000
# 4 0.0000 0.0000 0.0000 31.2923 0.0000 0.0000
# 5 0.0000 0.0000 0.0000 0.0000 31.7851 0.0000
# 6 0.0000 0.0000 0.0000 0.0000 0.0000 3.3715
#
#
#
# Elastic Compliance Matrix: (Units=1/GPa)
#
#
# Indices 1 2 3 4 5 6 
#
# 1 0.037447 -0.009574 0.002682 0.000000 0.000000 0.000000
# 2 -0.009574 0.013068 -0.003601 0.000000 0.000000 0.000000
# 3 0.002682 -0.003601 0.013942 0.000000 0.000000 0.000000
# 4 0.000000 0.000000 0.000000 0.031957 0.000000 0.000000
# 5 0.000000 0.000000 0.000000 0.000000 0.031461 0.000000
# 6 0.000000 0.000000 0.000000 0.000000 0.000000 0.296601
#
#
# Mechanical properties :
#
#
# Convention : Reuss Voigt Hill
#
# Bulk Modulus (GPa) = 23.00476 33.37113 28.18794
# Shear Modulus (GPa) = 10.87070 24.28524 17.57797
#
# Velocity S-wave (km/s) = 2.38019 3.55758 3.02669
# Velocity P-wave (km/s) = 4.42072 5.85377 5.18698
#
# Compressibility (1/GPa) = 0.04346926
#
# Stress axis : x y z
#
# Youngs Moduli (GPa) = 26.70461 76.52430 71.72787
#
# Poissons Ratio (x) = 0.73263 -0.19236
# Poissons Ratio (y) = 0.25566 0.25832
# Poissons Ratio (z) = -0.07162 0.27559
#
# Static dielectric constant tensor:
#      x y z
#    x 1.649660 0.000000 0.000000 
#    y 0.000000 1.640960 0.000000 
#    z 0.000000 0.000000 1.662420 
# 
# From -- ./inp_files/4749.got.cif
#   From: 2010.05.17/outbox.cif.g08.bks.cpg/sg31_3_cif.got.tgz:4749.got - 2010.06.03 17:08:30.
