data_PCOD9343523
_publ_section_title
;
Structure prediction by ZEFSAII (Michael W. Deem and Ramdas Pophale) SiO2 
 PCOD9343523
Probable space group: P M N 21
;
_chemical_formula_sum "Si O2"
_cell_formula_units_Z 20
_cell_length_a 28.118521
_cell_length_b 5.018695
_cell_length_c 5.491927
_cell_angle_alpha 90.000000
_cell_angle_beta 90.000000
_cell_angle_gamma 90.000000
_cell_volume 775.011296
_symmetry_space_group_name_H-M "P M N 21"
_symmetry_group_IT_number 31
_symmetry_cell_setting 'orthorhombic'
loop_
_space_group_symop_operation_xyz
x,y,z
1/2-x,-y,1/2+z
-x,y,z
1/2+x,-y,1/2+z
loop_
_atom_site_type_symbol
_atom_site_label
_atom_site_fract_x
_atom_site_fract_y
_atom_site_fract_z
Si Si1 0.000000 0.128297 0.681320
Si Si2 0.198085 0.341025 0.902921
Si Si3 0.898189 0.811666 0.254364
Si Si4 0.702752 0.167710 0.678417
Si Si5 0.500000 0.393729 0.877429
Si Si6 0.398815 0.879896 0.256182
O O1 0.048132 0.224507 0.809413
O O2 0.000000 0.295309 0.434200
O O3 0.000000 0.813557 0.612986
O O4 0.246429 0.224842 0.792717
O O5 0.147905 0.297996 0.771505
O O6 0.205064 0.654171 0.935082
O O7 0.194304 0.145919 0.140045
O O8 0.844434 0.705116 0.302950
O O9 0.948563 0.661773 0.259655
O O10 0.902742 0.012908 0.481846
O O11 0.892965 0.912850 0.977495
#
# Coordination Sequence:
#
# PCOD9343523 Si02
#       6
#     2   4   4   4   2   4
#     4  10  23  42  68  98 134 176 222 274 332 394
#     4  11  24  42  67  99 135 178 224 277 335 398
#     4  10  23  45  70 100 136 176 224 276 334 397
#     4  11  24  42  67  99 135 178 224 277 335 398
#     4  10  23  42  68  98 134 176 222 274 332 394
#     4  10  23  45  70 100 136 176 224 276 334 397
#
# _framework density 25.806076999999998
#
# number of rings (size 3 to 8) (size 9 to 14) (size 15 to 20)
#    0.000    1.600    0.000    3.000    0.000   17.600 
#    0.000    9.000    0.000    0.000    0.000    0.000 
#    0.000    0.000    0.000    0.000    0.000    0.000 
#
# Total GULP energy -111499.042721 kJ/mol
# GULP energy per Si atom -5574.952136 kJ/mol
# Density = 2.574734 g / cm^3
# Si number density = 25.806077 Si / 1000 Ang^3
#
#
#
# Elastic Constant Matrix: (Units=GPa)
#
#
# Indices 1 2 3 4 5 6 
#
# 1 273.2649 26.9265 23.8741 0.0000 0.0000 0.0000
# 2 26.9265 81.6179 35.6583 0.0000 0.0000 0.0000
# 3 23.8741 35.6583 44.8965 0.0000 0.0000 0.0000
# 4 0.0000 0.0000 0.0000 32.1230 0.0000 0.0000
# 5 0.0000 0.0000 0.0000 0.0000 45.8476 0.0000
# 6 0.0000 0.0000 0.0000 0.0000 0.0000 281.9950
#
#
#
# Elastic Compliance Matrix: (Units=1/GPa)
#
#
# Indices 1 2 3 4 5 6 
#
# 1 0.003855 -0.000576 -0.001593 0.000000 0.000000 0.000000
# 2 -0.000576 0.018849 -0.014664 0.000000 0.000000 0.000000
# 3 -0.001593 -0.014664 0.034767 0.000000 0.000000 0.000000
# 4 0.000000 0.000000 0.000000 0.031130 0.000000 0.000000
# 5 0.000000 0.000000 0.000000 0.000000 0.021811 0.000000
# 6 0.000000 0.000000 0.000000 0.000000 0.000000 0.003546
#
#
# Mechanical properties :
#
#
# Convention : Reuss Voigt Hill
#
# Bulk Modulus (GPa) = 42.00665 63.63303 52.81984
# Shear Modulus (GPa) = 32.14195 92.88114 62.51155
#
# Velocity S-wave (km/s) = 3.53302 6.00584 4.92708
# Velocity P-wave (km/s) = 5.74074 8.53259 7.27191
#
# Compressibility (1/GPa) = 0.02380576
#
# Stress axis : x y z
#
# Youngs Moduli (GPa) = 259.37937 53.05337 28.76294
#
# Poissons Ratio (x) = 0.03057 0.04581
# Poissons Ratio (y) = 0.14945 0.42178
# Poissons Ratio (z) = 0.41306 0.77798
#
# Static dielectric constant tensor:
#      x y z
#    x 2.184160 0.000000 0.000000 
#    y 0.000000 2.036960 0.000000 
#    z 0.000000 0.000000 2.190970 
# 
# From -- ./inp_files/1211.got.cif
#   From: 2010.05.17/outbox.cif.g08.bks.cpg/sg31_1_cif.got.tgz:1211.got - 2010.06.03 17:08:30.
