data_PCOD9343169
_publ_section_title
;
Structure prediction by ZEFSAII (Michael W. Deem and Ramdas Pophale) SiO2 
 PCOD9343169
Probable space group: P M N 21
;
_chemical_formula_sum "Si O2"
_cell_formula_units_Z 32
_cell_length_a 8.452442
_cell_length_b 12.520934
_cell_length_c 14.460616
_cell_angle_alpha 90.000000
_cell_angle_beta 90.000000
_cell_angle_gamma 90.000000
_cell_volume 1530.402686
_symmetry_space_group_name_H-M "P M N 21"
_symmetry_group_IT_number 31
_symmetry_cell_setting 'orthorhombic'
loop_
_space_group_symop_operation_xyz
x,y,z
1/2-x,-y,1/2+z
-x,y,z
1/2+x,-y,1/2+z
loop_
_atom_site_type_symbol
_atom_site_label
_atom_site_fract_x
_atom_site_fract_y
_atom_site_fract_z
Si Si1 0.683476 0.613445 0.769820
Si Si2 0.692981 0.678919 0.573958
Si Si3 0.815231 0.068002 0.830099
Si Si4 0.314088 0.579051 0.379897
Si Si5 0.186947 0.826050 0.845912
Si Si6 0.187920 0.910680 0.536408
Si Si7 0.309551 0.137170 0.561423
Si Si8 0.181861 0.737810 0.229359
O O1 0.500000 0.585553 0.767732
O O2 0.742705 0.609917 0.663558
O O3 0.760494 0.536502 0.845275
O O4 0.710697 0.734877 0.800335
O O5 0.500000 0.685059 0.573919
O O6 0.749528 0.626878 0.476907
O O7 0.758826 0.799541 0.582032
O O8 0.699910 0.147408 0.778098
O O9 0.000000 0.094081 0.811866
O O10 0.787900 0.944530 0.806724
O O11 0.781697 0.083277 0.939039
O O12 0.500000 0.576281 0.392611
O O13 0.272243 0.656949 0.295037
O O14 0.000000 0.800517 0.835339
O O15 0.222608 0.835522 0.954984
O O16 0.000000 0.907631 0.520691
O O17 0.230712 0.023205 0.584758
O O18 0.500000 0.125481 0.571465
O O19 0.257888 0.234477 0.627059
O O20 0.000000 0.703046 0.224680
#
# Coordination Sequence:
#
# PCOD9343169 Si02
#       8
#     4   4   4   4   4   4   4   4
#     4  11  25  43  65  92 122 159 209 264 313 370
#     4  10  23  43  64  87 120 164 202 249 319 379
#     4  10  20  36  58  86 126 167 201 249 315 374
#     4  11  24  44  67  88 121 166 209 255 311 378
#     4   9  20  40  61  85 123 166 205 248 308 375
#     4  11  21  34  59  92 124 160 210 262 302 360
#     4   9  21  39  59  87 130 174 205 249 315 380
#     4  11  22  37  61  93 124 162 211 258 305 366
#
# _framework density 20.909528999999999
#
# number of rings (size 3 to 8) (size 9 to 14) (size 15 to 20)
#    0.000    1.750    1.250    3.375    1.750    6.000 
#    0.000    5.000    0.000    0.000    0.000    0.000 
#    0.000    0.000    0.000    0.000    0.000    0.000 
#
# Total GULP energy -178717.050263 kJ/mol
# GULP energy per Si atom -5584.907821 kJ/mol
# Density = 2.086194 g / cm^3
# Si number density = 20.909529 Si / 1000 Ang^3
#
#
#
# Elastic Constant Matrix: (Units=GPa)
#
#
# Indices 1 2 3 4 5 6 
#
# 1 27.2509 13.0475 7.1115 0.0000 0.0000 0.0000
# 2 13.0475 45.0196 6.8074 0.0000 0.0000 0.0000
# 3 7.1115 6.8074 48.4423 0.0000 0.0000 0.0000
# 4 0.0000 0.0000 0.0000 16.4956 0.0000 0.0000
# 5 0.0000 0.0000 0.0000 0.0000 25.4411 0.0000
# 6 0.0000 0.0000 0.0000 0.0000 0.0000 47.1287
#
#
#
# Elastic Compliance Matrix: (Units=1/GPa)
#
#
# Indices 1 2 3 4 5 6 
#
# 1 0.043644 -0.011934 -0.004730 0.000000 0.000000 0.000000
# 2 -0.011934 0.025958 -0.001896 0.000000 0.000000 0.000000
# 3 -0.004730 -0.001896 0.021604 0.000000 0.000000 0.000000
# 4 0.000000 0.000000 0.000000 0.060622 0.000000 0.000000
# 5 0.000000 0.000000 0.000000 0.000000 0.039306 0.000000
# 6 0.000000 0.000000 0.000000 0.000000 0.000000 0.021218
#
#
# Mechanical properties :
#
#
# Convention : Reuss Voigt Hill
#
# Bulk Modulus (GPa) = 18.48883 19.40505 18.94694
# Shear Modulus (GPa) = 18.69152 24.06285 21.37719
#
# Velocity S-wave (km/s) = 2.99310 3.39604 3.20091
# Velocity P-wave (km/s) = 4.56140 4.96770 4.76888
#
# Compressibility (1/GPa) = 0.05408670
#
# Stress axis : x y z
#
# Youngs Moduli (GPa) = 22.91263 38.52406 46.28790
#
# Poissons Ratio (x) = 0.45973 0.21895
# Poissons Ratio (y) = 0.27343 0.08775
# Poissons Ratio (z) = 0.10838 0.07304
#
# Static dielectric constant tensor:
#      x y z
#    x 1.695380 0.000000 0.000000 
#    y 0.000000 1.743170 0.000000 
#    z 0.000000 0.000000 1.803900 
# 
# From -- ./inp_files/4991.got.cif
#   From: 2010.05.17/outbox.cif.g08.bks.cpg/sg31_3_cif.got.tgz:4991.got - 2010.06.03 17:08:30.
