data_PCOD9343396
_publ_section_title
;
Structure prediction by ZEFSAII (Michael W. Deem and Ramdas Pophale) SiO2 
 PCOD9343396
Probable space group: P M N 21
;
_chemical_formula_sum "Si O2"
_cell_formula_units_Z 32
_cell_length_a 12.895510
_cell_length_b 22.778366
_cell_length_c 5.360809
_cell_angle_alpha 90.000000
_cell_angle_beta 90.000000
_cell_angle_gamma 90.000000
_cell_volume 1574.676780
_symmetry_space_group_name_H-M "P M N 21"
_symmetry_group_IT_number 31
_symmetry_cell_setting 'orthorhombic'
loop_
_space_group_symop_operation_xyz
x,y,z
1/2-x,-y,1/2+z
-x,y,z
1/2+x,-y,1/2+z
loop_
_atom_site_type_symbol
_atom_site_label
_atom_site_fract_x
_atom_site_fract_y
_atom_site_fract_z
Si Si1 0.316655 0.435007 0.279210
Si Si2 0.622574 0.758399 0.055822
Si Si3 0.238986 0.208056 0.073631
Si Si4 0.761000 0.077063 0.985164
Si Si5 0.624154 0.962490 0.985148
Si Si6 0.619686 0.315294 0.019712
Si Si7 0.609064 0.550189 0.474870
Si Si8 0.207153 0.359519 0.657981
O O1 0.369516 0.375057 0.181701
O O2 0.387962 0.491311 0.309151
O O3 0.261845 0.414576 0.531613
O O4 0.217395 0.451729 0.116275
O O5 0.500000 0.765955 0.070011
O O6 0.672428 0.773173 0.327046
O O7 0.652721 0.690341 0.995622
O O8 0.669609 0.793817 0.823610
O O9 0.279216 0.143199 0.012882
O O10 0.328809 0.256103 0.127512
O O11 0.834383 0.063814 0.223830
O O12 0.669802 0.028822 0.990564
O O13 0.824671 0.069001 0.726839
O O14 0.500000 0.960442 0.998469
O O15 0.500000 0.306621 0.955570
O O16 0.696261 0.328860 0.792136
O O17 0.500000 0.549633 0.619320
O O18 0.620348 0.611780 0.332212
#
# Coordination Sequence:
#
# PCOD9343396 Si02
#       8
#     4   4   4   4   4   4   4   4
#     4  11  21  42  57  84 118 146 199 249 301 378
#     4  11  23  40  62  87 123 166 203 254 315 365
#     4  11  23  41  61  94 127 157 212 254 296 369
#     4  10  22  38  61  92 128 163 203 259 299 350
#     4  10  21  39  63  91 126 168 205 246 307 359
#     4  10  23  41  63  84 115 160 198 247 306 362
#     4  11  23  37  60  86 113 151 193 250 315 370
#     4  10  22  42  57  82 118 149 199 253 301 375
#
# _framework density 20.321629999999999
#
# number of rings (size 3 to 8) (size 9 to 14) (size 15 to 20)
#    0.000    1.500    2.500    2.250    0.000    5.500 
#    0.000    0.000    0.000    4.500    0.000    0.000 
#    0.000    0.000    0.000    0.000    0.000    0.000 
#
# Total GULP energy -178414.021353 kJ/mol
# GULP energy per Si atom -5575.438167 kJ/mol
# Density = 2.027538 g / cm^3
# Si number density = 20.321630 Si / 1000 Ang^3
#
#
#
# Elastic Constant Matrix: (Units=GPa)
#
#
# Indices 1 2 3 4 5 6 
#
# 1 79.6880 32.4549 18.3907 0.0000 0.0000 0.0000
# 2 32.4549 91.3448 -2.0684 0.0000 0.0000 0.0000
# 3 18.3907 -2.0684 71.6835 0.0000 0.0000 0.0000
# 4 0.0000 0.0000 0.0000 22.3087 0.0000 0.0000
# 5 0.0000 0.0000 0.0000 0.0000 -51.7135 0.0000
# 6 0.0000 0.0000 0.0000 0.0000 0.0000 6.2143
#
#
#
# Elastic Compliance Matrix: (Units=1/GPa)
#
#
# Indices 1 2 3 4 5 6 
#
# 1 0.015860 -0.005731 -0.004234 0.000000 0.000000 0.000000
# 2 -0.005731 0.013026 0.001846 0.000000 0.000000 0.000000
# 3 -0.004234 0.001846 0.015090 0.000000 0.000000 0.000000
# 4 0.000000 0.000000 0.000000 0.044826 0.000000 0.000000
# 5 0.000000 0.000000 0.000000 0.000000 -0.019337 0.000000
# 6 0.000000 0.000000 0.000000 0.000000 0.000000 0.160919
#
#
# Mechanical properties :
#
#
# Convention : Reuss Voigt Hill
#
# Bulk Modulus (GPa) = 36.05270 37.80784 36.93027
# Shear Modulus (GPa) = 19.54140 8.29117 13.91629
#
# Velocity S-wave (km/s) = 3.10434 2.02209 2.61971
# Velocity P-wave (km/s) = 5.53433 4.90886 5.23095
#
# Compressibility (1/GPa) = 0.02773717
#
# Stress axis : x y z
#
# Youngs Moduli (GPa) = 63.05058 76.77200 66.26978
#
# Poissons Ratio (x) = 0.43998 0.28061
# Poissons Ratio (y) = 0.36135 -0.12235
# Poissons Ratio (z) = 0.26698 -0.14173
#
# Static dielectric constant tensor:
#      x y z
#    x 1.680640 0.000000 0.000000 
#    y 0.000000 1.816470 0.000000 
#    z 0.000000 0.000000 1.830110 
# 
# From -- ./inp_files/472.got.cif
#   From: 2010.05.17/outbox.cif.g08.bks.cpg/sg31_1_cif.got.tgz:472.got - 2010.06.03 17:08:30.
