data_PCOD9343739
_publ_section_title
;
Structure prediction by ZEFSAII (Michael W. Deem and Ramdas Pophale) SiO2 
 PCOD9343739
Probable space group: P B A 2
;
_chemical_formula_sum "Si O2"
_cell_formula_units_Z 26
_cell_length_a 15.404885
_cell_length_b 8.689512
_cell_length_c 7.919198
_cell_angle_alpha 90.000000
_cell_angle_beta 90.000000
_cell_angle_gamma 90.000000
_cell_volume 1060.071233
_symmetry_space_group_name_H-M "P B A 2"
_symmetry_group_IT_number 32
_symmetry_cell_setting 'orthorhombic'
loop_
_space_group_symop_operation_xyz
x,y,z
-x,-y,z
1/2-x,1/2+y,z
1/2+x,1/2-y,z
loop_
_atom_site_type_symbol
_atom_site_label
_atom_site_fract_x
_atom_site_fract_y
_atom_site_fract_z
Si Si1 0.122280 0.318130 0.898920
Si Si2 0.166444 0.780554 0.198775
Si Si3 0.769579 0.952002 0.000066
Si Si4 0.861355 0.646897 0.542774
Si Si5 0.315182 0.503459 0.520954
Si Si6 0.500000 0.500000 0.494942
Si Si7 0.475660 0.791425 0.251864
O O1 0.181927 0.464866 0.942314
O O2 0.081486 0.341564 0.714112
O O3 0.184355 0.168366 0.877606
O O4 0.066627 0.286518 0.066492
O O5 0.181526 0.891925 0.357018
O O6 0.077298 0.689849 0.216630
O O7 0.167548 0.907485 0.048930
O O8 0.241621 0.659013 0.155521
O O9 0.780025 0.538544 0.587495
O O10 0.918345 0.604724 0.379498
O O11 0.819181 0.813254 0.503605
O O12 0.411690 0.466113 0.597397
O O13 0.476959 0.635955 0.364258
#
# Coordination Sequence:
#
# PCOD9343739 Si02
#       7
#     4   4   4   4   4   2   4
#     4  11  22  39  61  91 124 163 210 255 314 379
#     4  10  20  40  66  91 121 165 212 261 321 383
#     4  10  21  38  63  88 120 166 212 258 312 379
#     4  11  22  38  63  94 126 167 210 259 316 385
#     4  10  19  36  61  89 124 161 209 258 309 370
#     4   8  18  38  60  88 122 164 212 258 304 368
#     4  10  21  37  61  90 126 160 203 263 321 376
#
# _framework density 24.526654000000001
#
# number of rings (size 3 to 8) (size 9 to 14) (size 15 to 20)
#    0.000    1.846    0.000    6.462    0.000    0.615 
#    0.000   24.615    0.000   12.000    0.000    0.000 
#    0.000    0.000    0.000    0.000    0.000    0.000 
#
# Total GULP energy -144958.708238 kJ/mol
# GULP energy per Si atom -5575.334932 kJ/mol
# Density = 2.447083 g / cm^3
# Si number density = 24.526654 Si / 1000 Ang^3
#
#
#
# Elastic Constant Matrix: (Units=GPa)
#
#
# Indices 1 2 3 4 5 6 
#
# 1 78.1437 23.9834 44.7444 0.0000 0.0000 0.0000
# 2 23.9834 112.1900 20.9280 0.0000 0.0000 0.0000
# 3 44.7444 20.9280 112.6234 0.0000 0.0000 0.0000
# 4 0.0000 0.0000 0.0000 9.5139 0.0000 0.0000
# 5 0.0000 0.0000 0.0000 0.0000 16.3494 0.0000
# 6 0.0000 0.0000 0.0000 0.0000 0.0000 23.5265
#
#
#
# Elastic Compliance Matrix: (Units=1/GPa)
#
#
# Indices 1 2 3 4 5 6 
#
# 1 0.017212 -0.002490 -0.006375 0.000000 0.000000 0.000000
# 2 -0.002490 0.009594 -0.000793 0.000000 0.000000 0.000000
# 3 -0.006375 -0.000793 0.011559 0.000000 0.000000 0.000000
# 4 0.000000 0.000000 0.000000 0.105109 0.000000 0.000000
# 5 0.000000 0.000000 0.000000 0.000000 0.061164 0.000000
# 6 0.000000 0.000000 0.000000 0.000000 0.000000 0.042505
#
#
# Mechanical properties :
#
#
# Convention : Reuss Voigt Hill
#
# Bulk Modulus (GPa) = 52.50149 53.58540 53.04345
# Shear Modulus (GPa) = 18.32776 24.09806 21.21291
#
# Velocity S-wave (km/s) = 2.73657 3.13793 2.94410
# Velocity P-wave (km/s) = 5.60691 5.91811 5.76461
#
# Compressibility (1/GPa) = 0.01904708
#
# Stress axis : x y z
#
# Youngs Moduli (GPa) = 58.10015 104.23413 86.50929
#
# Poissons Ratio (x) = 0.25956 0.55152
# Poissons Ratio (y) = 0.14468 0.06864
# Poissons Ratio (z) = 0.37041 0.08270
#
# Static dielectric constant tensor:
#      x y z
#    x 2.015970 0.000000 0.000000 
#    y 0.000000 1.965540 0.000000 
#    z 0.000000 0.000000 2.052470 
# 
# From -- ./inp_files/3214.got.cif
#   From: 2010.05.17/outbox.cif.g08.bks.cpg/sg32_2_cif.got.tgz:3214.got - 2010.06.03 17:12:27.
