data_PCOD9343472
_publ_section_title
;
Structure prediction by ZEFSAII (Michael W. Deem and Ramdas Pophale) SiO2 
 PCOD9343472
Probable space group: P M N 21
;
_chemical_formula_sum "Si O2"
_cell_formula_units_Z 28
_cell_length_a 23.221330
_cell_length_b 5.183552
_cell_length_c 10.545505
_cell_angle_alpha 90.000000
_cell_angle_beta 90.000000
_cell_angle_gamma 90.000000
_cell_volume 1269.351591
_symmetry_space_group_name_H-M "P M N 21"
_symmetry_group_IT_number 31
_symmetry_cell_setting 'orthorhombic'
loop_
_space_group_symop_operation_xyz
x,y,z
1/2-x,-y,1/2+z
-x,y,z
1/2+x,-y,1/2+z
loop_
_atom_site_type_symbol
_atom_site_label
_atom_site_fract_x
_atom_site_fract_y
_atom_site_fract_z
Si Si1 0.184915 0.414690 0.301540
Si Si2 0.000000 0.406480 0.855283
Si Si3 0.276379 0.953680 0.000905
Si Si4 0.114930 0.638857 0.933366
Si Si5 0.295742 0.677808 0.323915
Si Si6 0.126945 0.951527 0.671356
Si Si7 0.661356 0.091234 0.660996
Si Si8 0.000000 0.910478 0.687345
O O1 0.193008 0.298784 0.442148
O O2 0.251961 0.470505 0.266253
O O3 0.154656 0.681403 0.264490
O O4 0.156014 0.186525 0.222780
O O5 0.942939 0.475856 0.932131
O O6 0.000000 0.115094 0.804742
O O7 0.000000 0.615879 0.738851
O O8 0.326736 0.120569 0.065289
O O9 0.225984 0.898533 0.101230
O O10 0.243693 0.099612 0.886202
O O11 0.170009 0.452553 0.939890
O O12 0.122149 0.772869 0.795962
O O13 0.119574 0.845257 0.044333
O O14 0.343807 0.789788 0.229927
O O15 0.061418 0.968098 0.622115
#
# Coordination Sequence:
#
# PCOD9343472 Si02
#       8
#     4   2   4   4   4   4   4   2
#     4  12  25  40  55  91 127 172 202 252 322 390
#     4  10  22  40  66  92 127 163 222 266 333 383
#     4  12  23  38  61  93 131 171 209 262 326 395
#     4  11  23  38  65  94 129 166 212 272 328 387
#     4  12  20  39  59  93 132 164 205 258 328 383
#     4  11  23  41  64  96 134 168 218 265 332 391
#     4  12  24  38  61  86 132 163 212 259 324 388
#     4  10  22  42  64  96 129 171 210 278 321 387
#
# _framework density 22.058503999999999
#
# number of rings (size 3 to 8) (size 9 to 14) (size 15 to 20)
#    0.000    0.571    7.143    1.714    0.000    1.143 
#    0.000    0.000    0.000    1.714    0.000    1.000 
#    0.000    0.000    0.000    0.000    0.000    0.000 
#
# Total GULP energy -156394.927494 kJ/mol
# GULP energy per Si atom -5585.533125 kJ/mol
# Density = 2.200830 g / cm^3
# Si number density = 22.058504 Si / 1000 Ang^3
#
#
#
# Elastic Constant Matrix: (Units=GPa)
#
#
# Indices 1 2 3 4 5 6 
#
# 1 83.0037 -2.0684 3.5456 0.0000 0.0000 0.0000
# 2 -2.0684 100.3575 18.1323 0.0000 0.0000 0.0000
# 3 3.5456 18.1323 57.5794 0.0000 0.0000 0.0000
# 4 0.0000 0.0000 0.0000 35.9998 0.0000 0.0000
# 5 0.0000 0.0000 0.0000 0.0000 22.6919 0.0000
# 6 0.0000 0.0000 0.0000 0.0000 0.0000 22.4723
#
#
#
# Elastic Compliance Matrix: (Units=1/GPa)
#
#
# Indices 1 2 3 4 5 6 
#
# 1 0.012095 0.000407 -0.000873 0.000000 0.000000 0.000000
# 2 0.000407 0.010579 -0.003357 0.000000 0.000000 0.000000
# 3 -0.000873 -0.003357 0.018478 0.000000 0.000000 0.000000
# 4 0.000000 0.000000 0.000000 0.027778 0.000000 0.000000
# 5 0.000000 0.000000 0.000000 0.000000 0.044069 0.000000
# 6 0.000000 0.000000 0.000000 0.000000 0.000000 0.044499
#
#
# Mechanical properties :
#
#
# Convention : Reuss Voigt Hill
#
# Bulk Modulus (GPa) = 29.84418 31.12885 30.48652
# Shear Modulus (GPa) = 28.35878 30.98821 29.67350
#
# Velocity S-wave (km/s) = 3.58944 3.75216 3.67170
# Velocity P-wave (km/s) = 5.54416 5.73709 5.64145
#
# Compressibility (1/GPa) = 0.03350737
#
# Stress axis : x y z
#
# Youngs Moduli (GPa) = 82.67818 94.52495 54.11820
#
# Poissons Ratio (x) = -0.03847 0.04724
# Poissons Ratio (y) = -0.03365 0.18165
# Poissons Ratio (z) = 0.07217 0.31728
#
# Static dielectric constant tensor:
#      x y z
#    x 1.820950 0.000000 0.000000 
#    y 0.000000 1.892510 0.000000 
#    z 0.000000 0.000000 1.898180 
# 
# From -- ./inp_files/4549.got.cif
#   From: 2010.05.17/outbox.cif.g08.bks.cpg/sg31_3_cif.got.tgz:4549.got - 2010.06.03 17:08:30.
