data_PCOD9343305
_publ_section_title
;
Structure prediction by ZEFSAII (Michael W. Deem and Ramdas Pophale) SiO2 
 PCOD9343305
Probable space group: P M N 21
;
_chemical_formula_sum "Si O2"
_cell_formula_units_Z 32
_cell_length_a 14.415332
_cell_length_b 14.263562
_cell_length_c 7.712425
_cell_angle_alpha 90.000000
_cell_angle_beta 90.000000
_cell_angle_gamma 90.000000
_cell_volume 1585.782413
_symmetry_space_group_name_H-M "P M N 21"
_symmetry_group_IT_number 31
_symmetry_cell_setting 'orthorhombic'
loop_
_space_group_symop_operation_xyz
x,y,z
1/2-x,-y,1/2+z
-x,y,z
1/2+x,-y,1/2+z
loop_
_atom_site_type_symbol
_atom_site_label
_atom_site_fract_x
_atom_site_fract_y
_atom_site_fract_z
Si Si1 0.395325 0.421158 0.045490
Si Si2 0.239892 0.115582 0.297344
Si Si3 0.777698 0.760325 0.472831
Si Si4 0.110065 0.353694 0.085240
Si Si5 0.392459 0.805118 0.051823
Si Si6 0.101518 0.568415 0.959635
Si Si7 0.804257 0.381167 0.467039
Si Si8 0.769675 0.904120 0.179640
O O1 0.500000 0.428299 0.976626
O O2 0.342759 0.330089 0.978791
O O3 0.399761 0.417669 0.253287
O O4 0.340455 0.515241 0.002367
O O5 0.284875 0.177119 0.147465
O O6 0.144268 0.163437 0.361696
O O7 0.297137 0.112165 0.478665
O O8 0.219092 0.010705 0.235257
O O9 0.671865 0.719791 0.476062
O O10 0.805423 0.828505 0.315782
O O11 0.166058 0.363005 0.267296
O O12 0.000000 0.330077 0.108018
O O13 0.112225 0.457796 0.001512
O O14 0.500000 0.807485 0.069130
O O15 0.354924 0.699931 0.074034
O O16 0.340168 0.878974 0.173274
O O17 0.195462 0.620971 0.013239
O O18 0.000000 0.597945 0.028934
#
# Coordination Sequence:
#
# PCOD9343305 Si02
#       8
#     4   4   4   4   4   4   4   4
#     4  11  24  39  58  87 128 177 221 261 323 384
#     4  10  21  42  67  93 125 164 214 267 338 388
#     4  12  21  41  66  91 129 173 211 270 327 387
#     4  11  22  35  57  89 122 164 218 266 315 377
#     4  10  22  38  64  99 133 166 213 270 325 386
#     4  10  21  36  55  83 122 170 218 259 301 376
#     4  12  20  39  59  89 133 174 212 267 325 373
#     4  10  23  40  70  93 124 164 215 266 340 389
#
# _framework density 20.179313
#
# number of rings (size 3 to 8) (size 9 to 14) (size 15 to 20)
#    0.750    0.500    5.000    1.125    1.750    1.500 
#    0.000    2.500    0.000    3.000    0.000    0.000 
#    0.000    0.000    0.000    0.000    0.000    0.000 
#
# Total GULP energy -178491.736108 kJ/mol
# GULP energy per Si atom -5577.866753 kJ/mol
# Density = 2.013338 g / cm^3
# Si number density = 20.179313 Si / 1000 Ang^3
#
#
#
# Elastic Constant Matrix: (Units=GPa)
#
#
# Indices 1 2 3 4 5 6 
#
# 1 96.8526 42.0670 9.7912 0.0000 0.0000 0.0000
# 2 42.0670 110.9817 14.6734 0.0000 0.0000 0.0000
# 3 9.7912 14.6734 61.0340 0.0000 0.0000 0.0000
# 4 0.0000 0.0000 0.0000 31.9029 0.0000 0.0000
# 5 0.0000 0.0000 0.0000 0.0000 -9.8248 0.0000
# 6 0.0000 0.0000 0.0000 0.0000 0.0000 4.3165
#
#
#
# Elastic Compliance Matrix: (Units=1/GPa)
#
#
# Indices 1 2 3 4 5 6 
#
# 1 0.012406 -0.004585 -0.000888 0.000000 0.000000 0.000000
# 2 -0.004585 0.011001 -0.001909 0.000000 0.000000 0.000000
# 3 -0.000888 -0.001909 0.016986 0.000000 0.000000 0.000000
# 4 0.000000 0.000000 0.000000 0.031345 0.000000 0.000000
# 5 0.000000 0.000000 0.000000 0.000000 -0.101783 0.000000
# 6 0.000000 0.000000 0.000000 0.000000 0.000000 0.231669
#
#
# Mechanical properties :
#
#
# Convention : Reuss Voigt Hill
#
# Bulk Modulus (GPa) = 39.01923 44.65905 41.83914
# Shear Modulus (GPa) = 22.22910 18.76804 20.49857
#
# Velocity S-wave (km/s) = 3.32260 3.05300 3.19065
# Velocity P-wave (km/s) = 5.83933 5.88276 5.86109
#
# Compressibility (1/GPa) = 0.02562839
#
# Stress axis : x y z
#
# Youngs Moduli (GPa) = 80.60462 90.90178 58.87291
#
# Poissons Ratio (x) = 0.41680 0.05227
# Poissons Ratio (y) = 0.36958 0.11240
# Poissons Ratio (z) = 0.07157 0.17355
#
# Static dielectric constant tensor:
#      x y z
#    x 1.760340 0.000000 0.000000 
#    y 0.000000 1.691200 0.000000 
#    z 0.000000 0.000000 1.796400 
# 
# From -- ./inp_files/2620.got.cif
#   From: 2010.05.17/outbox.cif.g08.bks.cpg/sg31_2_cif.got.tgz:2620.got - 2010.06.03 17:08:30.
