data_PCOD9343768
_publ_section_title
;
Structure prediction by ZEFSAII (Michael W. Deem and Ramdas Pophale) SiO2 
 PCOD9343768
Probable space group: P B A 2
;
_chemical_formula_sum "Si O2"
_cell_formula_units_Z 24
_cell_length_a 12.376815
_cell_length_b 10.996398
_cell_length_c 8.772378
_cell_angle_alpha 90.000000
_cell_angle_beta 90.000000
_cell_angle_gamma 90.000000
_cell_volume 1193.924012
_symmetry_space_group_name_H-M "P B A 2"
_symmetry_group_IT_number 32
_symmetry_cell_setting 'orthorhombic'
loop_
_space_group_symop_operation_xyz
x,y,z
-x,-y,z
1/2-x,1/2+y,z
1/2+x,1/2-y,z
loop_
_atom_site_type_symbol
_atom_site_label
_atom_site_fract_x
_atom_site_fract_y
_atom_site_fract_z
Si Si1 0.156572 0.971609 0.027100
Si Si2 0.204460 0.131442 0.766655
Si Si3 0.873199 0.648057 0.971517
Si Si4 0.521779 0.323682 0.182339
Si Si5 0.974959 0.857115 0.538949
Si Si6 0.953164 0.382419 0.705157
O O1 0.083077 0.858974 0.080360
O O2 0.112211 0.075484 0.139158
O O3 0.283339 0.945964 0.027532
O O4 0.140087 0.024748 0.856950
O O5 0.193327 0.247058 0.879221
O O6 0.145907 0.157727 0.607199
O O7 0.328239 0.097251 0.743262
O O8 0.967669 0.619330 0.851756
O O9 0.931392 0.699432 0.120114
O O10 0.506080 0.330040 0.361432
O O11 0.038309 0.751064 0.629607
O O12 0.000000 0.000000 0.560995
O O13 0.000000 0.500000 0.613850
#
# Coordination Sequence:
#
# PCOD9343768 Si02
#       6
#     4   4   4   4   4   4
#     4  10  19  39  64  88 126 165 227 277 325 396
#     4  10  23  37  65  94 126 172 220 276 333 388
#     4  10  21  37  66  92 123 171 218 280 333 383
#     4  10  22  41  61  96 128 175 221 274 334 414
#     4  11  25  42  66  95 134 179 222 265 333 418
#     4  11  23  43  64 101 135 166 225 284 334 396
#
# _framework density 20.101782
#
# number of rings (size 3 to 8) (size 9 to 14) (size 15 to 20)
#    0.000    1.667    3.333    1.000    9.333    1.333 
#    3.000    0.833    0.000    0.000    0.000    0.000 
#    0.000    0.000    0.000    0.000    0.000    0.000 
#
# Total GULP energy -133705.352017 kJ/mol
# GULP energy per Si atom -5571.056334 kJ/mol
# Density = 2.005603 g / cm^3
# Si number density = 20.101782 Si / 1000 Ang^3
#
#
#
# Elastic Constant Matrix: (Units=GPa)
#
#
# Indices 1 2 3 4 5 6 
#
# 1 98.6718 10.9564 47.5118 0.0000 0.0000 0.0000
# 2 10.9564 63.8584 32.6090 0.0000 0.0000 0.0000
# 3 47.5118 32.6090 88.7858 0.0000 0.0000 0.0000
# 4 0.0000 0.0000 0.0000 12.5397 0.0000 0.0000
# 5 0.0000 0.0000 0.0000 0.0000 7.2564 0.0000
# 6 0.0000 0.0000 0.0000 0.0000 0.0000 36.4230
#
#
#
# Elastic Compliance Matrix: (Units=1/GPa)
#
#
# Indices 1 2 3 4 5 6 
#
# 1 0.013806 0.001728 -0.008022 0.000000 0.000000 0.000000
# 2 0.001728 0.019491 -0.008083 0.000000 0.000000 0.000000
# 3 -0.008022 -0.008083 0.018525 0.000000 0.000000 0.000000
# 4 0.000000 0.000000 0.000000 0.079747 0.000000 0.000000
# 5 0.000000 0.000000 0.000000 0.000000 0.137809 0.000000
# 6 0.000000 0.000000 0.000000 0.000000 0.000000 0.027455
#
#
# Mechanical properties :
#
#
# Convention : Reuss Voigt Hill
#
# Bulk Modulus (GPa) = 43.35396 48.16339 45.75867
# Shear Modulus (GPa) = 15.00256 21.92640 18.46448
#
# Velocity S-wave (km/s) = 2.73487 3.30626 3.03405
# Velocity P-wave (km/s) = 5.62021 6.21184 5.92341
#
# Compressibility (1/GPa) = 0.02306594
#
# Stress axis : x y z
#
# Youngs Moduli (GPa) = 72.43413 51.30624 53.98156
#
# Poissons Ratio (x) = -0.08865 0.43306
# Poissons Ratio (y) = -0.12516 0.43634
# Poissons Ratio (z) = 0.58110 0.41472
#
# Static dielectric constant tensor:
#      x y z
#    x 1.695660 0.000000 0.000000 
#    y 0.000000 1.817630 0.000000 
#    z 0.000000 0.000000 1.684460 
# 
# From -- ./inp_files/2723.got.cif
#   From: 2010.05.17/outbox.cif.g08.bks.cpg/sg32_2_cif.got.tgz:2723.got - 2010.06.03 17:12:27.
