data_PCOD9343315
_publ_section_title
;
Structure prediction by ZEFSAII (Michael W. Deem and Ramdas Pophale) SiO2 
 PCOD9343315
Probable space group: P M N 21
;
_chemical_formula_sum "Si O2"
_cell_formula_units_Z 32
_cell_length_a 15.056013
_cell_length_b 9.019119
_cell_length_c 11.822020
_cell_angle_alpha 90.000000
_cell_angle_beta 90.000000
_cell_angle_gamma 90.000000
_cell_volume 1605.335420
_symmetry_space_group_name_H-M "P M N 21"
_symmetry_group_IT_number 31
_symmetry_cell_setting 'orthorhombic'
loop_
_space_group_symop_operation_xyz
x,y,z
1/2-x,-y,1/2+z
-x,y,z
1/2+x,-y,1/2+z
loop_
_atom_site_type_symbol
_atom_site_label
_atom_site_fract_x
_atom_site_fract_y
_atom_site_fract_z
Si Si1 0.750607 0.720076 0.830370
Si Si2 0.101968 0.754823 0.200055
Si Si3 0.896947 0.146321 0.837603
Si Si4 0.153381 0.909922 0.653676
Si Si5 0.712899 0.595798 0.437897
Si Si6 0.698789 0.059133 0.513376
Si Si7 0.598276 0.261995 0.947848
Si Si8 0.395018 0.594306 0.671449
O O1 0.824104 0.782034 0.743411
O O2 0.784750 0.568293 0.886403
O O3 0.660482 0.688899 0.761865
O O4 0.742536 0.847139 0.924956
O O5 0.157939 0.826342 0.101627
O O6 0.117294 0.815032 0.326646
O O7 0.115488 0.578199 0.206683
O O8 0.000000 0.781736 0.170578
O O9 0.830169 0.284975 0.851374
O O10 0.000000 0.190939 0.844646
O O11 0.880406 0.051761 0.723495
O O12 0.871394 0.034571 0.940148
O O13 0.094289 0.848468 0.552793
O O14 0.243752 0.949756 0.588864
O O15 0.815213 0.636387 0.466421
O O16 0.652118 0.606958 0.549591
O O17 0.500000 0.334217 0.935706
O O18 0.500000 0.629248 0.666218
#
# Coordination Sequence:
#
# PCOD9343315 Si02
#       8
#     4   4   4   4   4   4   4   4
#     4  11  24  40  70  98 128 176 216 276 333 394
#     4  10  21  36  62  95 128 170 218 267 321 392
#     4  11  24  42  65  95 133 172 219 277 330 390
#     4  11  24  43  65  94 133 177 215 274 333 397
#     4  12  22  42  67  96 133 173 224 273 333 390
#     4  11  22  41  68  93 130 174 224 265 334 393
#     4  11  22  40  65  91 129 177 219 267 329 390
#     4  11  22  40  64  98 136 169 217 275 331 392
#
# _framework density 19.933527000000002
#
# number of rings (size 3 to 8) (size 9 to 14) (size 15 to 20)
#    0.000    1.000    5.000    1.875    1.750    0.000 
#    0.000    3.750    0.000    0.000    0.000    0.000 
#    0.000    0.000    0.000    0.000    0.000    0.000 
#
# Total GULP energy -178699.089990 kJ/mol
# GULP energy per Si atom -5584.346562 kJ/mol
# Density = 1.988816 g / cm^3
# Si number density = 19.933527 Si / 1000 Ang^3
#
#
#
# Elastic Constant Matrix: (Units=GPa)
#
#
# Indices 1 2 3 4 5 6 
#
# 1 92.6263 20.6278 21.2161 0.0000 0.0000 0.0000
# 2 20.6278 68.4776 24.6083 0.0000 0.0000 0.0000
# 3 21.2161 24.6083 96.3003 0.0000 0.0000 0.0000
# 4 0.0000 0.0000 0.0000 34.4805 0.0000 0.0000
# 5 0.0000 0.0000 0.0000 0.0000 26.7004 0.0000
# 6 0.0000 0.0000 0.0000 0.0000 0.0000 54.1606
#
#
#
# Elastic Compliance Matrix: (Units=1/GPa)
#
#
# Indices 1 2 3 4 5 6 
#
# 1 0.011872 -0.002903 -0.001874 0.000000 0.000000 0.000000
# 2 -0.002903 0.016790 -0.003651 0.000000 0.000000 0.000000
# 3 -0.001874 -0.003651 0.011730 0.000000 0.000000 0.000000
# 4 0.000000 0.000000 0.000000 0.029002 0.000000 0.000000
# 5 0.000000 0.000000 0.000000 0.000000 0.037453 0.000000
# 6 0.000000 0.000000 0.000000 0.000000 0.000000 0.018464
#
#
# Mechanical properties :
#
#
# Convention : Reuss Voigt Hill
#
# Bulk Modulus (GPa) = 42.48711 43.36763 42.92737
# Shear Modulus (GPa) = 33.33114 35.79842 34.56478
#
# Velocity S-wave (km/s) = 4.09359 4.24239 4.16865
# Velocity P-wave (km/s) = 6.61089 6.76761 6.68971
#
# Compressibility (1/GPa) = 0.02353655
#
# Stress axis : x y z
#
# Youngs Moduli (GPa) = 84.23396 59.56015 85.25205
#
# Poissons Ratio (x) = 0.17289 0.15974
# Poissons Ratio (y) = 0.24452 0.31125
# Poissons Ratio (z) = 0.15783 0.21745
#
# Static dielectric constant tensor:
#      x y z
#    x 1.707010 0.000000 0.000000 
#    y 0.000000 1.706000 0.000000 
#    z 0.000000 0.000000 1.724750 
# 
# From -- ./inp_files/4281.got.cif
#   From: 2010.05.17/outbox.cif.g08.bks.cpg/sg31_3_cif.got.tgz:4281.got - 2010.06.03 17:08:30.
