data_PCOD9343130
_publ_section_title
;
Structure prediction by ZEFSAII (Michael W. Deem and Ramdas Pophale) SiO2 
 PCOD9343130
Probable space group: P M N 21
;
_chemical_formula_sum "Si O2"
_cell_formula_units_Z 32
_cell_length_a 7.824334
_cell_length_b 12.149266
_cell_length_c 15.924059
_cell_angle_alpha 90.000000
_cell_angle_beta 90.000000
_cell_angle_gamma 90.000000
_cell_volume 1513.739696
_symmetry_space_group_name_H-M "P M N 21"
_symmetry_group_IT_number 31
_symmetry_cell_setting 'orthorhombic'
loop_
_space_group_symop_operation_xyz
x,y,z
1/2-x,-y,1/2+z
-x,y,z
1/2+x,-y,1/2+z
loop_
_atom_site_type_symbol
_atom_site_label
_atom_site_fract_x
_atom_site_fract_y
_atom_site_fract_z
Si Si1 0.707494 0.256198 0.175970
Si Si2 0.699513 0.728723 0.380442
Si Si3 0.300995 0.514033 0.926951
Si Si4 0.801587 0.736189 0.860094
Si Si5 0.206864 0.501226 0.618840
Si Si6 0.210210 0.853360 0.028259
Si Si7 0.203871 0.104406 0.020691
Si Si8 0.201832 0.727369 0.194963
O O1 0.500000 0.258281 0.177685
O O2 0.772275 0.231888 0.269835
O O3 0.764465 0.378509 0.148551
O O4 0.761859 0.168780 0.106676
O O5 0.500000 0.713054 0.400292
O O6 0.784186 0.610379 0.395490
O O7 0.770639 0.820370 0.444151
O O8 0.717659 0.760364 0.283383
O O9 0.500000 0.544423 0.927074
O O10 0.208369 0.604473 0.870660
O O11 0.235486 0.518849 0.022896
O O12 0.000000 0.769408 0.858098
O O13 0.729559 0.789728 0.944809
O O14 0.267178 0.401509 0.676573
O O15 0.000000 0.501337 0.618704
O O16 0.267125 0.793237 0.113499
O O17 0.000000 0.849410 0.029672
O O18 0.267630 0.979659 0.024166
O O19 0.000000 0.095711 0.008726
O O20 0.000000 0.746215 0.202178
#
# Coordination Sequence:
#
# PCOD9343130 Si02
#       8
#     4   4   4   4   4   4   4   4
#     4  10  21  37  59  86 115 148 185 236 289 336
#     4  11  23  38  59  86 117 153 194 239 288 343
#     4  11  21  35  59  88 120 152 188 236 285 341
#     4  10  20  37  61  86 116 153 190 231 287 348
#     4  10  20  35  56  86 123 151 184 235 288 343
#     4   9  20  39  59  83 114 151 195 237 285 342
#     4  10  22  40  60  80 111 154 196 239 284 341
#     4  11  22  37  61  87 116 154 192 235 288 346
#
# _framework density 21.139697999999999
#
# number of rings (size 3 to 8) (size 9 to 14) (size 15 to 20)
#    0.000    1.750    2.500    1.875    0.000    4.000 
#    0.000    3.125    0.000    0.000    0.000    0.000 
#    0.000    0.000    0.000    0.000    0.000    0.000 
#
# Total GULP energy -178835.023624 kJ/mol
# GULP energy per Si atom -5588.594488 kJ/mol
# Density = 2.109158 g / cm^3
# Si number density = 21.139698 Si / 1000 Ang^3
#
#
#
# Elastic Constant Matrix: (Units=GPa)
#
#
# Indices 1 2 3 4 5 6 
#
# 1 22.5769 -7.2858 -4.7503 0.0000 0.0000 0.0000
# 2 -7.2858 119.3888 33.7605 0.0000 0.0000 0.0000
# 3 -4.7503 33.7605 111.3883 0.0000 0.0000 0.0000
# 4 0.0000 0.0000 0.0000 2.8754 0.0000 0.0000
# 5 0.0000 0.0000 0.0000 0.0000 23.6878 0.0000
# 6 0.0000 0.0000 0.0000 0.0000 0.0000 1.1843
#
#
#
# Elastic Compliance Matrix: (Units=1/GPa)
#
#
# Indices 1 2 3 4 5 6 
#
# 1 0.045328 0.002428 0.001197 0.000000 0.000000 0.000000
# 2 0.002428 0.009291 -0.002713 0.000000 0.000000 0.000000
# 3 0.001197 -0.002713 0.009851 0.000000 0.000000 0.000000
# 4 0.000000 0.000000 0.000000 0.347780 0.000000 0.000000
# 5 0.000000 0.000000 0.000000 0.000000 0.042216 0.000000
# 6 0.000000 0.000000 0.000000 0.000000 0.000000 0.844402
#
#
# Mechanical properties :
#
#
# Convention : Reuss Voigt Hill
#
# Bulk Modulus (GPa) = 15.08407 32.97808 24.03108
# Shear Modulus (GPa) = 3.79034 20.99147 12.39090
#
# Velocity S-wave (km/s) = 1.34048 3.15459 2.42367
# Velocity P-wave (km/s) = 3.08978 5.37611 4.38459
#
# Compressibility (1/GPa) = 0.06629510
#
# Stress axis : x y z
#
# Youngs Moduli (GPa) = 22.06127 107.62889 101.51462
#
# Poissons Ratio (x) = -0.26128 -0.12154
# Poissons Ratio (y) = -0.05356 0.27536
# Poissons Ratio (z) = -0.02641 0.29195
#
# Static dielectric constant tensor:
#      x y z
#    x 1.759970 0.000000 0.000000 
#    y 0.000000 1.720970 0.000000 
#    z 0.000000 0.000000 1.764400 
# 
# From -- ./inp_files/4943.got.cif
#   From: 2010.05.17/outbox.cif.g08.bks.cpg/sg31_3_cif.got.tgz:4943.got - 2010.06.03 17:08:30.
