data_PCOD9343393
_publ_section_title
;
Structure prediction by ZEFSAII (Michael W. Deem and Ramdas Pophale) SiO2 
 PCOD9343393
Probable space group: P M N 21
;
_chemical_formula_sum "Si O2"
_cell_formula_units_Z 20
_cell_length_a 14.677710
_cell_length_b 10.618648
_cell_length_c 5.146929
_cell_angle_alpha 90.000000
_cell_angle_beta 90.000000
_cell_angle_gamma 90.000000
_cell_volume 802.187157
_symmetry_space_group_name_H-M "P M N 21"
_symmetry_group_IT_number 31
_symmetry_cell_setting 'orthorhombic'
loop_
_space_group_symop_operation_xyz
x,y,z
1/2-x,-y,1/2+z
-x,y,z
1/2+x,-y,1/2+z
loop_
_atom_site_type_symbol
_atom_site_label
_atom_site_fract_x
_atom_site_fract_y
_atom_site_fract_z
Si Si1 0.500000 0.022543 0.697381
Si Si2 0.500000 0.171217 0.189137
Si Si3 0.898579 0.476925 0.680396
Si Si4 0.196380 0.959681 0.099858
Si Si5 0.396189 0.691540 0.674247
Si Si6 0.807353 0.727278 0.785626
O O1 0.500000 0.143034 0.496915
O O2 0.401039 0.973510 0.629756
O O3 0.500000 0.049797 0.003031
O O4 0.601257 0.225882 0.133443
O O5 0.889505 0.420339 0.392622
O O6 0.825178 0.578311 0.775889
O O7 0.000000 0.536571 0.701423
O O8 0.898031 0.363438 0.884417
O O9 0.257599 0.987113 0.343896
O O10 0.188094 0.808999 0.050325
O O11 0.500000 0.745374 0.723812
O O12 0.295713 0.752308 0.695550
#
# Coordination Sequence:
#
# PCOD9343393 Si02
#       6
#     2   2   4   4   4   4
#     4  10  22  44  66  92 129 158 219 284 318 386
#     4  10  22  36  66  98 117 168 217 274 326 366
#     4  10  21  39  62  95 127 170 216 266 326 386
#     4  11  25  44  66  98 130 172 221 276 338 393
#     4  10  23  39  60  93 135 172 212 261 325 401
#     4  11  22  42  66  93 132 167 223 269 328 391
#
# _framework density 24.931837999999999
#
# number of rings (size 3 to 8) (size 9 to 14) (size 15 to 20)
#    0.000    1.600    1.000    3.600    0.000    9.600 
#    3.600    0.000    0.000    0.000    0.000    0.000 
#    0.000    0.000    0.000    0.000    0.000    0.000 
#
# Total GULP energy -111497.341871 kJ/mol
# GULP energy per Si atom -5574.867094 kJ/mol
# Density = 2.487509 g / cm^3
# Si number density = 24.931838 Si / 1000 Ang^3
#
#
#
# Elastic Constant Matrix: (Units=GPa)
#
#
# Indices 1 2 3 4 5 6 
#
# 1 327.2990 67.3310 40.3099 0.0000 0.0000 0.0000
# 2 67.3310 22.2034 4.7336 0.0000 0.0000 0.0000
# 3 40.3099 4.7336 71.3065 0.0000 0.0000 0.0000
# 4 0.0000 0.0000 0.0000 13.0717 0.0000 0.0000
# 5 0.0000 0.0000 0.0000 0.0000 35.9247 0.0000
# 6 0.0000 0.0000 0.0000 0.0000 0.0000 65.0507
#
#
#
# Elastic Compliance Matrix: (Units=1/GPa)
#
#
# Indices 1 2 3 4 5 6 
#
# 1 0.008808 -0.026016 -0.003252 0.000000 0.000000 0.000000
# 2 -0.026016 0.122529 0.006573 0.000000 0.000000 0.000000
# 3 -0.003252 0.006573 0.015426 0.000000 0.000000 0.000000
# 4 0.000000 0.000000 0.000000 0.076501 0.000000 0.000000
# 5 0.000000 0.000000 0.000000 0.000000 0.027836 0.000000
# 6 0.000000 0.000000 0.000000 0.000000 0.000000 0.015373
#
#
# Mechanical properties :
#
#
# Convention : Reuss Voigt Hill
#
# Bulk Modulus (GPa) = 9.86458 71.72863 40.79660
# Shear Modulus (GPa) = 14.46537 43.37171 28.91854
#
# Velocity S-wave (km/s) = 2.41134 4.17539 3.40943
# Velocity P-wave (km/s) = 3.42315 7.21648 5.64781
#
# Compressibility (1/GPa) = 0.10137283
#
# Stress axis : x y z
#
# Youngs Moduli (GPa) = 113.53680 8.16135 64.82553
#
# Poissons Ratio (x) = 0.21232 0.21081
# Poissons Ratio (y) = 2.95375 -0.42610
# Poissons Ratio (z) = 0.36922 -0.05364
#
# Static dielectric constant tensor:
#      x y z
#    x 1.999070 0.000000 0.000000 
#    y 0.000000 2.114490 0.000000 
#    z 0.000000 0.000000 1.853060 
# 
# From -- ./inp_files/585.got.cif
#   From: 2010.05.17/outbox.cif.g08.bks.cpg/sg31_1_cif.got.tgz:585.got - 2010.06.03 17:08:30.
