data_PCOD9343797
_publ_section_title
;
Structure prediction by ZEFSAII (Michael W. Deem and Ramdas Pophale) SiO2 
 PCOD9343797
Probable space group: P B A 2
;
_chemical_formula_sum "Si O2"
_cell_formula_units_Z 30
_cell_length_a 21.555918
_cell_length_b 10.232382
_cell_length_c 5.119318
_cell_angle_alpha 90.000000
_cell_angle_beta 90.000000
_cell_angle_gamma 90.000000
_cell_volume 1129.159716
_symmetry_space_group_name_H-M "P B A 2"
_symmetry_group_IT_number 32
_symmetry_cell_setting 'orthorhombic'
loop_
_space_group_symop_operation_xyz
x,y,z
-x,-y,z
1/2-x,1/2+y,z
1/2+x,1/2-y,z
loop_
_atom_site_type_symbol
_atom_site_label
_atom_site_fract_x
_atom_site_fract_y
_atom_site_fract_z
Si Si1 0.672759 0.388839 0.950230
Si Si2 0.525098 0.729590 0.392948
Si Si3 0.552389 0.876400 0.890231
Si Si4 0.000000 0.000000 0.672190
Si Si5 0.883595 0.142157 0.759420
Si Si6 0.189447 0.435043 0.333213
Si Si7 0.754296 0.814942 0.452776
Si Si8 0.882719 0.636384 0.836031
O O1 0.724284 0.333368 0.749586
O O2 0.614505 0.290947 0.896420
O O3 0.664775 0.537511 0.855618
O O4 0.693968 0.369043 0.247102
O O5 0.520512 0.806278 0.130993
O O6 0.478675 0.614680 0.473778
O O7 0.520692 0.836747 0.620488
O O8 0.593609 0.663964 0.456902
O O9 0.616599 0.788424 0.869273
O O10 0.566751 0.027519 0.909252
O O11 0.948090 0.068915 0.845082
O O12 0.247758 0.339810 0.398484
O O13 0.198969 0.586655 0.393007
O O14 0.136894 0.385112 0.535643
O O15 0.171854 0.409170 0.035429
#
# Coordination Sequence:
#
# PCOD9343797 Si02
#       8
#     4   4   4   2   4   4   4   4
#     4  10  21  34  53  74 105 130 171 210 258 305
#     4   8  17  30  50  76 106 127 168 213 248 303
#     4   9  18  30  50  75 103 125 173 204 251 295
#     4   6  16  32  50  80 102 134 164 212 262 298
#     4   8  19  32  53  78 103 132 172 212 253 307
#     4  10  21  36  53  70 103 132 174 207 262 300
#     4  10  22  36  50  75  99 134 169 214 253 309
#     4  10  20  35  52  75 101 141 165 211 257 312
#
# _framework density 26.568429999999999
#
# number of rings (size 3 to 8) (size 9 to 14) (size 15 to 20)
#    1.600    1.067    0.000    1.600    1.867    4.267 
#    0.000    0.000    0.000    3.200    0.000    3.733 
#    0.000    0.000    0.000    0.000    0.000    0.000 
#
# Total GULP energy -167265.501865 kJ/mol
# GULP energy per Si atom -5575.516729 kJ/mol
# Density = 2.650796 g / cm^3
# Si number density = 26.568430 Si / 1000 Ang^3
#
#
#
# Elastic Constant Matrix: (Units=GPa)
#
#
# Indices 1 2 3 4 5 6 
#
# 1 28.4128 36.5743 17.2145 0.0000 0.0000 0.0000
# 2 36.5743 149.2646 36.4274 0.0000 0.0000 0.0000
# 3 17.2145 36.4274 112.9715 0.0000 0.0000 0.0000
# 4 0.0000 0.0000 0.0000 37.4970 0.0000 0.0000
# 5 0.0000 0.0000 0.0000 0.0000 18.3727 0.0000
# 6 0.0000 0.0000 0.0000 0.0000 0.0000 35.2454
#
#
#
# Elastic Compliance Matrix: (Units=1/GPa)
#
#
# Indices 1 2 3 4 5 6 
#
# 1 0.053217 -0.012006 -0.004238 0.000000 0.000000 0.000000
# 2 -0.012006 0.009980 -0.001389 0.000000 0.000000 0.000000
# 3 -0.004238 -0.001389 0.009945 0.000000 0.000000 0.000000
# 4 0.000000 0.000000 0.000000 0.026669 0.000000 0.000000
# 5 0.000000 0.000000 0.000000 0.000000 0.054428 0.000000
# 6 0.000000 0.000000 0.000000 0.000000 0.000000 0.028372
#
#
# Mechanical properties :
#
#
# Convention : Reuss Voigt Hill
#
# Bulk Modulus (GPa) = 26.40042 52.34237 39.37139
# Shear Modulus (GPa) = 21.69168 31.58521 26.63845
#
# Velocity S-wave (km/s) = 2.86045 3.45167 3.16988
# Velocity P-wave (km/s) = 4.56814 5.96902 5.31493
#
# Compressibility (1/GPa) = 0.03787819
#
# Stress axis : x y z
#
# Youngs Moduli (GPa) = 18.79090 100.19909 100.54947
#
# Poissons Ratio (x) = 1.20295 0.42613
# Poissons Ratio (y) = 0.22560 0.13963
# Poissons Ratio (z) = 0.07964 0.13914
#
# Static dielectric constant tensor:
#      x y z
#    x 2.336500 0.000000 0.000000 
#    y 0.000000 2.088910 0.000000 
#    z 0.000000 0.000000 2.010170 
# 
# From -- ./inp_files/1813.got.cif
#   From: 2010.05.17/outbox.cif.g08.bks.cpg/sg32_1_cif.got.tgz:1813.got - 2010.06.03 17:12:27.
