data_PCOD9343488
_publ_section_title
;
Structure prediction by ZEFSAII (Michael W. Deem and Ramdas Pophale) SiO2 
 PCOD9343488
Probable space group: P M N 21
;
_chemical_formula_sum "Si O2"
_cell_formula_units_Z 32
_cell_length_a 18.324321
_cell_length_b 12.713741
_cell_length_c 6.930708
_cell_angle_alpha 90.000000
_cell_angle_beta 90.000000
_cell_angle_gamma 90.000000
_cell_volume 1614.651695
_symmetry_space_group_name_H-M "P M N 21"
_symmetry_group_IT_number 31
_symmetry_cell_setting 'orthorhombic'
loop_
_space_group_symop_operation_xyz
x,y,z
1/2-x,-y,1/2+z
-x,y,z
1/2+x,-y,1/2+z
loop_
_atom_site_type_symbol
_atom_site_label
_atom_site_fract_x
_atom_site_fract_y
_atom_site_fract_z
Si Si1 0.709389 0.635228 0.838570
Si Si2 0.837234 0.490959 0.989402
Si Si3 0.414281 0.134477 0.913246
Si Si4 0.084093 0.444255 0.598250
Si Si5 0.162765 0.009040 0.730382
Si Si6 0.414281 0.365523 0.806537
Si Si7 0.084093 0.055745 0.121533
Si Si8 0.709389 0.864773 0.881213
O O1 0.684379 0.607071 0.623312
O O2 0.743384 0.750000 0.859892
O O3 0.765646 0.544776 0.900356
O O4 0.639629 0.628962 0.980078
O O5 0.873764 0.576145 0.132450
O O6 0.889957 0.457636 0.816779
O O7 0.500000 0.144867 0.964267
O O8 0.385703 0.250000 0.859891
O O9 0.409445 0.057140 0.729527
O O10 0.373764 0.076146 0.087334
O O11 0.090555 0.557140 0.490257
O O12 0.000000 0.410403 0.585072
O O13 0.184378 0.107070 0.596471
O O14 0.234353 0.955224 0.819428
O O15 0.110043 0.042363 0.903004
O O16 0.500000 0.355134 0.755515
O O17 0.139629 0.128962 0.239704
O O18 0.000000 0.089597 0.134712
#
# Coordination Sequence:
#
# PCOD9343488 Si02
#       8
#     4   4   4   4   4   4   4   4
#     4  11  25  41  63  91 125 164 209 256 310 364
#     4  11  22  40  61  90 123 161 205 256 309 369
#     4   9  20  36  59  92 125 158 200 252 311 369
#     4  10  22  42  63  89 125 164 209 256 304 367
#     4  11  22  40  61  90 123 161 205 256 309 369
#     4   9  20  36  59  92 125 158 200 252 311 369
#     4  10  22  42  63  89 125 164 209 256 304 367
#     4  11  25  41  63  91 125 164 209 256 310 364
#
# _framework density 19.818517
#
# number of rings (size 3 to 8) (size 9 to 14) (size 15 to 20)
#    0.000    1.750    2.500    0.750    3.500    2.500 
#    0.000    5.000    0.000    0.000    0.000    0.000 
#    0.000    0.000    0.000    0.000    0.000    0.000 
#
# Total GULP energy -178796.398583 kJ/mol
# GULP energy per Si atom -5587.387456 kJ/mol
# Density = 1.977341 g / cm^3
# Si number density = 19.818517 Si / 1000 Ang^3
#
#
#
# Elastic Constant Matrix: (Units=GPa)
#
#
# Indices 1 2 3 4 5 6 
#
# 1 48.9322 -19.7839 4.2738 0.0000 0.0000 0.0000
# 2 -19.7839 29.2999 -14.0890 0.0000 0.0000 0.0000
# 3 4.2738 -14.0890 87.4529 0.0000 0.0000 0.0000
# 4 0.0000 0.0000 0.0000 4.6866 0.0000 0.0000
# 5 0.0000 0.0000 0.0000 0.0000 41.7324 0.0000
# 6 0.0000 0.0000 0.0000 0.0000 0.0000 15.7650
#
#
#
# Elastic Compliance Matrix: (Units=1/GPa)
#
#
# Indices 1 2 3 4 5 6 
#
# 1 0.028382 0.020051 0.001843 0.000000 0.000000 0.000000
# 2 0.020051 0.051161 0.007262 0.000000 0.000000 0.000000
# 3 0.001843 0.007262 0.012515 0.000000 0.000000 0.000000
# 4 0.000000 0.000000 0.000000 0.213376 0.000000 0.000000
# 5 0.000000 0.000000 0.000000 0.000000 0.023962 0.000000
# 6 0.000000 0.000000 0.000000 0.000000 0.000000 0.063432
#
#
# Mechanical properties :
#
#
# Convention : Reuss Voigt Hill
#
# Bulk Modulus (GPa) = 6.65029 11.83186 9.24107
# Shear Modulus (GPa) = 12.99922 25.45573 19.22748
#
# Velocity S-wave (km/s) = 2.56386 3.58780 3.11815
# Velocity P-wave (km/s) = 3.48244 4.81104 4.19961
#
# Compressibility (1/GPa) = 0.15036948
#
# Stress axis : x y z
#
# Youngs Moduli (GPa) = 35.23337 19.54632 79.90647
#
# Poissons Ratio (x) = -0.39192 -0.14728
# Poissons Ratio (y) = -0.70645 -0.58031
# Poissons Ratio (z) = -0.06494 -0.14195
#
# Static dielectric constant tensor:
#      x y z
#    x 1.700290 0.000000 0.000000 
#    y 0.000000 1.677750 0.000000 
#    z 0.000000 0.000000 1.668860 
# 
# From -- ./inp_files/880.got.cif
#   From: 2010.05.17/outbox.cif.g08.bks.cpg/sg31_1_cif.got.tgz:880.got - 2010.06.03 17:08:30.
