data_PCOD9343312
_publ_section_title
;
Structure prediction by ZEFSAII (Michael W. Deem and Ramdas Pophale) SiO2 
 PCOD9343312
Probable space group: P M N 21
;
_chemical_formula_sum "Si O2"
_cell_formula_units_Z 32
_cell_length_a 30.450262
_cell_length_b 5.357441
_cell_length_c 9.191500
_cell_angle_alpha 90.000000
_cell_angle_beta 90.000000
_cell_angle_gamma 90.000000
_cell_volume 1499.459784
_symmetry_space_group_name_H-M "P M N 21"
_symmetry_group_IT_number 31
_symmetry_cell_setting 'orthorhombic'
loop_
_space_group_symop_operation_xyz
x,y,z
1/2-x,-y,1/2+z
-x,y,z
1/2+x,-y,1/2+z
loop_
_atom_site_type_symbol
_atom_site_label
_atom_site_fract_x
_atom_site_fract_y
_atom_site_fract_z
Si Si1 0.050296 0.686732 0.711190
Si Si2 0.321031 0.371441 0.311472
Si Si3 0.674406 0.393122 0.809734
Si Si4 0.694080 0.738269 0.067699
Si Si5 0.362716 0.685181 0.562547
Si Si6 0.717892 0.071494 0.559433
Si Si7 0.373220 0.103856 0.055644
Si Si8 0.948639 0.188487 0.901624
O O1 0.079037 0.783648 0.575993
O O2 0.060002 0.419943 0.788853
O O3 0.000000 0.670024 0.666093
O O4 0.054634 0.918674 0.824358
O O5 0.298717 0.582094 0.213693
O O6 0.351861 0.492109 0.433784
O O7 0.289107 0.198596 0.403103
O O8 0.349594 0.218020 0.197852
O O9 0.639224 0.550102 0.716950
O O10 0.704520 0.258185 0.690114
O O11 0.699508 0.568573 0.924845
O O12 0.648959 0.195074 0.908033
O O13 0.729583 0.963130 0.067970
O O14 0.642863 0.819093 0.066986
O O15 0.409588 0.802166 0.520878
O O16 0.319016 0.859062 0.565517
O O17 0.000000 0.218451 0.950112
#
# Coordination Sequence:
#
# PCOD9343312 Si02
#       8
#     4   4   4   4   4   4   4   4
#     4  10  21  39  68 102 131 163 214 273 327 385
#     4  10  21  36  59  84 112 154 209 260 311 370
#     4  10  25  40  57  86 126 170 209 262 323 384
#     4  11  23  39  59  85 120 164 213 264 316 380
#     4  11  22  39  61  88 124 164 205 261 322 380
#     4  11  23  39  59  85 120 164 213 264 316 380
#     4  11  22  39  61  88 124 164 205 261 322 380
#     4  10  21  39  68 102 131 163 214 273 327 385
#
# _framework density 21.341018999999999
#
# number of rings (size 3 to 8) (size 9 to 14) (size 15 to 20)
#    0.000    1.500    1.250    3.750    3.500    8.000 
#    0.000    0.625    0.000    3.000    0.000    0.000 
#    0.000    0.000    0.000    0.000    0.000    0.000 
#
# Total GULP energy -178546.784821 kJ/mol
# GULP energy per Si atom -5579.587026 kJ/mol
# Density = 2.129245 g / cm^3
# Si number density = 21.341019 Si / 1000 Ang^3
#
#
#
# Elastic Constant Matrix: (Units=GPa)
#
#
# Indices 1 2 3 4 5 6 
#
# 1 71.6649 -4.0763 9.0970 0.0000 0.0000 0.0000
# 2 -4.0763 54.5248 13.2297 0.0000 0.0000 0.0000
# 3 9.0970 13.2297 94.8189 0.0000 0.0000 0.0000
# 4 0.0000 0.0000 0.0000 159.3114 0.0000 0.0000
# 5 0.0000 0.0000 0.0000 0.0000 -4.2456 0.0000
# 6 0.0000 0.0000 0.0000 0.0000 0.0000 21.4651
#
#
#
# Elastic Compliance Matrix: (Units=1/GPa)
#
#
# Indices 1 2 3 4 5 6 
#
# 1 0.014235 0.001444 -0.001567 0.000000 0.000000 0.000000
# 2 0.001444 0.019129 -0.002808 0.000000 0.000000 0.000000
# 3 -0.001567 -0.002808 0.011089 0.000000 0.000000 0.000000
# 4 0.000000 0.000000 0.000000 0.006277 0.000000 0.000000
# 5 0.000000 0.000000 0.000000 0.000000 -0.235539 0.000000
# 6 0.000000 0.000000 0.000000 0.000000 0.000000 0.046587
#
#
# Mechanical properties :
#
#
# Convention : Reuss Voigt Hill
#
# Bulk Modulus (GPa) = 25.91204 28.61217 27.26210
# Shear Modulus (GPa) = -41.84202 48.82340 3.49069
#
# Velocity S-wave (km/s) = -4.43271 4.78826 1.28032
# Velocity P-wave (km/s) = 3.74571 6.63371 3.87142
#
# Compressibility (1/GPa) = 0.03859210
#
# Stress axis : x y z
#
# Youngs Moduli (GPa) = 70.24972 52.27530 90.18332
#
# Poissons Ratio (x) = -0.07551 0.14134
# Poissons Ratio (y) = -0.10147 0.25320
# Poissons Ratio (z) = 0.11010 0.14677
#
# Static dielectric constant tensor:
#      x y z
#    x 1.840580 0.000000 0.000000 
#    y 0.000000 1.847740 0.000000 
#    z 0.000000 0.000000 1.728880 
# 
# From -- ./inp_files/3196.got.cif
#   From: 2010.05.17/outbox.cif.g08.bks.cpg/sg31_2_cif.got.tgz:3196.got - 2010.06.03 17:08:30.
