data_PCOD9343426
_publ_section_title
;
Structure prediction by ZEFSAII (Michael W. Deem and Ramdas Pophale) SiO2 
 PCOD9343426
Probable space group: P M N 21
;
_chemical_formula_sum "Si O2"
_cell_formula_units_Z 32
_cell_length_a 18.569220
_cell_length_b 5.015471
_cell_length_c 14.443869
_cell_angle_alpha 90.000000
_cell_angle_beta 90.000000
_cell_angle_gamma 90.000000
_cell_volume 1345.206404
_symmetry_space_group_name_H-M "P M N 21"
_symmetry_group_IT_number 31
_symmetry_cell_setting 'orthorhombic'
loop_
_space_group_symop_operation_xyz
x,y,z
1/2-x,-y,1/2+z
-x,y,z
1/2+x,-y,1/2+z
loop_
_atom_site_type_symbol
_atom_site_label
_atom_site_fract_x
_atom_site_fract_y
_atom_site_fract_z
Si Si1 0.580429 0.916266 0.693480
Si Si2 0.080223 0.816164 0.637090
Si Si3 0.697473 0.578473 0.220567
Si Si4 0.680520 0.154278 0.973039
Si Si5 0.419971 0.148762 0.505466
Si Si6 0.650061 0.417871 0.780408
Si Si7 0.738482 0.329300 0.532412
Si Si8 0.921860 0.172886 0.818131
O O1 0.500000 0.005286 0.718305
O O2 0.596186 0.643585 0.745912
O O3 0.584154 0.911544 0.581893
O O4 0.633684 0.149104 0.724078
O O5 0.136705 0.606683 0.677113
O O6 0.113587 0.908017 0.540488
O O7 0.000000 0.705202 0.624606
O O8 0.076132 0.037322 0.716945
O O9 0.771720 0.460059 0.257136
O O10 0.727325 0.752092 0.133249
O O11 0.655372 0.687511 0.310566
O O12 0.650641 0.308093 0.884082
O O13 0.734732 0.370068 0.018025
O O14 0.724824 0.880720 0.961752
O O15 0.500000 0.274880 0.519665
O O16 0.347453 0.313874 0.523303
O O17 0.418797 0.034071 0.402003
O O18 0.000000 0.319195 0.828571
#
# Coordination Sequence:
#
# PCOD9343426 Si02
#       8
#     4   4   4   4   4   4   4   4
#     4  11  26  48  70 102 142 185 238 294 348 416
#     4  10  23  41  65  97 138 178 227 287 351 419
#     4  11  23  39  68  96 141 176 232 281 353 408
#     4  11  25  44  69 104 137 181 232 288 349 420
#     4  10  23  43  68  98 136 181 230 284 345 412
#     4  12  26  44  75 103 138 190 235 293 352 418
#     4  11  23  43  69  98 140 176 227 288 349 412
#     4  10  21  42  68  98 136 181 229 281 349 417
#
# _framework density 23.788170000000001
#
# number of rings (size 3 to 8) (size 9 to 14) (size 15 to 20)
#    0.000    1.250    2.500    2.250    7.000    1.000 
#    2.250    0.625    0.000    0.000    0.000    0.000 
#    0.000    0.000    0.000    0.000    0.000    0.000 
#
# Total GULP energy -178675.016589 kJ/mol
# GULP energy per Si atom -5583.594268 kJ/mol
# Density = 2.373403 g / cm^3
# Si number density = 23.788170 Si / 1000 Ang^3
#
#
#
# Elastic Constant Matrix: (Units=GPa)
#
#
# Indices 1 2 3 4 5 6 
#
# 1 -772.5256 130.6373 315.7300 0.0000 0.0000 0.0000
# 2 130.6373 47.7123 -36.3672 0.0000 0.0000 0.0000
# 3 315.7300 -36.3672 -7.1194 0.0000 0.0000 0.0000
# 4 0.0000 0.0000 0.0000 11.1671 0.0000 0.0000
# 5 0.0000 0.0000 0.0000 0.0000 19.4303 0.0000
# 6 0.0000 0.0000 0.0000 0.0000 0.0000 23.2024
#
#
#
# Elastic Compliance Matrix: (Units=1/GPa)
#
#
# Indices 1 2 3 4 5 6 
#
# 1 0.000262 0.001662 0.003120 0.000000 0.000000 0.000000
# 2 0.001662 0.014831 -0.002071 0.000000 0.000000 0.000000
# 3 0.003120 -0.002071 0.008491 0.000000 0.000000 0.000000
# 4 0.000000 0.000000 0.000000 0.089549 0.000000 0.000000
# 5 0.000000 0.000000 0.000000 0.000000 0.051466 0.000000
# 6 0.000000 0.000000 0.000000 0.000000 0.000000 0.043099
#
#
# Mechanical properties :
#
#
# Convention : Reuss Voigt Hill
#
# Bulk Modulus (GPa) = 34.47581 9.78526 22.13054
# Shear Modulus (GPa) = 23.59109 -65.36888 -20.88889
#
# Velocity S-wave (km/s) = 3.15257 -5.24778 -2.96653
# Velocity P-wave (km/s) = 5.27028 5.70934 1.55252
#
# Compressibility (1/GPa) = 0.02900584
#
# Stress axis : x y z
#
# Youngs Moduli (GPa) = 3820.45897 67.42650 117.76701
#
# Poissons Ratio (x) = -0.11204 -0.36746
# Poissons Ratio (y) = -6.34808 0.24388
# Poissons Ratio (z) = -11.92059 0.13963
#
# Static dielectric constant tensor:
#      x y z
#    x 1.909380 0.000000 0.000000 
#    y 0.000000 1.926710 0.000000 
#    z 0.000000 0.000000 2.105850 
# 
# From -- ./inp_files/5512.got.cif
#   From: 2010.05.17/outbox.cif.g08.bks.cpg/sg31_3_cif.got.tgz:5512.got - 2010.06.03 17:08:30.
