data_PCOD9343546
_publ_section_title
;
Structure prediction by ZEFSAII (Michael W. Deem and Ramdas Pophale) SiO2 
 PCOD9343546
Probable space group: P M N 21
;
_chemical_formula_sum "Si O2"
_cell_formula_units_Z 28
_cell_length_a 18.723271
_cell_length_b 11.059828
_cell_length_c 7.244983
_cell_angle_alpha 90.000000
_cell_angle_beta 90.000000
_cell_angle_gamma 90.000000
_cell_volume 1500.263236
_symmetry_space_group_name_H-M "P M N 21"
_symmetry_group_IT_number 31
_symmetry_cell_setting 'orthorhombic'
loop_
_space_group_symop_operation_xyz
x,y,z
1/2-x,-y,1/2+z
-x,y,z
1/2+x,-y,1/2+z
loop_
_atom_site_type_symbol
_atom_site_label
_atom_site_fract_x
_atom_site_fract_y
_atom_site_fract_z
Si Si1 0.698478 0.369310 0.942710
Si Si2 0.775528 0.236923 0.280076
Si Si3 0.580742 0.819782 0.217599
Si Si4 0.337651 0.116082 0.833835
Si Si5 0.683812 0.608020 0.133669
Si Si6 0.079093 0.108310 0.281412
Si Si7 0.804687 0.996950 0.734665
O O1 0.714577 0.683365 0.960876
O O2 0.652376 0.259030 0.857316
O O3 0.754240 0.411674 0.785324
O O4 0.659658 0.482277 0.039484
O O5 0.742630 0.307898 0.108986
O O6 0.852331 0.184203 0.216592
O O7 0.724787 0.123576 0.329940
O O8 0.500000 0.812353 0.285091
O O9 0.622496 0.692520 0.221486
O O10 0.628917 0.925490 0.307983
O O11 0.577498 0.858398 0.000673
O O12 0.400265 0.032580 0.754045
O O13 0.262423 0.088155 0.734345
O O14 0.324467 0.055782 0.034811
O O15 0.000000 0.135517 0.209705
#
# Coordination Sequence:
#
# PCOD9343546 Si02
#       7
#     4   4   4   4   4   4   4
#     4  11  20  32  51  76 103 133 180 216 250 301
#     4   9  19  32  52  81 103 133 170 215 263 303
#     4   9  17  31  52  77 105 136 169 212 266 313
#     4   9  17  28  48  75  99 130 168 211 255 304
#     4  11  20  34  52  75 105 137 174 219 254 298
#     4   8  15  30  52  77 107 134 163 209 268 318
#     4   9  16  29  50  75 101 125 164 212 264 305
#
# _framework density 18.663392000000002
#
# number of rings (size 3 to 8) (size 9 to 14) (size 15 to 20)
#    0.000    2.571    2.857    0.857    0.000    0.000 
#    0.000    1.429    0.000    0.857    0.000    1.000 
#    0.000    0.000    0.000    0.000    0.000    0.000 
#
# Total GULP energy -155953.019809 kJ/mol
# GULP energy per Si atom -5569.750707 kJ/mol
# Density = 1.862091 g / cm^3
# Si number density = 18.663392 Si / 1000 Ang^3
#
#
#
# Elastic Constant Matrix: (Units=GPa)
#
#
# Indices 1 2 3 4 5 6 
#
# 1 81.2131 32.8442 0.3480 0.0000 0.0000 0.0000
# 2 32.8442 122.6243 12.3145 0.0000 0.0000 0.0000
# 3 0.3480 12.3145 51.1112 0.0000 0.0000 0.0000
# 4 0.0000 0.0000 0.0000 26.0750 0.0000 0.0000
# 5 0.0000 0.0000 0.0000 0.0000 8.4814 0.0000
# 6 0.0000 0.0000 0.0000 0.0000 0.0000 16.7577
#
#
#
# Elastic Compliance Matrix: (Units=1/GPa)
#
#
# Indices 1 2 3 4 5 6 
#
# 1 0.013842 -0.003790 0.000819 0.000000 0.000000 0.000000
# 2 -0.003790 0.009395 -0.002238 0.000000 0.000000 0.000000
# 3 0.000819 -0.002238 0.020099 0.000000 0.000000 0.000000
# 4 0.000000 0.000000 0.000000 0.038351 0.000000 0.000000
# 5 0.000000 0.000000 0.000000 0.000000 0.117906 0.000000
# 6 0.000000 0.000000 0.000000 0.000000 0.000000 0.059674
#
#
# Mechanical properties :
#
#
# Convention : Reuss Voigt Hill
#
# Bulk Modulus (GPa) = 30.37802 38.44025 34.40914
# Shear Modulus (GPa) = 17.81533 24.22559 21.02046
#
# Velocity S-wave (km/s) = 3.09295 3.60672 3.35967
# Velocity P-wave (km/s) = 5.39140 6.16327 5.79021
#
# Compressibility (1/GPa) = 0.03291853
#
# Stress axis : x y z
#
# Youngs Moduli (GPa) = 72.24139 106.44180 49.75436
#
# Poissons Ratio (x) = 0.40340 -0.04074
# Poissons Ratio (y) = 0.27378 0.11134
# Poissons Ratio (z) = -0.05916 0.23819
#
# Static dielectric constant tensor:
#      x y z
#    x 1.643160 0.000000 0.000000 
#    y 0.000000 1.690710 0.000000 
#    z 0.000000 0.000000 1.723280 
# 
# From -- ./inp_files/4401.got.cif
#   From: 2010.05.17/outbox.cif.g08.bks.cpg/sg31_3_cif.got.tgz:4401.got - 2010.06.03 17:08:30.
