data_PCOD9343579
_publ_section_title
;
Structure prediction by ZEFSAII (Michael W. Deem and Ramdas Pophale) SiO2 
 PCOD9343579
Probable space group: P M N 21
;
_chemical_formula_sum "Si O2"
_cell_formula_units_Z 24
_cell_length_a 8.338536
_cell_length_b 25.194644
_cell_length_c 4.814263
_cell_angle_alpha 90.000000
_cell_angle_beta 90.000000
_cell_angle_gamma 90.000000
_cell_volume 1011.411404
_symmetry_space_group_name_H-M "P M N 21"
_symmetry_group_IT_number 31
_symmetry_cell_setting 'orthorhombic'
loop_
_space_group_symop_operation_xyz
x,y,z
1/2-x,-y,1/2+z
-x,y,z
1/2+x,-y,1/2+z
loop_
_atom_site_type_symbol
_atom_site_label
_atom_site_fract_x
_atom_site_fract_y
_atom_site_fract_z
Si Si1 0.313315 0.030287 0.963760
Si Si2 0.688208 0.195653 0.774717
Si Si3 0.686685 0.469713 0.281998
Si Si4 0.813189 0.134628 0.271940
Si Si5 0.188208 0.695653 0.971039
Si Si6 0.686811 0.634628 0.473816
O O1 0.500000 0.034440 0.892835
O O2 0.215056 0.016452 0.688104
O O3 0.252984 0.082739 0.118489
O O4 0.500000 0.198960 0.846821
O O5 0.717644 0.149609 0.548724
O O6 0.736120 0.250000 0.622878
O O7 0.785227 0.181636 0.049468
O O8 0.784943 0.483547 0.557656
O O9 0.500000 0.465560 0.352920
O O10 0.747017 0.417262 0.127268
O O11 0.000000 0.128518 0.336998
O O12 0.217644 0.649609 0.197032
O O13 0.000000 0.698960 0.898935
O O14 0.285226 0.681635 0.696288
O O15 0.500000 0.628519 0.408757
#
# Coordination Sequence:
#
# PCOD9343579 Si02
#       6
#     4   4   4   4   4   4
#     4  12  25  44  67  94 128 166 210 259 314 373
#     4  11  24  43  66  93 127 168 212 259 314 373
#     4  12  25  44  67  94 128 166 210 259 314 373
#     4  12  25  42  65  95 129 166 210 259 314 373
#     4  11  24  43  66  93 127 168 212 259 314 373
#     4  12  25  42  65  95 129 166 210 259 314 373
#
# _framework density 23.729216999999998
#
# number of rings (size 3 to 8) (size 9 to 14) (size 15 to 20)
#    0.000    0.333    0.000   10.000    0.000    6.667 
#    0.000    0.000    0.000    0.000    0.000    0.000 
#    0.000    0.000    0.000    0.000    0.000    0.000 
#
# Total GULP energy -134670.534186 kJ/mol
# GULP energy per Si atom -5611.272258 kJ/mol
# Density = 2.367521 g / cm^3
# Si number density = 23.729217 Si / 1000 Ang^3
#
#
#
# Elastic Constant Matrix: (Units=GPa)
#
#
# Indices 1 2 3 4 5 6 
#
# 1 78.8147 5.7757 -10.7026 0.0000 0.0000 0.0000
# 2 5.7757 75.4005 -5.4430 0.0000 0.0000 0.0000
# 3 -10.7026 -5.4430 83.0147 0.0000 0.0000 0.0000
# 4 0.0000 0.0000 0.0000 42.4079 0.0000 0.0000
# 5 0.0000 0.0000 0.0000 0.0000 2.9358 0.0000
# 6 0.0000 0.0000 0.0000 0.0000 0.0000 39.2097
#
#
#
# Elastic Compliance Matrix: (Units=1/GPa)
#
#
# Indices 1 2 3 4 5 6 
#
# 1 0.012972 -0.000877 0.001615 0.000000 0.000000 0.000000
# 2 -0.000877 0.013385 0.000765 0.000000 0.000000 0.000000
# 3 0.001615 0.000765 0.012304 0.000000 0.000000 0.000000
# 4 0.000000 0.000000 0.000000 0.023581 0.000000 0.000000
# 5 0.000000 0.000000 0.000000 0.000000 0.340627 0.000000
# 6 0.000000 0.000000 0.000000 0.000000 0.000000 0.025504
#
#
# Mechanical properties :
#
#
# Convention : Reuss Voigt Hill
#
# Bulk Modulus (GPa) = 24.00072 24.05447 24.02760
# Shear Modulus (GPa) = 11.38289 33.41732 22.40010
#
# Velocity S-wave (km/s) = 2.19258 3.75677 3.07577
# Velocity P-wave (km/s) = 4.06771 5.38302 4.77091
#
# Compressibility (1/GPa) = 0.04166541
#
# Stress axis : x y z
#
# Youngs Moduli (GPa) = 77.09180 74.71117 81.27189
#
# Poissons Ratio (x) = 0.06553 -0.13124
# Poissons Ratio (y) = 0.06761 -0.06213
# Poissons Ratio (z) = -0.12449 -0.05712
#
# Static dielectric constant tensor:
#      x y z
#    x 1.793070 0.000000 0.000000 
#    y 0.000000 1.983790 0.000000 
#    z 0.000000 0.000000 1.858890 
# 
# From -- ./inp_files/159.got.cif
#   From: 2010.05.17/outbox.cif.g08.bks.cpg/sg31_1_cif.got.tgz:159.got - 2010.06.03 17:08:30.
