data_PCOD9343624
_publ_section_title
;
Structure prediction by ZEFSAII (Michael W. Deem and Ramdas Pophale) SiO2 
 PCOD9343624
Probable space group: P M N 21
;
_chemical_formula_sum "Si O2"
_cell_formula_units_Z 32
_cell_length_a 9.000000
_cell_length_b 12.000000
_cell_length_c 15.000000
_cell_angle_alpha 90.000000
_cell_angle_beta 90.000000
_cell_angle_gamma 90.000000
_cell_volume 1620.000000
_symmetry_space_group_name_H-M "P M N 21"
_symmetry_group_IT_number 31
_symmetry_cell_setting 'orthorhombic'
loop_
_space_group_symop_operation_xyz
x,y,z
1/2-x,-y,1/2+z
-x,y,z
1/2+x,-y,1/2+z
loop_
_atom_site_type_symbol
_atom_site_label
_atom_site_fract_x
_atom_site_fract_y
_atom_site_fract_z
Si Si1 0.173865 0.848711 0.812340
Si Si2 0.827042 0.733957 0.171508
Si Si3 0.824064 0.915291 0.317843
Si Si4 0.674274 0.307951 0.472824
Si Si5 0.675627 0.482900 0.908127
Si Si6 0.171040 0.715276 0.628478
Si Si7 0.174479 0.247660 0.953914
Si Si8 0.675055 0.507322 0.223770
O O1 0.225676 0.771069 0.893330
O O2 0.181465 0.779280 0.721506
O O3 0.000000 0.875795 0.828633
O O4 0.265830 0.960860 0.806635
O O5 0.792200 0.840643 0.230643
O O6 0.724198 0.630162 0.196154
O O7 0.000000 0.702254 0.189883
O O8 0.813370 0.753706 0.066725
O O9 0.742164 0.852940 0.398041
O O10 0.000000 0.913694 0.333102
O O11 0.500000 0.335112 0.457519
O O12 0.764047 0.422591 0.473939
O O13 0.500000 0.473215 0.913061
O O14 0.748649 0.362993 0.924056
O O15 0.730414 0.521642 0.810938
O O16 0.282631 0.763829 0.556887
O O17 0.202438 0.585748 0.648963
O O18 0.000000 0.724022 0.595891
O O19 0.000000 0.255605 0.939649
O O20 0.500000 0.502598 0.245304
#
# Coordination Sequence:
#
# PCOD9343624 Si02
#       8
#     4   4   4   4   4   4   4   4
#     4  10  22  42  65  90 124 165 206 255 308 363
#     4  10  22  39  62  90 123 160 200 252 305 362
#     4  11  24  42  62  90 125 164 209 260 309 360
#     4  10  21  41  65  92 124 161 205 249 304 369
#     4  12  23  37  61  93 128 162 200 250 310 370
#     4  10  22  41  64  93 128 162 201 254 309 365
#     4  12  25  41  64  92 123 165 210 255 310 368
#     4  11  21  37  63  92 125 163 199 243 305 373
#
# _framework density 19.753086
#
# number of rings (size 3 to 8) (size 9 to 14) (size 15 to 20)
#    0.000    1.250    2.500    3.750    0.000    6.000 
#    0.000    1.250    0.000    0.000    0.000    0.000 
#    0.000    0.000    0.000    0.000    0.000    0.000 
#
# Total GULP energy -178883.849058 kJ/mol
# GULP energy per Si atom -5590.120283 kJ/mol
# Density = 1.970813 g / cm^3
# Si number density = 19.753086 Si / 1000 Ang^3
#
#
#
# Elastic Constant Matrix: (Units=GPa)
#
#
# Indices 1 2 3 4 5 6 
#
# 1 81.0189 56.2098 38.3302 0.0000 0.0000 0.0000
# 2 56.2098 104.1403 33.2411 0.0000 0.0000 0.0000
# 3 38.3302 33.2411 69.7621 0.0000 0.0000 0.0000
# 4 0.0000 0.0000 0.0000 -25.0812 0.0000 0.0000
# 5 0.0000 0.0000 0.0000 0.0000 26.9923 0.0000
# 6 0.0000 0.0000 0.0000 0.0000 0.0000 31.9580
#
#
#
# Elastic Compliance Matrix: (Units=1/GPa)
#
#
# Indices 1 2 3 4 5 6 
#
# 1 0.022908 -0.009844 -0.007896 0.000000 0.000000 0.000000
# 2 -0.009844 0.015555 -0.002003 0.000000 0.000000 0.000000
# 3 -0.007896 -0.002003 0.019627 0.000000 0.000000 0.000000
# 4 0.000000 0.000000 0.000000 -0.039871 0.000000 0.000000
# 5 0.000000 0.000000 0.000000 0.000000 0.037048 0.000000
# 6 0.000000 0.000000 0.000000 0.000000 0.000000 0.031291
#
#
# Mechanical properties :
#
#
# Convention : Reuss Voigt Hill
#
# Bulk Modulus (GPa) = 53.75198 56.72039 55.23619
# Shear Modulus (GPa) = 37.80797 15.24985 26.52891
#
# Velocity S-wave (km/s) = 4.37971 2.78155 3.66871
# Velocity P-wave (km/s) = 7.26958 6.25244 6.78011
#
# Compressibility (1/GPa) = 0.01860397
#
# Stress axis : x y z
#
# Youngs Moduli (GPa) = 43.65228 64.28671 50.94951
#
# Poissons Ratio (x) = 0.63286 0.40230
# Poissons Ratio (y) = 0.42973 0.10206
# Poissons Ratio (z) = 0.34468 0.12877
#
# Static dielectric constant tensor:
#      x y z
#    x 1.673500 0.000000 0.000000 
#    y 0.000000 1.653940 0.000000 
#    z 0.000000 0.000000 1.738420 
# 
# From -- ./inp_files/4942.got.cif
#   From: 2010.05.17/outbox.ucp.g08.bks.cvg/sg31_3_cif.got.tgz:4942.got - 2010.06.11 10:34:26.
