data_PCOD9343887
_publ_section_title
;
Structure prediction by ZEFSAII (Michael W. Deem and Ramdas Pophale) SiO2 
 PCOD9343887
Probable space group: P B A 2
;
_chemical_formula_sum "Si O2"
_cell_formula_units_Z 30
_cell_length_a 10.427525
_cell_length_b 19.768982
_cell_length_c 6.671479
_cell_angle_alpha 90.000000
_cell_angle_beta 90.000000
_cell_angle_gamma 90.000000
_cell_volume 1375.269049
_symmetry_space_group_name_H-M "P B A 2"
_symmetry_group_IT_number 32
_symmetry_cell_setting 'orthorhombic'
loop_
_space_group_symop_operation_xyz
x,y,z
-x,-y,z
1/2-x,1/2+y,z
1/2+x,1/2-y,z
loop_
_atom_site_type_symbol
_atom_site_label
_atom_site_fract_x
_atom_site_fract_y
_atom_site_fract_z
Si Si1 0.108815 0.656600 0.243140
Si Si2 0.081939 0.236122 0.709695
Si Si3 0.329399 0.287159 0.466935
Si Si4 0.440335 0.878693 0.897118
Si Si5 0.165654 0.116767 0.948126
Si Si6 0.353565 0.065465 0.623951
Si Si7 0.000000 0.000000 0.847156
Si Si8 0.728589 0.572250 0.623769
O O1 0.138959 0.735891 0.284223
O O2 0.105938 0.614937 0.447576
O O3 0.225893 0.627926 0.111615
O O4 0.979283 0.638405 0.122908
O O5 0.215952 0.249175 0.592628
O O6 0.034967 0.308410 0.784485
O O7 0.099767 0.187525 0.899222
O O8 0.966871 0.208157 0.576267
O O9 0.283576 0.365589 0.468372
O O10 0.539617 0.930798 0.797295
O O11 0.300063 0.900771 0.826284
O O12 0.230157 0.096000 0.736122
O O13 0.072351 0.054423 0.985675
O O14 0.315561 0.990718 0.550744
O O15 0.904500 0.041901 0.702992
#
# Coordination Sequence:
#
# PCOD9343887 Si02
#       8
#     4   4   4   4   4   4   2   4
#     4  11  22  42  70  98 134 185 229 289 346 416
#     4  11  20  42  67  98 136 180 224 292 348 413
#     4  11  22  40  72 101 135 179 233 283 349 416
#     4  10  22  40  67  96 135 180 229 283 349 409
#     4  10  21  39  68  97 137 178 223 284 357 409
#     4  10  20  43  68  95 136 178 222 286 353 413
#     4  10  20  42  68  98 134 186 226 276 350 420
#     4  10  22  40  72  98 133 183 228 284 353 424
#
# _framework density 21.813912999999999
#
# number of rings (size 3 to 8) (size 9 to 14) (size 15 to 20)
#    0.000    1.600    4.000    1.200    0.000    1.067 
#    0.000   13.333    8.800    0.000    0.000    0.000 
#    0.000    0.000    0.000    0.000    0.000    0.000 
#
# Total GULP energy -167350.952632 kJ/mol
# GULP energy per Si atom -5578.365088 kJ/mol
# Density = 2.176426 g / cm^3
# Si number density = 21.813913 Si / 1000 Ang^3
#
#
#
# Elastic Constant Matrix: (Units=GPa)
#
#
# Indices 1 2 3 4 5 6 
#
# 1 77.2949 30.7059 19.0370 0.0000 0.0000 0.0000
# 2 30.7059 155.3374 29.7828 0.0000 0.0000 0.0000
# 3 19.0370 29.7828 69.1990 0.0000 0.0000 0.0000
# 4 0.0000 0.0000 0.0000 24.6079 0.0000 0.0000
# 5 0.0000 0.0000 0.0000 0.0000 23.5512 0.0000
# 6 0.0000 0.0000 0.0000 0.0000 0.0000 38.2132
#
#
#
# Elastic Compliance Matrix: (Units=1/GPa)
#
#
# Indices 1 2 3 4 5 6 
#
# 1 0.014598 -0.002306 -0.003024 0.000000 0.000000 0.000000
# 2 -0.002306 0.007381 -0.002542 0.000000 0.000000 0.000000
# 3 -0.003024 -0.002542 0.016377 0.000000 0.000000 0.000000
# 4 0.000000 0.000000 0.000000 0.040637 0.000000 0.000000
# 5 0.000000 0.000000 0.000000 0.000000 0.042461 0.000000
# 6 0.000000 0.000000 0.000000 0.000000 0.000000 0.026169
#
#
# Mechanical properties :
#
#
# Convention : Reuss Voigt Hill
#
# Bulk Modulus (GPa) = 44.22336 51.20920 47.71628
# Shear Modulus (GPa) = 29.25615 32.09483 30.67549
#
# Velocity S-wave (km/s) = 3.66617 3.83992 3.75405
# Velocity P-wave (km/s) = 6.18370 6.57163 6.38061
#
# Compressibility (1/GPa) = 0.02261248
#
# Stress axis : x y z
#
# Youngs Moduli (GPa) = 68.50156 135.48568 61.06104
#
# Poissons Ratio (x) = 0.31242 0.18462
# Poissons Ratio (y) = 0.15796 0.15523
# Poissons Ratio (z) = 0.20712 0.34444
#
# Static dielectric constant tensor:
#      x y z
#    x 1.830420 0.000000 0.000000 
#    y 0.000000 1.839970 0.000000 
#    z 0.000000 0.000000 1.778960 
# 
# From -- ./inp_files/1043.got.cif
#   From: 2010.05.17/outbox.cif.g08.bks.cpg/sg32_1_cif.got.tgz:1043.got - 2010.06.03 17:12:27.
