data_PCOD9343070
_publ_section_title
;
Structure prediction by ZEFSAII (Michael W. Deem and Ramdas Pophale) SiO2 
 PCOD9343070
Probable space group: P M N 21
;
_chemical_formula_sum "Si O2"
_cell_formula_units_Z 32
_cell_length_a 7.405377
_cell_length_b 19.555791
_cell_length_c 8.294362
_cell_angle_alpha 90.000000
_cell_angle_beta 90.000000
_cell_angle_gamma 90.000000
_cell_volume 1201.172957
_symmetry_space_group_name_H-M "P M N 21"
_symmetry_group_IT_number 31
_symmetry_cell_setting 'orthorhombic'
loop_
_space_group_symop_operation_xyz
x,y,z
1/2-x,-y,1/2+z
-x,y,z
1/2+x,-y,1/2+z
loop_
_atom_site_type_symbol
_atom_site_label
_atom_site_fract_x
_atom_site_fract_y
_atom_site_fract_z
Si Si1 0.281088 0.980935 0.698310
Si Si2 0.703495 0.356545 0.850842
Si Si3 0.714210 0.777221 0.189379
Si Si4 0.205833 0.104732 0.896169
Si Si5 0.721451 0.476445 0.063609
Si Si6 0.219210 0.150779 0.367666
Si Si7 0.793179 0.396072 0.390119
Si Si8 0.780125 0.276442 0.175815
O O1 0.500000 0.987139 0.694121
O O2 0.216172 0.942846 0.536617
O O3 0.225747 0.926719 0.837490
O O4 0.205540 0.054873 0.740420
O O5 0.500000 0.372893 0.810600
O O6 0.767356 0.303680 0.715315
O O7 0.787474 0.426790 0.917557
O O8 0.711486 0.309759 0.012703
O O9 0.500000 0.789328 0.189228
O O10 0.786484 0.823968 0.336113
O O11 0.785363 0.810437 0.025925
O O12 0.000000 0.118962 0.949636
O O13 0.500000 0.474724 0.066435
O O14 0.781023 0.553779 0.027137
O O15 0.788636 0.443564 0.228826
O O16 0.269913 0.199279 0.217252
O O17 0.000000 0.150687 0.371707
O O18 0.717134 0.325188 0.323487
O O19 0.000000 0.382082 0.434513
O O20 0.000000 0.280406 0.168185
#
# Coordination Sequence:
#
# PCOD9343070 Si02
#       8
#     4   4   4   4   4   4   4   4
#     4  10  20  35  55  77 103 135 168 204 251 304
#     4  10  20  34  51  73 104 138 169 206 255 305
#     4  10  20  35  55  77 101 131 170 212 252 298
#     4  10  21  36  55  79 105 134 169 210 253 297
#     4   9  19  34  50  73 105 135 167 211 257 300
#     4   9  18  33  54  78 101 128 166 213 257 295
#     4   9  18  32  51  74  99 132 172 210 251 302
#     4   9  17  33  55  75  98 131 173 214 250 297
#
# _framework density 26.640626999999999
#
# number of rings (size 3 to 8) (size 9 to 14) (size 15 to 20)
#    0.000    2.500    0.000    1.875    0.000    6.000 
#    0.000    4.375    0.000    0.000    0.000    0.000 
#    0.000    0.000    0.000    0.000    0.000    0.000 
#
# Total GULP energy -178944.818205 kJ/mol
# GULP energy per Si atom -5592.025569 kJ/mol
# Density = 2.657999 g / cm^3
# Si number density = 26.640627 Si / 1000 Ang^3
#
#
#
# Elastic Constant Matrix: (Units=GPa)
#
#
# Indices 1 2 3 4 5 6 
#
# 1 99.9974 2.5783 3.1452 0.0000 0.0000 0.0000
# 2 2.5783 144.7442 5.2062 0.0000 0.0000 0.0000
# 3 3.1452 5.2062 76.2947 0.0000 0.0000 0.0000
# 4 0.0000 0.0000 0.0000 53.6095 0.0000 0.0000
# 5 0.0000 0.0000 0.0000 0.0000 9.3141 0.0000
# 6 0.0000 0.0000 0.0000 0.0000 0.0000 13.8157
#
#
#
# Elastic Compliance Matrix: (Units=1/GPa)
#
#
# Indices 1 2 3 4 5 6 
#
# 1 0.010017 -0.000164 -0.000402 0.000000 0.000000 0.000000
# 2 -0.000164 0.006928 -0.000466 0.000000 0.000000 0.000000
# 3 -0.000402 -0.000466 0.013155 0.000000 0.000000 0.000000
# 4 0.000000 0.000000 0.000000 0.018653 0.000000 0.000000
# 5 0.000000 0.000000 0.000000 0.000000 0.107364 0.000000
# 6 0.000000 0.000000 0.000000 0.000000 0.000000 0.072381
#
#
# Mechanical properties :
#
#
# Convention : Reuss Voigt Hill
#
# Bulk Modulus (GPa) = 35.66658 38.09953 36.88306
# Shear Modulus (GPa) = 20.84121 36.02164 28.43142
#
# Velocity S-wave (km/s) = 2.80001 3.68112 3.27038
# Velocity P-wave (km/s) = 4.88575 5.69209 5.30426
#
# Compressibility (1/GPa) = 0.02803745
#
# Stress axis : x y z
#
# Youngs Moduli (GPa) = 99.82909 144.33294 76.01422
#
# Poissons Ratio (x) = 0.02367 0.03054
# Poissons Ratio (y) = 0.01637 0.03542
# Poissons Ratio (z) = 0.04011 0.06726
#
# Static dielectric constant tensor:
#      x y z
#    x 2.020100 0.000000 0.000000 
#    y 0.000000 2.020120 0.000000 
#    z 0.000000 0.000000 2.161260 
# 
# From -- ./inp_files/1868.got.cif
#   From: 2010.05.17/outbox.cif.g08.bks.cpg/sg31_1_cif.got.tgz:1868.got - 2010.06.03 17:08:30.
