data_PCOD9343948
_publ_section_title
;
Structure prediction by ZEFSAII (Michael W. Deem and Ramdas Pophale) SiO2 
 PCOD9343948
Probable space group: P B A 2
;
_chemical_formula_sum "Si O2"
_cell_formula_units_Z 32
_cell_length_a 27.654179
_cell_length_b 9.232449
_cell_length_c 5.732688
_cell_angle_alpha 90.000000
_cell_angle_beta 90.000000
_cell_angle_gamma 90.000000
_cell_volume 1463.645807
_symmetry_space_group_name_H-M "P B A 2"
_symmetry_group_IT_number 32
_symmetry_cell_setting 'orthorhombic'
loop_
_space_group_symop_operation_xyz
x,y,z
-x,-y,z
1/2-x,1/2+y,z
1/2+x,1/2-y,z
loop_
_atom_site_type_symbol
_atom_site_label
_atom_site_fract_x
_atom_site_fract_y
_atom_site_fract_z
Si Si1 0.818159 0.003245 0.699320
Si Si2 0.823532 0.502950 0.694702
Si Si3 0.200874 0.241601 0.364274
Si Si4 0.126778 0.251823 0.982049
Si Si5 0.630453 0.759395 0.405669
Si Si6 0.054734 0.061706 0.850344
Si Si7 0.944299 0.048190 0.343837
Si Si8 0.289378 0.249555 0.013182
O O1 0.846671 0.130344 0.562785
O O2 0.788700 0.097423 0.883319
O O3 0.792775 0.905811 0.505678
O O4 0.847974 0.881395 0.841780
O O5 0.796371 0.619389 0.531809
O O6 0.853270 0.600018 0.876862
O O7 0.859467 0.409314 0.533452
O O8 0.792699 0.382753 0.832251
O O9 0.147987 0.242006 0.242306
O O10 0.242120 0.244005 0.171096
O O11 0.070271 0.224419 0.924400
O O12 0.574633 0.711731 0.380738
O O13 0.662272 0.759208 0.170827
O O14 0.070823 0.034333 0.582668
O O15 0.000000 0.000000 0.843241
O O16 0.076423 0.985147 0.084822
O O17 0.000000 0.000000 0.324123
#
# Coordination Sequence:
#
# PCOD9343948 Si02
#       8
#     4   4   4   4   4   4   4   4
#     4  10  22  39  65  94 123 177 234 275 338 415
#     4  10  26  43  62  97 133 183 229 288 360 423
#     4  11  25  43  64  93 137 184 236 295 350 423
#     4  11  22  40  66  98 133 177 228 285 354 419
#     4  11  22  40  66  98 133 177 228 285 354 419
#     4  10  21  39  69 108 135 172 231 297 354 425
#     4  10  21  39  69 108 135 172 231 297 354 425
#     4  11  25  43  64  93 137 184 236 295 350 423
#
# _framework density 21.863215
#
# number of rings (size 3 to 8) (size 9 to 14) (size 15 to 20)
#    0.000    1.500    1.250    3.000    3.500   10.000 
#    0.000    3.750    0.000    3.000    0.000    0.000 
#    0.000    0.000    0.000    0.000    0.000    0.000 
#
# Total GULP energy -178484.236830 kJ/mol
# GULP energy per Si atom -5577.632401 kJ/mol
# Density = 2.181345 g / cm^3
# Si number density = 21.863215 Si / 1000 Ang^3
#
#
#
# Elastic Constant Matrix: (Units=GPa)
#
#
# Indices 1 2 3 4 5 6 
#
# 1 75.7337 18.8247 2.9319 0.0000 0.0000 0.0000
# 2 18.8247 107.4951 6.0387 0.0000 0.0000 0.0000
# 3 2.9319 6.0387 86.1208 0.0000 0.0000 0.0000
# 4 0.0000 0.0000 0.0000 31.0323 0.0000 0.0000
# 5 0.0000 0.0000 0.0000 0.0000 10.3186 0.0000
# 6 0.0000 0.0000 0.0000 0.0000 0.0000 31.7480
#
#
#
# Elastic Compliance Matrix: (Units=1/GPa)
#
#
# Indices 1 2 3 4 5 6 
#
# 1 0.013813 -0.002402 -0.000302 0.000000 0.000000 0.000000
# 2 -0.002402 0.009757 -0.000602 0.000000 0.000000 0.000000
# 3 -0.000302 -0.000602 0.011664 0.000000 0.000000 0.000000
# 4 0.000000 0.000000 0.000000 0.032225 0.000000 0.000000
# 5 0.000000 0.000000 0.000000 0.000000 0.096912 0.000000
# 6 0.000000 0.000000 0.000000 0.000000 0.000000 0.031498
#
#
# Mechanical properties :
#
#
# Convention : Reuss Voigt Hill
#
# Bulk Modulus (GPa) = 34.93835 36.10446 35.52141
# Shear Modulus (GPa) = 23.58243 30.72338 27.15291
#
# Velocity S-wave (km/s) = 3.28782 3.75274 3.52795
# Velocity P-wave (km/s) = 5.51617 5.94366 5.73390
#
# Compressibility (1/GPa) = 0.02862184
#
# Stress axis : x y z
#
# Youngs Moduli (GPa) = 72.39618 102.48810 85.73307
#
# Poissons Ratio (x) = 0.24617 0.02588
# Poissons Ratio (y) = 0.17389 0.05165
# Poissons Ratio (z) = 0.02185 0.06174
#
# Static dielectric constant tensor:
#      x y z
#    x 2.021400 0.000000 0.000000 
#    y 0.000000 1.772050 0.000000 
#    z 0.000000 0.000000 1.849260 
# 
# From -- ./inp_files/1823.got.cif
#   From: 2010.05.17/outbox.cif.g08.bks.cpg/sg32_1_cif.got.tgz:1823.got - 2010.06.03 17:12:27.
