data_PCOD9343330
_publ_section_title
;
Structure prediction by ZEFSAII (Michael W. Deem and Ramdas Pophale) SiO2 
 PCOD9343330
Probable space group: P M N 21
;
_chemical_formula_sum "Si O2"
_cell_formula_units_Z 32
_cell_length_a 8.250875
_cell_length_b 15.993832
_cell_length_c 11.485153
_cell_angle_alpha 90.000000
_cell_angle_beta 90.000000
_cell_angle_gamma 90.000000
_cell_volume 1515.616493
_symmetry_space_group_name_H-M "P M N 21"
_symmetry_group_IT_number 31
_symmetry_cell_setting 'orthorhombic'
loop_
_space_group_symop_operation_xyz
x,y,z
1/2-x,-y,1/2+z
-x,y,z
1/2+x,-y,1/2+z
loop_
_atom_site_type_symbol
_atom_site_label
_atom_site_fract_x
_atom_site_fract_y
_atom_site_fract_z
Si Si1 0.684198 0.352487 0.717590
Si Si2 0.694579 0.653190 0.591824
Si Si3 0.193875 0.028760 0.856408
Si Si4 0.693218 0.777731 0.399372
Si Si5 0.806275 0.477909 0.898991
Si Si6 0.187566 0.227043 0.543760
Si Si7 0.803251 0.341840 0.352554
Si Si8 0.810198 0.950339 0.099426
O O1 0.500000 0.359692 0.676205
O O2 0.702750 0.282300 0.817757
O O3 0.738026 0.437776 0.779548
O O4 0.794341 0.311556 0.618934
O O5 0.500000 0.641275 0.600526
O O6 0.719082 0.741695 0.528111
O O7 0.753430 0.579950 0.505892
O O8 0.759793 0.653347 0.721191
O O9 0.231148 0.126186 0.881132
O O10 0.248131 0.012268 0.722701
O O11 0.000000 0.018399 0.855407
O O12 0.257144 0.980797 0.972636
O O13 0.500000 0.765149 0.371699
O O14 0.754187 0.572886 0.912027
O O15 0.000000 0.471201 0.894489
O O16 0.248738 0.257573 0.418344
O O17 0.280848 0.149572 0.599060
O O18 0.000000 0.202276 0.539710
O O19 0.000000 0.340738 0.353837
O O20 0.000000 0.968729 0.097644
#
# Coordination Sequence:
#
# PCOD9343330 Si02
#       8
#     4   4   4   4   4   4   4   4
#     4  11  21  35  59  86 114 149 197 246 289 352
#     4   8  17  35  56  80 110 146 192 243 296 359
#     4  10  22  40  64  94 128 165 209 266 321 381
#     4   9  17  35  62  85 110 149 194 239 299 359
#     4  10  21  37  58  84 115 154 195 243 305 360
#     4  11  23  39  60  87 122 162 203 252 309 366
#     4  10  22  38  57  84 117 154 202 251 300 364
#     4  11  24  41  64  96 130 167 216 264 319 389
#
# _framework density 21.113520999999999
#
# number of rings (size 3 to 8) (size 9 to 14) (size 15 to 20)
#    0.000    2.000    1.250    3.000    1.750    3.000 
#    0.000    5.000    0.000    1.500    0.000    0.000 
#    0.000    0.000    0.000    0.000    0.000    0.000 
#
# Total GULP energy -178498.768233 kJ/mol
# GULP energy per Si atom -5578.086507 kJ/mol
# Density = 2.106547 g / cm^3
# Si number density = 21.113521 Si / 1000 Ang^3
#
#
#
# Elastic Constant Matrix: (Units=GPa)
#
#
# Indices 1 2 3 4 5 6 
#
# 1 25.6289 7.7141 9.6228 0.0000 0.0000 0.0000
# 2 7.7141 45.3343 33.3832 0.0000 0.0000 0.0000
# 3 9.6228 33.3832 132.6544 0.0000 0.0000 0.0000
# 4 0.0000 0.0000 0.0000 25.4158 0.0000 0.0000
# 5 0.0000 0.0000 0.0000 0.0000 18.4718 0.0000
# 6 0.0000 0.0000 0.0000 0.0000 0.0000 16.8044
#
#
#
# Elastic Compliance Matrix: (Units=1/GPa)
#
#
# Indices 1 2 3 4 5 6 
#
# 1 0.041369 -0.005928 -0.001509 0.000000 0.000000 0.000000
# 2 -0.005928 0.027925 -0.006598 0.000000 0.000000 0.000000
# 3 -0.001509 -0.006598 0.009308 0.000000 0.000000 0.000000
# 4 0.000000 0.000000 0.000000 0.039346 0.000000 0.000000
# 5 0.000000 0.000000 0.000000 0.000000 0.054137 0.000000
# 6 0.000000 0.000000 0.000000 0.000000 0.000000 0.059508
#
#
# Mechanical properties :
#
#
# Convention : Reuss Voigt Hill
#
# Bulk Modulus (GPa) = 19.78891 33.89531 26.84211
# Shear Modulus (GPa) = 18.08267 22.33154 20.20710
#
# Velocity S-wave (km/s) = 2.92969 3.25574 3.09701
# Velocity P-wave (km/s) = 4.56477 5.49744 5.05267
#
# Compressibility (1/GPa) = 0.05053335
#
# Stress axis : x y z
#
# Youngs Moduli (GPa) = 24.17241 35.80970 107.43253
#
# Poissons Ratio (x) = 0.21229 0.16213
# Poissons Ratio (y) = 0.14330 0.70879
# Poissons Ratio (z) = 0.03648 0.23626
#
# Static dielectric constant tensor:
#      x y z
#    x 1.739680 0.000000 0.000000 
#    y 0.000000 1.728950 0.000000 
#    z 0.000000 0.000000 1.841540 
# 
# From -- ./inp_files/3746.got.cif
#   From: 2010.05.17/outbox.cif.g08.bks.cpg/sg31_2_cif.got.tgz:3746.got - 2010.06.03 17:08:30.
