data_PCOD9343442
_publ_section_title
;
Structure prediction by ZEFSAII (Michael W. Deem and Ramdas Pophale) SiO2 
 PCOD9343442
Probable space group: P M N 21
;
_chemical_formula_sum "Si O2"
_cell_formula_units_Z 16
_cell_length_a 7.764974
_cell_length_b 11.085831
_cell_length_c 11.091768
_cell_angle_alpha 90.000000
_cell_angle_beta 90.000000
_cell_angle_gamma 90.000000
_cell_volume 954.792583
_symmetry_space_group_name_H-M "P M N 21"
_symmetry_group_IT_number 31
_symmetry_cell_setting 'orthorhombic'
loop_
_space_group_symop_operation_xyz
x,y,z
1/2-x,-y,1/2+z
-x,y,z
1/2+x,-y,1/2+z
loop_
_atom_site_type_symbol
_atom_site_label
_atom_site_fract_x
_atom_site_fract_y
_atom_site_fract_z
Si Si1 0.307307 0.173436 0.885790
Si Si2 0.000000 0.445239 0.552915
Si Si3 0.500000 0.801119 0.199142
Si Si4 0.692677 0.631857 0.581118
Si Si5 0.000000 0.298166 0.307307
Si Si6 0.500000 0.946861 0.953930
O O1 0.500000 0.213172 0.845442
O O2 0.167640 0.180867 0.781580
O O3 0.339224 0.036650 0.930875
O O4 0.249597 0.258977 0.995072
O O5 0.167418 0.527694 0.572683
O O6 0.000000 0.390530 0.418207
O O7 0.000000 0.332774 0.643595
O O8 0.500000 0.892800 0.087181
O O9 0.500000 0.590988 0.542343
O O10 0.660873 0.677992 0.717648
O O11 0.000000 0.164493 0.361756
#
# Coordination Sequence:
#
# PCOD9343442 Si02
#       6
#     4   2   2   4   2   2
#     4  10  22  38  65  86 119 157 201 238 302 352
#     4  11  23  40  60  89 120 154 204 241 291 356
#     4  11  23  40  62  91 118 160 196 249 297 346
#     4  10  22  38  63  84 119 162 190 241 303 344
#     4   9  23  40  58  89 122 148 200 249 285 356
#     4   9  23  40  60  91 120 152 198 251 289 358
#
# _framework density 16.757565
#
# number of rings (size 3 to 8) (size 9 to 14) (size 15 to 20)
#    1.500    0.500    2.500    0.000    7.000    1.000 
#    2.250    0.000    0.000    0.000    0.000    0.000 
#    0.000    0.000    0.000    0.000    0.000    0.000 
#
# Total GULP energy -89080.949699 kJ/mol
# GULP energy per Si atom -5567.559356 kJ/mol
# Density = 1.671942 g / cm^3
# Si number density = 16.757565 Si / 1000 Ang^3
#
#
#
# Elastic Constant Matrix: (Units=GPa)
#
#
# Indices 1 2 3 4 5 6 
#
# 1 153.7070 79.6743 81.2757 0.0000 0.0000 0.0000
# 2 79.6743 151.7829 99.4661 0.0000 0.0000 0.0000
# 3 81.2757 99.4661 155.3223 0.0000 0.0000 0.0000
# 4 0.0000 0.0000 0.0000 19.8524 0.0000 0.0000
# 5 0.0000 0.0000 0.0000 0.0000 12.9564 0.0000
# 6 0.0000 0.0000 0.0000 0.0000 0.0000 7.7752
#
#
#
# Elastic Compliance Matrix: (Units=1/GPa)
#
#
# Indices 1 2 3 4 5 6 
#
# 1 0.009755 -0.003059 -0.003145 0.000000 0.000000 0.000000
# 2 -0.003059 0.012312 -0.006284 0.000000 0.000000 0.000000
# 3 -0.003145 -0.006284 0.012108 0.000000 0.000000 0.000000
# 4 0.000000 0.000000 0.000000 0.050372 0.000000 0.000000
# 5 0.000000 0.000000 0.000000 0.000000 0.077182 0.000000
# 6 0.000000 0.000000 0.000000 0.000000 0.000000 0.128614
#
#
# Mechanical properties :
#
#
# Convention : Reuss Voigt Hill
#
# Bulk Modulus (GPa) = 108.71418 109.07160 108.89289
# Shear Modulus (GPa) = 15.70426 21.47654 18.59040
#
# Velocity S-wave (km/s) = 3.06460 3.58383 3.33434
# Velocity P-wave (km/s) = 8.80556 9.07493 8.94126
#
# Compressibility (1/GPa) = 0.00919843
#
# Stress axis : x y z
#
# Youngs Moduli (GPa) = 102.51323 81.22135 82.59054
#
# Poissons Ratio (x) = 0.24849 0.25977
# Poissons Ratio (y) = 0.31363 0.51896
# Poissons Ratio (z) = 0.32243 0.51036
#
# Static dielectric constant tensor:
#      x y z
#    x 1.562180 0.000000 0.000000 
#    y 0.000000 1.543720 0.000000 
#    z 0.000000 0.000000 1.544150 
# 
# From -- ./inp_files/1569.got.cif
#   From: 2010.05.17/outbox.cif.g08.bks.cpg/sg31_1_cif.got.tgz:1569.got - 2010.06.03 17:08:30.
