data_PCOD9343051
_publ_section_title
;
Structure prediction by ZEFSAII (Michael W. Deem and Ramdas Pophale) SiO2 
 PCOD9343051
Probable space group: P M N 21
;
_chemical_formula_sum "Si O2"
_cell_formula_units_Z 32
_cell_length_a 7.549366
_cell_length_b 10.182799
_cell_length_c 20.736397
_cell_angle_alpha 90.000000
_cell_angle_beta 90.000000
_cell_angle_gamma 90.000000
_cell_volume 1594.083076
_symmetry_space_group_name_H-M "P M N 21"
_symmetry_group_IT_number 31
_symmetry_cell_setting 'orthorhombic'
loop_
_space_group_symop_operation_xyz
x,y,z
1/2-x,-y,1/2+z
-x,y,z
1/2+x,-y,1/2+z
loop_
_atom_site_type_symbol
_atom_site_label
_atom_site_fract_x
_atom_site_fract_y
_atom_site_fract_z
Si Si1 0.792886 0.944369 0.097420
Si Si2 0.704866 0.866611 0.488020
Si Si3 0.204916 0.198915 0.850027
Si Si4 0.716648 0.578132 0.258880
Si Si5 0.205556 0.999586 0.240232
Si Si6 0.286112 0.652333 0.114268
Si Si7 0.713835 0.291871 0.224183
Si Si8 0.714474 0.365610 0.078994
O O1 0.716748 0.972775 0.168730
O O2 0.778987 0.789197 0.086198
O O3 0.000000 0.982216 0.102143
O O4 0.715123 0.030616 0.039406
O O5 0.500000 0.908432 0.478945
O O6 0.785536 0.850705 0.417065
O O7 0.712345 0.726153 0.523346
O O8 0.281420 0.328862 0.816031
O O9 0.208052 0.086322 0.795881
O O10 0.000000 0.231389 0.864736
O O11 0.500000 0.580400 0.259005
O O12 0.769715 0.637277 0.189238
O O13 0.770540 0.425866 0.259434
O O14 0.000000 0.959906 0.239679
O O15 0.219224 0.155014 0.251447
O O16 0.500000 0.655241 0.113865
O O17 0.230976 0.518164 0.078931
O O18 0.500000 0.288485 0.225375
O O19 0.767060 0.307738 0.149036
O O20 0.500000 0.361483 0.076113
#
# Coordination Sequence:
#
# PCOD9343051 Si02
#       8
#     4   4   4   4   4   4   4   4
#     4  10  20  33  49  76 109 137 169 214 262 310
#     4  10  21  36  53  76 107 142 177 215 263 317
#     4  10  20  36  57  76 101 141 182 218 260 314
#     4   8  15  30  52  77  99 123 169 221 253 296
#     4  11  21  33  51  78 110 138 170 218 266 310
#     4   9  17  31  53  79 102 129 171 217 256 300
#     4   9  17  31  53  78 102 130 169 214 259 307
#     4   9  18  32  52  78 104 132 169 215 261 308
#
# _framework density 20.074235999999999
#
# number of rings (size 3 to 8) (size 9 to 14) (size 15 to 20)
#    0.000    2.500    2.500    1.875    0.000    2.000 
#    0.000    3.750    0.000    6.000    0.000    0.000 
#    0.000    0.000    0.000    0.000    0.000    0.000 
#
# Total GULP energy -178534.409020 kJ/mol
# GULP energy per Si atom -5579.200282 kJ/mol
# Density = 2.002855 g / cm^3
# Si number density = 20.074236 Si / 1000 Ang^3
#
#
#
# Elastic Constant Matrix: (Units=GPa)
#
#
# Indices 1 2 3 4 5 6 
#
# 1 47.4725 -15.2114 -4.0114 0.0000 0.0000 0.0000
# 2 -15.2114 113.0944 40.8796 0.0000 0.0000 0.0000
# 3 -4.0114 40.8796 85.5946 0.0000 0.0000 0.0000
# 4 0.0000 0.0000 0.0000 24.6009 0.0000 0.0000
# 5 0.0000 0.0000 0.0000 0.0000 0.0678 0.0000
# 6 0.0000 0.0000 0.0000 0.0000 0.0000 24.2086
#
#
#
# Elastic Compliance Matrix: (Units=1/GPa)
#
#
# Indices 1 2 3 4 5 6 
#
# 1 0.022029 0.003130 -0.000463 0.000000 0.000000 0.000000
# 2 0.003130 0.011132 -0.005170 0.000000 0.000000 0.000000
# 3 -0.000463 -0.005170 0.014130 0.000000 0.000000 0.000000
# 4 0.000000 0.000000 0.000000 0.040649 0.000000 0.000000
# 5 0.000000 0.000000 0.000000 0.000000 14.743371 0.000000
# 6 0.000000 0.000000 0.000000 0.000000 0.000000 0.041308
#
#
# Mechanical properties :
#
#
# Convention : Reuss Voigt Hill
#
# Bulk Modulus (GPa) = 23.64826 32.16389 27.90607
# Shear Modulus (GPa) = 0.33576 24.74245 12.53910
#
# Velocity S-wave (km/s) = 0.40942 3.51457 2.50198
# Velocity P-wave (km/s) = 3.46835 5.70324 4.71998
#
# Compressibility (1/GPa) = 0.04228640
#
# Stress axis : x y z
#
# Youngs Moduli (GPa) = 45.39534 89.83200 70.76941
#
# Poissons Ratio (x) = -0.28118 0.03273
# Poissons Ratio (y) = -0.14209 0.36587
# Poissons Ratio (z) = 0.02100 0.46442
#
# Static dielectric constant tensor:
#      x y z
#    x 1.753840 0.000000 0.000000 
#    y 0.000000 1.706850 0.000000 
#    z 0.000000 0.000000 1.708780 
# 
# From -- ./inp_files/6045.got.cif
#   From: 2010.05.17/outbox.cif.g08.bks.cpg/sg31_4_cif.got.tgz:6045.got - 2010.06.03 17:08:30.
