data_PCOD9343357
_publ_section_title
;
Structure prediction by ZEFSAII (Michael W. Deem and Ramdas Pophale) SiO2 
 PCOD9343357
Probable space group: P M N 21
;
_chemical_formula_sum "Si O2"
_cell_formula_units_Z 32
_cell_length_a 7.645248
_cell_length_b 12.321030
_cell_length_c 15.893130
_cell_angle_alpha 90.000000
_cell_angle_beta 90.000000
_cell_angle_gamma 90.000000
_cell_volume 1497.090411
_symmetry_space_group_name_H-M "P M N 21"
_symmetry_group_IT_number 31
_symmetry_cell_setting 'orthorhombic'
loop_
_space_group_symop_operation_xyz
x,y,z
1/2-x,-y,1/2+z
-x,y,z
1/2+x,-y,1/2+z
loop_
_atom_site_type_symbol
_atom_site_label
_atom_site_fract_x
_atom_site_fract_y
_atom_site_fract_z
Si Si1 0.710546 0.456121 0.097690
Si Si2 0.705832 0.222741 0.362875
Si Si3 0.709790 0.156110 0.768787
Si Si4 0.788634 0.999461 0.613910
Si Si5 0.286968 0.236267 0.174571
Si Si6 0.289840 0.404916 0.762725
Si Si7 0.288511 0.547301 0.921381
Si Si8 0.799524 0.990697 0.423315
O O1 0.500000 0.450258 0.092215
O O2 0.775958 0.335551 0.118591
O O3 0.750118 0.536726 0.174578
O O4 0.775845 0.496062 0.008050
O O5 0.500000 0.197286 0.359875
O O6 0.764803 0.257842 0.270206
O O7 0.736168 0.327065 0.419580
O O8 0.798303 0.112704 0.388624
O O9 0.500000 0.160183 0.777591
O O10 0.775034 0.280382 0.766615
O O11 0.741899 0.092514 0.681149
O O12 0.776988 0.087209 0.850020
O O13 0.729546 0.883425 0.649749
O O14 0.000000 0.001681 0.610770
O O15 0.722413 0.001628 0.517439
O O16 0.500000 0.235884 0.170852
O O17 0.500000 0.400023 0.770360
O O18 0.224934 0.479979 0.839948
O O19 0.500000 0.543571 0.919908
O O20 0.000000 0.952983 0.435308
#
# Coordination Sequence:
#
# PCOD9343357 Si02
#       8
#     4   4   4   4   4   4   4   4
#     4  10  21  38  60  84 111 148 192 234 278 334
#     4  11  21  37  61  84 113 148 188 237 283 333
#     4  10  22  39  57  82 116 151 186 231 285 335
#     4  10  21  38  60  84 111 148 192 234 278 334
#     4   9  18  35  59  84 107 140 188 237 279 323
#     4  10  22  39  57  82 116 151 186 231 285 335
#     4  10  22  38  59  85 114 149 190 234 281 335
#     4  10  22  38  59  85 114 149 190 234 281 335
#
# _framework density 21.374793
#
# number of rings (size 3 to 8) (size 9 to 14) (size 15 to 20)
#    0.000    2.000    2.500    0.375    3.500    1.500 
#    0.000    0.625    0.000    0.000    0.000    0.000 
#    0.000    0.000    0.000    0.000    0.000    0.000 
#
# Total GULP energy -178648.718426 kJ/mol
# GULP energy per Si atom -5582.772451 kJ/mol
# Density = 2.132614 g / cm^3
# Si number density = 21.374793 Si / 1000 Ang^3
#
#
#
# Elastic Constant Matrix: (Units=GPa)
#
#
# Indices 1 2 3 4 5 6 
#
# 1 43.9516 -8.1559 -2.6566 0.0000 0.0000 0.0000
# 2 -8.1559 104.9263 9.3688 0.0000 0.0000 0.0000
# 3 -2.6566 9.3688 91.2423 0.0000 0.0000 0.0000
# 4 0.0000 0.0000 0.0000 37.6780 0.0000 0.0000
# 5 0.0000 0.0000 0.0000 0.0000 19.3440 0.0000
# 6 0.0000 0.0000 0.0000 0.0000 0.0000 15.2932
#
#
#
# Elastic Compliance Matrix: (Units=1/GPa)
#
#
# Indices 1 2 3 4 5 6 
#
# 1 0.023107 0.001752 0.000493 0.000000 0.000000 0.000000
# 2 0.001752 0.009752 -0.000950 0.000000 0.000000 0.000000
# 3 0.000493 -0.000950 0.011072 0.000000 0.000000 0.000000
# 4 0.000000 0.000000 0.000000 0.026541 0.000000 0.000000
# 5 0.000000 0.000000 0.000000 0.000000 0.051696 0.000000
# 6 0.000000 0.000000 0.000000 0.000000 0.000000 0.065389
#
#
# Mechanical properties :
#
#
# Convention : Reuss Voigt Hill
#
# Bulk Modulus (GPa) = 21.49617 26.35922 23.92770
# Shear Modulus (GPa) = 24.94105 30.56729 27.75417
#
# Velocity S-wave (km/s) = 3.41962 3.78572 3.60731
# Velocity P-wave (km/s) = 5.06659 5.60960 5.34499
#
# Compressibility (1/GPa) = 0.04651991
#
# Stress axis : x y z
#
# Youngs Moduli (GPa) = 43.27650 102.54793 90.31997
#
# Poissons Ratio (x) = -0.17967 -0.04452
# Poissons Ratio (y) = -0.07582 0.08583
# Poissons Ratio (z) = -0.02133 0.09745
#
# Static dielectric constant tensor:
#      x y z
#    x 1.858780 0.000000 0.000000 
#    y 0.000000 1.747890 0.000000 
#    z 0.000000 0.000000 1.777190 
# 
# From -- ./inp_files/4937.got.cif
#   From: 2010.05.17/outbox.cif.g08.bks.cpg/sg31_3_cif.got.tgz:4937.got - 2010.06.03 17:08:30.
