data_PCOD9343853
_publ_section_title
;
Structure prediction by ZEFSAII (Michael W. Deem and Ramdas Pophale) SiO2 
 PCOD9343853
Probable space group: P B A 2
;
_chemical_formula_sum "Si O2"
_cell_formula_units_Z 28
_cell_length_a 17.758076
_cell_length_b 10.756806
_cell_length_c 6.537435
_cell_angle_alpha 90.000000
_cell_angle_beta 90.000000
_cell_angle_gamma 90.000000
_cell_volume 1248.782000
_symmetry_space_group_name_H-M "P B A 2"
_symmetry_group_IT_number 32
_symmetry_cell_setting 'orthorhombic'
loop_
_space_group_symop_operation_xyz
x,y,z
-x,-y,z
1/2-x,1/2+y,z
1/2+x,1/2-y,z
loop_
_atom_site_type_symbol
_atom_site_label
_atom_site_fract_x
_atom_site_fract_y
_atom_site_fract_z
Si Si1 0.418738 0.382170 0.872680
Si Si2 0.000000 0.500000 0.019789
Si Si3 0.770569 0.504160 0.530659
Si Si4 0.500000 0.500000 0.236326
Si Si5 0.117043 0.094070 0.532708
Si Si6 0.914299 0.384081 0.384042
Si Si7 0.540543 0.191453 0.702649
Si Si8 0.802720 0.253257 0.664569
O O1 0.400008 0.491343 0.709340
O O2 0.489065 0.300452 0.799562
O O3 0.348197 0.291509 0.861029
O O4 0.440360 0.434229 0.090303
O O5 0.050885 0.589231 0.162604
O O6 0.051218 0.414321 0.872750
O O7 0.694574 0.448798 0.423568
O O8 0.852295 0.493440 0.425303
O O9 0.774822 0.393356 0.700346
O O10 0.750201 0.640129 0.603685
O O11 0.452812 0.591138 0.377911
O O12 0.112139 0.231569 0.626085
O O13 0.861282 0.271451 0.470505
O O14 0.987643 0.368469 0.527810
#
# Coordination Sequence:
#
# PCOD9343853 Si02
#       8
#     4   2   4   2   4   4   4   4
#     4  10  20  39  62  98 127 170 224 273 348 397
#     4  12  26  40  70  94 136 184 234 290 338 424
#     4   9  20  41  70  94 136 188 217 282 361 407
#     4  12  20  34  68 100 132 164 226 288 346 406
#     4  11  22  40  68 101 130 174 222 290 349 411
#     4   9  23  44  65  98 132 182 228 286 352 405
#     4  11  22  41  61  96 134 175 229 283 334 411
#     4   8  19  40  67  92 139 176 220 279 340 416
#
# _framework density 22.421849000000002
#
# number of rings (size 3 to 8) (size 9 to 14) (size 15 to 20)
#    0.857    1.143    2.857    0.429    2.000    2.286 
#    0.000    4.286    3.143    0.000    0.000    0.000 
#    0.000    0.000    0.000    0.000    0.000    0.000 
#
# Total GULP energy -155897.712659 kJ/mol
# GULP energy per Si atom -5567.775452 kJ/mol
# Density = 2.237082 g / cm^3
# Si number density = 22.421849 Si / 1000 Ang^3
#
#
#
# Elastic Constant Matrix: (Units=GPa)
#
#
# Indices 1 2 3 4 5 6 
#
# 1 90.2664 38.2478 22.4680 0.0000 0.0000 0.0000
# 2 38.2478 123.9276 38.6746 0.0000 0.0000 0.0000
# 3 22.4680 38.6746 82.4136 0.0000 0.0000 0.0000
# 4 0.0000 0.0000 0.0000 24.8238 0.0000 0.0000
# 5 0.0000 0.0000 0.0000 0.0000 14.2107 0.0000
# 6 0.0000 0.0000 0.0000 0.0000 0.0000 48.0707
#
#
#
# Elastic Compliance Matrix: (Units=1/GPa)
#
#
# Indices 1 2 3 4 5 6 
#
# 1 0.013006 -0.003406 -0.001947 0.000000 0.000000 0.000000
# 2 -0.003406 0.010346 -0.003926 0.000000 0.000000 0.000000
# 3 -0.001947 -0.003926 0.014507 0.000000 0.000000 0.000000
# 4 0.000000 0.000000 0.000000 0.040284 0.000000 0.000000
# 5 0.000000 0.000000 0.000000 0.000000 0.070370 0.000000
# 6 0.000000 0.000000 0.000000 0.000000 0.000000 0.020803
#
#
# Mechanical properties :
#
#
# Convention : Reuss Voigt Hill
#
# Bulk Modulus (GPa) = 51.81520 55.04316 53.42918
# Shear Modulus (GPa) = 25.73217 30.56883 28.15050
#
# Velocity S-wave (km/s) = 3.39136 3.69636 3.54714
# Velocity P-wave (km/s) = 6.20439 6.54367 6.37629
#
# Compressibility (1/GPa) = 0.01929936
#
# Stress axis : x y z
#
# Youngs Moduli (GPa) = 76.88521 96.65672 68.93058
#
# Poissons Ratio (x) = 0.32926 0.13423
# Poissons Ratio (y) = 0.26191 0.27065
# Poissons Ratio (z) = 0.14972 0.37951
#
# Static dielectric constant tensor:
#      x y z
#    x 1.913470 0.000000 0.000000 
#    y 0.000000 1.899250 0.000000 
#    z 0.000000 0.000000 1.808920 
# 
# From -- ./inp_files/1574.got.cif
#   From: 2010.05.17/outbox.cif.g08.bks.cpg/sg32_1_cif.got.tgz:1574.got - 2010.06.03 17:12:27.
