data_PCOD9343856
_publ_section_title
;
Structure prediction by ZEFSAII (Michael W. Deem and Ramdas Pophale) SiO2 
 PCOD9343856
Probable space group: P B A 2
;
_chemical_formula_sum "Si O2"
_cell_formula_units_Z 24
_cell_length_a 9.712217
_cell_length_b 16.554341
_cell_length_c 7.288763
_cell_angle_alpha 90.000000
_cell_angle_beta 90.000000
_cell_angle_gamma 90.000000
_cell_volume 1171.882593
_symmetry_space_group_name_H-M "P B A 2"
_symmetry_group_IT_number 32
_symmetry_cell_setting 'orthorhombic'
loop_
_space_group_symop_operation_xyz
x,y,z
-x,-y,z
1/2-x,1/2+y,z
1/2+x,1/2-y,z
loop_
_atom_site_type_symbol
_atom_site_label
_atom_site_fract_x
_atom_site_fract_y
_atom_site_fract_z
Si Si1 0.255651 0.417178 0.022150
Si Si2 0.511175 0.839470 0.144785
Si Si3 0.436755 0.328476 0.290562
Si Si4 0.685800 0.403754 0.122105
Si Si5 0.581301 0.277179 0.821678
Si Si6 0.801637 0.162950 0.656617
O O1 0.112058 0.403780 0.128769
O O2 0.353949 0.346453 0.101380
O O3 0.320346 0.502988 0.068877
O O4 0.251416 0.404611 0.802189
O O5 0.515295 0.765071 0.289951
O O6 0.657362 0.881678 0.165989
O O7 0.482990 0.791806 0.953603
O O8 0.575103 0.381433 0.278753
O O9 0.325528 0.353564 0.443157
O O10 0.646636 0.344912 0.953127
O O11 0.697847 0.236429 0.696372
O O12 0.457225 0.313878 0.708965
#
# Coordination Sequence:
#
# PCOD9343856 Si02
#       6
#     4   4   4   4   4   4
#     4  11  23  42  61  91 128 160 205 256 315 371
#     4  10  20  40  65  88 120 162 208 253 302 369
#     4  11  23  39  64  91 123 161 213 251 305 368
#     4  11  21  41  63  90 127 165 198 259 318 364
#     4  10  20  39  64  89 116 158 210 251 299 363
#     4  11  23  39  64  90 119 163 210 256 301 365
#
# _framework density 20.479868
#
# number of rings (size 3 to 8) (size 9 to 14) (size 15 to 20)
#    0.000    1.333    5.000    3.000    4.667    0.000 
#    6.000    0.000    0.000    2.000    0.000    0.000 
#    0.000    0.000    0.000    0.000    0.000    0.000 
#
# Total GULP energy -133826.216223 kJ/mol
# GULP energy per Si atom -5576.092343 kJ/mol
# Density = 2.043325 g / cm^3
# Si number density = 20.479868 Si / 1000 Ang^3
#
#
#
# Elastic Constant Matrix: (Units=GPa)
#
#
# Indices 1 2 3 4 5 6 
#
# 1 114.2429 7.9451 16.0657 0.0000 0.0000 0.0000
# 2 7.9451 57.9001 11.6239 0.0000 0.0000 0.0000
# 3 16.0657 11.6239 78.8220 0.0000 0.0000 0.0000
# 4 0.0000 0.0000 0.0000 8.5310 0.0000 0.0000
# 5 0.0000 0.0000 0.0000 0.0000 32.9902 0.0000
# 6 0.0000 0.0000 0.0000 0.0000 0.0000 22.3570
#
#
#
# Elastic Compliance Matrix: (Units=1/GPa)
#
#
# Indices 1 2 3 4 5 6 
#
# 1 0.009057 -0.000899 -0.001713 0.000000 0.000000 0.000000
# 2 -0.000899 0.017887 -0.002455 0.000000 0.000000 0.000000
# 3 -0.001713 -0.002455 0.013398 0.000000 0.000000 0.000000
# 4 0.000000 0.000000 0.000000 0.117219 0.000000 0.000000
# 5 0.000000 0.000000 0.000000 0.000000 0.030312 0.000000
# 6 0.000000 0.000000 0.000000 0.000000 0.000000 0.044729
#
#
# Mechanical properties :
#
#
# Convention : Reuss Voigt Hill
#
# Bulk Modulus (GPa) = 33.10346 35.80381 34.45364
# Shear Modulus (GPa) = 19.77807 27.13101 23.45454
#
# Velocity S-wave (km/s) = 3.11099 3.64368 3.38782
# Velocity P-wave (km/s) = 5.39475 5.93484 5.67123
#
# Compressibility (1/GPa) = 0.03020832
#
# Stress axis : x y z
#
# Youngs Moduli (GPa) = 110.41504 55.90580 74.63781
#
# Poissons Ratio (x) = 0.05025 0.12789
# Poissons Ratio (y) = 0.09924 0.18321
# Poissons Ratio (z) = 0.18919 0.13723
#
# Static dielectric constant tensor:
#      x y z
#    x 1.752810 0.000000 0.000000 
#    y 0.000000 1.712290 0.000000 
#    z 0.000000 0.000000 1.785990 
# 
# From -- ./inp_files/2403.got.cif
#   From: 2010.05.17/outbox.cif.g08.bks.cpg/sg32_2_cif.got.tgz:2403.got - 2010.06.03 17:12:27.
