data_PCOD9343328
_publ_section_title
;
Structure prediction by ZEFSAII (Michael W. Deem and Ramdas Pophale) SiO2 
 PCOD9343328
Probable space group: P M N 21
;
_chemical_formula_sum "Si O2"
_cell_formula_units_Z 24
_cell_length_a 9.131428
_cell_length_b 14.333911
_cell_length_c 8.010750
_cell_angle_alpha 90.000000
_cell_angle_beta 90.000000
_cell_angle_gamma 90.000000
_cell_volume 1048.519668
_symmetry_space_group_name_H-M "P M N 21"
_symmetry_group_IT_number 31
_symmetry_cell_setting 'orthorhombic'
loop_
_space_group_symop_operation_xyz
x,y,z
1/2-x,-y,1/2+z
-x,y,z
1/2+x,-y,1/2+z
loop_
_atom_site_type_symbol
_atom_site_label
_atom_site_fract_x
_atom_site_fract_y
_atom_site_fract_z
Si Si1 0.671170 0.533472 0.784690
Si Si2 0.832264 0.028527 0.953767
Si Si3 0.332567 0.301038 0.140346
Si Si4 0.831836 0.803946 0.283913
Si Si5 0.331808 0.865146 0.809111
Si Si6 0.828659 0.363556 0.639443
O O1 0.500000 0.514387 0.757722
O O2 0.735500 0.606967 0.652691
O O3 0.759170 0.438039 0.766601
O O4 0.687885 0.586247 0.960805
O O5 0.757301 0.103849 0.831664
O O6 0.000000 0.011161 0.903604
O O7 0.741982 0.933122 0.942572
O O8 0.832025 0.074833 0.136533
O O9 0.500000 0.323753 0.185764
O O10 0.262779 0.224986 0.264308
O O11 0.333288 0.254602 0.958022
O O12 0.754214 0.734568 0.155123
O O13 0.000000 0.825886 0.238401
O O14 0.500000 0.840746 0.849522
O O15 0.000000 0.349115 0.673148
#
# Coordination Sequence:
#
# PCOD9343328 Si02
#       6
#     4   4   4   4   4   4
#     4  11  24  40  59  85 115 148 187 230 278 333
#     4  10  21  37  58  84 114 150 190 232 281 334
#     4  10  21  38  60  85 113 147 188 233 281 333
#     4  10  21  38  60  85 113 147 188 233 281 333
#     4  10  21  37  58  84 114 150 190 232 281 334
#     4  11  24  40  59  85 115 148 187 230 278 333
#
# _framework density 22.889413000000001
#
# number of rings (size 3 to 8) (size 9 to 14) (size 15 to 20)
#    0.000    1.667    0.000    4.000    0.000   12.000 
#    0.000    0.000    0.000    0.000    0.000    0.000 
#    0.000    0.000    0.000    0.000    0.000    0.000 
#
# Total GULP energy -134428.623792 kJ/mol
# GULP energy per Si atom -5601.192658 kJ/mol
# Density = 2.283732 g / cm^3
# Si number density = 22.889413 Si / 1000 Ang^3
#
#
#
# Elastic Constant Matrix: (Units=GPa)
#
#
# Indices 1 2 3 4 5 6 
#
# 1 115.0846 0.0264 44.3242 0.0000 0.0000 0.0000
# 2 0.0264 66.1768 13.0331 0.0000 0.0000 0.0000
# 3 44.3242 13.0331 56.8721 0.0000 0.0000 0.0000
# 4 0.0000 0.0000 0.0000 38.9188 0.0000 0.0000
# 5 0.0000 0.0000 0.0000 0.0000 12.8469 0.0000
# 6 0.0000 0.0000 0.0000 0.0000 0.0000 22.1987
#
#
#
# Elastic Compliance Matrix: (Units=1/GPa)
#
#
# Indices 1 2 3 4 5 6 
#
# 1 0.012672 0.002032 -0.010342 0.000000 0.000000 0.000000
# 2 0.002032 0.016151 -0.005285 0.000000 0.000000 0.000000
# 3 -0.010342 -0.005285 0.026854 0.000000 0.000000 0.000000
# 4 0.000000 0.000000 0.000000 0.025695 0.000000 0.000000
# 5 0.000000 0.000000 0.000000 0.000000 0.077840 0.000000
# 6 0.000000 0.000000 0.000000 0.000000 0.000000 0.045048
#
#
# Mechanical properties :
#
#
# Convention : Reuss Voigt Hill
#
# Bulk Modulus (GPa) = 35.10259 39.21120 37.15690
# Shear Modulus (GPa) = 20.75169 26.84286 23.79727
#
# Velocity S-wave (km/s) = 3.01426 3.42821 3.22788
# Velocity P-wave (km/s) = 5.24246 5.73045 5.49188
#
# Compressibility (1/GPa) = 0.02848792
#
# Stress axis : x y z
#
# Youngs Moduli (GPa) = 78.91552 61.91568 37.23814
#
# Poissons Ratio (x) = -0.12579 0.38510
# Poissons Ratio (y) = -0.16033 0.19679
# Poissons Ratio (z) = 0.81611 0.32720
#
# Static dielectric constant tensor:
#      x y z
#    x 1.784410 0.000000 0.000000 
#    y 0.000000 1.843230 0.000000 
#    z 0.000000 0.000000 1.905670 
# 
# From -- ./inp_files/1699.got.cif
#   From: 2010.05.17/outbox.cif.g08.bks.cpg/sg31_1_cif.got.tgz:1699.got - 2010.06.03 17:08:30.
