data_PCOD9343234
_publ_section_title
;
Structure prediction by ZEFSAII (Michael W. Deem and Ramdas Pophale) SiO2 
 PCOD9343234
Probable space group: P M N 21
;
_chemical_formula_sum "Si O2"
_cell_formula_units_Z 20
_cell_length_a 11.786119
_cell_length_b 5.147124
_cell_length_c 14.340465
_cell_angle_alpha 90.000000
_cell_angle_beta 90.000000
_cell_angle_gamma 90.000000
_cell_volume 869.958802
_symmetry_space_group_name_H-M "P M N 21"
_symmetry_group_IT_number 31
_symmetry_cell_setting 'orthorhombic'
loop_
_space_group_symop_operation_xyz
x,y,z
1/2-x,-y,1/2+z
-x,y,z
1/2+x,-y,1/2+z
loop_
_atom_site_type_symbol
_atom_site_label
_atom_site_fract_x
_atom_site_fract_y
_atom_site_fract_z
Si Si1 0.164484 0.619304 0.623920
Si Si2 0.168470 0.119765 0.724054
Si Si3 0.125652 0.570455 0.414948
Si Si4 0.270638 0.082876 0.409551
Si Si5 0.366100 0.955464 0.610741
O O1 0.134599 0.409040 0.700920
O O2 0.121719 0.517686 0.525907
O O3 0.299885 0.677964 0.613244
O O4 0.122100 0.904224 0.652486
O O5 0.148916 0.020369 0.827453
O O6 0.303032 0.103348 0.695658
O O7 0.215811 0.357320 0.380479
O O8 0.000000 0.542309 0.374562
O O9 0.172521 0.862879 0.410993
O O10 0.328969 0.080025 0.511065
O O11 0.500000 0.939869 0.619260
#
# Coordination Sequence:
#
# PCOD9343234 Si02
#       5
#     4   4   4   4   4
#     4   9  19  39  56  81 114 152 191 241 285 343
#     4  10  20  38  59  80 121 149 190 241 290 336
#     4  11  21  38  60  84 115 156 193 239 296 349
#     4  11  22  39  58  88 122 150 196 246 290 348
#     4   9  21  38  60  85 118 155 191 237 296 348
#
# _framework density 22.989595000000001
#
# number of rings (size 3 to 8) (size 9 to 14) (size 15 to 20)
#    1.200    0.800    2.000    1.800    0.000    2.400 
#    0.000    2.000    0.000    0.000    0.000    0.000 
#    0.000    0.000    0.000    0.000    0.000    0.000 
#
# Total GULP energy -111507.002029 kJ/mol
# GULP energy per Si atom -5575.350101 kJ/mol
# Density = 2.293727 g / cm^3
# Si number density = 22.989595 Si / 1000 Ang^3
#
#
#
# Elastic Constant Matrix: (Units=GPa)
#
#
# Indices 1 2 3 4 5 6 
#
# 1 135.4646 9.4905 -9.8382 0.0000 0.0000 0.0000
# 2 9.4905 76.3351 -21.7429 0.0000 0.0000 0.0000
# 3 -9.8382 -21.7429 71.1008 0.0000 0.0000 0.0000
# 4 0.0000 0.0000 0.0000 32.8883 0.0000 0.0000
# 5 0.0000 0.0000 0.0000 0.0000 -123.5654 0.0000
# 6 0.0000 0.0000 0.0000 0.0000 0.0000 -12.9478
#
#
#
# Elastic Compliance Matrix: (Units=1/GPa)
#
#
# Indices 1 2 3 4 5 6 
#
# 1 0.007491 -0.000697 0.000823 0.000000 0.000000 0.000000
# 2 -0.000697 0.014415 0.004312 0.000000 0.000000 0.000000
# 3 0.000823 0.004312 0.015497 0.000000 0.000000 0.000000
# 4 0.000000 0.000000 0.000000 0.030406 0.000000 0.000000
# 5 0.000000 0.000000 0.000000 0.000000 -0.008093 0.000000
# 6 0.000000 0.000000 0.000000 0.000000 0.000000 -0.077233
#
#
# Mechanical properties :
#
#
# Convention : Reuss Voigt Hill
#
# Bulk Modulus (GPa) = 21.60796 26.52437 24.06616
# Shear Modulus (GPa) = -455.87658 -0.39224 -228.13441
#
# Velocity S-wave (km/s) = -14.09707 -0.41351 -9.97242
# Velocity P-wave (km/s) = 15.98595 3.36669 11.05024
#
# Compressibility (1/GPa) = 0.04627925
#
# Stress axis : x y z
#
# Youngs Moduli (GPa) = 133.50034 69.37276 64.52857
#
# Poissons Ratio (x) = 0.04834 -0.05313
# Poissons Ratio (y) = 0.09302 -0.27823
# Poissons Ratio (z) = -0.10992 -0.29912
#
# Static dielectric constant tensor:
#      x y z
#    x 2.001730 0.000000 0.000000 
#    y 0.000000 1.841760 0.000000 
#    z 0.000000 0.000000 1.867000 
# 
# From -- ./inp_files/4161.got.cif
#   From: 2010.05.17/outbox.cif.g08.bks.cpg/sg31_3_cif.got.tgz:4161.got - 2010.06.03 17:08:30.
