data_PCOD9343372
_publ_section_title
;
Structure prediction by ZEFSAII (Michael W. Deem and Ramdas Pophale) SiO2 
 PCOD9343372
Probable space group: P M N 21
;
_chemical_formula_sum "Si O2"
_cell_formula_units_Z 32
_cell_length_a 18.330721
_cell_length_b 5.405709
_cell_length_c 15.182581
_cell_angle_alpha 90.000000
_cell_angle_beta 90.000000
_cell_angle_gamma 90.000000
_cell_volume 1504.450203
_symmetry_space_group_name_H-M "P M N 21"
_symmetry_group_IT_number 31
_symmetry_cell_setting 'orthorhombic'
loop_
_space_group_symop_operation_xyz
x,y,z
1/2-x,-y,1/2+z
-x,y,z
1/2+x,-y,1/2+z
loop_
_atom_site_type_symbol
_atom_site_label
_atom_site_fract_x
_atom_site_fract_y
_atom_site_fract_z
Si Si1 0.182650 0.976418 0.295700
Si Si2 0.831081 0.762724 0.833348
Si Si3 0.085389 0.900089 0.653143
Si Si4 0.916691 0.242327 0.177286
Si Si5 0.794524 0.633555 0.143324
Si Si6 0.345184 0.997765 0.509550
Si Si7 0.741257 0.394077 0.929510
Si Si8 0.146923 0.421417 0.578743
O O1 0.212293 0.870829 0.203917
O O2 0.187658 0.758032 0.365406
O O3 0.246099 0.158893 0.325145
O O4 0.105947 0.085436 0.263878
O O5 0.874921 0.824212 0.745048
O O6 0.811553 0.491015 0.872448
O O7 0.868259 0.923675 0.911624
O O8 0.094789 0.656703 0.591325
O O9 0.000000 0.943295 0.669701
O O10 0.117354 0.152683 0.608662
O O11 0.858990 0.464117 0.177057
O O12 0.900653 0.102774 0.083803
O O13 0.000000 0.319879 0.179998
O O14 0.715839 0.514962 0.142005
O O15 0.816134 0.744593 0.049446
O O16 0.279755 0.800054 0.497426
O O17 0.686016 0.571811 0.983425
#
# Coordination Sequence:
#
# PCOD9343372 Si02
#       8
#     4   4   4   4   4   4   4   4
#     4  10  22  38  64  99 124 171 227 288 344 401
#     4  11  22  39  69 100 129 171 235 291 342 424
#     4  12  28  46  68 102 145 191 231 291 369 430
#     4  11  23  39  61  93 139 180 221 279 363 434
#     4  11  20  40  67  97 131 172 236 286 342 415
#     4  10  21  38  62 102 132 167 224 285 357 414
#     4  11  22  39  71 105 127 171 240 303 347 407
#     4  12  23  45  74  98 136 185 242 295 337 429
#
# _framework density 21.270227999999999
#
# number of rings (size 3 to 8) (size 9 to 14) (size 15 to 20)
#    0.000    1.000    3.750    3.375    3.500    2.500 
#    0.000    3.125    0.000    0.000    0.000    0.000 
#    0.000    0.000    0.000    0.000    0.000    0.000 
#
# Total GULP energy -178254.595237 kJ/mol
# GULP energy per Si atom -5570.456101 kJ/mol
# Density = 2.122182 g / cm^3
# Si number density = 21.270228 Si / 1000 Ang^3
#
#
#
# Elastic Constant Matrix: (Units=GPa)
#
#
# Indices 1 2 3 4 5 6 
#
# 1 108.7610 36.4918 29.7699 0.0000 0.0000 0.0000
# 2 36.4918 92.8048 21.4853 0.0000 0.0000 0.0000
# 3 29.7699 21.4853 64.0144 0.0000 0.0000 0.0000
# 4 0.0000 0.0000 0.0000 39.9428 0.0000 0.0000
# 5 0.0000 0.0000 0.0000 0.0000 22.0097 0.0000
# 6 0.0000 0.0000 0.0000 0.0000 0.0000 22.7167
#
#
#
# Elastic Compliance Matrix: (Units=1/GPa)
#
#
# Indices 1 2 3 4 5 6 
#
# 1 0.011532 -0.003570 -0.004165 0.000000 0.000000 0.000000
# 2 -0.003570 0.012789 -0.002632 0.000000 0.000000 0.000000
# 3 -0.004165 -0.002632 0.018442 0.000000 0.000000 0.000000
# 4 0.000000 0.000000 0.000000 0.025036 0.000000 0.000000
# 5 0.000000 0.000000 0.000000 0.000000 0.045434 0.000000
# 6 0.000000 0.000000 0.000000 0.000000 0.000000 0.044020
#
#
# Mechanical properties :
#
#
# Convention : Reuss Voigt Hill
#
# Bulk Modulus (GPa) = 45.39579 49.00825 47.20202
# Shear Modulus (GPa) = 26.97887 28.78940 27.88413
#
# Velocity S-wave (km/s) = 3.56531 3.68299 3.62463
# Velocity P-wave (km/s) = 6.19171 6.41691 6.30532
#
# Compressibility (1/GPa) = 0.02202847
#
# Stress axis : x y z
#
# Youngs Moduli (GPa) = 86.71198 78.19495 54.22517
#
# Poissons Ratio (x) = 0.27919 0.22584
# Poissons Ratio (y) = 0.30960 0.14271
# Poissons Ratio (z) = 0.36114 0.20579
#
# Static dielectric constant tensor:
#      x y z
#    x 1.743270 0.000000 0.000000 
#    y 0.000000 1.889940 0.000000 
#    z 0.000000 0.000000 1.869060 
# 
# From -- ./inp_files/5521.got.cif
#   From: 2010.05.17/outbox.cif.g08.bks.cpg/sg31_3_cif.got.tgz:5521.got - 2010.06.03 17:08:30.
