data_PCOD9343480
_publ_section_title
;
Structure prediction by ZEFSAII (Michael W. Deem and Ramdas Pophale) SiO2 
 PCOD9343480
Probable space group: P M N 21
;
_chemical_formula_sum "Si O2"
_cell_formula_units_Z 32
_cell_length_a 15.936547
_cell_length_b 11.480813
_cell_length_c 8.002824
_cell_angle_alpha 90.000000
_cell_angle_beta 90.000000
_cell_angle_gamma 90.000000
_cell_volume 1464.232820
_symmetry_space_group_name_H-M "P M N 21"
_symmetry_group_IT_number 31
_symmetry_cell_setting 'orthorhombic'
loop_
_space_group_symop_operation_xyz
x,y,z
1/2-x,-y,1/2+z
-x,y,z
1/2+x,-y,1/2+z
loop_
_atom_site_type_symbol
_atom_site_label
_atom_site_fract_x
_atom_site_fract_y
_atom_site_fract_z
Si Si1 0.750953 0.930733 0.768210
Si Si2 0.907971 0.696587 0.300068
Si Si3 0.840019 0.541827 0.827819
Si Si4 0.906601 0.310497 0.739312
Si Si5 0.904663 0.788598 0.917384
Si Si6 0.649012 0.551759 0.707064
Si Si7 0.745182 0.823352 0.402025
Si Si8 0.092515 0.210401 0.366832
O O1 0.833302 0.878829 0.860187
O O2 0.744828 0.881800 0.582060
O O3 0.666411 0.881975 0.850752
O O4 0.751109 0.069479 0.773510
O O5 0.899396 0.557324 0.287803
O O6 0.827625 0.744316 0.395091
O O7 0.000000 0.728105 0.366613
O O8 0.900247 0.752649 0.113450
O O9 0.883295 0.445439 0.713700
O O10 0.884496 0.666279 0.826171
O O11 0.743504 0.555975 0.777728
O O12 0.846919 0.485616 0.013067
O O13 0.835980 0.251193 0.853321
O O14 0.905907 0.253104 0.557707
O O15 0.000000 0.300666 0.812217
O O16 0.000000 0.827807 0.882659
O O17 0.609443 0.676197 0.751106
O O18 0.000000 0.162750 0.327906
#
# Coordination Sequence:
#
# PCOD9343480 Si02
#       8
#     4   4   4   4   4   4   4   4
#     4  12  26  44  67  91 122 164 210 263 315 373
#     4  10  22  41  65  93 128 167 207 254 308 370
#     4  11  21  36  63  96 131 169 207 251 310 373
#     4  11  24  42  65  94 129 167 210 260 312 370
#     4  10  22  41  65  93 128 167 207 254 308 370
#     4  11  21  36  63  96 131 169 207 251 310 373
#     4  12  26  44  67  91 122 164 210 263 315 373
#     4  11  24  42  65  94 129 167 210 260 312 370
#
# _framework density 21.854448000000001
#
# number of rings (size 3 to 8) (size 9 to 14) (size 15 to 20)
#    0.000    1.000    2.500    4.500    0.000    5.500 
#    0.000    0.000    0.000    0.000    0.000    0.000 
#    0.000    0.000    0.000    0.000    0.000    0.000 
#
# Total GULP energy -179100.315255 kJ/mol
# GULP energy per Si atom -5596.884852 kJ/mol
# Density = 2.180471 g / cm^3
# Si number density = 21.854448 Si / 1000 Ang^3
#
#
#
# Elastic Constant Matrix: (Units=GPa)
#
#
# Indices 1 2 3 4 5 6 
#
# 1 175.3886 28.5059 10.1471 0.0000 0.0000 0.0000
# 2 28.5059 69.2293 -17.3405 0.0000 0.0000 0.0000
# 3 10.1471 -17.3405 31.5538 0.0000 0.0000 0.0000
# 4 0.0000 0.0000 0.0000 32.9485 0.0000 0.0000
# 5 0.0000 0.0000 0.0000 0.0000 17.7744 0.0000
# 6 0.0000 0.0000 0.0000 0.0000 0.0000 2.9252
#
#
#
# Elastic Compliance Matrix: (Units=1/GPa)
#
#
# Indices 1 2 3 4 5 6 
#
# 1 0.006550 -0.003739 -0.004161 0.000000 0.000000 0.000000
# 2 -0.003739 0.018885 0.011581 0.000000 0.000000 0.000000
# 3 -0.004161 0.011581 0.039395 0.000000 0.000000 0.000000
# 4 0.000000 0.000000 0.000000 0.030350 0.000000 0.000000
# 5 0.000000 0.000000 0.000000 0.000000 0.056261 0.000000
# 6 0.000000 0.000000 0.000000 0.000000 0.000000 0.341853
#
#
# Mechanical properties :
#
#
# Convention : Reuss Voigt Hill
#
# Bulk Modulus (GPa) = 13.85226 35.42186 24.63706
# Shear Modulus (GPa) = 9.80397 27.72022 18.76209
#
# Velocity S-wave (km/s) = 2.12032 3.56533 2.93320
# Velocity P-wave (km/s) = 3.51376 5.76125 4.77172
#
# Compressibility (1/GPa) = 0.07219040
#
# Stress axis : x y z
#
# Youngs Moduli (GPa) = 152.66807 52.95117 25.38418
#
# Poissons Ratio (x) = 0.19801 0.10563
# Poissons Ratio (y) = 0.57090 -0.29398
# Poissons Ratio (z) = 0.63532 -0.61323
#
# Static dielectric constant tensor:
#      x y z
#    x 1.773580 0.000000 0.000000 
#    y 0.000000 1.771330 0.000000 
#    z 0.000000 0.000000 1.830920 
# 
# From -- ./inp_files/2589.got.cif
#   From: 2010.05.17/outbox.cif.g08.bks.cpg/sg31_2_cif.got.tgz:2589.got - 2010.06.03 17:08:30.
