data_PCOD9343518
_publ_section_title
;
Structure prediction by ZEFSAII (Michael W. Deem and Ramdas Pophale) SiO2 
 PCOD9343518
Probable space group: P M N 21
;
_chemical_formula_sum "Si O2"
_cell_formula_units_Z 32
_cell_length_a 8.848594
_cell_length_b 12.005067
_cell_length_c 15.606247
_cell_angle_alpha 90.000000
_cell_angle_beta 90.000000
_cell_angle_gamma 90.000000
_cell_volume 1657.819842
_symmetry_space_group_name_H-M "P M N 21"
_symmetry_group_IT_number 31
_symmetry_cell_setting 'orthorhombic'
loop_
_space_group_symop_operation_xyz
x,y,z
1/2-x,-y,1/2+z
-x,y,z
1/2+x,-y,1/2+z
loop_
_atom_site_type_symbol
_atom_site_label
_atom_site_fract_x
_atom_site_fract_y
_atom_site_fract_z
Si Si1 0.320382 0.216260 0.762990
Si Si2 0.319704 0.785374 0.930153
Si Si3 0.819357 0.350166 0.604102
Si Si4 0.818525 0.404426 0.102218
Si Si5 0.180883 0.000935 0.006627
Si Si6 0.180257 0.998792 0.695211
Si Si7 0.319615 0.255003 0.252035
Si Si8 0.180625 0.250014 0.940998
O O1 0.500000 0.213760 0.757815
O O2 0.252987 0.283856 0.683100
O O3 0.266011 0.268366 0.852304
O O4 0.254658 0.091289 0.755499
O O5 0.500000 0.795231 0.920762
O O6 0.248749 0.730039 0.846227
O O7 0.286983 0.714534 0.015622
O O8 0.247064 0.906700 0.944802
O O9 0.752278 0.473537 0.600406
O O10 0.000000 0.353703 0.615153
O O11 0.755066 0.335746 0.182732
O O12 0.000000 0.410679 0.107839
O O13 0.779499 0.336376 0.015832
O O14 0.000000 0.988967 0.012365
O O15 0.253890 0.985441 0.100057
O O16 0.215117 0.125296 0.974269
O O17 0.211799 0.873035 0.724797
O O18 0.000000 0.015764 0.694149
O O19 0.500000 0.270619 0.252926
O O20 0.000000 0.256035 0.926268
#
# Coordination Sequence:
#
# PCOD9343518 Si02
#       8
#     4   4   4   4   4   4   4   4
#     4  12  25  40  65  96 127 167 212 260 311 375
#     4  11  24  41  64  93 128 168 210 261 313 372
#     4  11  25  45  66  90 124 166 211 265 318 371
#     4  11  24  44  68  93 123 164 213 264 314 373
#     4  11  21  37  64  95 128 166 206 254 316 378
#     4  11  22  38  62  93 130 169 206 253 316 377
#     4  11  24  41  65  95 130 169 208 258 314 376
#     4  10  23  42  64  93 130 167 204 257 316 374
#
# _framework density 19.302461000000001
#
# number of rings (size 3 to 8) (size 9 to 14) (size 15 to 20)
#    0.000    1.000    2.500    4.125    0.000    9.000 
#    0.000    2.500    0.000    0.000    0.000    0.000 
#    0.000    0.000    0.000    0.000    0.000    0.000 
#
# Total GULP energy -179087.835589 kJ/mol
# GULP energy per Si atom -5596.494862 kJ/mol
# Density = 1.925853 g / cm^3
# Si number density = 19.302461 Si / 1000 Ang^3
#
#
#
# Elastic Constant Matrix: (Units=GPa)
#
#
# Indices 1 2 3 4 5 6 
#
# 1 68.2091 55.8774 50.5528 0.0000 0.0000 0.0000
# 2 55.8774 114.1010 34.8465 0.0000 0.0000 0.0000
# 3 50.5528 34.8465 111.4684 0.0000 0.0000 0.0000
# 4 0.0000 0.0000 0.0000 2.5356 0.0000 0.0000
# 5 0.0000 0.0000 0.0000 0.0000 31.2478 0.0000
# 6 0.0000 0.0000 0.0000 0.0000 0.0000 16.0569
#
#
#
# Elastic Compliance Matrix: (Units=1/GPa)
#
#
# Indices 1 2 3 4 5 6 
#
# 1 0.033645 -0.013064 -0.011175 0.000000 0.000000 0.000000
# 2 -0.013064 0.014762 0.001310 0.000000 0.000000 0.000000
# 3 -0.011175 0.001310 0.013629 0.000000 0.000000 0.000000
# 4 0.000000 0.000000 0.000000 0.394386 0.000000 0.000000
# 5 0.000000 0.000000 0.000000 0.000000 0.032002 0.000000
# 6 0.000000 0.000000 0.000000 0.000000 0.000000 0.062279
#
#
# Mechanical properties :
#
#
# Convention : Reuss Voigt Hill
#
# Bulk Modulus (GPa) = 61.80791 64.03689 62.92240
# Shear Modulus (GPa) = 8.30630 20.13483 14.22057
#
# Velocity S-wave (km/s) = 2.07667 3.23324 2.71721
# Velocity P-wave (km/s) = 6.15145 6.86921 6.52021
#
# Compressibility (1/GPa) = 0.01617916
#
# Stress axis : x y z
#
# Youngs Moduli (GPa) = 29.72245 67.74307 73.37030
#
# Poissons Ratio (x) = 0.88497 0.81988
# Poissons Ratio (y) = 0.38828 -0.09611
# Poissons Ratio (z) = 0.33213 -0.08874
#
# Static dielectric constant tensor:
#      x y z
#    x 1.640100 0.000000 0.000000 
#    y 0.000000 1.648750 0.000000 
#    z 0.000000 0.000000 1.662970 
# 
# From -- ./inp_files/4997.got.cif
#   From: 2010.05.17/outbox.cif.g08.bks.cpg/sg31_3_cif.got.tgz:4997.got - 2010.06.03 17:08:30.
