data_PCOD9343092
_publ_section_title
;
Structure prediction by ZEFSAII (Michael W. Deem and Ramdas Pophale) SiO2 
 PCOD9343092
Probable space group: P M N 21
;
_chemical_formula_sum "Si O2"
_cell_formula_units_Z 32
_cell_length_a 8.984308
_cell_length_b 14.797669
_cell_length_c 14.240543
_cell_angle_alpha 90.000000
_cell_angle_beta 90.000000
_cell_angle_gamma 90.000000
_cell_volume 1893.234850
_symmetry_space_group_name_H-M "P M N 21"
_symmetry_group_IT_number 31
_symmetry_cell_setting 'orthorhombic'
loop_
_space_group_symop_operation_xyz
x,y,z
1/2-x,-y,1/2+z
-x,y,z
1/2+x,-y,1/2+z
loop_
_atom_site_type_symbol
_atom_site_label
_atom_site_fract_x
_atom_site_fract_y
_atom_site_fract_z
Si Si1 0.675761 0.648402 0.275140
Si Si2 0.677453 0.106618 0.990568
Si Si3 0.321415 0.479477 0.406742
Si Si4 0.822522 0.491145 0.609481
Si Si5 0.176043 0.012276 0.655625
Si Si6 0.822779 0.169894 0.166950
Si Si7 0.822402 0.842539 0.282313
Si Si8 0.678660 0.635768 0.745198
O O1 0.500000 0.669678 0.281535
O O2 0.711531 0.575727 0.356467
O O3 0.701257 0.594590 0.178008
O O4 0.767903 0.739665 0.281079
O O5 0.500000 0.124217 0.996053
O O6 0.703430 0.011489 0.045186
O O7 0.762768 0.175946 0.059509
O O8 0.723077 0.114418 0.883078
O O9 0.500000 0.470353 0.410837
O O10 0.248531 0.476355 0.508406
O O11 0.252972 0.403206 0.339051
O O12 0.744682 0.575310 0.661069
O O13 0.000000 0.506277 0.603510
O O14 0.244006 0.921534 0.703003
O O15 0.000000 0.016808 0.670069
O O16 0.251997 0.099559 0.698470
O O17 0.787131 0.259730 0.224191
O O18 0.000000 0.157359 0.165959
O O19 0.000000 0.846703 0.275805
O O20 0.500000 0.625206 0.749202
#
# Coordination Sequence:
#
# PCOD9343092 Si02
#       8
#     4   4   4   4   4   4   4   4
#     4   9  21  38  54  80 112 146 185 226 278 331
#     4   8  19  35  52  78 108 137 173 216 271 324
#     4  10  21  36  55  80 110 146 188 232 275 331
#     4  10  21  37  56  78 111 150 185 229 279 329
#     4   9  19  36  54  76 108 143 174 219 274 323
#     4   9  18  33  54  79 105 135 175 222 265 318
#     4  11  21  35  57  84 110 142 183 228 273 328
#     4  10  20  34  54  81 110 143 181 226 277 328
#
# _framework density 16.902287999999999
#
# number of rings (size 3 to 8) (size 9 to 14) (size 15 to 20)
#    0.750    1.750    0.000    2.625    1.750    6.000 
#    0.000    1.250    0.000    3.000    0.000    0.000 
#    0.000    0.000    0.000    0.000    0.000    0.000 
#
# Total GULP energy -178234.164965 kJ/mol
# GULP energy per Si atom -5569.817655 kJ/mol
# Density = 1.686382 g / cm^3
# Si number density = 16.902288 Si / 1000 Ang^3
#
#
#
# Elastic Constant Matrix: (Units=GPa)
#
#
# Indices 1 2 3 4 5 6 
#
# 1 55.0750 30.9779 33.5041 0.0000 0.0000 0.0000
# 2 30.9779 48.3064 15.3107 0.0000 0.0000 0.0000
# 3 33.5041 15.3107 84.1112 0.0000 0.0000 0.0000
# 4 0.0000 0.0000 0.0000 8.2551 0.0000 0.0000
# 5 0.0000 0.0000 0.0000 0.0000 -67.0918 0.0000
# 6 0.0000 0.0000 0.0000 0.0000 0.0000 32.1386
#
#
#
# Elastic Compliance Matrix: (Units=1/GPa)
#
#
# Indices 1 2 3 4 5 6 
#
# 1 0.035548 -0.019429 -0.010623 0.000000 0.000000 0.000000
# 2 -0.019429 0.032588 0.001807 0.000000 0.000000 0.000000
# 3 -0.010623 0.001807 0.015792 0.000000 0.000000 0.000000
# 4 0.000000 0.000000 0.000000 0.121137 0.000000 0.000000
# 5 0.000000 0.000000 0.000000 0.000000 -0.014905 0.000000
# 6 0.000000 0.000000 0.000000 0.000000 0.000000 0.031115
#
#
# Mechanical properties :
#
#
# Convention : Reuss Voigt Hill
#
# Bulk Modulus (GPa) = 36.44673 38.56424 37.50548
# Shear Modulus (GPa) = 17.42709 1.84038 9.63374
#
# Velocity S-wave (km/s) = 3.21448 1.04461 2.38999
# Velocity P-wave (km/s) = 5.94871 4.93158 5.46386
#
# Compressibility (1/GPa) = 0.02743731
#
# Stress axis : x y z
#
# Youngs Moduli (GPa) = 28.13134 30.68642 63.32505
#
# Poissons Ratio (x) = 0.59620 0.67270
# Poissons Ratio (y) = 0.54656 -0.11444
# Poissons Ratio (z) = 0.29884 -0.05546
#
# Static dielectric constant tensor:
#      x y z
#    x 1.560930 0.000000 0.000000 
#    y 0.000000 1.555690 0.000000 
#    z 0.000000 0.000000 1.573560 
# 
# From -- ./inp_files/5137.got.cif
#   From: 2010.05.17/outbox.cif.g08.bks.cpg/sg31_3_cif.got.tgz:5137.got - 2010.06.03 17:08:30.
