data_PCOD9343966
_publ_section_title
;
Structure prediction by ZEFSAII (Michael W. Deem and Ramdas Pophale) SiO2 
 PCOD9343966
Probable space group: P B A 2
;
_chemical_formula_sum "Si O2"
_cell_formula_units_Z 20
_cell_length_a 7.774502
_cell_length_b 18.075690
_cell_length_c 6.416158
_cell_angle_alpha 90.000000
_cell_angle_beta 90.000000
_cell_angle_gamma 90.000000
_cell_volume 901.659399
_symmetry_space_group_name_H-M "P B A 2"
_symmetry_group_IT_number 32
_symmetry_cell_setting 'orthorhombic'
loop_
_space_group_symop_operation_xyz
x,y,z
-x,-y,z
1/2-x,1/2+y,z
1/2+x,1/2-y,z
loop_
_atom_site_type_symbol
_atom_site_label
_atom_site_fract_x
_atom_site_fract_y
_atom_site_fract_z
Si Si1 0.813255 0.513782 0.919210
Si Si2 0.441178 0.245062 0.794348
Si Si3 0.432998 0.422487 0.270089
Si Si4 0.792438 0.855091 0.997287
Si Si5 0.323939 0.857647 0.597251
O O1 0.740295 0.432251 0.879827
O O2 0.847192 0.565985 0.722857
O O3 0.000000 0.500000 0.026111
O O4 0.671747 0.552946 0.063673
O O5 0.384043 0.191558 0.986358
O O6 0.583413 0.302043 0.870437
O O7 0.499499 0.189537 0.607662
O O8 0.294843 0.301207 0.724642
O O9 0.500000 0.500000 0.369604
O O10 0.290781 0.377986 0.398909
O O11 0.603233 0.376448 0.205923
#
# Coordination Sequence:
#
# PCOD9343966 Si02
#       5
#     4   4   4   4   4
#     4  11  22  43  67  92 132 177 222 270 329 401
#     4  10  22  40  66  93 130 172 215 271 354 387
#     4  10  24  40  66  98 127 174 232 274 330 398
#     4  10  21  41  64  94 126 175 216 274 333 402
#     4  11  23  42  64  94 130 172 220 275 330 401
#
# _framework density 22.181324
#
# number of rings (size 3 to 8) (size 9 to 14) (size 15 to 20)
#    0.000    1.600    4.000    0.000    2.800    2.400 
#    0.000    2.000    0.000    0.000    0.000    0.000 
#    0.000    0.000    0.000    0.000    0.000    0.000 
#
# Total GULP energy -111387.713094 kJ/mol
# GULP energy per Si atom -5569.385655 kJ/mol
# Density = 2.213084 g / cm^3
# Si number density = 22.181324 Si / 1000 Ang^3
#
#
#
# Elastic Constant Matrix: (Units=GPa)
#
#
# Indices 1 2 3 4 5 6 
#
# 1 69.2908 35.5475 3.0615 0.0000 0.0000 0.0000
# 2 35.5475 145.9001 30.1772 0.0000 0.0000 0.0000
# 3 3.0615 30.1772 10.9394 0.0000 0.0000 0.0000
# 4 0.0000 0.0000 0.0000 15.3230 0.0000 0.0000
# 5 0.0000 0.0000 0.0000 0.0000 19.6800 0.0000
# 6 0.0000 0.0000 0.0000 0.0000 0.0000 3.7232
#
#
#
# Elastic Compliance Matrix: (Units=1/GPa)
#
#
# Indices 1 2 3 4 5 6 
#
# 1 0.017633 -0.007628 0.016106 0.000000 0.000000 0.000000
# 2 -0.007628 0.019260 -0.050996 0.000000 0.000000 0.000000
# 3 0.016106 -0.050996 0.227582 0.000000 0.000000 0.000000
# 4 0.000000 0.000000 0.000000 0.065261 0.000000 0.000000
# 5 0.000000 0.000000 0.000000 0.000000 0.050813 0.000000
# 6 0.000000 0.000000 0.000000 0.000000 0.000000 0.268583
#
#
# Mechanical properties :
#
#
# Convention : Reuss Voigt Hill
#
# Bulk Modulus (GPa) = 5.57286 40.41142 22.99214
# Shear Modulus (GPa) = 6.29738 18.23485 12.26612
#
# Velocity S-wave (km/s) = 1.68678 2.87031 2.35413
# Velocity P-wave (km/s) = 2.51227 5.40769 4.21631
#
# Compressibility (1/GPa) = 0.17944103
#
# Stress axis : x y z
#
# Youngs Moduli (GPa) = 56.71054 51.92067 4.39403
#
# Poissons Ratio (x) = 0.39603 -0.07077
# Poissons Ratio (y) = 0.43257 0.22408
# Poissons Ratio (z) = -0.91341 2.64775
#
# Static dielectric constant tensor:
#      x y z
#    x 2.362520 0.000000 0.000000 
#    y 0.000000 1.819240 0.000000 
#    z 0.000000 0.000000 1.839470 
# 
# From -- ./inp_files/398.got.cif
#   From: 2010.05.17/outbox.cif.g08.bks.cpg/sg32_1_cif.got.tgz:398.got - 2010.06.03 17:12:27.
