data_PCOD9343724
_publ_section_title
;
Structure prediction by ZEFSAII (Michael W. Deem and Ramdas Pophale) SiO2 
 PCOD9343724
Probable space group: P B A 2
;
_chemical_formula_sum "Si O2"
_cell_formula_units_Z 32
_cell_length_a 5.381431
_cell_length_b 16.085473
_cell_length_c 16.789860
_cell_angle_alpha 90.000000
_cell_angle_beta 90.000000
_cell_angle_gamma 90.000000
_cell_volume 1453.378352
_symmetry_space_group_name_H-M "P B A 2"
_symmetry_group_IT_number 32
_symmetry_cell_setting 'orthorhombic'
loop_
_space_group_symop_operation_xyz
x,y,z
-x,-y,z
1/2-x,1/2+y,z
1/2+x,1/2-y,z
loop_
_atom_site_type_symbol
_atom_site_label
_atom_site_fract_x
_atom_site_fract_y
_atom_site_fract_z
Si Si1 0.313643 0.698672 0.320640
Si Si2 0.768673 0.293614 0.908531
Si Si3 0.249840 0.054301 0.802878
Si Si4 0.239121 0.777141 0.085764
Si Si5 0.771442 0.805973 0.667045
Si Si6 0.790513 0.302363 0.490445
Si Si7 0.249466 0.972863 0.044431
Si Si8 0.249954 0.542488 0.222045
O O1 0.596506 0.731578 0.318614
O O2 0.265557 0.653835 0.406482
O O3 0.260026 0.635533 0.250280
O O4 0.525062 0.245770 0.878208
O O5 0.753729 0.386920 0.880485
O O6 0.766423 0.277263 0.003688
O O7 0.243894 0.120872 0.730816
O O8 0.500000 0.000000 0.798689
O O9 0.000000 0.000000 0.800676
O O10 0.488233 0.749213 0.128346
O O11 0.244913 0.874912 0.064966
O O12 0.531516 0.744712 0.675447
O O13 0.754677 0.841848 0.576750
O O14 0.575567 0.230139 0.488985
O O15 0.500000 0.000000 0.002284
O O16 0.250052 0.026982 0.126600
O O17 0.000000 0.000000 0.001713
O O18 0.500000 0.500000 0.252303
O O19 0.000000 0.500000 0.251932
#
# Coordination Sequence:
#
# PCOD9343724 Si02
#       8
#     4   4   4   4   4   4   4   4
#     4  10  19  35  58  84 112 149 196 238 274 332
#     4  10  21  41  62  84 110 148 194 229 275 342
#     4  12  24  38  57  87 121 149 184 238 290 336
#     4  10  21  40  63  86 110 145 191 233 275 342
#     4  10  19  36  60  82 112 156 196 232 274 334
#     4   8  16  30  53  82 109 144 194 238 272 316
#     4  10  21  40  60  84 116 145 179 233 291 342
#     4  10  21  38  55  81 116 150 184 229 291 342
#
# _framework density 22.017666999999999
#
# number of rings (size 3 to 8) (size 9 to 14) (size 15 to 20)
#    0.000    2.000    0.000    3.750    0.000    0.000 
#    0.000   31.250    0.000    0.000    0.000    0.000 
#    0.000    0.000    0.000    0.000    0.000    0.000 
#
# Total GULP energy -178783.343136 kJ/mol
# GULP energy per Si atom -5586.979473 kJ/mol
# Density = 2.196755 g / cm^3
# Si number density = 22.017667 Si / 1000 Ang^3
#
#
#
# Elastic Constant Matrix: (Units=GPa)
#
#
# Indices 1 2 3 4 5 6 
#
# 1 218.6159 57.3763 5.3798 0.0000 0.0000 0.0000
# 2 57.3763 102.6388 59.5566 0.0000 0.0000 0.0000
# 3 5.3798 59.5566 107.7715 0.0000 0.0000 0.0000
# 4 0.0000 0.0000 0.0000 5.4510 0.0000 0.0000
# 5 0.0000 0.0000 0.0000 0.0000 43.5411 0.0000
# 6 0.0000 0.0000 0.0000 0.0000 0.0000 43.2761
#
#
#
# Elastic Compliance Matrix: (Units=1/GPa)
#
#
# Indices 1 2 3 4 5 6 
#
# 1 0.005685 -0.004436 0.002167 0.000000 0.000000 0.000000
# 2 -0.004436 0.017803 -0.009617 0.000000 0.000000 0.000000
# 3 0.002167 -0.009617 0.014485 0.000000 0.000000 0.000000
# 4 0.000000 0.000000 0.000000 0.183454 0.000000 0.000000
# 5 0.000000 0.000000 0.000000 0.000000 0.022967 0.000000
# 6 0.000000 0.000000 0.000000 0.000000 0.000000 0.023107
#
#
# Mechanical properties :
#
#
# Convention : Reuss Voigt Hill
#
# Bulk Modulus (GPa) = 70.40790 74.85018 72.62904
# Shear Modulus (GPa) = 16.89162 38.90120 27.89641
#
# Velocity S-wave (km/s) = 2.77282 4.20791 3.56336
# Velocity P-wave (km/s) = 6.50374 7.59460 7.07024
#
# Compressibility (1/GPa) = 0.01420295
#
# Stress axis : x y z
#
# Youngs Moduli (GPa) = 175.89985 56.17157 69.03681
#
# Poissons Ratio (x) = 0.24916 -0.14963
# Poissons Ratio (y) = 0.78024 0.66390
# Poissons Ratio (z) = -0.38126 0.54018
#
# Static dielectric constant tensor:
#      x y z
#    x 1.958540 0.000000 0.000000 
#    y 0.000000 1.766670 0.000000 
#    z 0.000000 0.000000 1.865250 
# 
# From -- ./inp_files/4232.got.cif
#   From: 2010.05.17/outbox.cif.g08.bks.cpg/sg32_3_cif.got.tgz:4232.got - 2010.06.03 17:12:27.
