data_PCOD9343490
_publ_section_title
;
Structure prediction by ZEFSAII (Michael W. Deem and Ramdas Pophale) SiO2 
 PCOD9343490
Probable space group: P M N 21
;
_chemical_formula_sum "Si O2"
_cell_formula_units_Z 20
_cell_length_a 10.183790
_cell_length_b 11.717160
_cell_length_c 7.472112
_cell_angle_alpha 90.000000
_cell_angle_beta 90.000000
_cell_angle_gamma 90.000000
_cell_volume 891.610488
_symmetry_space_group_name_H-M "P M N 21"
_symmetry_group_IT_number 31
_symmetry_cell_setting 'orthorhombic'
loop_
_space_group_symop_operation_xyz
x,y,z
1/2-x,-y,1/2+z
-x,y,z
1/2+x,-y,1/2+z
loop_
_atom_site_type_symbol
_atom_site_label
_atom_site_fract_x
_atom_site_fract_y
_atom_site_fract_z
Si Si1 0.358439 0.858073 0.809280
Si Si2 0.853166 0.580858 0.057857
Si Si3 0.149058 0.022701 0.925334
Si Si4 0.779968 0.648457 0.671776
Si Si5 0.349369 0.216337 0.822985
O O1 0.500000 0.872472 0.901291
O O2 0.360547 0.931434 0.626859
O O3 0.337101 0.728575 0.746469
O O4 0.231774 0.906157 0.912086
O O5 0.765573 0.469497 0.083889
O O6 0.810294 0.686928 0.180368
O O7 0.000000 0.551783 0.119612
O O8 0.856001 0.617334 0.851724
O O9 0.240564 0.117845 0.831139
O O10 0.000000 0.010992 0.854998
O O11 0.848245 0.723879 0.518890
O O12 0.500000 0.177634 0.784897
#
# Coordination Sequence:
#
# PCOD9343490 Si02
#       5
#     4   4   4   4   4
#     4  10  23  42  65  94 130 168 211 266 322 384
#     4  11  23  40  64  94 131 171 217 266 319 386
#     4  10  23  42  65  93 127 166 213 266 323 385
#     4  11  22  42  65  97 129 174 215 268 320 383
#     4  10  22  42  65  94 131 171 216 268 326 382
#
# _framework density 22.431319999999999
#
# number of rings (size 3 to 8) (size 9 to 14) (size 15 to 20)
#    0.000    1.600    2.000    1.800    2.800    5.600 
#    0.000    1.000    0.000    0.000    0.000    0.000 
#    0.000    0.000    0.000    0.000    0.000    0.000 
#
# Total GULP energy -111750.304791 kJ/mol
# GULP energy per Si atom -5587.515240 kJ/mol
# Density = 2.238026 g / cm^3
# Si number density = 22.431320 Si / 1000 Ang^3
#
#
#
# Elastic Constant Matrix: (Units=GPa)
#
#
# Indices 1 2 3 4 5 6 
#
# 1 142.3507 58.5527 10.1532 0.0000 0.0000 0.0000
# 2 58.5527 104.3165 26.7847 0.0000 0.0000 0.0000
# 3 10.1532 26.7847 77.9003 0.0000 0.0000 0.0000
# 4 0.0000 0.0000 0.0000 41.9785 0.0000 0.0000
# 5 0.0000 0.0000 0.0000 0.0000 17.7890 0.0000
# 6 0.0000 0.0000 0.0000 0.0000 0.0000 -67.8262
#
#
#
# Elastic Compliance Matrix: (Units=1/GPa)
#
#
# Indices 1 2 3 4 5 6 
#
# 1 0.009162 -0.005304 0.000630 0.000000 0.000000 0.000000
# 2 -0.005304 0.013585 -0.003980 0.000000 0.000000 0.000000
# 3 0.000630 -0.003980 0.014123 0.000000 0.000000 0.000000
# 4 0.000000 0.000000 0.000000 0.023822 0.000000 0.000000
# 5 0.000000 0.000000 0.000000 0.000000 0.056214 0.000000
# 6 0.000000 0.000000 0.000000 0.000000 0.000000 -0.014744
#
#
# Mechanical properties :
#
#
# Convention : Reuss Voigt Hill
#
# Bulk Modulus (GPa) = 51.12023 57.28320 54.20171
# Shear Modulus (GPa) = 39.68511 13.66006 26.67258
#
# Velocity S-wave (km/s) = 4.21073 2.47041 3.45204
# Velocity P-wave (km/s) = 6.81758 5.80774 6.33282
#
# Compressibility (1/GPa) = 0.01956173
#
# Stress axis : x y z
#
# Youngs Moduli (GPa) = 109.14971 73.60913 70.80537
#
# Poissons Ratio (x) = 0.39043 -0.04458
# Poissons Ratio (y) = 0.57894 0.28179
# Poissons Ratio (z) = -0.06872 0.29295
#
# Static dielectric constant tensor:
#      x y z
#    x 1.836450 0.000000 0.000000 
#    y 0.000000 1.834180 0.000000 
#    z 0.000000 0.000000 1.833490 
# 
# From -- ./inp_files/1588.got.cif
#   From: 2010.05.17/outbox.cif.g08.bks.cpg/sg31_1_cif.got.tgz:1588.got - 2010.06.03 17:08:30.
