data_PCOD9343612
_publ_section_title
;
Structure prediction by ZEFSAII (Michael W. Deem and Ramdas Pophale) SiO2 
 PCOD9343612
Probable space group: P M N 21
;
_chemical_formula_sum "Si O2"
_cell_formula_units_Z 24
_cell_length_a 9.000000
_cell_length_b 9.000000
_cell_length_c 15.000000
_cell_angle_alpha 90.000000
_cell_angle_beta 90.000000
_cell_angle_gamma 90.000000
_cell_volume 1215.000000
_symmetry_space_group_name_H-M "P M N 21"
_symmetry_group_IT_number 31
_symmetry_cell_setting 'orthorhombic'
loop_
_space_group_symop_operation_xyz
x,y,z
1/2-x,-y,1/2+z
-x,y,z
1/2+x,-y,1/2+z
loop_
_atom_site_type_symbol
_atom_site_label
_atom_site_fract_x
_atom_site_fract_y
_atom_site_fract_z
Si Si1 0.826872 0.771879 0.054990
Si Si2 0.833295 0.309947 0.204679
Si Si3 0.331091 0.894330 0.323634
Si Si4 0.164107 0.155778 0.395190
Si Si5 0.831156 0.950023 0.628010
Si Si6 0.177257 0.384314 0.719571
O O1 0.735714 0.676237 0.125340
O O2 0.000000 0.751418 0.068573
O O3 0.775934 0.940256 0.075138
O O4 0.776628 0.748502 0.953981
O O5 0.843808 0.217105 0.295651
O O6 0.739884 0.211408 0.136240
O O7 0.748085 0.457219 0.230276
O O8 0.000000 0.340302 0.172074
O O9 0.500000 0.892361 0.358951
O O10 0.278068 0.730862 0.297112
O O11 0.223111 0.988448 0.384971
O O12 0.337857 0.978525 0.227707
O O13 0.000000 0.164180 0.435315
O O14 0.000000 0.946341 0.595123
O O15 0.000000 0.387036 0.718771
#
# Coordination Sequence:
#
# PCOD9343612 Si02
#       6
#     4   4   4   4   4   4
#     4  11  21  34  54  78 105 136 176 222 264 309
#     4  10  20  34  54  80 108 139 176 215 258 312
#     4   8  16  31  51  74  98 129 169 209 251 303
#     4  10  20  34  53  77 105 136 173 217 265 314
#     4   9  17  32  53  75 101 133 170 209 253 306
#     4  10  20  35  55  78 107 141 176 214 261 316
#
# _framework density 19.753086
#
# number of rings (size 3 to 8) (size 9 to 14) (size 15 to 20)
#    0.000    2.333    0.000    4.500    0.000    6.667 
#    0.000    1.667    0.000    4.000    0.000    0.000 
#    0.000    0.000    0.000    0.000    0.000    0.000 
#
# Total GULP energy -133726.863976 kJ/mol
# GULP energy per Si atom -5571.952666 kJ/mol
# Density = 1.970813 g / cm^3
# Si number density = 19.753086 Si / 1000 Ang^3
#
#
#
# Elastic Constant Matrix: (Units=GPa)
#
#
# Indices 1 2 3 4 5 6 
#
# 1 37.7957 56.3886 -17.0727 0.0000 0.0000 0.0000
# 2 56.3886 52.9659 20.3749 0.0000 0.0000 0.0000
# 3 -17.0727 20.3749 -1.9761 0.0000 0.0000 0.0000
# 4 0.0000 0.0000 0.0000 -5.1480 0.0000 0.0000
# 5 0.0000 0.0000 0.0000 0.0000 29.3230 0.0000
# 6 0.0000 0.0000 0.0000 0.0000 0.0000 23.5977
#
#
#
# Elastic Compliance Matrix: (Units=1/GPa)
#
#
# Indices 1 2 3 4 5 6 
#
# 1 0.007641 0.003475 -0.030180 0.000000 0.000000 0.000000
# 2 0.003475 0.005382 0.025470 0.000000 0.000000 0.000000
# 3 -0.030180 0.025470 0.017312 0.000000 0.000000 0.000000
# 4 0.000000 0.000000 0.000000 -0.194249 0.000000 0.000000
# 5 0.000000 0.000000 0.000000 0.000000 0.034103 0.000000
# 6 0.000000 0.000000 0.000000 0.000000 0.000000 0.042377
#
#
# Mechanical properties :
#
#
# Convention : Reuss Voigt Hill
#
# Bulk Modulus (GPa) = 35.88489 23.12967 29.50728
# Shear Modulus (GPa) = -66.07085 11.49417 -27.28834
#
# Velocity S-wave (km/s) = -5.78973 2.41486 -3.72085
# Velocity P-wave (km/s) = 5.14670 4.41704 1.86792
#
# Compressibility (1/GPa) = 0.02786688
#
# Stress axis : x y z
#
# Youngs Moduli (GPa) = 130.87897 185.79354 57.76185
#
# Poissons Ratio (x) = -0.64567 1.74325
# Poissons Ratio (y) = -0.45483 -1.47122
# Poissons Ratio (z) = 3.94992 -4.73224
#
# Static dielectric constant tensor:
#      x y z
#    x 1.674310 0.000000 0.000000 
#    y 0.000000 1.764250 0.000000 
#    z 0.000000 0.000000 1.742230 
# 
# From -- ./inp_files/4737.got.cif
#   From: 2010.05.17/outbox.ucp.g08.bks.cvg/sg31_3_cif.got.tgz:4737.got - 2010.06.11 10:34:26.
