data_PCOD9343194
_publ_section_title
;
Structure prediction by ZEFSAII (Michael W. Deem and Ramdas Pophale) SiO2 
 PCOD9343194
Probable space group: P M N 21
;
_chemical_formula_sum "Si O2"
_cell_formula_units_Z 24
_cell_length_a 19.351792
_cell_length_b 8.363584
_cell_length_c 7.129230
_cell_angle_alpha 90.000000
_cell_angle_beta 90.000000
_cell_angle_gamma 90.000000
_cell_volume 1153.868285
_symmetry_space_group_name_H-M "P M N 21"
_symmetry_group_IT_number 31
_symmetry_cell_setting 'orthorhombic'
loop_
_space_group_symop_operation_xyz
x,y,z
1/2-x,-y,1/2+z
-x,y,z
1/2+x,-y,1/2+z
loop_
_atom_site_type_symbol
_atom_site_label
_atom_site_fract_x
_atom_site_fract_y
_atom_site_fract_z
Si Si1 0.296840 0.338908 0.069300
Si Si2 0.234334 0.081555 0.345699
Si Si3 0.633769 0.990362 0.548204
Si Si4 0.279644 0.689586 0.192742
Si Si5 0.921400 0.332206 0.908495
Si Si6 0.079571 0.688422 0.858154
O O1 0.253064 0.215606 0.193366
O O2 0.269268 0.518103 0.094796
O O3 0.371274 0.323050 0.173187
O O4 0.278572 0.302532 0.854280
O O5 0.302765 0.981096 0.396691
O O6 0.276662 0.826866 0.039040
O O7 0.167143 0.002200 0.255074
O O8 0.598250 0.155747 0.482547
O O9 0.590365 0.825675 0.536241
O O10 0.357928 0.682285 0.266830
O O11 0.913503 0.519023 0.971340
O O12 0.000000 0.321096 0.834610
O O13 0.000000 0.702469 0.800465
#
# Coordination Sequence:
#
# PCOD9343194 Si02
#       6
#     4   4   4   4   4   4
#     4  10  20  36  67 100 133 180 219 282 336 400
#     4  11  23  37  62 102 133 174 231 281 333 399
#     4  11  22  39  62  97 134 174 222 281 332 395
#     4  11  20  39  65 101 139 174 230 277 338 403
#     4  10  21  40  66  94 134 179 216 271 336 401
#     4   9  21  41  68 100 136 179 222 276 342 408
#
# _framework density 20.799600999999999
#
# number of rings (size 3 to 8) (size 9 to 14) (size 15 to 20)
#    0.000    1.667    3.333    1.500    0.000    0.000 
#    0.000    1.667    0.000    6.000    0.000    0.000 
#    0.000    0.000    0.000    0.000    0.000    0.000 
#
# Total GULP energy -133658.015542 kJ/mol
# GULP energy per Si atom -5569.083981 kJ/mol
# Density = 2.075226 g / cm^3
# Si number density = 20.799601 Si / 1000 Ang^3
#
#
#
# Elastic Constant Matrix: (Units=GPa)
#
#
# Indices 1 2 3 4 5 6 
#
# 1 111.0650 66.7728 39.5598 0.0000 0.0000 0.0000
# 2 66.7728 148.4392 52.5762 0.0000 0.0000 0.0000
# 3 39.5598 52.5762 106.3392 0.0000 0.0000 0.0000
# 4 0.0000 0.0000 0.0000 36.2173 0.0000 0.0000
# 5 0.0000 0.0000 0.0000 0.0000 15.8829 0.0000
# 6 0.0000 0.0000 0.0000 0.0000 0.0000 34.8506
#
#
#
# Elastic Compliance Matrix: (Units=1/GPa)
#
#
# Indices 1 2 3 4 5 6 
#
# 1 0.012797 -0.004934 -0.002321 0.000000 0.000000 0.000000
# 2 -0.004934 0.010070 -0.003143 0.000000 0.000000 0.000000
# 3 -0.002321 -0.003143 0.011821 0.000000 0.000000 0.000000
# 4 0.000000 0.000000 0.000000 0.027611 0.000000 0.000000
# 5 0.000000 0.000000 0.000000 0.000000 0.062961 0.000000
# 6 0.000000 0.000000 0.000000 0.000000 0.000000 0.028694
#
#
# Mechanical properties :
#
#
# Convention : Reuss Voigt Hill
#
# Bulk Modulus (GPa) = 71.98823 75.96232 73.97528
# Shear Modulus (GPa) = 27.87363 31.18579 29.52971
#
# Velocity S-wave (km/s) = 3.66471 3.87634 3.77201
# Velocity P-wave (km/s) = 7.25206 7.52562 7.39011
#
# Compressibility (1/GPa) = 0.01389116
#
# Stress axis : x y z
#
# Youngs Moduli (GPa) = 78.14291 99.30826 84.59334
#
# Poissons Ratio (x) = 0.49003 0.19634
# Poissons Ratio (y) = 0.38559 0.26587
# Poissons Ratio (z) = 0.18137 0.31212
#
# Static dielectric constant tensor:
#      x y z
#    x 1.746410 0.000000 0.000000 
#    y 0.000000 1.884400 0.000000 
#    z 0.000000 0.000000 1.745620 
# 
# From -- ./inp_files/2791.got.cif
#   From: 2010.05.17/outbox.cif.g08.bks.cpg/sg31_2_cif.got.tgz:2791.got - 2010.06.03 17:08:30.
