data_PCOD9343921
_publ_section_title
;
Structure prediction by ZEFSAII (Michael W. Deem and Ramdas Pophale) SiO2 
 PCOD9343921
Probable space group: P B A 2
;
_chemical_formula_sum "Si O2"
_cell_formula_units_Z 32
_cell_length_a 29.327563
_cell_length_b 8.739704
_cell_length_c 5.942610
_cell_angle_alpha 90.000000
_cell_angle_beta 90.000000
_cell_angle_gamma 90.000000
_cell_volume 1523.175445
_symmetry_space_group_name_H-M "P B A 2"
_symmetry_group_IT_number 32
_symmetry_cell_setting 'orthorhombic'
loop_
_space_group_symop_operation_xyz
x,y,z
-x,-y,z
1/2-x,1/2+y,z
1/2+x,1/2-y,z
loop_
_atom_site_type_symbol
_atom_site_label
_atom_site_fract_x
_atom_site_fract_y
_atom_site_fract_z
Si Si1 0.753249 0.333928 0.439090
Si Si2 0.889677 0.189872 0.723875
Si Si3 0.126958 0.494605 0.951540
Si Si4 0.981948 0.164241 0.988683
Si Si5 0.294965 0.428299 0.737325
Si Si6 0.038311 0.389986 0.726567
Si Si7 0.065399 0.626368 0.337698
Si Si8 0.779558 0.600211 0.114997
O O1 0.726263 0.419318 0.634241
O O2 0.783718 0.205119 0.556193
O O3 0.779276 0.457284 0.286936
O O4 0.719613 0.249557 0.267755
O O5 0.868255 0.349793 0.810703
O O6 0.931954 0.148488 0.881317
O O7 0.849307 0.068997 0.746949
O O8 0.911337 0.239612 0.486494
O O9 0.087401 0.393275 0.841691
O O10 0.104421 0.551518 0.183770
O O11 0.175469 0.415402 0.967520
O O12 0.014650 0.228900 0.786737
O O13 0.973361 0.287393 0.189694
O O14 0.000000 0.000000 0.067557
O O15 0.266547 0.396993 0.965430
O O16 0.047592 0.487600 0.497182
O O17 0.000000 0.500000 0.838162
#
# Coordination Sequence:
#
# PCOD9343921 Si02
#       8
#     4   4   4   4   4   4   4   4
#     4  10  23  38  63  94 128 164 224 251 335 394
#     4  10  21  39  66  91 124 172 213 253 330 391
#     4  10  21  37  66  94 119 167 222 261 311 390
#     4  11  25  44  63 100 134 167 217 277 339 387
#     4  11  22  42  65  91 131 171 209 275 320 392
#     4  11  21  41  67  94 124 170 224 263 320 396
#     4  10  21  40  68  92 127 172 220 263 323 397
#     4  11  22  42  63  93 132 168 210 277 323 382
#
# _framework density 21.008742999999999
#
# number of rings (size 3 to 8) (size 9 to 14) (size 15 to 20)
#    0.000    1.500    3.750    3.000    1.750    6.500 
#    9.000    0.000    0.000    0.000    0.000    0.000 
#    0.000    0.000    0.000    0.000    0.000    0.000 
#
# Total GULP energy -178445.304991 kJ/mol
# GULP energy per Si atom -5576.415781 kJ/mol
# Density = 2.096093 g / cm^3
# Si number density = 21.008743 Si / 1000 Ang^3
#
#
#
# Elastic Constant Matrix: (Units=GPa)
#
#
# Indices 1 2 3 4 5 6 
#
# 1 68.1092 14.5498 11.7983 0.0000 0.0000 0.0000
# 2 14.5498 45.7088 18.3580 0.0000 0.0000 0.0000
# 3 11.7983 18.3580 68.2701 0.0000 0.0000 0.0000
# 4 0.0000 0.0000 0.0000 12.4315 0.0000 0.0000
# 5 0.0000 0.0000 0.0000 0.0000 16.9291 0.0000
# 6 0.0000 0.0000 0.0000 0.0000 0.0000 18.4365
#
#
#
# Elastic Compliance Matrix: (Units=1/GPa)
#
#
# Indices 1 2 3 4 5 6 
#
# 1 0.015899 -0.004437 -0.001555 0.000000 0.000000 0.000000
# 2 -0.004437 0.025764 -0.006161 0.000000 0.000000 0.000000
# 3 -0.001555 -0.006161 0.016573 0.000000 0.000000 0.000000
# 4 0.000000 0.000000 0.000000 0.080441 0.000000 0.000000
# 5 0.000000 0.000000 0.000000 0.000000 0.059070 0.000000
# 6 0.000000 0.000000 0.000000 0.000000 0.000000 0.054240
#
#
# Mechanical properties :
#
#
# Convention : Reuss Voigt Hill
#
# Bulk Modulus (GPa) = 29.47100 30.16669 29.81884
# Shear Modulus (GPa) = 17.38502 18.71823 18.05162
#
# Velocity S-wave (km/s) = 2.87977 2.98816 2.93447
# Velocity P-wave (km/s) = 5.01158 5.12794 5.07009
#
# Compressibility (1/GPa) = 0.03393167
#
# Stress axis : x y z
#
# Youngs Moduli (GPa) = 62.89555 38.81315 60.33841
#
# Poissons Ratio (x) = 0.17220 0.09381
# Poissons Ratio (y) = 0.27904 0.37177
# Poissons Ratio (z) = 0.09778 0.23914
#
# Static dielectric constant tensor:
#      x y z
#    x 1.761570 0.000000 0.000000 
#    y 0.000000 1.792240 0.000000 
#    z 0.000000 0.000000 1.814780 
# 
# From -- ./inp_files/1820.got.cif
#   From: 2010.05.17/outbox.cif.g08.bks.cpg/sg32_1_cif.got.tgz:1820.got - 2010.06.03 17:12:27.
