data_PCOD9343280
_publ_section_title
;
Structure prediction by ZEFSAII (Michael W. Deem and Ramdas Pophale) SiO2 
 PCOD9343280
Probable space group: P M N 21
;
_chemical_formula_sum "Si O2"
_cell_formula_units_Z 24
_cell_length_a 15.036681
_cell_length_b 9.430177
_cell_length_c 8.437313
_cell_angle_alpha 90.000000
_cell_angle_beta 90.000000
_cell_angle_gamma 90.000000
_cell_volume 1196.398862
_symmetry_space_group_name_H-M "P M N 21"
_symmetry_group_IT_number 31
_symmetry_cell_setting 'orthorhombic'
loop_
_space_group_symop_operation_xyz
x,y,z
1/2-x,-y,1/2+z
-x,y,z
1/2+x,-y,1/2+z
loop_
_atom_site_type_symbol
_atom_site_label
_atom_site_fract_x
_atom_site_fract_y
_atom_site_fract_z
Si Si1 0.697685 0.337616 0.517720
Si Si2 0.333576 0.898335 0.462679
Si Si3 0.000000 0.117612 0.522975
Si Si4 0.180338 0.396416 0.800062
Si Si5 0.187504 0.098498 0.341304
Si Si6 0.500000 0.591877 0.222176
Si Si7 0.000000 0.932162 0.818053
Si Si8 0.000000 0.644416 0.961717
O O1 0.742792 0.347168 0.686187
O O2 0.708037 0.483236 0.421019
O O3 0.747343 0.219132 0.413369
O O4 0.592385 0.321678 0.544875
O O5 0.353509 0.742351 0.393513
O O6 0.323877 0.894910 0.652197
O O7 0.413500 0.000731 0.404651
O O8 0.240892 0.956487 0.390323
O O9 0.090585 0.115739 0.421331
O O10 0.000000 0.251977 0.643452
O O11 0.000000 0.983646 0.638513
O O12 0.100836 0.454687 0.685908
O O13 0.500000 0.518207 0.400163
O O14 0.000000 0.762073 0.822478
#
# Coordination Sequence:
#
# PCOD9343280 Si02
#       8
#     4   4   2   4   4   2   2   2
#     4  11  22  42  65  94 128 171 216 269 319 386
#     4  12  24  41  64  96 130 173 216 266 323 384
#     4  12  23  44  66  95 127 169 219 268 321 393
#     4  11  22  42  67  94 128 170 216 264 326 382
#     4  12  25  41  64  95 130 170 221 268 320 383
#     4  10  20  40  67  90 125 167 206 264 319 384
#     4  12  21  41  67  92 132 170 207 267 329 380
#     4  10  24  37  66  95 130 166 210 261 335 369
#
# _framework density 20.060199999999998
#
# number of rings (size 3 to 8) (size 9 to 14) (size 15 to 20)
#    0.000    0.667    5.000    3.500    0.000    0.000 
#    0.000    3.333    0.000    0.000    0.000    0.000 
#    0.000    0.000    0.000    0.000    0.000    0.000 
#
# Total GULP energy -133743.212949 kJ/mol
# GULP energy per Si atom -5572.633873 kJ/mol
# Density = 2.001454 g / cm^3
# Si number density = 20.060200 Si / 1000 Ang^3
#
#
#
# Elastic Constant Matrix: (Units=GPa)
#
#
# Indices 1 2 3 4 5 6 
#
# 1 171.4660 20.7473 58.9556 0.0000 0.0000 0.0000
# 2 20.7473 95.9459 27.1442 0.0000 0.0000 0.0000
# 3 58.9556 27.1442 108.9369 0.0000 0.0000 0.0000
# 4 0.0000 0.0000 0.0000 15.5251 0.0000 0.0000
# 5 0.0000 0.0000 0.0000 0.0000 25.1428 0.0000
# 6 0.0000 0.0000 0.0000 0.0000 0.0000 20.7248
#
#
#
# Elastic Compliance Matrix: (Units=1/GPa)
#
#
# Indices 1 2 3 4 5 6 
#
# 1 0.007187 -0.000488 -0.003768 0.000000 0.000000 0.000000
# 2 -0.000488 0.011246 -0.002538 0.000000 0.000000 0.000000
# 3 -0.003768 -0.002538 0.011851 0.000000 0.000000 0.000000
# 4 0.000000 0.000000 0.000000 0.064412 0.000000 0.000000
# 5 0.000000 0.000000 0.000000 0.000000 0.039773 0.000000
# 6 0.000000 0.000000 0.000000 0.000000 0.000000 0.048251
#
#
# Mechanical properties :
#
#
# Convention : Reuss Voigt Hill
#
# Bulk Modulus (GPa) = 59.89438 65.56034 62.72736
# Shear Modulus (GPa) = 24.76809 30.24534 27.50671
#
# Velocity S-wave (km/s) = 3.51762 3.88716 3.70700
# Velocity P-wave (km/s) = 6.81325 7.27320 7.04698
#
# Compressibility (1/GPa) = 0.01669606
#
# Stress axis : x y z
#
# Youngs Moduli (GPa) = 139.14839 88.91939 84.38046
#
# Poissons Ratio (x) = 0.04340 0.31792
# Poissons Ratio (y) = 0.06792 0.21416
# Poissons Ratio (z) = 0.52427 0.22569
#
# Static dielectric constant tensor:
#      x y z
#    x 1.759750 0.000000 0.000000 
#    y 0.000000 1.761070 0.000000 
#    z 0.000000 0.000000 1.673680 
# 
# From -- ./inp_files/2493.got.cif
#   From: 2010.05.17/outbox.cif.g08.bks.cpg/sg31_2_cif.got.tgz:2493.got - 2010.06.03 17:08:30.
