data_PCOD9343602
_publ_section_title
;
Structure prediction by ZEFSAII (Michael W. Deem and Ramdas Pophale) SiO2 
 PCOD9343602
Probable space group: P M N 21
;
_chemical_formula_sum "Si O2"
_cell_formula_units_Z 32
_cell_length_a 9.000000
_cell_length_b 15.000000
_cell_length_c 12.000000
_cell_angle_alpha 90.000000
_cell_angle_beta 90.000000
_cell_angle_gamma 90.000000
_cell_volume 1620.000000
_symmetry_space_group_name_H-M "P M N 21"
_symmetry_group_IT_number 31
_symmetry_cell_setting 'orthorhombic'
loop_
_space_group_symop_operation_xyz
x,y,z
1/2-x,-y,1/2+z
-x,y,z
1/2+x,-y,1/2+z
loop_
_atom_site_type_symbol
_atom_site_label
_atom_site_fract_x
_atom_site_fract_y
_atom_site_fract_z
Si Si1 0.171857 0.652356 0.715380
Si Si2 0.177108 0.047117 0.162106
Si Si3 0.180891 0.723084 0.049384
Si Si4 0.824927 0.360316 0.999580
Si Si5 0.177788 0.831105 0.475361
Si Si6 0.180293 0.858077 0.227352
Si Si7 0.677251 0.812671 0.837926
Si Si8 0.171772 0.546052 0.944217
O O1 0.283528 0.612900 0.625595
O O2 0.240049 0.746623 0.752106
O O3 0.171900 0.592937 0.825301
O O4 0.000000 0.660612 0.677332
O O5 0.198991 0.089946 0.285117
O O6 0.000000 0.050312 0.141143
O O7 0.230307 0.945582 0.161479
O O8 0.256243 0.107364 0.071183
O O9 0.249056 0.787798 0.955113
O O10 0.235045 0.622255 0.026170
O O11 0.000000 0.723134 0.036879
O O12 0.222332 0.766627 0.166629
O O13 0.736193 0.269675 0.982695
O O14 0.767236 0.446673 0.933692
O O15 0.000000 0.343569 0.983167
O O16 0.228161 0.864203 0.354173
O O17 0.000000 0.832374 0.481517
O O18 0.000000 0.860493 0.227070
O O19 0.500000 0.794849 0.841112
O O20 0.000000 0.532260 0.979539
#
# Coordination Sequence:
#
# PCOD9343602 Si02
#       8
#     4   4   4   4   4   4   4   4
#     4  10  19  35  56  80 109 145 194 240 283 339
#     4  10  21  38  58  82 115 150 186 235 294 343
#     4   9  18  37  60  81 112 152 197 238 285 343
#     4  11  21  36  57  83 117 153 190 239 297 345
#     4  11  23  39  60  87 117 151 196 241 288 348
#     4   9  21  39  59  84 117 156 192 239 292 344
#     4  10  19  32  55  82 111 144 185 238 291 337
#     4   8  18  34  55  81 110 149 192 236 284 339
#
# _framework density 19.753086
#
# number of rings (size 3 to 8) (size 9 to 14) (size 15 to 20)
#    0.000    2.250    1.250    2.250    1.750    1.500 
#    0.000   10.000    0.000    0.000    0.000    0.000 
#    0.000    0.000    0.000    0.000    0.000    0.000 
#
# Total GULP energy -178266.220639 kJ/mol
# GULP energy per Si atom -5570.819395 kJ/mol
# Density = 1.970813 g / cm^3
# Si number density = 19.753086 Si / 1000 Ang^3
#
#
#
# Elastic Constant Matrix: (Units=GPa)
#
#
# Indices 1 2 3 4 5 6 
#
# 1 33.5717 15.3212 5.4106 0.0000 0.0000 0.0000
# 2 15.3212 107.2675 29.2585 0.0000 0.0000 0.0000
# 3 5.4106 29.2585 53.8695 0.0000 0.0000 0.0000
# 4 0.0000 0.0000 0.0000 11.8224 0.0000 0.0000
# 5 0.0000 0.0000 0.0000 0.0000 20.3383 0.0000
# 6 0.0000 0.0000 0.0000 0.0000 0.0000 2.2521
#
#
#
# Elastic Compliance Matrix: (Units=1/GPa)
#
#
# Indices 1 2 3 4 5 6 
#
# 1 0.031898 -0.004322 -0.000856 0.000000 0.000000 0.000000
# 2 -0.004322 0.011530 -0.005828 0.000000 0.000000 0.000000
# 3 -0.000856 -0.005828 0.021815 0.000000 0.000000 0.000000
# 4 0.000000 0.000000 0.000000 0.084585 0.000000 0.000000
# 5 0.000000 0.000000 0.000000 0.000000 0.049168 0.000000
# 6 0.000000 0.000000 0.000000 0.000000 0.000000 0.444031
#
#
# Mechanical properties :
#
#
# Convention : Reuss Voigt Hill
#
# Bulk Modulus (GPa) = 23.13271 32.74327 27.93799
# Shear Modulus (GPa) = 7.35891 16.53045 11.94468
#
# Velocity S-wave (km/s) = 1.93224 2.89598 2.46173
# Velocity P-wave (km/s) = 4.08833 5.27205 4.71746
#
# Compressibility (1/GPa) = 0.04322883
#
# Stress axis : x y z
#
# Youngs Moduli (GPa) = 31.35030 86.73384 45.84050
#
# Poissons Ratio (x) = 0.37491 0.03924
# Poissons Ratio (y) = 0.13551 0.26716
# Poissons Ratio (z) = 0.02684 0.50548
#
# Static dielectric constant tensor:
#      x y z
#    x 1.665990 0.000000 0.000000 
#    y 0.000000 1.737020 0.000000 
#    z 0.000000 0.000000 1.744660 
# 
# From -- ./inp_files/3707.got.cif
#   From: 2010.05.17/outbox.ucp.g08.bks.cvg/sg31_2_cif.got.tgz:3707.got - 2010.06.11 10:34:26.
