data_PCOD9343962
_publ_section_title
;
Structure prediction by ZEFSAII (Michael W. Deem and Ramdas Pophale) SiO2 
 PCOD9343962
Probable space group: P B A 2
;
_chemical_formula_sum "Si O2"
_cell_formula_units_Z 14
_cell_length_a 5.360283
_cell_length_b 15.110494
_cell_length_c 7.138763
_cell_angle_alpha 90.000000
_cell_angle_beta 90.000000
_cell_angle_gamma 90.000000
_cell_volume 578.214989
_symmetry_space_group_name_H-M "P B A 2"
_symmetry_group_IT_number 32
_symmetry_cell_setting 'orthorhombic'
loop_
_space_group_symop_operation_xyz
x,y,z
-x,-y,z
1/2-x,1/2+y,z
1/2+x,1/2-y,z
loop_
_atom_site_type_symbol
_atom_site_label
_atom_site_fract_x
_atom_site_fract_y
_atom_site_fract_z
Si Si1 0.573688 0.198156 0.106290
Si Si2 0.500000 0.000000 0.254932
Si Si3 0.750878 0.526206 0.611832
Si Si4 0.423814 0.786132 0.655807
O O1 0.330655 0.254354 0.171963
O O2 0.550853 0.093367 0.153458
O O3 0.578846 0.206841 0.880702
O O4 0.278485 0.017581 0.407388
O O5 0.500000 0.500000 0.710901
O O6 0.779927 0.629059 0.579425
O O7 0.000000 0.500000 0.722026
O O8 0.715806 0.787296 0.604026
#
# Coordination Sequence:
#
# PCOD9343962 Si02
#       4
#     4   2   4   4
#     4  10  24  42  64  93 125 165 215 257 312 372
#     4  10  26  40  66  90 136 166 206 254 326 368
#     4  10  23  39  57  94 120 161 209 243 318 371
#     4  10  21  41  63  89 120 162 211 263 303 362
#
# _framework density 24.212447000000001
#
# number of rings (size 3 to 8) (size 9 to 14) (size 15 to 20)
#    0.857    1.143    0.000    1.714    6.000    2.286 
#    0.000    0.000    0.000    0.000    0.000    0.000 
#    0.000    0.000    0.000    0.000    0.000    0.000 
#
# Total GULP energy -77971.174412 kJ/mol
# GULP energy per Si atom -5569.369601 kJ/mol
# Density = 2.415734 g / cm^3
# Si number density = 24.212447 Si / 1000 Ang^3
#
#
#
# Elastic Constant Matrix: (Units=GPa)
#
#
# Indices 1 2 3 4 5 6 
#
# 1 214.8302 68.3683 18.3445 0.0000 0.0000 0.0000
# 2 68.3683 146.0302 13.5874 0.0000 0.0000 0.0000
# 3 18.3445 13.5874 72.7307 0.0000 0.0000 0.0000
# 4 0.0000 0.0000 0.0000 27.7730 0.0000 0.0000
# 5 0.0000 0.0000 0.0000 0.0000 -23.6509 0.0000
# 6 0.0000 0.0000 0.0000 0.0000 0.0000 31.7769
#
#
#
# Elastic Compliance Matrix: (Units=1/GPa)
#
#
# Indices 1 2 3 4 5 6 
#
# 1 0.005531 -0.002503 -0.000927 0.000000 0.000000 0.000000
# 2 -0.002503 0.008102 -0.000882 0.000000 0.000000 0.000000
# 3 -0.000927 -0.000882 0.014148 0.000000 0.000000 0.000000
# 4 0.000000 0.000000 0.000000 0.036006 0.000000 0.000000
# 5 0.000000 0.000000 0.000000 0.000000 -0.042282 0.000000
# 6 0.000000 0.000000 0.000000 0.000000 0.000000 0.031469
#
#
# Mechanical properties :
#
#
# Convention : Reuss Voigt Hill
#
# Bulk Modulus (GPa) = 52.20491 70.46574 61.33533
# Shear Modulus (GPa) = 73.54577 29.39917 51.47247
#
# Velocity S-wave (km/s) = 5.51735 3.48834 4.61572
# Velocity P-wave (km/s) = 7.88646 6.73728 7.33441
#
# Compressibility (1/GPa) = 0.01915528
#
# Stress axis : x y z
#
# Youngs Moduli (GPa) = 180.81225 123.42856 70.68101
#
# Poissons Ratio (x) = 0.30895 0.06555
# Poissons Ratio (y) = 0.45258 0.06236
# Poissons Ratio (z) = 0.16768 0.10889
#
# Static dielectric constant tensor:
#      x y z
#    x 2.090980 0.000000 0.000000 
#    y 0.000000 2.090410 0.000000 
#    z 0.000000 0.000000 1.976000 
# 
# From -- ./inp_files/1867.got.cif
#   From: 2010.05.17/outbox.cif.g08.bks.cpg/sg32_1_cif.got.tgz:1867.got - 2010.06.03 17:12:27.
