data_PCOD9343098
_publ_section_title
;
Structure prediction by ZEFSAII (Michael W. Deem and Ramdas Pophale) SiO2 
 PCOD9343098
Probable space group: P M N 21
;
_chemical_formula_sum "Si O2"
_cell_formula_units_Z 32
_cell_length_a 9.025706
_cell_length_b 11.029454
_cell_length_c 14.355225
_cell_angle_alpha 90.000000
_cell_angle_beta 90.000000
_cell_angle_gamma 90.000000
_cell_volume 1429.042683
_symmetry_space_group_name_H-M "P M N 21"
_symmetry_group_IT_number 31
_symmetry_cell_setting 'orthorhombic'
loop_
_space_group_symop_operation_xyz
x,y,z
1/2-x,-y,1/2+z
-x,y,z
1/2+x,-y,1/2+z
loop_
_atom_site_type_symbol
_atom_site_label
_atom_site_fract_x
_atom_site_fract_y
_atom_site_fract_z
Si Si1 0.670104 0.207586 0.853110
Si Si2 0.175194 0.429792 0.758377
Si Si3 0.823347 0.948597 0.078012
Si Si4 0.821808 0.181921 0.194252
Si Si5 0.674630 0.932554 0.877901
Si Si6 0.325362 0.567383 0.919666
Si Si7 0.175667 0.678318 0.086003
Si Si8 0.668669 0.326390 0.045067
O O1 0.500000 0.245827 0.828523
O O2 0.782890 0.301976 0.808266
O O3 0.686847 0.066510 0.831369
O O4 0.683427 0.223751 0.964880
O O5 0.251231 0.532116 0.822192
O O6 0.245573 0.413389 0.656774
O O7 0.000000 0.446781 0.753653
O O8 0.796672 0.815475 0.120843
O O9 0.000000 0.962502 0.070816
O O10 0.768464 0.061924 0.138083
O O11 0.758345 0.941730 0.974688
O O12 0.772897 0.164655 0.301131
O O13 0.769145 0.294280 0.132490
O O14 0.000000 0.181066 0.196723
O O15 0.500000 0.912403 0.896523
O O16 0.500000 0.591610 0.908294
O O17 0.244795 0.666039 0.983231
O O18 0.307056 0.447196 0.984672
O O19 0.000000 0.656631 0.082884
O O20 0.500000 0.328504 0.078688
#
# Coordination Sequence:
#
# PCOD9343098 Si02
#       8
#     4   4   4   4   4   4   4   4
#     4   9  17  33  56  81 115 154 194 243 294 342
#     4  11  22  37  62  94 120 154 204 252 301 361
#     4  10  22  39  59  86 121 158 195 246 298 351
#     4  10  20  34  55  84 118 154 192 234 289 354
#     4  10  20  35  55  82 118 159 196 237 294 358
#     4  10  22  42  64  88 118 154 201 255 306 357
#     4  11  23  42  64  88 122 162 203 250 306 361
#     4   9  18  34  57  81 108 145 187 239 292 340
#
# _framework density 22.392612
#
# number of rings (size 3 to 8) (size 9 to 14) (size 15 to 20)
#    0.000    2.000    1.250    3.375    0.000    6.500 
#    2.250    1.250    0.000    0.000    0.000    0.000 
#    0.000    0.000    0.000    0.000    0.000    0.000 
#
# Total GULP energy -178885.984741 kJ/mol
# GULP energy per Si atom -5590.187023 kJ/mol
# Density = 2.234165 g / cm^3
# Si number density = 22.392612 Si / 1000 Ang^3
#
#
#
# Elastic Constant Matrix: (Units=GPa)
#
#
# Indices 1 2 3 4 5 6 
#
# 1 61.7290 22.7915 37.7647 0.0000 0.0000 0.0000
# 2 22.7915 57.2138 15.1569 0.0000 0.0000 0.0000
# 3 37.7647 15.1569 115.9216 0.0000 0.0000 0.0000
# 4 0.0000 0.0000 0.0000 40.3309 0.0000 0.0000
# 5 0.0000 0.0000 0.0000 0.0000 15.3685 0.0000
# 6 0.0000 0.0000 0.0000 0.0000 0.0000 26.4888
#
#
#
# Elastic Compliance Matrix: (Units=1/GPa)
#
#
# Indices 1 2 3 4 5 6 
#
# 1 0.022907 -0.007405 -0.006494 0.000000 0.000000 0.000000
# 2 -0.007405 0.020499 -0.000268 0.000000 0.000000 0.000000
# 3 -0.006494 -0.000268 0.010777 0.000000 0.000000 0.000000
# 4 0.000000 0.000000 0.000000 0.024795 0.000000 0.000000
# 5 0.000000 0.000000 0.000000 0.000000 0.065068 0.000000
# 6 0.000000 0.000000 0.000000 0.000000 0.000000 0.037752
#
#
# Mechanical properties :
#
#
# Convention : Reuss Voigt Hill
#
# Bulk Modulus (GPa) = 38.68604 42.92118 40.80361
# Shear Modulus (GPa) = 22.85731 27.04773 24.95252
#
# Velocity S-wave (km/s) = 3.19839 3.47924 3.34176
# Velocity P-wave (km/s) = 5.56357 5.94553 5.75772
#
# Compressibility (1/GPa) = 0.02584912
#
# Stress axis : x y z
#
# Youngs Moduli (GPa) = 43.65492 48.78290 92.78760
#
# Poissons Ratio (x) = 0.36122 0.60260
# Poissons Ratio (y) = 0.32325 0.02487
# Poissons Ratio (z) = 0.28351 0.01307
#
# Static dielectric constant tensor:
#      x y z
#    x 1.749060 0.000000 0.000000 
#    y 0.000000 1.935080 0.000000 
#    z 0.000000 0.000000 1.834650 
# 
# From -- ./inp_files/5002.got.cif
#   From: 2010.05.17/outbox.cif.g08.bks.cpg/sg31_3_cif.got.tgz:5002.got - 2010.06.03 17:08:30.
