data_PCOD9343685
_publ_section_title
;
Structure prediction by ZEFSAII (Michael W. Deem and Ramdas Pophale) SiO2 
 PCOD9343685
Probable space group: P B A 2
;
_chemical_formula_sum "Si O2"
_cell_formula_units_Z 30
_cell_length_a 21.384555
_cell_length_b 8.296275
_cell_length_c 7.869563
_cell_angle_alpha 90.000000
_cell_angle_beta 90.000000
_cell_angle_gamma 90.000000
_cell_volume 1396.156084
_symmetry_space_group_name_H-M "P B A 2"
_symmetry_group_IT_number 32
_symmetry_cell_setting 'orthorhombic'
loop_
_space_group_symop_operation_xyz
x,y,z
-x,-y,z
1/2-x,1/2+y,z
1/2+x,1/2-y,z
loop_
_atom_site_type_symbol
_atom_site_label
_atom_site_fract_x
_atom_site_fract_y
_atom_site_fract_z
Si Si1 0.066118 0.996985 0.227020
Si Si2 0.000000 0.500000 0.943645
Si Si3 0.314235 0.498807 0.426308
Si Si4 0.383022 0.165747 0.056366
Si Si5 0.956821 0.845097 0.867273
Si Si6 0.693041 0.686863 0.775587
Si Si7 0.685041 0.344847 0.898177
Si Si8 0.256629 0.217968 0.230081
O O1 0.118325 0.046458 0.358753
O O2 0.086128 0.825089 0.143091
O O3 0.000000 0.000000 0.319367
O O4 0.054925 0.114321 0.067177
O O5 0.010301 0.328647 0.847829
O O6 0.063443 0.531487 0.049954
O O7 0.319701 0.395353 0.595824
O O8 0.283063 0.390558 0.279212
O O9 0.269036 0.650027 0.408236
O O10 0.318421 0.129670 0.154623
O O11 0.359672 0.201885 0.862737
O O12 0.883739 0.825614 0.815940
O O13 0.000000 0.000000 0.809188
O O14 0.695049 0.536018 0.904210
O O15 0.759946 0.771241 0.784456
O O16 0.702514 0.281356 0.086651
#
# Coordination Sequence:
#
# PCOD9343685 Si02
#       8
#     4   2   4   4   4   4   4   4
#     4  10  18  40  60  87 124 163 218 270 315 388
#     4  12  22  34  66  98 118 166 214 288 318 382
#     4  11  22  38  60  90 131 168 204 267 345 395
#     4  10  21  36  60  90 121 161 219 275 320 388
#     4  11  21  38  62  97 129 161 225 283 323 381
#     4  11  23  38  59  95 131 167 210 273 344 400
#     4  11  21  39  63  92 126 165 219 275 322 395
#     4  10  21  36  59  89 120 162 212 267 318 392
#
# _framework density 21.487569000000001
#
# number of rings (size 3 to 8) (size 9 to 14) (size 15 to 20)
#    0.000    1.333    5.333    2.400    5.600    0.000 
#    0.000    2.667    0.000    3.200    0.000    0.000 
#    0.000    0.000    0.000    0.000    0.000    0.000 
#
# Total GULP energy -167125.066127 kJ/mol
# GULP energy per Si atom -5570.835538 kJ/mol
# Density = 2.143866 g / cm^3
# Si number density = 21.487569 Si / 1000 Ang^3
#
#
#
# Elastic Constant Matrix: (Units=GPa)
#
#
# Indices 1 2 3 4 5 6 
#
# 1 171.2931 34.8412 19.6598 0.0000 0.0000 0.0000
# 2 34.8412 71.8667 -1.7497 0.0000 0.0000 0.0000
# 3 19.6598 -1.7497 83.2631 0.0000 0.0000 0.0000
# 4 0.0000 0.0000 0.0000 19.7531 0.0000 0.0000
# 5 0.0000 0.0000 0.0000 0.0000 7.5990 0.0000
# 6 0.0000 0.0000 0.0000 0.0000 0.0000 42.1935
#
#
#
# Elastic Compliance Matrix: (Units=1/GPa)
#
#
# Indices 1 2 3 4 5 6 
#
# 1 0.006696 -0.003286 -0.001650 0.000000 0.000000 0.000000
# 2 -0.003286 0.015535 0.001102 0.000000 0.000000 0.000000
# 3 -0.001650 0.001102 0.012423 0.000000 0.000000 0.000000
# 4 0.000000 0.000000 0.000000 0.050625 0.000000 0.000000
# 5 0.000000 0.000000 0.000000 0.000000 0.131597 0.000000
# 6 0.000000 0.000000 0.000000 0.000000 0.000000 0.023700
#
#
# Mechanical properties :
#
#
# Convention : Reuss Voigt Hill
#
# Bulk Modulus (GPa) = 37.05696 47.99171 42.52433
# Shear Modulus (GPa) = 19.43723 32.15389 25.79556
#
# Velocity S-wave (km/s) = 3.01089 3.87252 3.46856
# Velocity P-wave (km/s) = 5.41945 6.50987 5.98953
#
# Compressibility (1/GPa) = 0.02698549
#
# Stress axis : x y z
#
# Youngs Moduli (GPa) = 149.34822 64.37201 80.49656
#
# Poissons Ratio (x) = 0.21155 0.13282
# Poissons Ratio (y) = 0.49080 -0.08874
# Poissons Ratio (z) = 0.24643 -0.07096
#
# Static dielectric constant tensor:
#      x y z
#    x 1.900650 0.000000 0.000000 
#    y 0.000000 1.847400 0.000000 
#    z 0.000000 0.000000 1.802770 
# 
# From -- ./inp_files/3320.got.cif
#   From: 2010.05.17/outbox.cif.g08.bks.cpg/sg32_2_cif.got.tgz:3320.got - 2010.06.03 17:12:27.
