data_PCOD9343159
_publ_section_title
;
Structure prediction by ZEFSAII (Michael W. Deem and Ramdas Pophale) SiO2 
 PCOD9343159
Probable space group: P M N 21
;
_chemical_formula_sum "Si O2"
_cell_formula_units_Z 32
_cell_length_a 19.393702
_cell_length_b 9.814813
_cell_length_c 7.485354
_cell_angle_alpha 90.000000
_cell_angle_beta 90.000000
_cell_angle_gamma 90.000000
_cell_volume 1424.803888
_symmetry_space_group_name_H-M "P M N 21"
_symmetry_group_IT_number 31
_symmetry_cell_setting 'orthorhombic'
loop_
_space_group_symop_operation_xyz
x,y,z
1/2-x,-y,1/2+z
-x,y,z
1/2+x,-y,1/2+z
loop_
_atom_site_type_symbol
_atom_site_label
_atom_site_fract_x
_atom_site_fract_y
_atom_site_fract_z
Si Si1 0.123938 0.660520 0.609740
Si Si2 0.420965 0.972012 0.807994
Si Si3 0.212996 0.865153 0.811783
Si Si4 0.075831 0.732003 0.230640
Si Si5 0.854784 0.385169 0.757518
Si Si6 0.157655 0.268527 0.149300
Si Si7 0.303894 0.446677 0.784143
Si Si8 0.178777 0.112690 0.603480
O O1 0.150200 0.766628 0.757092
O O2 0.076127 0.717495 0.450029
O O3 0.102298 0.517632 0.699647
O O4 0.187764 0.617570 0.480268
O O5 0.500000 0.971965 0.869352
O O6 0.403007 0.832536 0.707485
O O7 0.365999 0.977662 0.967858
O O8 0.411759 0.109158 0.692353
O O9 0.274091 0.824823 0.671486
O O10 0.250244 0.850569 0.002053
O O11 0.193413 0.021455 0.775527
O O12 0.138760 0.636584 0.172134
O O13 0.000000 0.691443 0.165393
O O14 0.774320 0.425788 0.732512
O O15 0.863984 0.248292 0.643927
O O16 0.859199 0.336686 0.961202
O O17 0.173449 0.396635 0.278981
#
# Coordination Sequence:
#
# PCOD9343159 Si02
#       8
#     4   4   4   4   4   4   4   4
#     4  10  20  36  56  88 117 158 196 245 303 358
#     4  10  22  42  63  85 117 164 211 251 302 364
#     4  11  20  36  55  88 124 151 204 243 309 365
#     4   9  20  40  64  85 113 157 210 248 288 363
#     4  12  22  37  56  93 127 155 194 251 321 370
#     4  11  22  35  59  88 123 159 196 254 304 368
#     4  10  20  36  57  91 120 153 195 248 305 363
#     4  11  24  36  60  92 121 165 196 256 308 369
#
# _framework density 22.459233000000001
#
# number of rings (size 3 to 8) (size 9 to 14) (size 15 to 20)
#    0.750    0.750    3.750    2.250    5.250    0.500 
#    0.000    1.250    0.000    0.000    0.000    0.000 
#    0.000    0.000    0.000    0.000    0.000    0.000 
#
# Total GULP energy -178490.934995 kJ/mol
# GULP energy per Si atom -5577.841719 kJ/mol
# Density = 2.240811 g / cm^3
# Si number density = 22.459233 Si / 1000 Ang^3
#
#
#
# Elastic Constant Matrix: (Units=GPa)
#
#
# Indices 1 2 3 4 5 6 
#
# 1 51.8990 5.6599 -9.6763 0.0000 0.0000 0.0000
# 2 5.6599 113.4229 12.5659 0.0000 0.0000 0.0000
# 3 -9.6763 12.5659 23.0643 0.0000 0.0000 0.0000
# 4 0.0000 0.0000 0.0000 32.9948 0.0000 0.0000
# 5 0.0000 0.0000 0.0000 0.0000 8.5937 0.0000
# 6 0.0000 0.0000 0.0000 0.0000 0.0000 11.7600
#
#
#
# Elastic Compliance Matrix: (Units=1/GPa)
#
#
# Indices 1 2 3 4 5 6 
#
# 1 0.021405 -0.002196 0.010176 0.000000 0.000000 0.000000
# 2 -0.002196 0.009608 -0.006156 0.000000 0.000000 0.000000
# 3 0.010176 -0.006156 0.050980 0.000000 0.000000 0.000000
# 4 0.000000 0.000000 0.000000 0.030308 0.000000 0.000000
# 5 0.000000 0.000000 0.000000 0.000000 0.116364 0.000000
# 6 0.000000 0.000000 0.000000 0.000000 0.000000 0.085034
#
#
# Mechanical properties :
#
#
# Convention : Reuss Voigt Hill
#
# Bulk Modulus (GPa) = 11.67637 22.83169 17.25403
# Shear Modulus (GPa) = 14.76684 22.65883 18.71283
#
# Velocity S-wave (km/s) = 2.56695 3.17974 2.88964
# Velocity P-wave (km/s) = 3.74110 4.86507 4.33963
#
# Compressibility (1/GPa) = 0.08564305
#
# Stress axis : x y z
#
# Youngs Moduli (GPa) = 46.71818 104.07871 19.61550
#
# Poissons Ratio (x) = 0.22851 -0.19961
# Poissons Ratio (y) = 0.10257 0.12075
# Poissons Ratio (z) = -0.47542 0.64069
#
# Static dielectric constant tensor:
#      x y z
#    x 1.790760 0.000000 0.000000 
#    y 0.000000 1.859960 0.000000 
#    z 0.000000 0.000000 1.883020 
# 
# From -- ./inp_files/3089.got.cif
#   From: 2010.05.17/outbox.cif.g08.bks.cpg/sg31_2_cif.got.tgz:3089.got - 2010.06.03 17:08:30.
