data_PCOD9343006
_publ_section_title
;
Structure prediction by ZEFSAII (Michael W. Deem and Ramdas Pophale) SiO2 
 PCOD9343006
Probable space group: P M N 21
;
_chemical_formula_sum "Si O2"
_cell_formula_units_Z 24
_cell_length_a 8.076382
_cell_length_b 25.687778
_cell_length_c 4.920978
_cell_angle_alpha 90.000000
_cell_angle_beta 90.000000
_cell_angle_gamma 90.000000
_cell_volume 1020.927295
_symmetry_space_group_name_H-M "P M N 21"
_symmetry_group_IT_number 31
_symmetry_cell_setting 'orthorhombic'
loop_
_space_group_symop_operation_xyz
x,y,z
1/2-x,-y,1/2+z
-x,y,z
1/2+x,-y,1/2+z
loop_
_atom_site_type_symbol
_atom_site_label
_atom_site_fract_x
_atom_site_fract_y
_atom_site_fract_z
Si Si1 0.806426 0.135250 0.959150
Si Si2 0.800120 0.634210 0.734261
Si Si3 0.701441 0.302661 0.733826
Si Si4 0.806483 0.030477 0.250339
Si Si5 0.806268 0.803590 0.959616
Si Si6 0.686636 0.528111 0.460443
O O1 0.743881 0.082812 0.104317
O O2 0.714755 0.151667 0.685897
O O3 0.000000 0.128010 0.893161
O O4 0.784305 0.179887 0.185685
O O5 0.750677 0.681899 0.536569
O O6 0.730829 0.581569 0.610064
O O7 0.000000 0.629974 0.730935
O O8 0.748373 0.650137 0.035565
O O9 0.500000 0.299885 0.732392
O O10 0.758861 0.248591 0.605679
O O11 0.000000 0.037797 0.315585
O O12 0.784360 0.985680 0.024631
O O13 0.000000 0.796296 0.892058
O O14 0.795260 0.515005 0.197681
O O15 0.500000 0.528613 0.358885
#
# Coordination Sequence:
#
# PCOD9343006 Si02
#       6
#     4   4   4   4   4   4
#     4  11  24  41  59  87 125 160 191 242 309 359
#     4  10  19  36  60  85 116 156 195 240 296 349
#     4   9  19  35  58  86 117 152 195 242 291 344
#     4  11  24  41  62  87 119 156 199 246 299 357
#     4  11  22  39  64  92 118 156 207 248 282 348
#     4  12  25  42  63  91 123 158 201 248 297 355
#
# _framework density 23.508040999999999
#
# number of rings (size 3 to 8) (size 9 to 14) (size 15 to 20)
#    0.000    1.333    0.000    6.000    0.000   10.667 
#    0.000    5.000    0.000    0.000    0.000    0.000 
#    0.000    0.000    0.000    0.000    0.000    0.000 
#
# Total GULP energy -134373.487848 kJ/mol
# GULP energy per Si atom -5598.895327 kJ/mol
# Density = 2.345454 g / cm^3
# Si number density = 23.508041 Si / 1000 Ang^3
#
#
#
# Elastic Constant Matrix: (Units=GPa)
#
#
# Indices 1 2 3 4 5 6 
#
# 1 33.1052 -3.0310 -4.9972 0.0000 0.0000 0.0000
# 2 -3.0310 63.9705 -10.1464 0.0000 0.0000 0.0000
# 3 -4.9972 -10.1464 85.1998 0.0000 0.0000 0.0000
# 4 0.0000 0.0000 0.0000 35.8135 0.0000 0.0000
# 5 0.0000 0.0000 0.0000 0.0000 39.0347 0.0000
# 6 0.0000 0.0000 0.0000 0.0000 0.0000 14.0485
#
#
#
# Elastic Compliance Matrix: (Units=1/GPa)
#
#
# Indices 1 2 3 4 5 6 
#
# 1 0.030672 0.001772 0.002010 0.000000 0.000000 0.000000
# 2 0.001772 0.016036 0.002014 0.000000 0.000000 0.000000
# 3 0.002010 0.002014 0.012095 0.000000 0.000000 0.000000
# 4 0.000000 0.000000 0.000000 0.027922 0.000000 0.000000
# 5 0.000000 0.000000 0.000000 0.000000 0.025618 0.000000
# 6 0.000000 0.000000 0.000000 0.000000 0.000000 0.071182
#
#
# Mechanical properties :
#
#
# Convention : Reuss Voigt Hill
#
# Bulk Modulus (GPa) = 14.20568 16.21402 15.20985
# Shear Modulus (GPa) = 25.58868 31.14267 28.36567
#
# Velocity S-wave (km/s) = 3.30283 3.64368 3.47744
# Velocity P-wave (km/s) = 4.53883 4.96126 4.75474
#
# Compressibility (1/GPa) = 0.07039438
#
# Stress axis : x y z
#
# Youngs Moduli (GPa) = 32.60255 62.36146 82.68003
#
# Poissons Ratio (x) = -0.11051 -0.16619
# Poissons Ratio (y) = -0.05778 -0.16649
# Poissons Ratio (z) = -0.06553 -0.12557
#
# Static dielectric constant tensor:
#      x y z
#    x 1.803530 0.000000 0.000000 
#    y 0.000000 1.931690 0.000000 
#    z 0.000000 0.000000 1.819930 
# 
# From -- ./inp_files/158.got.cif
#   From: 2010.05.17/outbox.cif.g08.bks.cpg/sg31_1_cif.got.tgz:158.got - 2010.06.03 17:08:30.
