data_PCOD9343730
_publ_section_title
;
Structure prediction by ZEFSAII (Michael W. Deem and Ramdas Pophale) SiO2 
 PCOD9343730
Probable space group: P B A 2
;
_chemical_formula_sum "Si O2"
_cell_formula_units_Z 32
_cell_length_a 14.219561
_cell_length_b 12.580318
_cell_length_c 8.846058
_cell_angle_alpha 90.000000
_cell_angle_beta 90.000000
_cell_angle_gamma 90.000000
_cell_volume 1582.441232
_symmetry_space_group_name_H-M "P B A 2"
_symmetry_group_IT_number 32
_symmetry_cell_setting 'orthorhombic'
loop_
_space_group_symop_operation_xyz
x,y,z
-x,-y,z
1/2-x,1/2+y,z
1/2+x,1/2-y,z
loop_
_atom_site_type_symbol
_atom_site_label
_atom_site_fract_x
_atom_site_fract_y
_atom_site_fract_z
Si Si1 0.567782 0.095249 0.993680
Si Si2 0.329774 0.189632 0.725797
Si Si3 0.596362 0.543807 0.090067
Si Si4 0.787555 0.425077 0.053753
Si Si5 0.467459 0.391528 0.757501
Si Si6 0.419628 0.223841 0.203054
Si Si7 0.627101 0.228987 0.716263
Si Si8 0.979828 0.381901 0.503268
O O1 0.624763 0.153539 0.862443
O O2 0.500000 0.000000 0.933805
O O3 0.500099 0.175859 0.087064
O O4 0.647068 0.028920 0.080275
O O5 0.393035 0.297927 0.718317
O O6 0.228118 0.227660 0.670871
O O7 0.391944 0.113391 0.619942
O O8 0.310128 0.131341 0.889167
O O9 0.500000 0.500000 0.158251
O O10 0.681849 0.461748 0.083180
O O11 0.608797 0.656137 0.170537
O O12 0.574253 0.570113 0.915833
O O13 0.825260 0.341801 0.173501
O O14 0.500000 0.500000 0.671407
O O15 0.564063 0.327816 0.768308
O O16 0.455568 0.197883 0.368797
O O17 0.569936 0.165137 0.589694
O O18 0.000000 0.500000 0.443845
#
# Coordination Sequence:
#
# PCOD9343730 Si02
#       8
#     4   4   4   4   4   4   4   4
#     4  10  19  37  66  93 121 164 218 272 320 375
#     4  11  22  40  63 102 125 166 226 270 325 394
#     4  11  22  39  64  96 129 166 206 274 332 378
#     4  11  22  38  67  97 123 164 220 274 323 380
#     4  10  19  35  60  92 131 161 202 273 337 372
#     4  11  23  44  63  96 130 169 223 261 326 394
#     4  11  21  38  64  95 125 173 212 278 321 384
#     4  11  24  45  65  89 134 181 220 262 322 396
#
# _framework density 20.221920999999998
#
# number of rings (size 3 to 8) (size 9 to 14) (size 15 to 20)
#    0.000    1.250    2.500    6.750    0.000    1.000 
#    6.750    2.500    0.000    0.000    0.000    0.000 
#    0.000    0.000    0.000    0.000    0.000    0.000 
#
# Total GULP energy -178326.631850 kJ/mol
# GULP energy per Si atom -5572.707245 kJ/mol
# Density = 2.017589 g / cm^3
# Si number density = 20.221921 Si / 1000 Ang^3
#
#
#
# Elastic Constant Matrix: (Units=GPa)
#
#
# Indices 1 2 3 4 5 6 
#
# 1 143.1144 43.0456 13.6338 0.0000 0.0000 0.0000
# 2 43.0456 86.5251 2.1408 0.0000 0.0000 0.0000
# 3 13.6338 2.1408 37.5818 0.0000 0.0000 0.0000
# 4 0.0000 0.0000 0.0000 19.0789 0.0000 0.0000
# 5 0.0000 0.0000 0.0000 0.0000 -2.2648 0.0000
# 6 0.0000 0.0000 0.0000 0.0000 0.0000 28.9498
#
#
#
# Elastic Compliance Matrix: (Units=1/GPa)
#
#
# Indices 1 2 3 4 5 6 
#
# 1 0.008511 -0.004164 -0.002851 0.000000 0.000000 0.000000
# 2 -0.004164 0.013611 0.000735 0.000000 0.000000 0.000000
# 3 -0.002851 0.000735 0.027601 0.000000 0.000000 0.000000
# 4 0.000000 0.000000 0.000000 0.052414 0.000000 0.000000
# 5 0.000000 0.000000 0.000000 0.000000 -0.441539 0.000000
# 6 0.000000 0.000000 0.000000 0.000000 0.000000 0.034543
#
#
# Mechanical properties :
#
#
# Convention : Reuss Voigt Hill
#
# Bulk Modulus (GPa) = 26.90738 42.76244 34.83491
# Shear Modulus (GPa) = -17.86269 23.04620 2.59175
#
# Velocity S-wave (km/s) = -2.97532 3.37955 1.13333
# Velocity P-wave (km/s) = 1.23757 6.03498 4.35618
#
# Compressibility (1/GPa) = 0.03716452
#
# Stress axis : x y z
#
# Youngs Moduli (GPa) = 117.49014 73.47207 36.23080
#
# Poissons Ratio (x) = 0.30592 0.10328
# Poissons Ratio (y) = 0.48921 -0.02664
# Poissons Ratio (z) = 0.33491 -0.05402
#
# Static dielectric constant tensor:
#      x y z
#    x 1.763960 0.000000 0.000000 
#    y 0.000000 1.810010 0.000000 
#    z 0.000000 0.000000 1.732610 
# 
# From -- ./inp_files/3089.got.cif
#   From: 2010.05.17/outbox.cif.g08.bks.cpg/sg32_2_cif.got.tgz:3089.got - 2010.06.03 17:12:27.
