data_PCOD9343367
_publ_section_title
;
Structure prediction by ZEFSAII (Michael W. Deem and Ramdas Pophale) SiO2 
 PCOD9343367
Probable space group: P M N 21
;
_chemical_formula_sum "Si O2"
_cell_formula_units_Z 32
_cell_length_a 15.819524
_cell_length_b 11.783060
_cell_length_c 8.275838
_cell_angle_alpha 90.000000
_cell_angle_beta 90.000000
_cell_angle_gamma 90.000000
_cell_volume 1542.636069
_symmetry_space_group_name_H-M "P M N 21"
_symmetry_group_IT_number 31
_symmetry_cell_setting 'orthorhombic'
loop_
_space_group_symop_operation_xyz
x,y,z
1/2-x,-y,1/2+z
-x,y,z
1/2+x,-y,1/2+z
loop_
_atom_site_type_symbol
_atom_site_label
_atom_site_fract_x
_atom_site_fract_y
_atom_site_fract_z
Si Si1 0.178098 0.996028 0.123020
Si Si2 0.316291 0.856711 0.296044
Si Si3 0.092277 0.543478 0.597136
Si Si4 0.590879 0.722570 0.059928
Si Si5 0.403725 0.205508 0.497176
Si Si6 0.596237 0.453201 0.470529
Si Si7 0.229632 0.205703 0.313510
Si Si8 0.760498 0.355283 0.991625
O O1 0.180948 0.091710 0.259855
O O2 0.263658 0.926177 0.162492
O O3 0.174224 0.064761 0.954054
O O4 0.107714 0.898233 0.121939
O O5 0.399211 0.808903 0.208973
O O6 0.271047 0.740241 0.354352
O O7 0.092849 0.407645 0.614511
O O8 0.100559 0.584285 0.781968
O O9 0.169694 0.584861 0.490447
O O10 0.000000 0.577778 0.533548
O O11 0.500000 0.741464 0.977628
O O12 0.671865 0.737374 0.948037
O O13 0.500000 0.201996 0.432517
O O14 0.390379 0.333785 0.562275
O O15 0.325105 0.184274 0.375187
O O16 0.500000 0.494176 0.501405
O O17 0.666271 0.549407 0.492680
O O18 0.233501 0.286548 0.158788
#
# Coordination Sequence:
#
# PCOD9343367 Si02
#       8
#     4   4   4   4   4   4   4   4
#     4  11  23  43  64  91 127 167 214 273 313 377
#     4  11  22  40  66  92 125 165 218 264 323 383
#     4  10  21  38  60  93 132 166 208 256 313 396
#     4  11  23  40  64  94 130 171 210 264 328 385
#     4  11  22  40  66  91 127 173 211 259 324 385
#     4  10  21  39  62  94 132 165 212 262 313 393
#     4  11  23  42  65  94 130 167 221 273 316 384
#     4  11  23  36  69  97 123 176 212 263 334 385
#
# _framework density 20.743711999999999
#
# number of rings (size 3 to 8) (size 9 to 14) (size 15 to 20)
#    0.000    1.250    5.000    0.750    0.000    1.500 
#    0.000    3.125    0.000    0.750    0.000    0.000 
#    0.000    0.000    0.000    0.000    0.000    0.000 
#
# Total GULP energy -178447.095978 kJ/mol
# GULP energy per Si atom -5576.471749 kJ/mol
# Density = 2.069650 g / cm^3
# Si number density = 20.743712 Si / 1000 Ang^3
#
#
#
# Elastic Constant Matrix: (Units=GPa)
#
#
# Indices 1 2 3 4 5 6 
#
# 1 123.4277 45.7383 19.0449 0.0000 0.0000 0.0000
# 2 45.7383 116.8754 6.3240 0.0000 0.0000 0.0000
# 3 19.0449 6.3240 32.4265 0.0000 0.0000 0.0000
# 4 0.0000 0.0000 0.0000 27.9755 0.0000 0.0000
# 5 0.0000 0.0000 0.0000 0.0000 19.9902 0.0000
# 6 0.0000 0.0000 0.0000 0.0000 0.0000 14.1463
#
#
#
# Elastic Compliance Matrix: (Units=1/GPa)
#
#
# Indices 1 2 3 4 5 6 
#
# 1 0.010312 -0.003747 -0.005326 0.000000 0.000000 0.000000
# 2 -0.003747 0.010009 0.000249 0.000000 0.000000 0.000000
# 3 -0.005326 0.000249 0.033918 0.000000 0.000000 0.000000
# 4 0.000000 0.000000 0.000000 0.035746 0.000000 0.000000
# 5 0.000000 0.000000 0.000000 0.000000 0.050025 0.000000
# 6 0.000000 0.000000 0.000000 0.000000 0.000000 0.070690
#
#
# Mechanical properties :
#
#
# Convention : Reuss Voigt Hill
#
# Bulk Modulus (GPa) = 27.32899 46.10490 36.71695
# Shear Modulus (GPa) = 20.78605 25.86390 23.32497
#
# Velocity S-wave (km/s) = 3.16894 3.53488 3.35690
# Velocity P-wave (km/s) = 5.15682 6.23977 5.72396
#
# Compressibility (1/GPa) = 0.03659118
#
# Stress axis : x y z
#
# Youngs Moduli (GPa) = 96.97074 99.90804 29.48249
#
# Poissons Ratio (x) = 0.37441 0.15702
# Poissons Ratio (y) = 0.36340 -0.00734
# Poissons Ratio (z) = 0.51645 -0.02487
#
# Static dielectric constant tensor:
#      x y z
#    x 1.731080 0.000000 0.000000 
#    y 0.000000 1.765430 0.000000 
#    z 0.000000 0.000000 1.762220 
# 
# From -- ./inp_files/2586.got.cif
#   From: 2010.05.17/outbox.cif.g08.bks.cpg/sg31_2_cif.got.tgz:2586.got - 2010.06.03 17:08:30.
