data_PCOD9343751
_publ_section_title
;
Structure prediction by ZEFSAII (Michael W. Deem and Ramdas Pophale) SiO2 
 PCOD9343751
Probable space group: P B A 2
;
_chemical_formula_sum "Si O2"
_cell_formula_units_Z 26
_cell_length_a 9.744637
_cell_length_b 15.545323
_cell_length_c 7.594813
_cell_angle_alpha 90.000000
_cell_angle_beta 90.000000
_cell_angle_gamma 90.000000
_cell_volume 1150.489081
_symmetry_space_group_name_H-M "P B A 2"
_symmetry_group_IT_number 32
_symmetry_cell_setting 'orthorhombic'
loop_
_space_group_symop_operation_xyz
x,y,z
-x,-y,z
1/2-x,1/2+y,z
1/2+x,1/2-y,z
loop_
_atom_site_type_symbol
_atom_site_label
_atom_site_fract_x
_atom_site_fract_y
_atom_site_fract_z
Si Si1 0.516141 0.194129 0.319770
Si Si2 0.997820 0.877088 0.455251
Si Si3 0.770239 0.418881 0.278834
Si Si4 0.907486 0.238269 0.941501
Si Si5 0.324050 0.642976 0.910944
Si Si6 0.000000 0.000000 0.749937
Si Si7 0.225583 0.893960 0.179016
O O1 0.503052 0.274307 0.449900
O O2 0.411267 0.117119 0.356128
O O3 0.462427 0.224227 0.127566
O O4 0.671687 0.164579 0.293538
O O5 0.058700 0.925651 0.622228
O O6 0.083763 0.903948 0.283744
O O7 0.844018 0.912434 0.429981
O O8 0.789573 0.511260 0.186424
O O9 0.704129 0.361383 0.121132
O O10 0.811335 0.157145 0.000683
O O11 0.815436 0.310588 0.846278
O O12 0.048206 0.203717 0.860668
O O13 0.380407 0.548817 0.857086
#
# Coordination Sequence:
#
# PCOD9343751 Si02
#       7
#     4   4   4   4   4   2   4
#     4  10  20  35  62  94 121 150 201 266 319 360
#     4  11  21  40  58  87 118 164 212 247 305 372
#     4  11  20  36  66  92 118 157 205 263 314 370
#     4  10  19  37  63  91 119 159 202 260 316 372
#     4  11  22  40  62  91 125 164 212 256 316 373
#     4  12  26  40  58  90 126 176 216 252 298 390
#     4  11  18  34  62  95 119 148 203 261 311 364
#
# _framework density 22.599086
#
# number of rings (size 3 to 8) (size 9 to 14) (size 15 to 20)
#    0.000    1.231    6.154    3.231    0.000    0.000 
#    5.538    0.000    0.000    1.846    0.000    0.000 
#    0.000    0.000    0.000    0.000    0.000    0.000 
#
# Total GULP energy -145001.083931 kJ/mol
# GULP energy per Si atom -5576.964767 kJ/mol
# Density = 2.254765 g / cm^3
# Si number density = 22.599086 Si / 1000 Ang^3
#
#
#
# Elastic Constant Matrix: (Units=GPa)
#
#
# Indices 1 2 3 4 5 6 
#
# 1 74.5179 18.9874 0.1076 0.0000 0.0000 0.0000
# 2 18.9874 89.3179 -2.5433 0.0000 0.0000 0.0000
# 3 0.1076 -2.5433 35.0415 0.0000 0.0000 0.0000
# 4 0.0000 0.0000 0.0000 30.3969 0.0000 0.0000
# 5 0.0000 0.0000 0.0000 0.0000 7.2049 0.0000
# 6 0.0000 0.0000 0.0000 0.0000 0.0000 38.4437
#
#
#
# Elastic Compliance Matrix: (Units=1/GPa)
#
#
# Indices 1 2 3 4 5 6 
#
# 1 0.014191 -0.003024 -0.000263 0.000000 0.000000 0.000000
# 2 -0.003024 0.011864 0.000870 0.000000 0.000000 0.000000
# 3 -0.000263 0.000870 0.028602 0.000000 0.000000 0.000000
# 4 0.000000 0.000000 0.000000 0.032898 0.000000 0.000000
# 5 0.000000 0.000000 0.000000 0.000000 0.138795 0.000000
# 6 0.000000 0.000000 0.000000 0.000000 0.000000 0.026012
#
#
# Mechanical properties :
#
#
# Convention : Reuss Voigt Hill
#
# Bulk Modulus (GPa) = 20.07145 25.77563 22.92354
# Shear Modulus (GPa) = 18.26137 27.36413 22.81275
#
# Velocity S-wave (km/s) = 2.84572 3.48350 3.18064
# Velocity P-wave (km/s) = 4.43828 5.25453 4.86356
#
# Compressibility (1/GPa) = 0.04982201
#
# Stress axis : x y z
#
# Youngs Moduli (GPa) = 70.46945 84.29121 34.96310
#
# Poissons Ratio (x) = 0.25491 0.00920
# Poissons Ratio (y) = 0.21311 -0.03043
# Poissons Ratio (z) = 0.01854 -0.07336
#
# Static dielectric constant tensor:
#      x y z
#    x 1.834720 0.000000 0.000000 
#    y 0.000000 1.948830 0.000000 
#    z 0.000000 0.000000 1.887910 
# 
# From -- ./inp_files/2442.got.cif
#   From: 2010.05.17/outbox.cif.g08.bks.cpg/sg32_2_cif.got.tgz:2442.got - 2010.06.03 17:12:27.
