data_PCOD9343423
_publ_section_title
;
Structure prediction by ZEFSAII (Michael W. Deem and Ramdas Pophale) SiO2 
 PCOD9343423
Probable space group: P M N 21
;
_chemical_formula_sum "Si O2"
_cell_formula_units_Z 24
_cell_length_a 20.853376
_cell_length_b 9.898432
_cell_length_c 5.406070
_cell_angle_alpha 90.000000
_cell_angle_beta 90.000000
_cell_angle_gamma 90.000000
_cell_volume 1115.897855
_symmetry_space_group_name_H-M "P M N 21"
_symmetry_group_IT_number 31
_symmetry_cell_setting 'orthorhombic'
loop_
_space_group_symop_operation_xyz
x,y,z
1/2-x,-y,1/2+z
-x,y,z
1/2+x,-y,1/2+z
loop_
_atom_site_type_symbol
_atom_site_label
_atom_site_fract_x
_atom_site_fract_y
_atom_site_fract_z
Si Si1 0.071677 0.259838 0.925060
Si Si2 0.849233 0.603888 0.232858
Si Si3 0.782719 0.845656 0.434616
Si Si4 0.192899 0.312117 0.281774
Si Si5 0.426395 0.448252 0.228290
Si Si6 0.660350 0.913575 0.167933
O O1 0.072818 0.387600 0.738774
O O2 0.093345 0.122403 0.792386
O O3 0.000000 0.254401 0.031316
O O4 0.128591 0.286476 0.118424
O O5 0.810172 0.742126 0.236042
O O6 0.803920 0.473905 0.288239
O O7 0.896691 0.601158 0.470325
O O8 0.885865 0.589995 0.972550
O O9 0.755076 0.749662 0.649768
O O10 0.719774 0.930095 0.356378
O O11 0.836608 0.953236 0.505532
O O12 0.179902 0.222933 0.522657
O O13 0.500000 0.403133 0.253646
#
# Coordination Sequence:
#
# PCOD9343423 Si02
#       6
#     4   4   4   4   4   4
#     4   9  20  38  63  91 118 160 214 262 305 376
#     4  11  24  39  65  97 123 169 216 269 320 378
#     4  11  25  37  64  89 133 165 211 261 327 384
#     4  10  22  38  60  90 124 160 212 257 318 375
#     4  10  21  41  65  93 127 165 215 270 324 375
#     4  11  21  41  59  90 122 169 202 255 322 382
#
# _framework density 21.507344
#
# number of rings (size 3 to 8) (size 9 to 14) (size 15 to 20)
#    0.000    1.667    3.333    0.500    4.667    1.333 
#    0.000    1.667    0.000    0.000    0.000    0.000 
#    0.000    0.000    0.000    0.000    0.000    0.000 
#
# Total GULP energy -133982.558787 kJ/mol
# GULP energy per Si atom -5582.606616 kJ/mol
# Density = 2.145839 g / cm^3
# Si number density = 21.507344 Si / 1000 Ang^3
#
#
#
# Elastic Constant Matrix: (Units=GPa)
#
#
# Indices 1 2 3 4 5 6 
#
# 1 74.4357 25.4826 16.7625 0.0000 0.0000 0.0000
# 2 25.4826 92.3269 3.4361 0.0000 0.0000 0.0000
# 3 16.7625 3.4361 64.2432 0.0000 0.0000 0.0000
# 4 0.0000 0.0000 0.0000 28.7991 0.0000 0.0000
# 5 0.0000 0.0000 0.0000 0.0000 25.2004 0.0000
# 6 0.0000 0.0000 0.0000 0.0000 0.0000 21.1797
#
#
#
# Elastic Compliance Matrix: (Units=1/GPa)
#
#
# Indices 1 2 3 4 5 6 
#
# 1 0.015748 -0.004202 -0.003884 0.000000 0.000000 0.000000
# 2 -0.004202 0.011974 0.000456 0.000000 0.000000 0.000000
# 3 -0.003884 0.000456 0.016555 0.000000 0.000000 0.000000
# 4 0.000000 0.000000 0.000000 0.034723 0.000000 0.000000
# 5 0.000000 0.000000 0.000000 0.000000 0.039682 0.000000
# 6 0.000000 0.000000 0.000000 0.000000 0.000000 0.047215
#
#
# Mechanical properties :
#
#
# Convention : Reuss Voigt Hill
#
# Bulk Modulus (GPa) = 34.46349 35.81867 35.14108
# Shear Modulus (GPa) = 26.20149 27.39080 26.79615
#
# Velocity S-wave (km/s) = 3.49414 3.57256 3.53357
# Velocity P-wave (km/s) = 5.68661 5.80585 5.74654
#
# Compressibility (1/GPa) = 0.02901621
#
# Stress axis : x y z
#
# Youngs Moduli (GPa) = 63.50188 83.51541 60.40497
#
# Poissons Ratio (x) = 0.35092 0.23462
# Poissons Ratio (y) = 0.26682 -0.02754
# Poissons Ratio (z) = 0.24665 -0.03808
#
# Static dielectric constant tensor:
#      x y z
#    x 1.785470 0.000000 0.000000 
#    y 0.000000 1.792890 0.000000 
#    z 0.000000 0.000000 1.857190 
# 
# From -- ./inp_files/1084.got.cif
#   From: 2010.05.17/outbox.cif.g08.bks.cpg/sg31_1_cif.got.tgz:1084.got - 2010.06.03 17:08:30.
