data_PCOD9343332
_publ_section_title
;
Structure prediction by ZEFSAII (Michael W. Deem and Ramdas Pophale) SiO2 
 PCOD9343332
Probable space group: P M N 21
;
_chemical_formula_sum "Si O2"
_cell_formula_units_Z 32
_cell_length_a 9.113429
_cell_length_b 15.978905
_cell_length_c 11.144755
_cell_angle_alpha 90.000000
_cell_angle_beta 90.000000
_cell_angle_gamma 90.000000
_cell_volume 1622.928380
_symmetry_space_group_name_H-M "P M N 21"
_symmetry_group_IT_number 31
_symmetry_cell_setting 'orthorhombic'
loop_
_space_group_symop_operation_xyz
x,y,z
1/2-x,-y,1/2+z
-x,y,z
1/2+x,-y,1/2+z
loop_
_atom_site_type_symbol
_atom_site_label
_atom_site_fract_x
_atom_site_fract_y
_atom_site_fract_z
Si Si1 0.166561 0.714185 0.622320
Si Si2 0.166956 0.863324 0.427183
Si Si3 0.830114 0.155530 0.556736
Si Si4 0.676225 0.557805 0.278832
Si Si5 0.831423 0.161891 0.273132
Si Si6 0.824756 0.732768 0.224081
Si Si7 0.325020 0.983205 0.595101
Si Si8 0.677193 0.464500 0.025819
O O1 0.165465 0.789018 0.525651
O O2 0.251323 0.753945 0.732758
O O3 0.224091 0.630164 0.561357
O O4 0.000000 0.695459 0.658569
O O5 0.207132 0.812849 0.308574
O O6 0.273858 0.934827 0.474606
O O7 0.000000 0.896816 0.416050
O O8 0.823785 0.149162 0.413579
O O9 0.741467 0.237109 0.598706
O O10 0.000000 0.162139 0.594152
O O11 0.756190 0.070860 0.603911
O O12 0.500000 0.560085 0.291115
O O13 0.745767 0.650388 0.272098
O O14 0.709177 0.516773 0.147703
O O15 0.745233 0.514686 0.398569
O O16 0.777875 0.079756 0.201897
O O17 0.000000 0.171319 0.234951
O O18 0.000000 0.720300 0.223028
O O19 0.500000 0.995474 0.597889
O O20 0.500000 0.466366 0.006828
#
# Coordination Sequence:
#
# PCOD9343332 Si02
#       8
#     4   4   4   4   4   4   4   4
#     4   9  17  35  62  86 110 148 195 241 295 359
#     4   9  18  35  60  84 111 150 191 241 296 351
#     4  11  24  40  57  84 122 160 202 252 307 368
#     4  11  24  41  66  98 131 168 217 267 322 389
#     4   9  21  39  56  80 118 154 192 249 306 361
#     4  11  23  41  63  87 122 163 203 252 312 371
#     4  10  21  37  58  86 115 153 199 246 302 362
#     4  10  22  42  64  93 131 168 209 264 320 381
#
# _framework density 19.717442999999999
#
# number of rings (size 3 to 8) (size 9 to 14) (size 15 to 20)
#    0.000    2.000    1.250    1.500    1.750    5.000 
#    0.000    2.500    0.000    0.000    0.000    0.000 
#    0.000    0.000    0.000    0.000    0.000    0.000 
#
# Total GULP energy -178528.644579 kJ/mol
# GULP energy per Si atom -5579.020143 kJ/mol
# Density = 1.967256 g / cm^3
# Si number density = 19.717443 Si / 1000 Ang^3
#
#
#
# Elastic Constant Matrix: (Units=GPa)
#
#
# Indices 1 2 3 4 5 6 
#
# 1 57.5069 34.4644 50.1641 0.0000 0.0000 0.0000
# 2 34.4644 55.9859 37.4132 0.0000 0.0000 0.0000
# 3 50.1641 37.4132 87.9270 0.0000 0.0000 0.0000
# 4 0.0000 0.0000 0.0000 23.6810 0.0000 0.0000
# 5 0.0000 0.0000 0.0000 0.0000 25.8030 0.0000
# 6 0.0000 0.0000 0.0000 0.0000 0.0000 16.5641
#
#
#
# Elastic Compliance Matrix: (Units=1/GPa)
#
#
# Indices 1 2 3 4 5 6 
#
# 1 0.040665 -0.013315 -0.017534 0.000000 0.000000 0.000000
# 2 -0.013315 0.029318 -0.004878 0.000000 0.000000 0.000000
# 3 -0.017534 -0.004878 0.023452 0.000000 0.000000 0.000000
# 4 0.000000 0.000000 0.000000 0.042228 0.000000 0.000000
# 5 0.000000 0.000000 0.000000 0.000000 0.038755 0.000000
# 6 0.000000 0.000000 0.000000 0.000000 0.000000 0.060372
#
#
# Mechanical properties :
#
#
# Convention : Reuss Voigt Hill
#
# Bulk Modulus (GPa) = 45.49681 49.50037 47.49859
# Shear Modulus (GPa) = 15.94526 18.50148 17.22337
#
# Velocity S-wave (km/s) = 2.84683 3.06654 2.95873
# Velocity P-wave (km/s) = 5.82498 6.13984 5.98448
#
# Compressibility (1/GPa) = 0.02197956
#
# Stress axis : x y z
#
# Youngs Moduli (GPa) = 24.59147 34.10822 42.63940
#
# Poissons Ratio (x) = 0.45416 0.74765
# Poissons Ratio (y) = 0.32744 0.20802
# Poissons Ratio (z) = 0.43119 0.16640
#
# Static dielectric constant tensor:
#      x y z
#    x 1.686840 0.000000 0.000000 
#    y 0.000000 1.686880 0.000000 
#    z 0.000000 0.000000 1.745290 
# 
# From -- ./inp_files/3747.got.cif
#   From: 2010.05.17/outbox.cif.g08.bks.cpg/sg31_2_cif.got.tgz:3747.got - 2010.06.03 17:08:30.
