data_PCOD9343106
_publ_section_title
;
Structure prediction by ZEFSAII (Michael W. Deem and Ramdas Pophale) SiO2 
 PCOD9343106
Probable space group: P M N 21
;
_chemical_formula_sum "Si O2"
_cell_formula_units_Z 24
_cell_length_a 15.526539
_cell_length_b 8.186204
_cell_length_c 8.462332
_cell_angle_alpha 90.000000
_cell_angle_beta 90.000000
_cell_angle_gamma 90.000000
_cell_volume 1075.591302
_symmetry_space_group_name_H-M "P M N 21"
_symmetry_group_IT_number 31
_symmetry_cell_setting 'orthorhombic'
loop_
_space_group_symop_operation_xyz
x,y,z
1/2-x,-y,1/2+z
-x,y,z
1/2+x,-y,1/2+z
loop_
_atom_site_type_symbol
_atom_site_label
_atom_site_fract_x
_atom_site_fract_y
_atom_site_fract_z
Si Si1 0.000000 0.007169 0.662791
Si Si2 0.500000 0.912427 0.801306
Si Si3 0.323824 0.495126 0.049431
Si Si4 0.500000 0.380803 0.095195
Si Si5 0.690764 0.980619 0.164951
Si Si6 0.679443 0.823394 0.840685
Si Si7 0.689372 0.328843 0.734858
Si Si8 0.000000 0.703489 0.234059
O O1 0.000000 0.810422 0.637666
O O2 0.000000 0.099920 0.493218
O O3 0.094334 0.044140 0.734732
O O4 0.590054 0.837907 0.745510
O O5 0.500000 0.103267 0.764171
O O6 0.326085 0.657999 0.940938
O O7 0.316393 0.351322 0.922691
O O8 0.412254 0.468857 0.144088
O O9 0.243964 0.523410 0.162497
O O10 0.500000 0.388917 0.903065
O O11 0.757553 0.834528 0.199945
O O12 0.736957 0.140453 0.235148
O O13 0.679676 0.966705 0.975649
O O14 0.593444 0.331586 0.662034
#
# Coordination Sequence:
#
# PCOD9343106 Si02
#       8
#     2   2   4   2   4   4   4   2
#     4   9  20  34  59  85 111 152 198 236 282 342
#     4   9  15  32  59  80 103 151 192 237 267 328
#     4  10  22  36  57  88 115 151 190 238 289 348
#     4   9  19  36  59  82 111 152 199 234 282 347
#     4  10  21  37  58  85 112 151 195 239 278 341
#     4  10  20  34  58  86 113 146 194 238 283 339
#     4  10  21  37  58  85 118 151 194 239 290 345
#     4   9  16  34  57  83 107 153 193 231 283 341
#
# _framework density 22.313307999999999
#
# number of rings (size 3 to 8) (size 9 to 14) (size 15 to 20)
#    0.000    2.333    1.667    0.500    4.667    2.000 
#    0.000    5.833    0.000    2.000    0.000    0.000 
#    0.000    0.000    0.000    0.000    0.000    0.000 
#
# Total GULP energy -133862.045874 kJ/mol
# GULP energy per Si atom -5577.585245 kJ/mol
# Density = 2.226252 g / cm^3
# Si number density = 22.313308 Si / 1000 Ang^3
#
#
#
# Elastic Constant Matrix: (Units=GPa)
#
#
# Indices 1 2 3 4 5 6 
#
# 1 227.0808 22.8334 23.6024 0.0000 0.0000 0.0000
# 2 22.8334 57.4848 -0.4817 0.0000 0.0000 0.0000
# 3 23.6024 -0.4817 16.3844 0.0000 0.0000 0.0000
# 4 0.0000 0.0000 0.0000 26.4601 0.0000 0.0000
# 5 0.0000 0.0000 0.0000 0.0000 24.8773 0.0000
# 6 0.0000 0.0000 0.0000 0.0000 0.0000 34.0958
#
#
#
# Elastic Compliance Matrix: (Units=1/GPa)
#
#
# Indices 1 2 3 4 5 6 
#
# 1 0.005451 -0.002232 -0.007918 0.000000 0.000000 0.000000
# 2 -0.002232 0.018314 0.003753 0.000000 0.000000 0.000000
# 3 -0.007918 0.003753 0.072551 0.000000 0.000000 0.000000
# 4 0.000000 0.000000 0.000000 0.037793 0.000000 0.000000
# 5 0.000000 0.000000 0.000000 0.000000 0.040197 0.000000
# 6 0.000000 0.000000 0.000000 0.000000 0.000000 0.029329
#
#
# Mechanical properties :
#
#
# Convention : Reuss Voigt Hill
#
# Bulk Modulus (GPa) = 11.97288 43.65092 27.81190
# Shear Modulus (GPa) = 20.46928 34.08636 27.27782
#
# Velocity S-wave (km/s) = 3.03208 3.91272 3.50021
# Velocity P-wave (km/s) = 4.19946 6.32596 5.36904
#
# Compressibility (1/GPa) = 0.08352212
#
# Stress axis : x y z
#
# Youngs Moduli (GPa) = 183.44898 54.60382 13.78350
#
# Poissons Ratio (x) = 0.12185 0.10914
# Poissons Ratio (y) = 0.40938 -0.05173
# Poissons Ratio (z) = 1.45258 -0.20493
#
# Static dielectric constant tensor:
#      x y z
#    x 1.905760 0.000000 0.000000 
#    y 0.000000 1.870160 0.000000 
#    z 0.000000 0.000000 1.835640 
# 
# From -- ./inp_files/2483.got.cif
#   From: 2010.05.17/outbox.cif.g08.bks.cpg/sg31_2_cif.got.tgz:2483.got - 2010.06.03 17:08:30.
