data_PCOD9343535
_publ_section_title
;
Structure prediction by ZEFSAII (Michael W. Deem and Ramdas Pophale) SiO2 
 PCOD9343535
Probable space group: P M N 21
;
_chemical_formula_sum "Si O2"
_cell_formula_units_Z 22
_cell_length_a 16.030289
_cell_length_b 5.244308
_cell_length_c 12.391721
_cell_angle_alpha 90.000000
_cell_angle_beta 90.000000
_cell_angle_gamma 90.000000
_cell_volume 1041.744386
_symmetry_space_group_name_H-M "P M N 21"
_symmetry_group_IT_number 31
_symmetry_cell_setting 'orthorhombic'
loop_
_space_group_symop_operation_xyz
x,y,z
1/2-x,-y,1/2+z
-x,y,z
1/2+x,-y,1/2+z
loop_
_atom_site_type_symbol
_atom_site_label
_atom_site_fract_x
_atom_site_fract_y
_atom_site_fract_z
Si Si1 0.370818 0.101105 0.309670
Si Si2 0.168733 0.621301 0.228296
Si Si3 0.500000 0.825306 0.445816
Si Si4 0.500000 0.489625 0.217944
Si Si5 0.000000 0.673606 0.090996
Si Si6 0.659902 0.758037 0.115159
Si Si7 0.808686 0.127709 0.370660
O O1 0.429242 0.337800 0.290665
O O2 0.291024 0.158743 0.379904
O O3 0.422689 0.872866 0.365303
O O4 0.343209 0.005628 0.192210
O O5 0.084764 0.658459 0.159940
O O6 0.252970 0.625891 0.154060
O O7 0.162834 0.354827 0.291921
O O8 0.175365 0.854728 0.314220
O O9 0.500000 0.564904 0.509518
O O10 0.500000 0.060116 0.527870
O O11 0.575306 0.608815 0.143007
O O12 0.657907 0.837227 0.990705
#
# Coordination Sequence:
#
# PCOD9343535 Si02
#       7
#     4   4   2   2   2   4   4
#     4  10  24  43  68 107 140 183 240 303 344 435
#     4  11  26  46  70 102 146 186 243 296 344 444
#     4  11  25  41  76  99 135 183 242 294 361 415
#     4  11  21  42  70  98 144 175 238 298 345 418
#     4  12  26  47  70 103 141 192 236 294 358 423
#     4  11  25  43  71 104 143 186 241 295 367 416
#     4  11  25  45  71 102 143 194 233 291 369 417
#
# _framework density 21.118425999999999
#
# number of rings (size 3 to 8) (size 9 to 14) (size 15 to 20)
#    0.000    1.091    1.818    3.273    7.636    5.818 
#    0.000    0.000    0.000    0.000    0.000    0.000 
#    0.000    0.000    0.000    0.000    0.000    0.000 
#
# Total GULP energy -122481.985888 kJ/mol
# GULP energy per Si atom -5567.362995 kJ/mol
# Density = 2.107036 g / cm^3
# Si number density = 21.118426 Si / 1000 Ang^3
#
#
#
# Elastic Constant Matrix: (Units=GPa)
#
#
# Indices 1 2 3 4 5 6 
#
# 1 152.0912 17.7626 43.8519 0.0000 0.0000 0.0000
# 2 17.7626 65.2268 14.2963 0.0000 0.0000 0.0000
# 3 43.8519 14.2963 92.2726 0.0000 0.0000 0.0000
# 4 0.0000 0.0000 0.0000 36.1078 0.0000 0.0000
# 5 0.0000 0.0000 0.0000 0.0000 30.0254 0.0000
# 6 0.0000 0.0000 0.0000 0.0000 0.0000 16.8063
#
#
#
# Elastic Compliance Matrix: (Units=1/GPa)
#
#
# Indices 1 2 3 4 5 6 
#
# 1 0.007731 -0.001346 -0.003466 0.000000 0.000000 0.000000
# 2 -0.001346 0.016104 -0.001856 0.000000 0.000000 0.000000
# 3 -0.003466 -0.001856 0.012772 0.000000 0.000000 0.000000
# 4 0.000000 0.000000 0.000000 0.027695 0.000000 0.000000
# 5 0.000000 0.000000 0.000000 0.000000 0.033305 0.000000
# 6 0.000000 0.000000 0.000000 0.000000 0.000000 0.059502
#
#
# Mechanical properties :
#
#
# Convention : Reuss Voigt Hill
#
# Bulk Modulus (GPa) = 42.96732 51.26801 47.11766
# Shear Modulus (GPa) = 28.05811 32.16655 30.11233
#
# Velocity S-wave (km/s) = 3.64896 3.90699 3.78018
# Velocity P-wave (km/s) = 6.17603 6.68445 6.43526
#
# Compressibility (1/GPa) = 0.02327350
#
# Stress axis : x y z
#
# Youngs Moduli (GPa) = 129.34157 62.09521 78.29598
#
# Poissons Ratio (x) = 0.08357 0.27136
# Poissons Ratio (y) = 0.17407 0.14528
# Poissons Ratio (z) = 0.44827 0.11522
#
# Static dielectric constant tensor:
#      x y z
#    x 1.653010 0.000000 0.000000 
#    y 0.000000 1.815850 0.000000 
#    z 0.000000 0.000000 1.746540 
# 
# From -- ./inp_files/4177.got.cif
#   From: 2010.05.17/outbox.cif.g08.bks.cpg/sg31_3_cif.got.tgz:4177.got - 2010.06.03 17:08:30.
