data_PCOD9343711
_publ_section_title
;
Structure prediction by ZEFSAII (Michael W. Deem and Ramdas Pophale) SiO2 
 PCOD9343711
Probable space group: P B A 2
;
_chemical_formula_sum "Si O2"
_cell_formula_units_Z 26
_cell_length_a 8.566217
_cell_length_b 12.722566
_cell_length_c 11.634680
_cell_angle_alpha 90.000000
_cell_angle_beta 90.000000
_cell_angle_gamma 90.000000
_cell_volume 1267.997004
_symmetry_space_group_name_H-M "P B A 2"
_symmetry_group_IT_number 32
_symmetry_cell_setting 'orthorhombic'
loop_
_space_group_symop_operation_xyz
x,y,z
-x,-y,z
1/2-x,1/2+y,z
1/2+x,1/2-y,z
loop_
_atom_site_type_symbol
_atom_site_label
_atom_site_fract_x
_atom_site_fract_y
_atom_site_fract_z
Si Si1 0.500000 0.000000 0.465801
Si Si2 0.063995 0.389951 0.243723
Si Si3 0.913902 0.747056 0.771388
Si Si4 0.190307 0.614648 0.659462
Si Si5 0.364273 0.628811 0.993075
Si Si6 0.820759 0.534749 0.869127
Si Si7 0.642137 0.719843 0.131661
O O1 0.582846 0.080737 0.377818
O O2 0.379732 0.063854 0.545423
O O3 0.221224 0.349774 0.185574
O O4 0.000000 0.500000 0.191909
O O5 0.935125 0.300561 0.222304
O O6 0.835857 0.807081 0.664016
O O7 0.934436 0.831311 0.871979
O O8 0.816779 0.656870 0.839208
O O9 0.059894 0.684803 0.723085
O O10 0.220370 0.520424 0.748271
O O11 0.291057 0.515212 0.965084
O O12 0.500793 0.649237 0.083883
O O13 0.221769 0.704018 0.035827
O O14 0.000000 0.500000 0.896466
#
# Coordination Sequence:
#
# PCOD9343711 Si02
#       7
#     2   4   4   4   4   4   4
#     4  10  20  42  66  84 114 178 204 270 326 344
#     4   9  23  41  64  88 122 161 228 267 318 370
#     4  10  19  34  57  92 125 156 197 244 299 408
#     4  10  19  36  60  86 123 158 203 242 318 371
#     4  10  20  33  61  89 125 164 198 243 325 378
#     4   9  17  33  55  90 128 163 197 244 300 404
#     4  10  20  41  60  92 124 167 212 265 315 385
#
# _framework density 20.50478
#
# number of rings (size 3 to 8) (size 9 to 14) (size 15 to 20)
#    0.462    1.846    2.308    2.769    0.000    4.308 
#    0.000   14.615    0.000    3.692    0.000    0.000 
#    0.000    0.000    0.000    0.000    0.000    0.000 
#
# Total GULP energy -144990.196713 kJ/mol
# GULP energy per Si atom -5576.546027 kJ/mol
# Density = 2.045811 g / cm^3
# Si number density = 20.504780 Si / 1000 Ang^3
#
#
#
# Elastic Constant Matrix: (Units=GPa)
#
#
# Indices 1 2 3 4 5 6 
#
# 1 46.8708 20.7596 3.2624 0.0000 0.0000 0.0000
# 2 20.7596 75.3498 18.1616 0.0000 0.0000 0.0000
# 3 3.2624 18.1616 71.8956 0.0000 0.0000 0.0000
# 4 0.0000 0.0000 0.0000 40.6259 0.0000 0.0000
# 5 0.0000 0.0000 0.0000 0.0000 15.2704 0.0000
# 6 0.0000 0.0000 0.0000 0.0000 0.0000 27.6737
#
#
#
# Elastic Compliance Matrix: (Units=1/GPa)
#
#
# Indices 1 2 3 4 5 6 
#
# 1 0.024327 -0.006854 0.000627 0.000000 0.000000 0.000000
# 2 -0.006854 0.016063 -0.003747 0.000000 0.000000 0.000000
# 3 0.000627 -0.003747 0.014827 0.000000 0.000000 0.000000
# 4 0.000000 0.000000 0.000000 0.024615 0.000000 0.000000
# 5 0.000000 0.000000 0.000000 0.000000 0.065486 0.000000
# 6 0.000000 0.000000 0.000000 0.000000 0.000000 0.036135
#
#
# Mechanical properties :
#
#
# Convention : Reuss Voigt Hill
#
# Bulk Modulus (GPa) = 28.35172 30.94260 29.64716
# Shear Modulus (GPa) = 23.45699 26.84283 25.14991
#
# Velocity S-wave (km/s) = 3.38594 3.62208 3.50600
# Velocity P-wave (km/s) = 5.39843 5.71102 5.55692
#
# Compressibility (1/GPa) = 0.03527123
#
# Stress axis : x y z
#
# Youngs Moduli (GPa) = 41.10644 62.25605 67.44438
#
# Poissons Ratio (x) = 0.42668 -0.04231
# Poissons Ratio (y) = 0.28173 0.25269
# Poissons Ratio (z) = -0.02579 0.23325
#
# Static dielectric constant tensor:
#      x y z
#    x 1.790550 0.000000 0.000000 
#    y 0.000000 1.757880 0.000000 
#    z 0.000000 0.000000 1.714210 
# 
# From -- ./inp_files/3717.got.cif
#   From: 2010.05.17/outbox.cif.g08.bks.cpg/sg32_2_cif.got.tgz:3717.got - 2010.06.03 17:12:27.
