data_PCOD9343848
_publ_section_title
;
Structure prediction by ZEFSAII (Michael W. Deem and Ramdas Pophale) SiO2 
 PCOD9343848
Probable space group: P B A 2
;
_chemical_formula_sum "Si O2"
_cell_formula_units_Z 26
_cell_length_a 14.365716
_cell_length_b 8.304371
_cell_length_c 9.194757
_cell_angle_alpha 90.000000
_cell_angle_beta 90.000000
_cell_angle_gamma 90.000000
_cell_volume 1096.918285
_symmetry_space_group_name_H-M "P B A 2"
_symmetry_group_IT_number 32
_symmetry_cell_setting 'orthorhombic'
loop_
_space_group_symop_operation_xyz
x,y,z
-x,-y,z
1/2-x,1/2+y,z
1/2+x,1/2-y,z
loop_
_atom_site_type_symbol
_atom_site_label
_atom_site_fract_x
_atom_site_fract_y
_atom_site_fract_z
Si Si1 0.229036 0.835712 0.181300
Si Si2 0.447130 0.150893 0.205533
Si Si3 0.221226 0.846234 0.835473
Si Si4 0.106858 0.170372 0.766019
Si Si5 0.615469 0.367485 0.275648
Si Si6 0.548367 0.849051 0.874009
Si Si7 0.500000 0.500000 0.525602
O O1 0.153054 0.713857 0.251174
O O2 0.321554 0.794990 0.271465
O O3 0.179420 0.009035 0.187579
O O4 0.245348 0.820461 0.006908
O O5 0.517179 0.301697 0.217572
O O6 0.500000 0.000000 0.276063
O O7 0.426436 0.103156 0.038233
O O8 0.315655 0.808930 0.749334
O O9 0.140963 0.716115 0.802038
O O10 0.168596 0.013422 0.802275
O O11 0.033826 0.218101 0.890640
O O12 0.031653 0.140030 0.637816
O O13 0.587664 0.471601 0.418140
O O14 0.500000 0.000000 0.798591
#
# Coordination Sequence:
#
# PCOD9343848 Si02
#       7
#     4   4   4   4   4   4   2
#     4  11  22  39  70 104 133 175 236 313 372 406
#     4  10  20  38  67 105 142 173 226 302 372 422
#     4  11  22  39  70 104 133 175 236 313 372 406
#     4  12  24  45  68 102 145 192 244 287 360 436
#     4  12  24  45  68 102 145 192 244 287 360 436
#     4  10  20  38  67 105 142 173 226 302 372 422
#     4  12  28  48  68  92 148 210 240 266 346 448
#
# _framework density 23.702770000000001
#
# number of rings (size 3 to 8) (size 9 to 14) (size 15 to 20)
#    0.000    0.923    3.077    4.615    0.000    6.154 
#    0.000    0.769    0.000    0.000    0.000    0.000 
#    0.000    0.000    0.000    0.000    0.000    0.000 
#
# Total GULP energy -144735.165906 kJ/mol
# GULP energy per Si atom -5566.737150 kJ/mol
# Density = 2.364882 g / cm^3
# Si number density = 23.702770 Si / 1000 Ang^3
#
#
#
# Elastic Constant Matrix: (Units=GPa)
#
#
# Indices 1 2 3 4 5 6 
#
# 1 158.8668 27.7165 14.5366 0.0000 0.0000 0.0000
# 2 27.7165 78.6298 8.1215 0.0000 0.0000 0.0000
# 3 14.5366 8.1215 40.0610 0.0000 0.0000 0.0000
# 4 0.0000 0.0000 0.0000 6.7417 0.0000 0.0000
# 5 0.0000 0.0000 0.0000 0.0000 31.1084 0.0000
# 6 0.0000 0.0000 0.0000 0.0000 0.0000 65.3942
#
#
#
# Elastic Compliance Matrix: (Units=1/GPa)
#
#
# Indices 1 2 3 4 5 6 
#
# 1 0.006867 -0.002209 -0.002044 0.000000 0.000000 0.000000
# 2 -0.002209 0.013701 -0.001976 0.000000 0.000000 0.000000
# 3 -0.002044 -0.001976 0.026104 0.000000 0.000000 0.000000
# 4 0.000000 0.000000 0.000000 0.148330 0.000000 0.000000
# 5 0.000000 0.000000 0.000000 0.000000 0.032146 0.000000
# 6 0.000000 0.000000 0.000000 0.000000 0.000000 0.015292
#
#
# Mechanical properties :
#
#
# Convention : Reuss Voigt Hill
#
# Bulk Modulus (GPa) = 29.22809 42.03408 35.63109
# Shear Modulus (GPa) = 18.77567 35.79440 27.28504
#
# Velocity S-wave (km/s) = 2.81753 3.89026 3.39652
# Velocity P-wave (km/s) = 4.78983 6.16045 5.51787
#
# Compressibility (1/GPa) = 0.03421366
#
# Stress axis : x y z
#
# Youngs Moduli (GPa) = 145.62240 72.98884 38.30811
#
# Poissons Ratio (x) = 0.16127 0.07830
# Poissons Ratio (y) = 0.32175 0.07569
# Poissons Ratio (z) = 0.29763 0.14421
#
# Static dielectric constant tensor:
#      x y z
#    x 1.885180 0.000000 0.000000 
#    y 0.000000 2.080830 0.000000 
#    z 0.000000 0.000000 1.920460 
# 
# From -- ./inp_files/3918.got.cif
#   From: 2010.05.17/outbox.cif.g08.bks.cpg/sg32_2_cif.got.tgz:3918.got - 2010.06.03 17:12:27.
