data_PCOD9343825
_publ_section_title
;
Structure prediction by ZEFSAII (Michael W. Deem and Ramdas Pophale) SiO2 
 PCOD9343825
Probable space group: P B A 2
;
_chemical_formula_sum "Si O2"
_cell_formula_units_Z 32
_cell_length_a 15.398906
_cell_length_b 16.644605
_cell_length_c 6.991641
_cell_angle_alpha 90.000000
_cell_angle_beta 90.000000
_cell_angle_gamma 90.000000
_cell_volume 1792.018470
_symmetry_space_group_name_H-M "P B A 2"
_symmetry_group_IT_number 32
_symmetry_cell_setting 'orthorhombic'
loop_
_space_group_symop_operation_xyz
x,y,z
-x,-y,z
1/2-x,1/2+y,z
1/2+x,1/2-y,z
loop_
_atom_site_type_symbol
_atom_site_label
_atom_site_fract_x
_atom_site_fract_y
_atom_site_fract_z
Si Si1 0.487038 0.090211 0.188130
Si Si2 0.823627 0.134183 0.409155
Si Si3 0.600036 0.512556 0.120791
Si Si4 0.759800 0.069074 0.810461
Si Si5 0.706026 0.353306 0.176800
Si Si6 0.169918 0.326555 0.113874
Si Si7 0.643479 0.818756 0.466063
Si Si8 0.845292 0.408090 0.863615
O O1 0.579316 0.129734 0.146913
O O2 0.432114 0.142014 0.338606
O O3 0.500000 0.000000 0.263209
O O4 0.430756 0.084191 0.993732
O O5 0.888351 0.078176 0.288414
O O6 0.793803 0.092347 0.603443
O O7 0.739140 0.146276 0.274797
O O8 0.860730 0.222419 0.454221
O O9 0.500000 0.500000 0.069501
O O10 0.642051 0.428489 0.188660
O O11 0.659486 0.542599 0.944479
O O12 0.692361 0.994997 0.805242
O O13 0.712088 0.143422 0.915315
O O14 0.660561 0.268899 0.132480
O O15 0.765684 0.344391 0.365200
O O16 0.772964 0.369901 0.003508
O O17 0.640254 0.853267 0.679079
#
# Coordination Sequence:
#
# PCOD9343825 Si02
#       8
#     4   4   4   4   4   4   4   4
#     4  11  23  37  58  90 121 151 192 238 297 352
#     4  10  22  39  62  86 113 155 201 239 291 349
#     4  10  22  38  61  84 115 152 190 242 292 339
#     4  10  20  37  61  85 114 155 196 234 287 354
#     4   9  20  39  59  81 111 153 194 233 289 344
#     4  10  21  38  59  84 116 153 191 239 290 352
#     4  10  22  38  60  85 116 151 193 243 286 345
#     4  10  20  37  59  85 116 154 192 237 288 346
#
# _framework density 17.856957000000001
#
# number of rings (size 3 to 8) (size 9 to 14) (size 15 to 20)
#    0.000    2.000    1.250    1.500    5.250    3.000 
#    0.000    0.000    0.000    0.000    0.000    0.000 
#    0.000    0.000    0.000    0.000    0.000    0.000 
#
# Total GULP energy -178681.376024 kJ/mol
# GULP energy per Si atom -5583.793001 kJ/mol
# Density = 1.781631 g / cm^3
# Si number density = 17.856957 Si / 1000 Ang^3
#
#
#
# Elastic Constant Matrix: (Units=GPa)
#
#
# Indices 1 2 3 4 5 6 
#
# 1 71.2450 31.5886 1.2973 0.0000 0.0000 0.0000
# 2 31.5886 109.0773 27.9004 0.0000 0.0000 0.0000
# 3 1.2973 27.9004 76.3312 0.0000 0.0000 0.0000
# 4 0.0000 0.0000 0.0000 26.5700 0.0000 0.0000
# 5 0.0000 0.0000 0.0000 0.0000 9.8903 0.0000
# 6 0.0000 0.0000 0.0000 0.0000 0.0000 17.3215
#
#
#
# Elastic Compliance Matrix: (Units=1/GPa)
#
#
# Indices 1 2 3 4 5 6 
#
# 1 0.016278 -0.005122 0.001596 0.000000 0.000000 0.000000
# 2 -0.005122 0.011725 -0.004199 0.000000 0.000000 0.000000
# 3 0.001596 -0.004199 0.014608 0.000000 0.000000 0.000000
# 4 0.000000 0.000000 0.000000 0.037636 0.000000 0.000000
# 5 0.000000 0.000000 0.000000 0.000000 0.101110 0.000000
# 6 0.000000 0.000000 0.000000 0.000000 0.000000 0.057732
#
#
# Mechanical properties :
#
#
# Convention : Reuss Voigt Hill
#
# Bulk Modulus (GPa) = 36.81745 42.02509 39.42127
# Shear Modulus (GPa) = 18.96858 23.81416 21.39137
#
# Velocity S-wave (km/s) = 3.26276 3.65582 3.46487
# Velocity P-wave (km/s) = 5.90397 6.43470 6.17504
#
# Compressibility (1/GPa) = 0.02716103
#
# Stress axis : x y z
#
# Youngs Moduli (GPa) = 61.43211 85.28655 68.45381
#
# Poissons Ratio (x) = 0.43686 -0.10923
# Poissons Ratio (y) = 0.31467 0.28742
# Poissons Ratio (z) = -0.09802 0.35809
#
# Static dielectric constant tensor:
#      x y z
#    x 1.575770 0.000000 0.000000 
#    y 0.000000 1.611470 0.000000 
#    z 0.000000 0.000000 1.582790 
# 
# From -- ./inp_files/1300.got.cif
#   From: 2010.05.17/outbox.cif.g08.bks.cpg/sg32_1_cif.got.tgz:1300.got - 2010.06.03 17:12:27.
