data_PCOD9343557
_publ_section_title
;
Structure prediction by ZEFSAII (Michael W. Deem and Ramdas Pophale) SiO2 
 PCOD9343557
Probable space group: P M N 21
;
_chemical_formula_sum "Si O2"
_cell_formula_units_Z 32
_cell_length_a 14.377409
_cell_length_b 7.793034
_cell_length_c 12.986538
_cell_angle_alpha 90.000000
_cell_angle_beta 90.000000
_cell_angle_gamma 90.000000
_cell_volume 1455.058952
_symmetry_space_group_name_H-M "P M N 21"
_symmetry_group_IT_number 31
_symmetry_cell_setting 'orthorhombic'
loop_
_space_group_symop_operation_xyz
x,y,z
1/2-x,-y,1/2+z
-x,y,z
1/2+x,-y,1/2+z
loop_
_atom_site_type_symbol
_atom_site_label
_atom_site_fract_x
_atom_site_fract_y
_atom_site_fract_z
Si Si1 0.297329 0.250377 0.107620
Si Si2 0.601138 0.662736 0.654698
Si Si3 0.889493 0.931178 0.788110
Si Si4 0.759116 0.921066 0.977424
Si Si5 0.892927 0.025166 0.315296
Si Si6 0.899768 0.489229 0.492860
Si Si7 0.180950 0.253906 0.656715
Si Si8 0.828044 0.624132 0.293970
O O1 0.200072 0.351488 0.098350
O O2 0.326416 0.202936 0.223594
O O3 0.386695 0.342988 0.062133
O O4 0.275007 0.090341 0.035623
O O5 0.500000 0.667144 0.601341
O O6 0.604573 0.496262 0.727600
O O7 0.609428 0.844876 0.717451
O O8 0.866382 0.102479 0.721494
O O9 0.000000 0.898853 0.787791
O O10 0.847875 0.941526 0.903705
O O11 0.673952 0.886883 0.898999
O O12 0.764111 0.797456 0.076352
O O13 0.858061 0.826953 0.299593
O O14 0.000000 0.016926 0.349444
O O15 0.887145 0.340596 0.575661
O O16 0.826505 0.529344 0.403536
O O17 0.000000 0.476546 0.442795
O O18 0.227554 0.375008 0.740792
#
# Coordination Sequence:
#
# PCOD9343557 Si02
#       8
#     4   4   4   4   4   4   4   4
#     4  11  22  40  62  91 131 169 218 276 335 396
#     4  11  23  40  65  94 128 172 220 273 333 399
#     4  11  23  43  66  94 132 177 225 279 338 408
#     4  11  22  40  66  93 129 175 224 273 342 400
#     4  11  21  38  66  97 130 170 222 278 339 401
#     4  12  24  39  65  99 131 174 223 277 346 411
#     4  11  24  42  68  97 134 180 226 286 345 411
#     4  12  23  44  66  99 139 175 220 288 344 400
#
# _framework density 21.992238
#
# number of rings (size 3 to 8) (size 9 to 14) (size 15 to 20)
#    0.000    0.750    5.000    3.375    0.000    4.000 
#    0.000    1.875    0.000    0.000    0.000    0.000 
#    0.000    0.000    0.000    0.000    0.000    0.000 
#
# Total GULP energy -178292.579353 kJ/mol
# GULP energy per Si atom -5571.643105 kJ/mol
# Density = 2.194218 g / cm^3
# Si number density = 21.992238 Si / 1000 Ang^3
#
#
#
# Elastic Constant Matrix: (Units=GPa)
#
#
# Indices 1 2 3 4 5 6 
#
# 1 126.5863 -5.3194 30.3050 0.0000 0.0000 0.0000
# 2 -5.3194 60.7203 7.1250 0.0000 0.0000 0.0000
# 3 30.3050 7.1250 84.9299 0.0000 0.0000 0.0000
# 4 0.0000 0.0000 0.0000 1405.0300 0.0000 0.0000
# 5 0.0000 0.0000 0.0000 0.0000 -32.0444 0.0000
# 6 0.0000 0.0000 0.0000 0.0000 0.0000 17.4305
#
#
#
# Elastic Compliance Matrix: (Units=1/GPa)
#
#
# Indices 1 2 3 4 5 6 
#
# 1 0.008715 0.001140 -0.003205 0.000000 0.000000 0.000000
# 2 0.001140 0.016782 -0.001814 0.000000 0.000000 0.000000
# 3 -0.003205 -0.001814 0.013070 0.000000 0.000000 0.000000
# 4 0.000000 0.000000 0.000000 0.000712 0.000000 0.000000
# 5 0.000000 0.000000 0.000000 0.000000 -0.031207 0.000000
# 6 0.000000 0.000000 0.000000 0.000000 0.000000 0.057371
#
#
# Mechanical properties :
#
#
# Convention : Reuss Voigt Hill
#
# Bulk Modulus (GPa) = 32.46053 37.38418 34.92236
# Shear Modulus (GPa) = 59.90023 294.09161 176.99592
#
# Velocity S-wave (km/s) = 5.22457 11.57651 8.98086
# Velocity P-wave (km/s) = 7.15450 13.99010 11.11103
#
# Compressibility (1/GPa) = 0.03080664
#
# Stress axis : x y z
#
# Youngs Moduli (GPa) = 114.74477 59.58866 76.50892
#
# Poissons Ratio (x) = -0.06791 0.24524
# Poissons Ratio (y) = -0.13076 0.13882
# Poissons Ratio (z) = 0.36779 0.10812
#
# Static dielectric constant tensor:
#      x y z
#    x 1.875370 0.000000 0.000000 
#    y 0.000000 -6.979960 0.000000 
#    z 0.000000 0.000000 1.843880 
# 
# From -- ./inp_files/4267.got.cif
#   From: 2010.05.17/outbox.cif.g08.bks.cpg/sg31_3_cif.got.tgz:4267.got - 2010.06.03 17:08:30.
