data_PCOD9343074
_publ_section_title
;
Structure prediction by ZEFSAII (Michael W. Deem and Ramdas Pophale) SiO2 
 PCOD9343074
Probable space group: P M N 21
;
_chemical_formula_sum "Si O2"
_cell_formula_units_Z 32
_cell_length_a 8.671215
_cell_length_b 14.580899
_cell_length_c 14.545895
_cell_angle_alpha 90.000000
_cell_angle_beta 90.000000
_cell_angle_gamma 90.000000
_cell_volume 1839.097290
_symmetry_space_group_name_H-M "P M N 21"
_symmetry_group_IT_number 31
_symmetry_cell_setting 'orthorhombic'
loop_
_space_group_symop_operation_xyz
x,y,z
1/2-x,-y,1/2+z
-x,y,z
1/2+x,-y,1/2+z
loop_
_atom_site_type_symbol
_atom_site_label
_atom_site_fract_x
_atom_site_fract_y
_atom_site_fract_z
Si Si1 0.814317 0.098132 0.300390
Si Si2 0.815132 0.755272 0.154722
Si Si3 0.684868 0.244728 0.946058
Si Si4 0.316640 0.894782 0.300390
Si Si5 0.313963 0.751434 0.650222
Si Si6 0.688018 0.604400 0.800390
Si Si7 0.687360 0.395673 0.800390
Si Si8 0.313962 0.751434 0.950558
O O1 0.773074 0.159601 0.211489
O O2 0.773073 0.159601 0.389291
O O3 0.000000 0.087588 0.300390
O O4 0.737429 0.999504 0.300390
O O5 0.748527 0.840757 0.211869
O O6 0.766817 0.664122 0.211534
O O7 0.000000 0.760394 0.157511
O O8 0.757824 0.753119 0.050852
O O9 0.500000 0.239605 0.943269
O O10 0.751473 0.159243 0.888911
O O11 0.733183 0.335878 0.889246
O O12 0.742176 0.246881 0.049928
O O13 0.500000 0.889265 0.300390
O O14 0.500000 0.749711 0.642608
O O15 0.266135 0.663069 0.710814
O O16 0.500000 0.603454 0.800390
O O17 0.743543 0.499970 0.800390
O O18 0.733865 0.663070 0.889965
O O19 0.500000 0.399099 0.800390
O O20 0.500000 0.749711 0.958172
#
# Coordination Sequence:
#
# PCOD9343074 Si02
#       8
#     4   4   4   4   4   4   4   4
#     4   9  19  36  54  74 102 133 167 209 256 301
#     4  10  20  34  52  75 106 138 166 205 254 300
#     4  10  20  34  52  75 106 138 166 205 254 300
#     4  11  22  36  55  76  98 129 171 213 251 299
#     4   9  18  33  54  77 101 133 171 209 249 297
#     4   8  15  31  53  75 102 135 171 210 249 293
#     4   8  16  31  50  73 102 137 171 204 250 299
#     4   9  18  33  54  77 101 133 171 209 249 297
#
# _framework density 17.399840000000001
#
# number of rings (size 3 to 8) (size 9 to 14) (size 15 to 20)
#    0.000    2.750    0.000    4.125    0.000    3.000 
#    0.000    1.875    0.000    7.500    0.000    0.000 
#    0.000    0.000    0.000    0.000    0.000    0.000 
#
# Total GULP energy -178460.843552 kJ/mol
# GULP energy per Si atom -5576.901361 kJ/mol
# Density = 1.736024 g / cm^3
# Si number density = 17.399840 Si / 1000 Ang^3
#
#
#
# Elastic Constant Matrix: (Units=GPa)
#
#
# Indices 1 2 3 4 5 6 
#
# 1 43.3964 52.3921 53.9009 0.0000 0.0000 0.0000
# 2 52.3921 191.1565 107.9226 0.0000 0.0000 0.0000
# 3 53.9009 107.9226 196.7081 0.0000 0.0000 0.0000
# 4 0.0000 0.0000 0.0000 5.4618 0.0000 0.0000
# 5 0.0000 0.0000 0.0000 0.0000 30.1132 0.0000
# 6 0.0000 0.0000 0.0000 0.0000 0.0000 13.9701
#
#
#
# Elastic Compliance Matrix: (Units=1/GPa)
#
#
# Indices 1 2 3 4 5 6 
#
# 1 0.040518 -0.007008 -0.007258 0.000000 0.000000 0.000000
# 2 -0.007008 0.008791 -0.002903 0.000000 0.000000 0.000000
# 3 -0.007258 -0.002903 0.008665 0.000000 0.000000 0.000000
# 4 0.000000 0.000000 0.000000 0.183088 0.000000 0.000000
# 5 0.000000 0.000000 0.000000 0.000000 0.033208 0.000000
# 6 0.000000 0.000000 0.000000 0.000000 0.000000 0.071581
#
#
# Mechanical properties :
#
#
# Convention : Reuss Voigt Hill
#
# Bulk Modulus (GPa) = 42.30561 95.52138 68.91349
# Shear Modulus (GPa) = 12.88434 24.37872 18.63153
#
# Velocity S-wave (km/s) = 2.72414 3.74717 3.27584
# Velocity P-wave (km/s) = 5.85330 8.58713 7.34847
#
# Compressibility (1/GPa) = 0.02363753
#
# Stress axis : x y z
#
# Youngs Moduli (GPa) = 24.68011 113.75476 115.40542
#
# Poissons Ratio (x) = 0.79715 0.83761
# Poissons Ratio (y) = 0.17295 0.33501
# Poissons Ratio (z) = 0.17913 0.33021
#
# Static dielectric constant tensor:
#      x y z
#    x 1.583910 0.000000 0.000000 
#    y 0.000000 1.583870 0.000000 
#    z 0.000000 0.000000 1.563470 
# 
# From -- ./inp_files/5117.got.cif
#   From: 2010.05.17/outbox.cif.g08.bks.cpg/sg31_3_cif.got.tgz:5117.got - 2010.06.03 17:08:30.
