data_PCOD9343161
_publ_section_title
;
Structure prediction by ZEFSAII (Michael W. Deem and Ramdas Pophale) SiO2 
 PCOD9343161
Probable space group: P M N 21
;
_chemical_formula_sum "Si O2"
_cell_formula_units_Z 32
_cell_length_a 8.680786
_cell_length_b 14.778833
_cell_length_c 12.805648
_cell_angle_alpha 90.000000
_cell_angle_beta 90.000000
_cell_angle_gamma 90.000000
_cell_volume 1642.860741
_symmetry_space_group_name_H-M "P M N 21"
_symmetry_group_IT_number 31
_symmetry_cell_setting 'orthorhombic'
loop_
_space_group_symop_operation_xyz
x,y,z
1/2-x,-y,1/2+z
-x,y,z
1/2+x,-y,1/2+z
loop_
_atom_site_type_symbol
_atom_site_label
_atom_site_fract_x
_atom_site_fract_y
_atom_site_fract_z
Si Si1 0.676988 0.699583 0.494730
Si Si2 0.324111 0.830932 0.291416
Si Si3 0.816578 0.163195 0.350613
Si Si4 0.312861 0.667206 0.158578
Si Si5 0.684715 0.023333 0.933765
Si Si6 0.315595 0.350967 0.428691
Si Si7 0.687659 0.542844 0.351334
Si Si8 0.816991 0.851862 0.625580
O O1 0.500000 0.692293 0.532430
O O2 0.673187 0.762112 0.390423
O O3 0.734234 0.603390 0.451710
O O4 0.779090 0.753158 0.577270
O O5 0.500000 0.857475 0.267518
O O6 0.263819 0.767606 0.198132
O O7 0.235305 0.917772 0.333414
O O8 0.740404 0.257871 0.378788
O O9 0.772324 0.137634 0.232856
O O10 0.000000 0.171990 0.361594
O O11 0.762292 0.079644 0.422659
O O12 0.500000 0.668454 0.156752
O O13 0.263054 0.594044 0.245935
O O14 0.248573 0.644788 0.045922
O O15 0.500000 0.023356 0.936250
O O16 0.736054 0.075771 0.038020
O O17 0.500000 0.352320 0.431405
O O18 0.262834 0.439830 0.365079
O O19 0.500000 0.545949 0.351037
O O20 0.000000 0.860997 0.641702
#
# Coordination Sequence:
#
# PCOD9343161 Si02
#       8
#     4   4   4   4   4   4   4   4
#     4   8  14  30  55  81 107 139 176 217 264 321
#     4   8  15  29  54  82 106 135 176 219 264 319
#     4  11  24  41  56  76 109 149 185 218 263 327
#     4   9  18  36  58  80 109 147 181 218 272 330
#     4   9  20  37  57  80 108 140 181 228 273 321
#     4  11  23  38  55  81 113 144 181 228 270 312
#     4   8  17  35  58  81 109 144 186 227 267 319
#     4  10  20  36  57  83 111 140 176 227 279 319
#
# _framework density 19.478217000000001
#
# number of rings (size 3 to 8) (size 9 to 14) (size 15 to 20)
#    0.000    2.750    0.000    2.625    0.000    4.000 
#    0.000   10.625    0.000    0.000    0.000    0.000 
#    0.000    0.000    0.000    0.000    0.000    0.000 
#
# Total GULP energy -178467.554257 kJ/mol
# GULP energy per Si atom -5577.111071 kJ/mol
# Density = 1.943388 g / cm^3
# Si number density = 19.478217 Si / 1000 Ang^3
#
#
#
# Elastic Constant Matrix: (Units=GPa)
#
#
# Indices 1 2 3 4 5 6 
#
# 1 11.2662 8.7074 -0.0820 0.0000 0.0000 0.0000
# 2 8.7074 124.6621 23.2248 0.0000 0.0000 0.0000
# 3 -0.0820 23.2248 54.4413 0.0000 0.0000 0.0000
# 4 0.0000 0.0000 0.0000 20.9222 0.0000 0.0000
# 5 0.0000 0.0000 0.0000 0.0000 28.1144 0.0000
# 6 0.0000 0.0000 0.0000 0.0000 0.0000 19.5419
#
#
#
# Elastic Compliance Matrix: (Units=1/GPa)
#
#
# Indices 1 2 3 4 5 6 
#
# 1 0.094339 -0.007187 0.003208 0.000000 0.000000 0.000000
# 2 -0.007187 0.009262 -0.003962 0.000000 0.000000 0.000000
# 3 0.003208 -0.003962 0.020063 0.000000 0.000000 0.000000
# 4 0.000000 0.000000 0.000000 0.047796 0.000000 0.000000
# 5 0.000000 0.000000 0.000000 0.000000 0.035569 0.000000
# 6 0.000000 0.000000 0.000000 0.000000 0.000000 0.051172
#
#
# Mechanical properties :
#
#
# Convention : Reuss Voigt Hill
#
# Bulk Modulus (GPa) = 9.27797 28.23000 18.75399
# Shear Modulus (GPa) = 16.12849 24.28367 20.20608
#
# Velocity S-wave (km/s) = 2.88067 3.53471 3.22431
# Velocity P-wave (km/s) = 3.97969 5.58421 4.84878
#
# Compressibility (1/GPa) = 0.10778223
#
# Stress axis : x y z
#
# Youngs Moduli (GPa) = 10.60009 107.97038 49.84203
#
# Poissons Ratio (x) = 0.77599 -0.15990
# Poissons Ratio (y) = 0.07618 0.19747
# Poissons Ratio (z) = -0.03401 0.42777
#
# Static dielectric constant tensor:
#      x y z
#    x 1.660800 0.000000 0.000000 
#    y 0.000000 1.709920 0.000000 
#    z 0.000000 0.000000 1.682950 
# 
# From -- ./inp_files/3649.got.cif
#   From: 2010.05.17/outbox.cif.g08.bks.cpg/sg31_2_cif.got.tgz:3649.got - 2010.06.03 17:08:30.
