data_PCOD9343742
_publ_section_title
;
Structure prediction by ZEFSAII (Michael W. Deem and Ramdas Pophale) SiO2 
 PCOD9343742
Probable space group: P B A 2
;
_chemical_formula_sum "Si O2"
_cell_formula_units_Z 22
_cell_length_a 5.255105
_cell_length_b 10.047173
_cell_length_c 15.299937
_cell_angle_alpha 90.000000
_cell_angle_beta 90.000000
_cell_angle_gamma 90.000000
_cell_volume 807.820594
_symmetry_space_group_name_H-M "P B A 2"
_symmetry_group_IT_number 32
_symmetry_cell_setting 'orthorhombic'
loop_
_space_group_symop_operation_xyz
x,y,z
-x,-y,z
1/2-x,1/2+y,z
1/2+x,1/2-y,z
loop_
_atom_site_type_symbol
_atom_site_label
_atom_site_fract_x
_atom_site_fract_y
_atom_site_fract_z
Si Si1 0.000000 0.000000 0.825080
Si Si2 0.734633 0.178731 0.926645
Si Si3 0.762318 0.661898 0.671166
Si Si4 0.747180 0.083429 0.105502
Si Si5 0.321665 0.830422 0.304473
Si Si6 0.813789 0.161077 0.482828
O O1 0.779416 0.025947 0.900704
O O2 0.819710 0.071144 0.751184
O O3 0.993378 0.245026 0.888860
O O4 0.746629 0.195090 0.030975
O O5 0.547601 0.779414 0.674783
O O6 0.730375 0.593499 0.576152
O O7 0.726408 0.118620 0.207289
O O8 0.500000 0.000000 0.084234
O O9 0.000000 0.000000 0.095221
O O10 0.616411 0.790021 0.309671
O O11 0.244959 0.912018 0.391372
O O12 0.596598 0.277332 0.482321
#
# Coordination Sequence:
#
# PCOD9343742 Si02
#       6
#     2   4   4   4   4   4
#     4  12  26  44  70  98 132 170 232 280 338 408
#     4  12  27  46  69  97 132 177 222 280 343 401
#     4  10  22  42  65  95 131 171 215 272 333 392
#     4  12  24  42  63  95 134 172 218 280 329 400
#     4  10  19  36  63  91 123 171 216 259 322 394
#     4   8  16  33  60  87 122 164 209 257 314 389
#
# _framework density 27.233771000000001
#
# number of rings (size 3 to 8) (size 9 to 14) (size 15 to 20)
#    0.000    1.455    0.909    4.364    0.000    2.182 
#    1.636    0.000    0.000    0.000    0.000    0.000 
#    0.000    0.000    0.000    0.000    0.000    0.000 
#
# Total GULP energy -122736.504044 kJ/mol
# GULP energy per Si atom -5578.932002 kJ/mol
# Density = 2.717179 g / cm^3
# Si number density = 27.233771 Si / 1000 Ang^3
#
#
#
# Elastic Constant Matrix: (Units=GPa)
#
#
# Indices 1 2 3 4 5 6 
#
# 1 197.5070 43.9220 9.7887 0.0000 0.0000 0.0000
# 2 43.9220 29.2975 -0.4347 0.0000 0.0000 0.0000
# 3 9.7887 -0.4347 239.7196 0.0000 0.0000 0.0000
# 4 0.0000 0.0000 0.0000 18.4600 0.0000 0.0000
# 5 0.0000 0.0000 0.0000 0.0000 25.8807 0.0000
# 6 0.0000 0.0000 0.0000 0.0000 0.0000 48.3270
#
#
#
# Elastic Compliance Matrix: (Units=1/GPa)
#
#
# Indices 1 2 3 4 5 6 
#
# 1 0.007622 -0.011431 -0.000332 0.000000 0.000000 0.000000
# 2 -0.011431 0.051278 0.000560 0.000000 0.000000 0.000000
# 3 -0.000332 0.000560 0.004186 0.000000 0.000000 0.000000
# 4 0.000000 0.000000 0.000000 0.054171 0.000000 0.000000
# 5 0.000000 0.000000 0.000000 0.000000 0.038639 0.000000
# 6 0.000000 0.000000 0.000000 0.000000 0.000000 0.020692
#
#
# Mechanical properties :
#
#
# Convention : Reuss Voigt Hill
#
# Bulk Modulus (GPa) = 24.58252 63.67513 44.12882
# Shear Modulus (GPa) = 23.52338 46.08342 34.80340
#
# Velocity S-wave (km/s) = 2.94216 4.11803 3.57872
# Velocity P-wave (km/s) = 4.53738 6.78547 5.77193
#
# Compressibility (1/GPa) = 0.04067932
#
# Stress axis : x y z
#
# Youngs Moduli (GPa) = 131.20553 19.50150 238.88528
#
# Poissons Ratio (x) = 0.22292 0.07930
# Poissons Ratio (y) = 1.49982 -0.13372
# Poissons Ratio (z) = 0.04355 -0.01092
#
# Static dielectric constant tensor:
#      x y z
#    x 2.026910 0.000000 0.000000 
#    y 0.000000 3.764400 0.000000 
#    z 0.000000 0.000000 2.153540 
# 
# From -- ./inp_files/4070.got.cif
#   From: 2010.05.17/outbox.cif.g08.bks.cpg/sg32_3_cif.got.tgz:4070.got - 2010.06.03 17:12:27.
