data_PCOD9343059
_publ_section_title
;
Structure prediction by ZEFSAII (Michael W. Deem and Ramdas Pophale) SiO2 
 PCOD9343059
Probable space group: P M N 21
;
_chemical_formula_sum "Si O2"
_cell_formula_units_Z 32
_cell_length_a 7.462907
_cell_length_b 13.349140
_cell_length_c 13.323403
_cell_angle_alpha 90.000000
_cell_angle_beta 90.000000
_cell_angle_gamma 90.000000
_cell_volume 1327.322578
_symmetry_space_group_name_H-M "P M N 21"
_symmetry_group_IT_number 31
_symmetry_cell_setting 'orthorhombic'
loop_
_space_group_symop_operation_xyz
x,y,z
1/2-x,-y,1/2+z
-x,y,z
1/2+x,-y,1/2+z
loop_
_atom_site_type_symbol
_atom_site_label
_atom_site_fract_x
_atom_site_fract_y
_atom_site_fract_z
Si Si1 0.784464 0.268252 0.177320
Si Si2 0.783185 0.572859 0.994953
Si Si3 0.710702 0.107810 0.009445
Si Si4 0.792636 0.185961 0.801797
Si Si5 0.217046 0.498693 0.198497
Si Si6 0.280198 0.897020 0.089335
Si Si7 0.299431 0.613917 0.390674
Si Si8 0.705385 0.777346 0.894229
O O1 0.728421 0.384373 0.176842
O O2 0.716535 0.218041 0.281759
O O3 0.000000 0.269086 0.184017
O O4 0.739216 0.206085 0.077772
O O5 0.715440 0.461196 0.969864
O O6 0.708059 0.660786 0.927271
O O7 0.000000 0.573617 0.983964
O O8 0.741119 0.579653 0.112051
O O9 0.500000 0.096111 0.994402
O O10 0.789178 0.112368 0.897346
O O11 0.775179 0.011563 0.071460
O O12 0.718347 0.145393 0.696998
O O13 0.708989 0.286726 0.848875
O O14 0.000000 0.212121 0.780577
O O15 0.307579 0.538815 0.297379
O O16 0.000000 0.498242 0.210488
O O17 0.500000 0.893537 0.091626
O O18 0.218286 0.835230 0.990992
O O19 0.500000 0.640467 0.428532
O O20 0.500000 0.812314 0.886152
#
# Coordination Sequence:
#
# PCOD9343059 Si02
#       8
#     4   4   4   4   4   4   4   4
#     4  10  21  38  61  88 120 159 197 235 291 358
#     4  10  20  33  52  82 121 152 182 233 285 329
#     4  11  24  40  61  89 118 150 196 254 300 341
#     4  10  21  41  63  84 117 159 198 237 294 364
#     4  10  20  35  55  83 118 154 192 234 278 335
#     4   9  21  40  62  88 116 149 195 250 299 346
#     4  10  20  35  57  83 113 152 191 229 278 339
#     4  10  20  38  63  87 115 155 199 238 283 352
#
# _framework density 24.108682000000002
#
# number of rings (size 3 to 8) (size 9 to 14) (size 15 to 20)
#    0.000    2.000    1.250    1.875    1.750    5.000 
#    0.000    3.750    0.000    0.000    0.000    0.000 
#    0.000    0.000    0.000    0.000    0.000    0.000 
#
# Total GULP energy -178697.674681 kJ/mol
# GULP energy per Si atom -5584.302334 kJ/mol
# Density = 2.405381 g / cm^3
# Si number density = 24.108682 Si / 1000 Ang^3
#
#
#
# Elastic Constant Matrix: (Units=GPa)
#
#
# Indices 1 2 3 4 5 6 
#
# 1 71.7953 -5.5859 -2.1813 0.0000 0.0000 0.0000
# 2 -5.5859 75.9887 18.2494 0.0000 0.0000 0.0000
# 3 -2.1813 18.2494 146.9825 0.0000 0.0000 0.0000
# 4 0.0000 0.0000 0.0000 39.2450 0.0000 0.0000
# 5 0.0000 0.0000 0.0000 0.0000 8.8373 0.0000
# 6 0.0000 0.0000 0.0000 0.0000 0.0000 14.9849
#
#
#
# Elastic Compliance Matrix: (Units=1/GPa)
#
#
# Indices 1 2 3 4 5 6 
#
# 1 0.014010 0.001010 0.000083 0.000000 0.000000 0.000000
# 2 0.001010 0.013637 -0.001678 0.000000 0.000000 0.000000
# 3 0.000083 -0.001678 0.007013 0.000000 0.000000 0.000000
# 4 0.000000 0.000000 0.000000 0.025481 0.000000 0.000000
# 5 0.000000 0.000000 0.000000 0.000000 0.113157 0.000000
# 6 0.000000 0.000000 0.000000 0.000000 0.000000 0.066734
#
#
# Mechanical properties :
#
#
# Convention : Reuss Voigt Hill
#
# Bulk Modulus (GPa) = 29.86098 35.08119 32.47109
# Shear Modulus (GPa) = 19.81250 31.56573 25.68912
#
# Velocity S-wave (km/s) = 2.86981 3.62236 3.26782
# Velocity P-wave (km/s) = 4.83673 5.66376 5.26651
#
# Compressibility (1/GPa) = 0.03348851
#
# Stress axis : x y z
#
# Youngs Moduli (GPa) = 71.37969 73.32922 142.58991
#
# Poissons Ratio (x) = -0.07406 -0.01176
# Poissons Ratio (y) = -0.07210 0.23929
# Poissons Ratio (z) = -0.00589 0.12306
#
# Static dielectric constant tensor:
#      x y z
#    x 1.945280 0.000000 0.000000 
#    y 0.000000 1.930640 0.000000 
#    z 0.000000 0.000000 1.907880 
# 
# From -- ./inp_files/3699.got.cif
#   From: 2010.05.17/outbox.cif.g08.bks.cpg/sg31_2_cif.got.tgz:3699.got - 2010.06.03 17:08:30.
