data_PCOD9343186
_publ_section_title
;
Structure prediction by ZEFSAII (Michael W. Deem and Ramdas Pophale) SiO2 
 PCOD9343186
Probable space group: P M N 21
;
_chemical_formula_sum "Si O2"
_cell_formula_units_Z 28
_cell_length_a 22.904700
_cell_length_b 7.977075
_cell_length_c 7.334578
_cell_angle_alpha 90.000000
_cell_angle_beta 90.000000
_cell_angle_gamma 90.000000
_cell_volume 1340.119154
_symmetry_space_group_name_H-M "P M N 21"
_symmetry_group_IT_number 31
_symmetry_cell_setting 'orthorhombic'
loop_
_space_group_symop_operation_xyz
x,y,z
1/2-x,-y,1/2+z
-x,y,z
1/2+x,-y,1/2+z
loop_
_atom_site_type_symbol
_atom_site_label
_atom_site_fract_x
_atom_site_fract_y
_atom_site_fract_z
Si Si1 0.821564 0.286905 0.210950
Si Si2 0.114972 0.048262 0.718117
Si Si3 0.562646 0.155104 0.529889
Si Si4 0.436167 0.891543 0.820753
Si Si5 0.329406 0.331701 0.685143
Si Si6 0.192154 0.730891 0.602572
Si Si7 0.303755 0.660513 0.143516
O O1 0.881912 0.186963 0.209805
O O2 0.830623 0.472811 0.140102
O O3 0.812973 0.311925 0.428287
O O4 0.761431 0.223042 0.119494
O O5 0.072692 0.987484 0.878032
O O6 0.157486 0.888116 0.684989
O O7 0.080666 0.087850 0.531328
O O8 0.153134 0.215992 0.751872
O O9 0.500000 0.241100 0.491061
O O10 0.622269 0.255484 0.553936
O O11 0.558104 0.070805 0.727333
O O12 0.500000 0.806310 0.802741
O O13 0.335880 0.294732 0.901209
O O14 0.262489 0.278595 0.663507
O O15 0.190114 0.539364 0.684777
#
# Coordination Sequence:
#
# PCOD9343186 Si02
#       7
#     4   4   4   4   4   4   4
#     4   9  20  37  59  88 121 159 198 249 309 358
#     4  11  22  39  66  86 120 162 198 249 312 350
#     4  11  24  40  60  88 119 159 209 246 291 362
#     4  10  22  41  61  85 119 160 206 247 294 356
#     4  10  20  37  59  89 125 155 199 252 301 364
#     4  10  20  36  61  93 123 156 195 252 310 363
#     4   9  21  36  58  95 122 153 201 251 303 369
#
# _framework density 20.893664000000001
#
# number of rings (size 3 to 8) (size 9 to 14) (size 15 to 20)
#    0.000    2.000    1.429    1.286    4.000    1.714 
#    0.000    0.000    0.000    1.714    0.000    0.000 
#    0.000    0.000    0.000    0.000    0.000    0.000 
#
# Total GULP energy -155938.777200 kJ/mol
# GULP energy per Si atom -5569.242043 kJ/mol
# Density = 2.084611 g / cm^3
# Si number density = 20.893664 Si / 1000 Ang^3
#
#
#
# Elastic Constant Matrix: (Units=GPa)
#
#
# Indices 1 2 3 4 5 6 
#
# 1 117.0342 38.5130 20.1825 0.0000 0.0000 0.0000
# 2 38.5130 47.3155 5.2438 0.0000 0.0000 0.0000
# 3 20.1825 5.2438 51.0477 0.0000 0.0000 0.0000
# 4 0.0000 0.0000 0.0000 21.2802 0.0000 0.0000
# 5 0.0000 0.0000 0.0000 0.0000 10.2307 0.0000
# 6 0.0000 0.0000 0.0000 0.0000 0.0000 -436.3991
#
#
#
# Elastic Compliance Matrix: (Units=1/GPa)
#
#
# Indices 1 2 3 4 5 6 
#
# 1 0.012397 -0.009657 -0.003909 0.000000 0.000000 0.000000
# 2 -0.009657 0.028901 0.000849 0.000000 0.000000 0.000000
# 3 -0.003909 0.000849 0.021048 0.000000 0.000000 0.000000
# 4 0.000000 0.000000 0.000000 0.046992 0.000000 0.000000
# 5 0.000000 0.000000 0.000000 0.000000 0.097745 0.000000
# 6 0.000000 0.000000 0.000000 0.000000 0.000000 -0.002291
#
#
# Mechanical properties :
#
#
# Convention : Reuss Voigt Hill
#
# Bulk Modulus (GPa) = 27.09185 38.14178 32.61681
# Shear Modulus (GPa) = 20.61613 -70.88044 -25.13215
#
# Velocity S-wave (km/s) = 3.14461 -5.83078 -3.47199
# Velocity P-wave (km/s) = 5.11659 5.19960 0.65437
#
# Compressibility (1/GPa) = 0.03691148
#
# Stress axis : x y z
#
# Youngs Moduli (GPa) = 80.66771 34.60075 47.51089
#
# Poissons Ratio (x) = 0.33414 0.18573
# Poissons Ratio (y) = 0.77901 -0.04035
# Poissons Ratio (z) = 0.31534 -0.02938
#
# Static dielectric constant tensor:
#      x y z
#    x 1.883120 0.000000 0.000000 
#    y 0.000000 1.760910 0.000000 
#    z 0.000000 0.000000 1.806100 
# 
# From -- ./inp_files/2946.got.cif
#   From: 2010.05.17/outbox.cif.g08.bks.cpg/sg31_2_cif.got.tgz:2946.got - 2010.06.03 17:08:30.
