data_PCOD9343425
_publ_section_title
;
Structure prediction by ZEFSAII (Michael W. Deem and Ramdas Pophale) SiO2 
 PCOD9343425
Probable space group: P M N 21
;
_chemical_formula_sum "Si O2"
_cell_formula_units_Z 20
_cell_length_a 18.576016
_cell_length_b 6.748066
_cell_length_c 6.950963
_cell_angle_alpha 90.000000
_cell_angle_beta 90.000000
_cell_angle_gamma 90.000000
_cell_volume 871.318379
_symmetry_space_group_name_H-M "P M N 21"
_symmetry_group_IT_number 31
_symmetry_cell_setting 'orthorhombic'
loop_
_space_group_symop_operation_xyz
x,y,z
1/2-x,-y,1/2+z
-x,y,z
1/2+x,-y,1/2+z
loop_
_atom_site_type_symbol
_atom_site_label
_atom_site_fract_x
_atom_site_fract_y
_atom_site_fract_z
Si Si1 0.087359 0.383650 0.278490
Si Si2 0.700800 0.341550 0.919748
Si Si3 0.663225 0.909209 0.475111
Si Si4 0.080807 0.331643 0.730153
Si Si5 0.317309 0.335150 0.365680
O O1 0.131960 0.594045 0.290495
O O2 0.092774 0.328763 0.503947
O O3 0.000000 0.393557 0.232700
O O4 0.132187 0.217411 0.156502
O O5 0.763890 0.182077 0.879050
O O6 0.745361 0.548624 0.924833
O O7 0.682663 0.281391 0.138591
O O8 0.601454 0.878099 0.316946
O O9 0.674400 0.141304 0.492523
O O10 0.123521 0.492387 0.857327
O O11 0.000000 0.384544 0.761641
#
# Coordination Sequence:
#
# PCOD9343425 Si02
#       5
#     4   4   4   4   4
#     4  10  21  42  68  97 138 182 227 281 348 419
#     4  10  21  43  62  97 135 179 231 285 342 412
#     4  11  22  40  68  99 134 178 238 288 340 412
#     4   9  21  41  63  95 140 181 223 285 350 412
#     4  10  22  40  66  96 129 182 225 291 339 409
#
# _framework density 22.953724000000001
#
# number of rings (size 3 to 8) (size 9 to 14) (size 15 to 20)
#    0.000    2.000    2.000    0.600    0.000    6.400 
#    3.600    0.000    0.000   13.200    0.000    0.000 
#    0.000    0.000    0.000    0.000    0.000    0.000 
#
# Total GULP energy -111366.711375 kJ/mol
# GULP energy per Si atom -5568.335569 kJ/mol
# Density = 2.290148 g / cm^3
# Si number density = 22.953724 Si / 1000 Ang^3
#
#
#
# Elastic Constant Matrix: (Units=GPa)
#
#
# Indices 1 2 3 4 5 6 
#
# 1 112.6646 29.1515 34.7971 0.0000 0.0000 0.0000
# 2 29.1515 87.8595 49.8992 0.0000 0.0000 0.0000
# 3 34.7971 49.8992 106.0464 0.0000 0.0000 0.0000
# 4 0.0000 0.0000 0.0000 5.5515 0.0000 0.0000
# 5 0.0000 0.0000 0.0000 0.0000 34.7285 0.0000
# 6 0.0000 0.0000 0.0000 0.0000 0.0000 5.9872
#
#
#
# Elastic Compliance Matrix: (Units=1/GPa)
#
#
# Indices 1 2 3 4 5 6 
#
# 1 0.010131 -0.002011 -0.002378 0.000000 0.000000 0.000000
# 2 -0.002011 0.015932 -0.006837 0.000000 0.000000 0.000000
# 3 -0.002378 -0.006837 0.013427 0.000000 0.000000 0.000000
# 4 0.000000 0.000000 0.000000 0.180131 0.000000 0.000000
# 5 0.000000 0.000000 0.000000 0.000000 0.028795 0.000000
# 6 0.000000 0.000000 0.000000 0.000000 0.000000 0.167022
#
#
# Mechanical properties :
#
#
# Convention : Reuss Voigt Hill
#
# Bulk Modulus (GPa) = 58.69063 59.36288 59.02676
# Shear Modulus (GPa) = 11.27222 22.10163 16.68692
#
# Velocity S-wave (km/s) = 2.21845 3.10639 2.69918
# Velocity P-wave (km/s) = 5.67333 6.22771 5.95697
#
# Compressibility (1/GPa) = 0.01703849
#
# Stress axis : x y z
#
# Youngs Moduli (GPa) = 98.71040 62.76726 74.47593
#
# Poissons Ratio (x) = 0.12621 0.17711
# Poissons Ratio (y) = 0.19848 0.50918
# Poissons Ratio (z) = 0.23474 0.42913
#
# Static dielectric constant tensor:
#      x y z
#    x 1.919440 0.000000 0.000000 
#    y 0.000000 1.864020 0.000000 
#    z 0.000000 0.000000 1.966830 
# 
# From -- ./inp_files/2683.got.cif
#   From: 2010.05.17/outbox.cif.g08.bks.cpg/sg31_2_cif.got.tgz:2683.got - 2010.06.03 17:08:30.
