data_PCOD9343737
_publ_section_title
;
Structure prediction by ZEFSAII (Michael W. Deem and Ramdas Pophale) SiO2 
 PCOD9343737
Probable space group: P B A 2
;
_chemical_formula_sum "Si O2"
_cell_formula_units_Z 26
_cell_length_a 8.467124
_cell_length_b 12.401724
_cell_length_c 11.209006
_cell_angle_alpha 90.000000
_cell_angle_beta 90.000000
_cell_angle_gamma 90.000000
_cell_volume 1177.023364
_symmetry_space_group_name_H-M "P B A 2"
_symmetry_group_IT_number 32
_symmetry_cell_setting 'orthorhombic'
loop_
_space_group_symop_operation_xyz
x,y,z
-x,-y,z
1/2-x,1/2+y,z
1/2+x,1/2-y,z
loop_
_atom_site_type_symbol
_atom_site_label
_atom_site_fract_x
_atom_site_fract_y
_atom_site_fract_z
Si Si1 0.000000 0.000000 0.404740
Si Si2 0.934334 0.105963 0.875341
Si Si3 0.515856 0.184784 0.525624
Si Si4 0.175536 0.884180 0.617063
Si Si5 0.313262 0.739116 0.988086
Si Si6 0.060354 0.625615 0.131456
Si Si7 0.758143 0.835039 0.361437
O O1 0.117209 0.943342 0.497940
O O2 0.891879 0.921265 0.329887
O O3 0.876275 0.072834 0.744380
O O4 0.791465 0.163549 0.940435
O O5 0.075957 0.192001 0.884267
O O6 0.000000 0.000000 0.938770
O O7 0.636949 0.123229 0.608663
O O8 0.420698 0.272477 0.602762
O O9 0.373301 0.126060 0.457863
O O10 0.636970 0.242346 0.428446
O O11 0.196836 0.644227 0.032612
O O12 0.420727 0.793306 0.091232
O O13 0.146082 0.676840 0.247624
O O14 0.000000 0.500000 0.144896
#
# Coordination Sequence:
#
# PCOD9343737 Si02
#       7
#     2   4   4   4   4   4   4
#     4  10  22  36  56  90 124 144 200 248 300 388
#     4  11  21  40  67  91 125 169 208 268 323 371
#     4   9  20  36  61  84 126 160 205 251 308 377
#     4  10  19  36  57  88 119 158 199 250 312 372
#     4  10  24  42  63  91 127 162 220 269 315 374
#     4  11  23  42  64  92 124 168 216 265 322 377
#     4  10  21  39  60  90 121 165 200 257 312 370
#
# _framework density 22.089621000000001
#
# number of rings (size 3 to 8) (size 9 to 14) (size 15 to 20)
#    0.000    1.846    0.769    2.769    2.154    0.000 
#    9.692    0.000    6.769    0.000    0.000    0.000 
#    0.000    0.000    0.000    0.000    0.000    0.000 
#
# Total GULP energy -144845.183280 kJ/mol
# GULP energy per Si atom -5570.968588 kJ/mol
# Density = 2.203934 g / cm^3
# Si number density = 22.089621 Si / 1000 Ang^3
#
#
#
# Elastic Constant Matrix: (Units=GPa)
#
#
# Indices 1 2 3 4 5 6 
#
# 1 142.5346 41.1815 21.9606 0.0000 0.0000 0.0000
# 2 41.1815 52.3770 -4.5255 0.0000 0.0000 0.0000
# 3 21.9606 -4.5255 37.8808 0.0000 0.0000 0.0000
# 4 0.0000 0.0000 0.0000 3.9228 0.0000 0.0000
# 5 0.0000 0.0000 0.0000 0.0000 41.8033 0.0000
# 6 0.0000 0.0000 0.0000 0.0000 0.0000 29.8901
#
#
#
# Elastic Compliance Matrix: (Units=1/GPa)
#
#
# Indices 1 2 3 4 5 6 
#
# 1 0.010778 -0.009108 -0.007336 0.000000 0.000000 0.000000
# 2 -0.009108 0.026988 0.008504 0.000000 0.000000 0.000000
# 3 -0.007336 0.008504 0.031668 0.000000 0.000000 0.000000
# 4 0.000000 0.000000 0.000000 0.254920 0.000000 0.000000
# 5 0.000000 0.000000 0.000000 0.000000 0.023922 0.000000
# 6 0.000000 0.000000 0.000000 0.000000 0.000000 0.033456
#
#
# Mechanical properties :
#
#
# Convention : Reuss Voigt Hill
#
# Bulk Modulus (GPa) = 18.67280 38.89174 28.78227
# Shear Modulus (GPa) = 12.03480 26.73496 19.38488
#
# Velocity S-wave (km/s) = 2.33666 3.48270 2.96557
# Velocity P-wave (km/s) = 3.96882 5.81523 4.97837
#
# Compressibility (1/GPa) = 0.05355384
#
# Stress axis : x y z
#
# Youngs Moduli (GPa) = 92.78533 37.05334 31.57808
#
# Poissons Ratio (x) = 0.33747 0.23166
# Poissons Ratio (y) = 0.84506 -0.26855
# Poissons Ratio (z) = 0.68069 -0.31511
#
# Static dielectric constant tensor:
#      x y z
#    x 1.796940 0.000000 0.000000 
#    y 0.000000 1.854700 0.000000 
#    z 0.000000 0.000000 1.831520 
# 
# From -- ./inp_files/3679.got.cif
#   From: 2010.05.17/outbox.cif.g08.bks.cpg/sg32_2_cif.got.tgz:3679.got - 2010.06.03 17:12:27.
