data_PCOD9343302
_publ_section_title
;
Structure prediction by ZEFSAII (Michael W. Deem and Ramdas Pophale) SiO2 
 PCOD9343302
Probable space group: P M N 21
;
_chemical_formula_sum "Si O2"
_cell_formula_units_Z 32
_cell_length_a 9.446097
_cell_length_b 16.021880
_cell_length_c 11.237117
_cell_angle_alpha 90.000000
_cell_angle_beta 90.000000
_cell_angle_gamma 90.000000
_cell_volume 1700.672849
_symmetry_space_group_name_H-M "P M N 21"
_symmetry_group_IT_number 31
_symmetry_cell_setting 'orthorhombic'
loop_
_space_group_symop_operation_xyz
x,y,z
1/2-x,-y,1/2+z
-x,y,z
1/2+x,-y,1/2+z
loop_
_atom_site_type_symbol
_atom_site_label
_atom_site_fract_x
_atom_site_fract_y
_atom_site_fract_z
Si Si1 0.167766 0.157514 0.916320
Si Si2 0.660318 0.134821 0.554963
Si Si3 0.667742 0.464287 0.694325
Si Si4 0.833181 0.022838 0.719933
Si Si5 0.667134 0.160977 0.158926
Si Si6 0.156465 0.726879 0.262763
Si Si7 0.672016 0.455755 0.421324
Si Si8 0.828245 0.733893 0.870794
O O1 0.208353 0.078264 0.833731
O O2 0.224569 0.240733 0.851534
O O3 0.000000 0.158804 0.927618
O O4 0.243056 0.152710 0.041515
O O5 0.500000 0.107360 0.524371
O O6 0.748577 0.058804 0.607245
O O7 0.651560 0.204109 0.659332
O O8 0.726658 0.189639 0.450139
O O9 0.500000 0.484929 0.706961
O O10 0.680264 0.363950 0.708059
O O11 0.709606 0.485873 0.556595
O O12 0.754882 0.501689 0.806144
O O13 0.000000 0.037146 0.700471
O O14 0.811453 0.924510 0.732983
O O15 0.500000 0.165421 0.131244
O O16 0.706249 0.241818 0.236075
O O17 0.000000 0.726230 0.320931
O O18 0.500000 0.461962 0.411554
O O19 0.712950 0.357778 0.411598
O O20 0.000000 0.737436 0.882926
#
# Coordination Sequence:
#
# PCOD9343302 Si02
#       8
#     4   4   4   4   4   4   4   4
#     4  10  21  36  53  79 113 143 180 230 283 334
#     4   9  16  31  59  82  98 133 183 224 262 319
#     4  10  21  38  60  88 118 151 194 244 294 355
#     4   9  20  35  51  77 110 142 176 225 279 325
#     4  10  21  36  54  77 109 148 188 228 277 337
#     4   9  17  34  59  81 103 138 183 225 271 331
#     4  10  21  39  61  87 119 153 196 247 298 351
#     4   9  18  35  59  81 104 144 190 229 272 330
#
# _framework density 18.816082999999999
#
# number of rings (size 3 to 8) (size 9 to 14) (size 15 to 20)
#    0.000    2.500    1.250    0.375    1.750    3.000 
#    0.000    5.625    0.000    0.000    0.000    0.000 
#    0.000    0.000    0.000    0.000    0.000    0.000 
#
# Total GULP energy -178295.795153 kJ/mol
# GULP energy per Si atom -5571.743599 kJ/mol
# Density = 1.877326 g / cm^3
# Si number density = 18.816083 Si / 1000 Ang^3
#
#
#
# Elastic Constant Matrix: (Units=GPa)
#
#
# Indices 1 2 3 4 5 6 
#
# 1 34.3551 19.7349 49.3890 0.0000 0.0000 0.0000
# 2 19.7349 41.6870 31.1589 0.0000 0.0000 0.0000
# 3 49.3890 31.1589 119.0256 0.0000 0.0000 0.0000
# 4 0.0000 0.0000 0.0000 23.6344 0.0000 0.0000
# 5 0.0000 0.0000 0.0000 0.0000 16.1436 0.0000
# 6 0.0000 0.0000 0.0000 0.0000 0.0000 22.1551
#
#
#
# Elastic Compliance Matrix: (Units=1/GPa)
#
#
# Indices 1 2 3 4 5 6 
#
# 1 0.080128 -0.016264 -0.028991 0.000000 0.000000 0.000000
# 2 -0.016264 0.033125 -0.001923 0.000000 0.000000 0.000000
# 3 -0.028991 -0.001923 0.020935 0.000000 0.000000 0.000000
# 4 0.000000 0.000000 0.000000 0.042311 0.000000 0.000000
# 5 0.000000 0.000000 0.000000 0.000000 0.061944 0.000000
# 6 0.000000 0.000000 0.000000 0.000000 0.000000 0.045136
#
#
# Mechanical properties :
#
#
# Convention : Reuss Voigt Hill
#
# Bulk Modulus (GPa) = 25.10557 43.95925 34.53241
# Shear Modulus (GPa) = 12.78081 18.70561 15.74321
#
# Velocity S-wave (km/s) = 2.60907 3.15640 2.89570
# Velocity P-wave (km/s) = 4.73792 6.05782 5.43806
#
# Compressibility (1/GPa) = 0.03983180
#
# Stress axis : x y z
#
# Youngs Moduli (GPa) = 12.48009 30.18861 47.76791
#
# Poissons Ratio (x) = 0.49098 1.38483
# Poissons Ratio (y) = 0.20297 0.09186
# Poissons Ratio (z) = 0.36181 0.05805
#
# Static dielectric constant tensor:
#      x y z
#    x 1.637540 0.000000 0.000000 
#    y 0.000000 1.646310 0.000000 
#    z 0.000000 0.000000 1.689010 
# 
# From -- ./inp_files/3591.got.cif
#   From: 2010.05.17/outbox.cif.g08.bks.cpg/sg31_2_cif.got.tgz:3591.got - 2010.06.03 17:08:30.
