data_PCOD9343199
_publ_section_title
;
Structure prediction by ZEFSAII (Michael W. Deem and Ramdas Pophale) SiO2 
 PCOD9343199
Probable space group: P M N 21
;
_chemical_formula_sum "Si O2"
_cell_formula_units_Z 32
_cell_length_a 10.818259
_cell_length_b 5.232976
_cell_length_c 26.855750
_cell_angle_alpha 90.000000
_cell_angle_beta 90.000000
_cell_angle_gamma 90.000000
_cell_volume 1520.349386
_symmetry_space_group_name_H-M "P M N 21"
_symmetry_group_IT_number 31
_symmetry_cell_setting 'orthorhombic'
loop_
_space_group_symop_operation_xyz
x,y,z
1/2-x,-y,1/2+z
-x,y,z
1/2+x,-y,1/2+z
loop_
_atom_site_type_symbol
_atom_site_label
_atom_site_fract_x
_atom_site_fract_y
_atom_site_fract_z
Si Si1 0.644717 0.642871 0.983230
Si Si2 0.148999 0.842284 0.418105
Si Si3 0.361426 0.984983 0.183856
Si Si4 0.851000 0.157716 0.830074
Si Si5 0.132450 0.745842 0.159015
Si Si6 0.132450 0.254157 0.089164
Si Si7 0.355283 0.357130 0.264949
Si Si8 0.138574 0.984982 0.564323
O O1 0.500000 0.592817 0.990279
O O2 0.659227 0.890905 0.947727
O O3 0.687906 0.394426 0.953615
O O4 0.682890 0.757365 0.037107
O O5 0.250000 0.846650 0.374090
O O6 0.000000 0.813185 0.404699
O O7 0.500000 0.921788 0.202279
O O8 0.253265 0.782616 0.192135
O O9 0.317110 0.242637 0.211072
O O10 0.372713 0.000000 0.124090
O O11 0.840772 0.890904 0.800452
O O12 0.000000 0.186814 0.843480
O O13 0.812093 0.394425 0.794564
O O14 0.142935 0.499999 0.124090
O O15 0.000000 0.730691 0.185819
O O16 0.127773 0.999999 0.124089
O O17 0.253265 0.217386 0.056044
O O18 0.000000 0.269310 0.062360
O O19 0.500000 0.407184 0.257900
O O20 0.000000 0.921788 0.545900
#
# Coordination Sequence:
#
# PCOD9343199 Si02
#       8
#     4   4   4   4   4   4   4   4
#     4   9  19  34  54  81 111 140 171 216 271 316
#     4  10  20  37  58  79 106 138 174 220 273 321
#     4   9  18  33  54  80 109 143 182 217 253 311
#     4  10  20  37  58  79 106 138 174 220 273 321
#     4   9  18  32  48  67  96 135 174 212 255 295
#     4   9  18  32  48  67  96 135 174 212 255 295
#     4   9  19  34  54  81 111 140 171 216 271 316
#     4   9  18  33  54  80 109 143 182 217 253 311
#
# _framework density 21.047794
#
# number of rings (size 3 to 8) (size 9 to 14) (size 15 to 20)
#    0.000    2.750    0.000    0.750    0.000    4.500 
#    0.000   10.000    0.000    0.000    0.000    0.000 
#    0.000    0.000    0.000    0.000    0.000    0.000 
#
# Total GULP energy -178135.740807 kJ/mol
# GULP energy per Si atom -5566.741900 kJ/mol
# Density = 2.099989 g / cm^3
# Si number density = 21.047794 Si / 1000 Ang^3
#
#
#
# Elastic Constant Matrix: (Units=GPa)
#
#
# Indices 1 2 3 4 5 6 
#
# 1 132.2912 16.2588 16.7739 0.0000 0.0000 0.0000
# 2 16.2588 143.9594 34.0477 0.0000 0.0000 0.0000
# 3 16.7739 34.0477 102.3961 0.0000 0.0000 0.0000
# 4 0.0000 0.0000 0.0000 28.9997 0.0000 0.0000
# 5 0.0000 0.0000 0.0000 0.0000 18.9719 0.0000
# 6 0.0000 0.0000 0.0000 0.0000 0.0000 -5.8046
#
#
#
# Elastic Compliance Matrix: (Units=1/GPa)
#
#
# Indices 1 2 3 4 5 6 
#
# 1 0.007771 -0.000626 -0.001065 0.000000 0.000000 0.000000
# 2 -0.000626 0.007590 -0.002421 0.000000 0.000000 0.000000
# 3 -0.001065 -0.002421 0.010746 0.000000 0.000000 0.000000
# 4 0.000000 0.000000 0.000000 0.034483 0.000000 0.000000
# 5 0.000000 0.000000 0.000000 0.000000 0.052710 0.000000
# 6 0.000000 0.000000 0.000000 0.000000 0.000000 -0.172278
#
#
# Mechanical properties :
#
#
# Convention : Reuss Voigt Hill
#
# Bulk Modulus (GPa) = 55.92053 56.97860 56.44957
# Shear Modulus (GPa) = -111.62026 29.20450 -41.20788
#
# Velocity S-wave (km/s) = -7.29019 3.72900 -4.42953
# Velocity P-wave (km/s) = 6.65106 6.75799 0.84672
#
# Compressibility (1/GPa) = 0.01788252
#
# Stress axis : x y z
#
# Youngs Moduli (GPa) = 128.68324 131.75755 93.06221
#
# Poissons Ratio (x) = 0.08245 0.09910
# Poissons Ratio (y) = 0.08053 0.22532
# Poissons Ratio (z) = 0.13704 0.31900
#
# Static dielectric constant tensor:
#      x y z
#    x 1.846280 0.000000 0.000000 
#    y 0.000000 1.829620 0.000000 
#    z 0.000000 0.000000 1.868670 
# 
# From -- ./inp_files/6522.got.cif
#   From: 2010.05.17/outbox.cif.g08.bks.cpg/sg31_4_cif.got.tgz:6522.got - 2010.06.03 17:08:30.
