data_PCOD9343023
_publ_section_title
;
Structure prediction by ZEFSAII (Michael W. Deem and Ramdas Pophale) SiO2 
 PCOD9343023
Probable space group: P M N 21
;
_chemical_formula_sum "Si O2"
_cell_formula_units_Z 24
_cell_length_a 8.345147
_cell_length_b 10.334722
_cell_length_c 14.566423
_cell_angle_alpha 90.000000
_cell_angle_beta 90.000000
_cell_angle_gamma 90.000000
_cell_volume 1256.277864
_symmetry_space_group_name_H-M "P M N 21"
_symmetry_group_IT_number 31
_symmetry_cell_setting 'orthorhombic'
loop_
_space_group_symop_operation_xyz
x,y,z
1/2-x,-y,1/2+z
-x,y,z
1/2+x,-y,1/2+z
loop_
_atom_site_type_symbol
_atom_site_label
_atom_site_fract_x
_atom_site_fract_y
_atom_site_fract_z
Si Si1 0.691353 0.277484 0.534290
Si Si2 0.306465 0.112473 0.829110
Si Si3 0.305061 0.378832 0.730398
Si Si4 0.810186 0.367898 0.337500
Si Si5 0.189058 0.868847 0.718935
Si Si6 0.193101 0.980129 0.530151
O O1 0.500000 0.274557 0.538721
O O2 0.750833 0.351399 0.626080
O O3 0.740520 0.343944 0.438818
O O4 0.748363 0.128123 0.535024
O O5 0.500000 0.096112 0.819869
O O6 0.265410 0.253362 0.791181
O O7 0.219808 0.003999 0.769654
O O8 0.262699 0.085601 0.934264
O O9 0.500000 0.387447 0.726448
O O10 0.246864 0.507582 0.781713
O O11 0.775906 0.242443 0.275593
O O12 0.000000 0.383104 0.349054
O O13 0.249093 0.894169 0.615823
O O14 0.000000 0.839153 0.717789
O O15 0.000000 0.985260 0.535016
#
# Coordination Sequence:
#
# PCOD9343023 Si02
#       6
#     4   4   4   4   4   4
#     4  11  21  37  61  88 116 151 197 248 298 350
#     4  10  19  37  61  84 112 154 198 241 292 348
#     4   9  21  39  60  85 116 156 199 238 291 356
#     4  11  23  40  60  85 120 162 199 236 294 360
#     4  11  22  36  56  89 121 150 196 247 288 340
#     4  10  21  35  58  89 119 151 195 242 293 352
#
# _framework density 19.104053
#
# number of rings (size 3 to 8) (size 9 to 14) (size 15 to 20)
#    0.000    1.667    3.333    1.500    0.000    2.000 
#    0.000    6.667    0.000    0.000    0.000    0.000 
#    0.000    0.000    0.000    0.000    0.000    0.000 
#
# Total GULP energy -134012.988861 kJ/mol
# GULP energy per Si atom -5583.874536 kJ/mol
# Density = 1.906057 g / cm^3
# Si number density = 19.104053 Si / 1000 Ang^3
#
#
#
# Elastic Constant Matrix: (Units=GPa)
#
#
# Indices 1 2 3 4 5 6 
#
# 1 8.2472 -4.9113 9.2290 0.0000 0.0000 0.0000
# 2 -4.9113 83.2929 26.4996 0.0000 0.0000 0.0000
# 3 9.2290 26.4996 138.6460 0.0000 0.0000 0.0000
# 4 0.0000 0.0000 0.0000 28.0084 0.0000 0.0000
# 5 0.0000 0.0000 0.0000 0.0000 -1.3437 0.0000
# 6 0.0000 0.0000 0.0000 0.0000 0.0000 3.0388
#
#
#
# Elastic Compliance Matrix: (Units=1/GPa)
#
#
# Indices 1 2 3 4 5 6 
#
# 1 0.141579 0.012081 -0.011733 0.000000 0.000000 0.000000
# 2 0.012081 0.013814 -0.003444 0.000000 0.000000 0.000000
# 3 -0.011733 -0.003444 0.008652 0.000000 0.000000 0.000000
# 4 0.000000 0.000000 0.000000 0.035704 0.000000 0.000000
# 5 0.000000 0.000000 0.000000 0.000000 -0.744189 0.000000
# 6 0.000000 0.000000 0.000000 0.000000 0.000000 0.329076
#
#
# Mechanical properties :
#
#
# Convention : Reuss Voigt Hill
#
# Bulk Modulus (GPa) = 6.33508 32.42452 19.37980
# Shear Modulus (GPa) = -31.93770 19.23196 -6.35287
#
# Velocity S-wave (km/s) = -4.09317 3.17629 -1.82555
# Velocity P-wave (km/s) = 4.36067 5.51916 2.39225
#
# Compressibility (1/GPa) = 0.15785124
#
# Stress axis : x y z
#
# Youngs Moduli (GPa) = 7.06321 72.39016 115.58034
#
# Poissons Ratio (x) = -0.87455 1.35614
# Poissons Ratio (y) = -0.08533 0.39811
# Poissons Ratio (z) = 0.08287 0.24935
#
# Static dielectric constant tensor:
#      x y z
#    x 1.663450 0.000000 0.000000 
#    y 0.000000 1.625320 0.000000 
#    z 0.000000 0.000000 1.700570 
# 
# From -- ./inp_files/4759.got.cif
#   From: 2010.05.17/outbox.cif.g08.bks.cpg/sg31_3_cif.got.tgz:4759.got - 2010.06.03 17:08:30.
