data_PCOD9343154
_publ_section_title
;
Structure prediction by ZEFSAII (Michael W. Deem and Ramdas Pophale) SiO2 
 PCOD9343154
Probable space group: P M N 21
;
_chemical_formula_sum "Si O2"
_cell_formula_units_Z 32
_cell_length_a 8.262249
_cell_length_b 15.638597
_cell_length_c 10.244780
_cell_angle_alpha 90.000000
_cell_angle_beta 90.000000
_cell_angle_gamma 90.000000
_cell_volume 1323.727844
_symmetry_space_group_name_H-M "P M N 21"
_symmetry_group_IT_number 31
_symmetry_cell_setting 'orthorhombic'
loop_
_space_group_symop_operation_xyz
x,y,z
1/2-x,-y,1/2+z
-x,y,z
1/2+x,-y,1/2+z
loop_
_atom_site_type_symbol
_atom_site_label
_atom_site_fract_x
_atom_site_fract_y
_atom_site_fract_z
Si Si1 0.305825 0.556921 0.856570
Si Si2 0.304200 0.750719 0.874305
Si Si3 0.305463 0.062123 0.724953
Si Si4 0.195588 0.054288 0.991430
Si Si5 0.689423 0.241053 0.652390
Si Si6 0.808373 0.433595 0.696359
Si Si7 0.806328 0.234086 0.080078
Si Si8 0.305368 0.427774 0.031073
O O1 0.500000 0.560208 0.839277
O O2 0.242002 0.653257 0.864021
O O3 0.249582 0.540789 0.693462
O O4 0.257783 0.449219 0.862274
O O5 0.500000 0.750790 0.895592
O O6 0.270820 0.786346 0.731896
O O7 0.217463 0.784962 0.001618
O O8 0.500000 0.068263 0.715878
O O9 0.255743 0.017140 0.856727
O O10 0.239649 0.159102 0.725544
O O11 0.245819 0.006064 0.606086
O O12 0.000000 0.057076 0.995036
O O13 0.258569 0.151511 0.005549
O O14 0.500000 0.250678 0.680004
O O15 0.762431 0.333827 0.681567
O O16 0.788379 0.459707 0.525932
O O17 0.000000 0.438760 0.717020
O O18 0.754210 0.329287 0.039424
O O19 0.000000 0.236247 0.068011
O O20 0.500000 0.419787 0.031983
#
# Coordination Sequence:
#
# PCOD9343154 Si02
#       8
#     4   4   4   4   4   4   4   4
#     4  10  20  36  54  78 120 167 211 264 318 366
#     4  10  20  37  60  89 124 166 216 267 318 375
#     4  10  25  48  71 100 134 168 212 268 330 394
#     4  10  24  47  72 101 132 166 215 268 325 398
#     4  11  24  40  61  90 127 167 212 264 321 384
#     4  11  22  37  56  84 119 162 213 259 306 370
#     4  10  22  39  62  91 124 162 210 265 320 382
#     4  10  21  36  54  81 120 162 207 257 306 367
#
# _framework density 24.174151999999999
#
# number of rings (size 3 to 8) (size 9 to 14) (size 15 to 20)
#    0.000    1.750    2.500    0.750    3.500    4.000 
#    0.000    0.000    0.000    0.000    0.000    0.000 
#    0.000    0.000    0.000    0.000    0.000    0.000 
#
# Total GULP energy -178417.760878 kJ/mol
# GULP energy per Si atom -5575.555027 kJ/mol
# Density = 2.411913 g / cm^3
# Si number density = 24.174152 Si / 1000 Ang^3
#
#
#
# Elastic Constant Matrix: (Units=GPa)
#
#
# Indices 1 2 3 4 5 6 
#
# 1 18.1007 18.6553 16.4634 0.0000 0.0000 0.0000
# 2 18.6553 126.9665 70.1989 0.0000 0.0000 0.0000
# 3 16.4634 70.1989 166.7397 0.0000 0.0000 0.0000
# 4 0.0000 0.0000 0.0000 34.0220 0.0000 0.0000
# 5 0.0000 0.0000 0.0000 0.0000 40.4748 0.0000
# 6 0.0000 0.0000 0.0000 0.0000 0.0000 8.4904
#
#
#
# Elastic Compliance Matrix: (Units=1/GPa)
#
#
# Indices 1 2 3 4 5 6 
#
# 1 0.066383 -0.007990 -0.003191 0.000000 0.000000 0.000000
# 2 -0.007990 0.011227 -0.003938 0.000000 0.000000 0.000000
# 3 -0.003191 -0.003938 0.007970 0.000000 0.000000 0.000000
# 4 0.000000 0.000000 0.000000 0.029393 0.000000 0.000000
# 5 0.000000 0.000000 0.000000 0.000000 0.024707 0.000000
# 6 0.000000 0.000000 0.000000 0.000000 0.000000 0.117779
#
#
# Mechanical properties :
#
#
# Convention : Reuss Voigt Hill
#
# Bulk Modulus (GPa) = 18.06875 58.04912 38.05893
# Shear Modulus (GPa) = 16.33217 30.36339 23.34778
#
# Velocity S-wave (km/s) = 2.60206 3.54789 3.11113
# Velocity P-wave (km/s) = 4.06427 6.39128 5.35568
#
# Compressibility (1/GPa) = 0.05534417
#
# Stress axis : x y z
#
# Youngs Moduli (GPa) = 15.06406 89.06899 125.46563
#
# Poissons Ratio (x) = 0.71163 0.40033
# Poissons Ratio (y) = 0.12036 0.49407
# Poissons Ratio (z) = 0.04807 0.35075
#
# Static dielectric constant tensor:
#      x y z
#    x 1.820330 0.000000 0.000000 
#    y 0.000000 1.914420 0.000000 
#    z 0.000000 0.000000 2.325170 
# 
# From -- ./inp_files/3657.got.cif
#   From: 2010.05.17/outbox.cif.g08.bks.cpg/sg31_2_cif.got.tgz:3657.got - 2010.06.03 17:08:30.
