data_PCOD9343253
_publ_section_title
;
Structure prediction by ZEFSAII (Michael W. Deem and Ramdas Pophale) SiO2 
 PCOD9343253
Probable space group: P M N 21
;
_chemical_formula_sum "Si O2"
_cell_formula_units_Z 28
_cell_length_a 24.367157
_cell_length_b 8.630860
_cell_length_c 7.155952
_cell_angle_alpha 90.000000
_cell_angle_beta 90.000000
_cell_angle_gamma 90.000000
_cell_volume 1504.964835
_symmetry_space_group_name_H-M "P M N 21"
_symmetry_group_IT_number 31
_symmetry_cell_setting 'orthorhombic'
loop_
_space_group_symop_operation_xyz
x,y,z
1/2-x,-y,1/2+z
-x,y,z
1/2+x,-y,1/2+z
loop_
_atom_site_type_symbol
_atom_site_label
_atom_site_fract_x
_atom_site_fract_y
_atom_site_fract_z
Si Si1 0.860427 0.342564 0.179500
Si Si2 0.166063 0.695760 0.221886
Si Si3 0.301924 0.078557 0.389573
Si Si4 0.438585 0.793204 0.979342
Si Si5 0.744102 0.208560 0.032586
Si Si6 0.059398 0.899493 0.233287
Si Si7 0.910879 0.117282 0.897701
O O1 0.851011 0.524460 0.162188
O O2 0.888432 0.300158 0.380215
O O3 0.801610 0.265899 0.123071
O O4 0.901758 0.265908 0.030140
O O5 0.212139 0.686679 0.383755
O O6 0.110150 0.787124 0.271183
O O7 0.190509 0.803662 0.059268
O O8 0.253135 0.958849 0.434543
O O9 0.352828 0.964482 0.359307
O O10 0.294284 0.178766 0.207234
O O11 0.500000 0.726844 0.940868
O O12 0.436595 0.960222 0.879436
O O13 0.433814 0.825881 0.200368
O O14 0.000000 0.822082 0.251196
O O15 0.061732 0.986123 0.030602
#
# Coordination Sequence:
#
# PCOD9343253 Si02
#       7
#     4   4   4   4   4   4   4
#     4  10  25  37  54  88 124 158 191 237 296 358
#     4  11  23  39  56  87 119 157 194 241 296 349
#     4  10  21  35  60  82 109 150 199 247 291 336
#     4  10  20  38  65  87 116 155 196 241 292 351
#     4  11  22  37  59  82 116 155 196 245 288 346
#     4   9  19  37  61  87 112 148 198 247 289 340
#     4   9  19  37  60  87 115 147 195 244 290 350
#
# _framework density 18.605084999999999
#
# number of rings (size 3 to 8) (size 9 to 14) (size 15 to 20)
#    0.000    2.000    1.429    2.143    4.000    2.286 
#    0.000    0.000    0.000    0.000    0.000    0.000 
#    0.000    0.000    0.000    0.000    0.000    0.000 
#
# Total GULP energy -155924.421664 kJ/mol
# GULP energy per Si atom -5568.729345 kJ/mol
# Density = 1.856274 g / cm^3
# Si number density = 18.605085 Si / 1000 Ang^3
#
#
#
# Elastic Constant Matrix: (Units=GPa)
#
#
# Indices 1 2 3 4 5 6 
#
# 1 55.5383 18.4396 28.6296 0.0000 0.0000 0.0000
# 2 18.4396 71.5910 8.9163 0.0000 0.0000 0.0000
# 3 28.6296 8.9163 74.9385 0.0000 0.0000 0.0000
# 4 0.0000 0.0000 0.0000 12.3885 0.0000 0.0000
# 5 0.0000 0.0000 0.0000 0.0000 8.0284 0.0000
# 6 0.0000 0.0000 0.0000 0.0000 0.0000 -15.1246
#
#
#
# Elastic Compliance Matrix: (Units=1/GPa)
#
#
# Indices 1 2 3 4 5 6 
#
# 1 0.024157 -0.005149 -0.008616 0.000000 0.000000 0.000000
# 2 -0.005149 0.015276 0.000150 0.000000 0.000000 0.000000
# 3 -0.008616 0.000150 0.016618 0.000000 0.000000 0.000000
# 4 0.000000 0.000000 0.000000 0.080720 0.000000 0.000000
# 5 0.000000 0.000000 0.000000 0.000000 0.124558 0.000000
# 6 0.000000 0.000000 0.000000 0.000000 0.000000 -0.066118
#
#
# Mechanical properties :
#
#
# Convention : Reuss Voigt Hill
#
# Bulk Modulus (GPa) = 34.69862 34.89320 34.79591
# Shear Modulus (GPa) = 21.54724 10.79729 16.17227
#
# Velocity S-wave (km/s) = 3.40683 2.41164 2.95148
# Velocity P-wave (km/s) = 5.84516 5.15267 5.50981
#
# Compressibility (1/GPa) = 0.02881959
#
# Stress axis : x y z
#
# Youngs Moduli (GPa) = 41.39636 65.46299 60.17482
#
# Poissons Ratio (x) = 0.33706 0.51848
# Poissons Ratio (y) = 0.21315 -0.00900
# Poissons Ratio (z) = 0.35668 -0.00979
#
# Static dielectric constant tensor:
#      x y z
#    x 1.716460 0.000000 0.000000 
#    y 0.000000 1.606840 0.000000 
#    z 0.000000 0.000000 1.670260 
# 
# From -- ./inp_files/1243.got.cif
#   From: 2010.05.17/outbox.cif.g08.bks.cpg/sg31_1_cif.got.tgz:1243.got - 2010.06.03 17:08:30.
