data_PCOD9343807
_publ_section_title
;
Structure prediction by ZEFSAII (Michael W. Deem and Ramdas Pophale) SiO2 
 PCOD9343807
Probable space group: P B A 2
;
_chemical_formula_sum "Si O2"
_cell_formula_units_Z 32
_cell_length_a 8.704820
_cell_length_b 11.488233
_cell_length_c 14.334191
_cell_angle_alpha 90.000000
_cell_angle_beta 90.000000
_cell_angle_gamma 90.000000
_cell_volume 1433.462108
_symmetry_space_group_name_H-M "P B A 2"
_symmetry_group_IT_number 32
_symmetry_cell_setting 'orthorhombic'
loop_
_space_group_symop_operation_xyz
x,y,z
-x,-y,z
1/2-x,1/2+y,z
1/2+x,1/2-y,z
loop_
_atom_site_type_symbol
_atom_site_label
_atom_site_fract_x
_atom_site_fract_y
_atom_site_fract_z
Si Si1 0.908585 0.376867 0.464070
Si Si2 0.873565 0.789159 0.578483
Si Si3 0.387821 0.593544 0.765488
Si Si4 0.096174 0.619726 0.246307
Si Si5 0.129606 0.427783 0.693602
Si Si6 0.355207 0.311463 0.006257
Si Si7 0.095207 0.314755 0.882616
Si Si8 0.389623 0.686100 0.140239
O O1 0.751035 0.367757 0.524699
O O2 0.877168 0.353280 0.355099
O O3 0.000000 0.500000 0.460807
O O4 0.011734 0.272322 0.506470
O O5 0.951017 0.852513 0.667748
O O6 0.802984 0.676386 0.632450
O O7 0.500000 0.500000 0.809273
O O8 0.248964 0.519960 0.727993
O O9 0.351001 0.690392 0.841048
O O10 0.266446 0.612341 0.199765
O O11 0.000000 0.500000 0.234825
O O12 0.990615 0.722395 0.201244
O O13 0.052352 0.377463 0.787270
O O14 0.000000 0.500000 0.640825
O O15 0.242328 0.373670 0.932067
O O16 0.454453 0.213540 0.950641
O O17 0.482970 0.370620 0.071670
O O18 0.227766 0.255176 0.073121
#
# Coordination Sequence:
#
# PCOD9343807 Si02
#       8
#     4   4   4   4   4   4   4   4
#     4  11  23  39  62  90 118 152 200 249 299 364
#     4  11  22  38  59  84 119 158 197 247 297 344
#     4  11  22  35  54  81 117 158 198 238 286 344
#     4  10  21  40  64  89 117 153 195 242 307 370
#     4  11  22  37  57  81 116 159 200 239 287 342
#     4   9  18  36  59  83 116 152 193 243 292 350
#     4  10  20  36  54  81 118 154 195 245 289 336
#     4   9  19  39  62  85 119 152 189 247 302 356
#
# _framework density 22.323577
#
# number of rings (size 3 to 8) (size 9 to 14) (size 15 to 20)
#    0.000    1.750    0.000    4.875    0.000    4.000 
#    0.000   24.375    0.000    7.500    0.000    0.000 
#    0.000    0.000    0.000    0.000    0.000    0.000 
#
# Total GULP energy -178359.796915 kJ/mol
# GULP energy per Si atom -5573.743654 kJ/mol
# Density = 2.227277 g / cm^3
# Si number density = 22.323577 Si / 1000 Ang^3
#
#
#
# Elastic Constant Matrix: (Units=GPa)
#
#
# Indices 1 2 3 4 5 6 
#
# 1 77.3010 -3.9516 26.1143 0.0000 0.0000 0.0000
# 2 -3.9516 56.9902 7.4852 0.0000 0.0000 0.0000
# 3 26.1143 7.4852 124.4693 0.0000 0.0000 0.0000
# 4 0.0000 0.0000 0.0000 44.1089 0.0000 0.0000
# 5 0.0000 0.0000 0.0000 0.0000 44.5269 0.0000
# 6 0.0000 0.0000 0.0000 0.0000 0.0000 26.8031
#
#
#
# Elastic Compliance Matrix: (Units=1/GPa)
#
#
# Indices 1 2 3 4 5 6 
#
# 1 0.014029 0.001370 -0.003026 0.000000 0.000000 0.000000
# 2 0.001370 0.017820 -0.001359 0.000000 0.000000 0.000000
# 3 -0.003026 -0.001359 0.008751 0.000000 0.000000 0.000000
# 4 0.000000 0.000000 0.000000 0.022671 0.000000 0.000000
# 5 0.000000 0.000000 0.000000 0.000000 0.022458 0.000000
# 6 0.000000 0.000000 0.000000 0.000000 0.000000 0.037309
#
#
# Mechanical properties :
#
#
# Convention : Reuss Voigt Hill
#
# Bulk Modulus (GPa) = 28.92656 35.33961 32.13308
# Shear Modulus (GPa) = 35.56413 38.36195 36.96304
#
# Velocity S-wave (km/s) = 3.99572 4.14992 4.07355
# Velocity P-wave (km/s) = 5.85437 6.23116 6.04570
#
# Compressibility (1/GPa) = 0.03457030
#
# Stress axis : x y z
#
# Youngs Moduli (GPa) = 71.28276 56.11549 114.27729
#
# Poissons Ratio (x) = -0.07688 0.34577
# Poissons Ratio (y) = -0.09767 0.15532
# Poissons Ratio (z) = 0.21568 0.07627
#
# Static dielectric constant tensor:
#      x y z
#    x 1.741810 0.000000 0.000000 
#    y 0.000000 1.898100 0.000000 
#    z 0.000000 0.000000 1.875920 
# 
# From -- ./inp_files/4146.got.cif
#   From: 2010.05.17/outbox.cif.g08.bks.cpg/sg32_3_cif.got.tgz:4146.got - 2010.06.03 17:12:27.
