data_PCOD9343788
_publ_section_title
;
Structure prediction by ZEFSAII (Michael W. Deem and Ramdas Pophale) SiO2 
 PCOD9343788
Probable space group: P B A 2
;
_chemical_formula_sum "Si O2"
_cell_formula_units_Z 30
_cell_length_a 5.340143
_cell_length_b 22.091408
_cell_length_c 11.158657
_cell_angle_alpha 90.000000
_cell_angle_beta 90.000000
_cell_angle_gamma 90.000000
_cell_volume 1316.401025
_symmetry_space_group_name_H-M "P B A 2"
_symmetry_group_IT_number 32
_symmetry_cell_setting 'orthorhombic'
loop_
_space_group_symop_operation_xyz
x,y,z
-x,-y,z
1/2-x,1/2+y,z
1/2+x,1/2-y,z
loop_
_atom_site_type_symbol
_atom_site_label
_atom_site_fract_x
_atom_site_fract_y
_atom_site_fract_z
Si Si1 0.401944 0.648049 0.395850
Si Si2 0.899358 0.213806 0.166091
Si Si3 0.964544 0.208224 0.893706
Si Si4 0.318407 0.431067 0.554930
Si Si5 0.752226 0.983374 0.321560
Si Si6 0.500000 0.000000 0.747170
Si Si7 0.196948 0.103379 0.745059
Si Si8 0.365634 0.212107 0.594307
O O1 0.524552 0.672162 0.276179
O O2 0.627102 0.633704 0.491079
O O3 0.267918 0.584915 0.365666
O O4 0.195497 0.689850 0.459189
O O5 0.108249 0.267487 0.174650
O O6 0.950946 0.188876 0.033198
O O7 0.211843 0.251406 0.876192
O O8 0.003263 0.146933 0.816354
O O9 0.267121 0.473706 0.440407
O O10 0.129143 0.452388 0.656114
O O11 0.571747 0.432482 0.633735
O O12 0.500000 0.000000 0.256818
O O13 0.000000 0.000000 0.249995
O O14 0.675459 0.952044 0.816826
O O15 0.366282 0.154351 0.681075
O O16 0.615713 0.248811 0.616256
#
# Coordination Sequence:
#
# PCOD9343788 Si02
#       8
#     4   4   4   4   4   2   4   4
#     4  10  21  36  60  86 124 164 204 251 312 374
#     4  10  22  42  64  91 119 157 207 258 315 373
#     4  10  23  44  69  91 121 162 212 268 325 382
#     4  10  22  37  54  90 126 166 202 249 306 376
#     4  10  20  34  53  80 119 158 202 233 288 362
#     4  12  22  38  62  88 134 172 218 252 316 392
#     4  11  24  37  62  88 123 168 211 260 313 381
#     4  11  24  36  54  88 128 158 197 255 313 373
#
# _framework density 22.789411000000001
#
# number of rings (size 3 to 8) (size 9 to 14) (size 15 to 20)
#    0.000    1.600    0.667    5.200    5.600    3.200 
#    0.000    0.000    1.467    4.800    0.000    0.933 
#    0.000    0.000    0.000    0.000    0.000    0.000 
#
# Total GULP energy -167232.632461 kJ/mol
# GULP energy per Si atom -5574.421082 kJ/mol
# Density = 2.273754 g / cm^3
# Si number density = 22.789411 Si / 1000 Ang^3
#
#
#
# Elastic Constant Matrix: (Units=GPa)
#
#
# Indices 1 2 3 4 5 6 
#
# 1 117.4426 36.8654 -7.4139 0.0000 0.0000 0.0000
# 2 36.8654 97.9398 15.8548 0.0000 0.0000 0.0000
# 3 -7.4139 15.8548 64.4460 0.0000 0.0000 0.0000
# 4 0.0000 0.0000 0.0000 11.8743 0.0000 0.0000
# 5 0.0000 0.0000 0.0000 0.0000 -9.0516 0.0000
# 6 0.0000 0.0000 0.0000 0.0000 0.0000 29.5020
#
#
#
# Elastic Compliance Matrix: (Units=1/GPa)
#
#
# Indices 1 2 3 4 5 6 
#
# 1 0.009933 -0.004087 0.002148 0.000000 0.000000 0.000000
# 2 -0.004087 0.012315 -0.003500 0.000000 0.000000 0.000000
# 3 0.002148 -0.003500 0.016625 0.000000 0.000000 0.000000
# 4 0.000000 0.000000 0.000000 0.084215 0.000000 0.000000
# 5 0.000000 0.000000 0.000000 0.000000 -0.110478 0.000000
# 6 0.000000 0.000000 0.000000 0.000000 0.000000 0.033896
#
#
# Mechanical properties :
#
#
# Convention : Reuss Voigt Hill
#
# Bulk Modulus (GPa) = 35.71872 41.16011 38.43942
# Shear Modulus (GPa) = 74.94446 22.09975 48.52210
#
# Velocity S-wave (km/s) = 5.74082 3.11744 4.61928
# Velocity P-wave (km/s) = 7.72335 5.57299 6.73455
#
# Compressibility (1/GPa) = 0.02799652
#
# Stress axis : x y z
#
# Youngs Moduli (GPa) = 100.67224 81.20051 60.15030
#
# Poissons Ratio (x) = 0.33184 -0.12921
# Poissons Ratio (y) = 0.41142 0.21052
# Poissons Ratio (z) = -0.21626 0.28419
#
# Static dielectric constant tensor:
#      x y z
#    x 2.142490 0.000000 0.000000 
#    y 0.000000 1.907250 0.000000 
#    z 0.000000 0.000000 1.832130 
# 
# From -- ./inp_files/3585.got.cif
#   From: 2010.05.17/outbox.cif.g08.bks.cpg/sg32_2_cif.got.tgz:3585.got - 2010.06.03 17:12:27.
