data_PCOD9343563
_publ_section_title
;
Structure prediction by ZEFSAII (Michael W. Deem and Ramdas Pophale) SiO2 
 PCOD9343563
Probable space group: P M N 21
;
_chemical_formula_sum "Si O2"
_cell_formula_units_Z 20
_cell_length_a 10.006032
_cell_length_b 10.451416
_cell_length_c 9.644924
_cell_angle_alpha 90.000000
_cell_angle_beta 90.000000
_cell_angle_gamma 90.000000
_cell_volume 1008.639175
_symmetry_space_group_name_H-M "P M N 21"
_symmetry_group_IT_number 31
_symmetry_cell_setting 'orthorhombic'
loop_
_space_group_symop_operation_xyz
x,y,z
1/2-x,-y,1/2+z
-x,y,z
1/2+x,-y,1/2+z
loop_
_atom_site_type_symbol
_atom_site_label
_atom_site_fract_x
_atom_site_fract_y
_atom_site_fract_z
Si Si1 0.500000 0.551398 0.877691
Si Si2 0.774996 0.010956 0.377690
Si Si3 0.500000 0.077273 0.679323
Si Si4 0.000000 0.638347 0.638742
Si Si5 0.500000 0.077272 0.076057
Si Si6 0.000000 0.638346 0.116638
Si Si7 0.786705 0.687231 0.877690
Si Si8 0.000000 0.028763 0.877691
O O1 0.500000 0.469579 0.734427
O O2 0.637081 0.632358 0.877691
O O3 0.500000 0.469577 0.020953
O O4 0.648582 0.913953 0.377691
O O5 0.870062 0.984463 0.247858
O O6 0.870062 0.984464 0.507522
O O7 0.727754 0.158191 0.377689
O O8 0.500000 0.228008 0.699403
O O9 0.500000 0.050869 0.518062
O O10 0.127977 0.642249 0.742861
O O11 0.000000 0.771993 0.555978
O O12 0.500000 0.050867 0.237318
O O13 0.127977 0.642249 0.012519
#
# Coordination Sequence:
#
# PCOD9343563 Si02
#       8
#     2   4   2   2   2   2   4   2
#     4  12  24  40  66  96 112 152 220 266 280 352
#     4  11  22  39  62  90 125 165 196 241 303 367
#     4  11  22  39  62  90 125 165 196 241 303 367
#     4  11  23  44  65  86 124 165 198 247 312 359
#     4  11  22  39  62  90 125 165 196 241 303 367
#     4  11  23  44  65  86 124 165 198 247 312 359
#     4  11  23  44  65  86 124 165 198 247 312 359
#     4  12  20  36  60  92 126 156 204 236 300 362
#
# _framework density 19.828697999999999
#
# number of rings (size 3 to 8) (size 9 to 14) (size 15 to 20)
#    0.000    0.800    4.000    4.800    0.000    0.000 
#    0.000    0.000    0.000    0.000    0.000    0.000 
#    0.000    0.000    0.000    0.000    0.000    0.000 
#
# Total GULP energy -111581.184555 kJ/mol
# GULP energy per Si atom -5579.059228 kJ/mol
# Density = 1.978357 g / cm^3
# Si number density = 19.828698 Si / 1000 Ang^3
#
#
#
# Elastic Constant Matrix: (Units=GPa)
#
#
# Indices 1 2 3 4 5 6 
#
# 1 203.4194 37.9335 75.4330 0.0000 0.0000 0.0000
# 2 37.9335 47.1862 49.6124 0.0000 0.0000 0.0000
# 3 75.4330 49.6124 141.6983 0.0000 0.0000 0.0000
# 4 0.0000 0.0000 0.0000 -5.0577 0.0000 0.0000
# 5 0.0000 0.0000 0.0000 0.0000 38.7012 0.0000
# 6 0.0000 0.0000 0.0000 0.0000 0.0000 -41.6249
#
#
#
# Elastic Compliance Matrix: (Units=1/GPa)
#
#
# Indices 1 2 3 4 5 6 
#
# 1 0.006297 -0.002433 -0.002500 0.000000 0.000000 0.000000
# 2 -0.002433 0.034480 -0.010777 0.000000 0.000000 0.000000
# 3 -0.002500 -0.010777 0.012161 0.000000 0.000000 0.000000
# 4 0.000000 0.000000 0.000000 -0.197720 0.000000 0.000000
# 5 0.000000 0.000000 0.000000 0.000000 0.025839 0.000000
# 6 0.000000 0.000000 0.000000 0.000000 0.000000 -0.024024
#
#
# Mechanical properties :
#
#
# Convention : Reuss Voigt Hill
#
# Bulk Modulus (GPa) = 46.47414 79.80683 63.14049
# Shear Modulus (GPa) = -47.90502 13.69207 -17.10648
#
# Velocity S-wave (km/s) = -4.92056 2.63062 -2.94038
# Velocity P-wave (km/s) = 2.96544 7.04006 4.51490
#
# Compressibility (1/GPa) = 0.02151734
#
# Stress axis : x y z
#
# Youngs Moduli (GPa) = 158.80986 29.00233 82.22695
#
# Poissons Ratio (x) = 0.07058 0.20558
# Poissons Ratio (y) = 0.38646 0.88615
# Poissons Ratio (z) = 0.39704 0.31256
#
# Static dielectric constant tensor:
#      x y z
#    x 1.753150 0.000000 0.000000 
#    y 0.000000 1.650150 0.000000 
#    z 0.000000 0.000000 1.812440 
# 
# From -- ./inp_files/2053.got.cif
#   From: 2010.05.17/outbox.cif.g08.bks.cpg/sg31_2_cif.got.tgz:2053.got - 2010.06.03 17:08:30.
