data_PCOD9343445
_publ_section_title
;
Structure prediction by ZEFSAII (Michael W. Deem and Ramdas Pophale) SiO2 
 PCOD9343445
Probable space group: P M N 21
;
_chemical_formula_sum "Si O2"
_cell_formula_units_Z 20
_cell_length_a 14.244156
_cell_length_b 10.713428
_cell_length_c 5.225708
_cell_angle_alpha 90.000000
_cell_angle_beta 90.000000
_cell_angle_gamma 90.000000
_cell_volume 797.462584
_symmetry_space_group_name_H-M "P M N 21"
_symmetry_group_IT_number 31
_symmetry_cell_setting 'orthorhombic'
loop_
_space_group_symop_operation_xyz
x,y,z
1/2-x,-y,1/2+z
-x,y,z
1/2+x,-y,1/2+z
loop_
_atom_site_type_symbol
_atom_site_label
_atom_site_fract_x
_atom_site_fract_y
_atom_site_fract_z
Si Si1 0.000000 0.693868 0.552390
Si Si2 0.839843 0.426614 0.367819
Si Si3 0.000000 0.272444 0.603982
Si Si4 0.000000 0.523197 0.049948
Si Si5 0.204728 0.702945 0.558930
Si Si6 0.500000 0.897143 0.597814
Si Si7 0.796594 0.052468 0.953404
O O1 0.100282 0.759099 0.577537
O O2 0.000000 0.628099 0.275083
O O3 0.000000 0.591497 0.780194
O O4 0.910628 0.360877 0.561053
O O5 0.906459 0.445301 0.117641
O O6 0.806171 0.565192 0.436936
O O7 0.753432 0.334128 0.325013
O O8 0.000000 0.205508 0.873116
O O9 0.000000 0.169814 0.374344
O O10 0.273523 0.800621 0.429245
O O11 0.597139 0.969499 0.548350
O O12 0.770266 0.992755 0.683987
#
# Coordination Sequence:
#
# PCOD9343445 Si02
#       7
#     2   4   2   2   4   2   4
#     4  10  22  39  61  94 143 190 233 295 372 445
#     4  10  22  38  70 113 149 193 244 314 399 467
#     4  11  24  44  77 116 156 198 248 321 404 480
#     4   9  20  38  57  98 143 187 228 285 374 463
#     4  11  24  42  70 110 152 199 247 320 382 465
#     4  12  26  53  81 112 152 201 265 329 384 470
#     4  12  30  53  80 111 153 213 271 320 384 458
#
# _framework density 25.079543999999999
#
# number of rings (size 3 to 8) (size 9 to 14) (size 15 to 20)
#    0.000    1.200    2.000    3.000    2.800   11.200 
#    0.000    0.000    0.000    0.000    0.000    0.000 
#    0.000    0.000    0.000    0.000    0.000    0.000 
#
# Total GULP energy -111963.765018 kJ/mol
# GULP energy per Si atom -5598.188251 kJ/mol
# Density = 2.502246 g / cm^3
# Si number density = 25.079544 Si / 1000 Ang^3
#
#
#
# Elastic Constant Matrix: (Units=GPa)
#
#
# Indices 1 2 3 4 5 6 
#
# 1 144.5014 10.1628 -13.2990 0.0000 0.0000 0.0000
# 2 10.1628 54.6312 13.4019 0.0000 0.0000 0.0000
# 3 -13.2990 13.4019 92.9805 0.0000 0.0000 0.0000
# 4 0.0000 0.0000 0.0000 45.1189 0.0000 0.0000
# 5 0.0000 0.0000 0.0000 0.0000 22.6754 0.0000
# 6 0.0000 0.0000 0.0000 0.0000 0.0000 15.7431
#
#
#
# Elastic Compliance Matrix: (Units=1/GPa)
#
#
# Indices 1 2 3 4 5 6 
#
# 1 0.007152 -0.001639 0.001259 0.000000 0.000000 0.000000
# 2 -0.001639 0.019351 -0.003024 0.000000 0.000000 0.000000
# 3 0.001259 -0.003024 0.011371 0.000000 0.000000 0.000000
# 4 0.000000 0.000000 0.000000 0.022164 0.000000 0.000000
# 5 0.000000 0.000000 0.000000 0.000000 0.044101 0.000000
# 6 0.000000 0.000000 0.000000 0.000000 0.000000 0.063520
#
#
# Mechanical properties :
#
#
# Convention : Reuss Voigt Hill
#
# Bulk Modulus (GPa) = 32.18946 34.73827 33.46386
# Shear Modulus (GPa) = 27.05320 35.49729 31.27524
#
# Velocity S-wave (km/s) = 3.28791 3.76625 3.53518
# Velocity P-wave (km/s) = 5.22270 5.72661 5.48045
#
# Compressibility (1/GPa) = 0.03106607
#
# Stress axis : x y z
#
# Youngs Moduli (GPa) = 139.83038 51.67622 87.94400
#
# Poissons Ratio (x) = 0.08471 -0.11074
# Poissons Ratio (y) = 0.22922 0.26592
# Poissons Ratio (z) = -0.17607 0.15625
#
# Static dielectric constant tensor:
#      x y z
#    x 2.079700 0.000000 0.000000 
#    y 0.000000 1.959660 0.000000 
#    z 0.000000 0.000000 2.002340 
# 
# From -- ./inp_files/553.got.cif
#   From: 2010.05.17/outbox.cif.g08.bks.cpg/sg31_1_cif.got.tgz:553.got - 2010.06.03 17:08:30.
