data_PCOD9343025
_publ_section_title
;
Structure prediction by ZEFSAII (Michael W. Deem and Ramdas Pophale) SiO2 
 PCOD9343025
Probable space group: P M N 21
;
_chemical_formula_sum "Si O2"
_cell_formula_units_Z 32
_cell_length_a 7.603684
_cell_length_b 12.451071
_cell_length_c 15.773384
_cell_angle_alpha 90.000000
_cell_angle_beta 90.000000
_cell_angle_gamma 90.000000
_cell_volume 1493.329504
_symmetry_space_group_name_H-M "P M N 21"
_symmetry_group_IT_number 31
_symmetry_cell_setting 'orthorhombic'
loop_
_space_group_symop_operation_xyz
x,y,z
1/2-x,-y,1/2+z
-x,y,z
1/2+x,-y,1/2+z
loop_
_atom_site_type_symbol
_atom_site_label
_atom_site_fract_x
_atom_site_fract_y
_atom_site_fract_z
Si Si1 0.293207 0.503506 0.631320
Si Si2 0.199138 0.502440 0.825494
Si Si3 0.785889 0.263016 0.078666
Si Si4 0.283653 0.349984 0.479522
Si Si5 0.787407 0.954457 0.331373
Si Si6 0.703434 0.273768 0.885532
Si Si7 0.790455 0.896095 0.992260
Si Si8 0.715236 0.961738 0.650404
O O1 0.500000 0.507860 0.612792
O O2 0.276395 0.486471 0.731783
O O3 0.222188 0.622114 0.611540
O O4 0.225531 0.414619 0.564463
O O5 0.275879 0.585909 0.894698
O O6 0.202615 0.385601 0.868439
O O7 0.000000 0.538077 0.810843
O O8 0.731465 0.160375 0.132692
O O9 0.000000 0.263490 0.075983
O O10 0.716823 0.248122 0.984343
O O11 0.500000 0.350734 0.478013
O O12 0.224666 0.226001 0.481639
O O13 0.723544 0.832168 0.340679
O O14 0.000000 0.948707 0.330832
O O15 0.739697 0.030070 0.410097
O O16 0.726381 0.001565 0.242521
O O17 0.500000 0.289622 0.860555
O O18 0.000000 0.886509 0.003508
O O19 0.723706 0.959691 0.075052
O O20 0.500000 0.963973 0.649511
#
# Coordination Sequence:
#
# PCOD9343025 Si02
#       8
#     4   4   4   4   4   4   4   4
#     4  10  21  38  60  85 113 151 195 240 289 344
#     4  11  23  40  59  85 119 154 194 240 288 343
#     4  10  19  37  62  83 110 152 197 240 290 347
#     4   9  20  38  59  82 115 153 190 232 285 344
#     4  10  22  38  57  85 118 150 187 240 290 339
#     4  11  22  37  60  86 114 150 196 244 291 338
#     4  10  20  37  61  83 109 151 193 230 278 345
#     4   9  19  35  58  83 110 149 192 228 281 348
#
# _framework density 21.428626000000001
#
# number of rings (size 3 to 8) (size 9 to 14) (size 15 to 20)
#    0.000    2.000    2.500    0.750    3.500    1.000 
#    0.000    2.500    0.000    0.000    0.000    0.000 
#    0.000    0.000    0.000    0.000    0.000    0.000 
#
# Total GULP energy -178670.030106 kJ/mol
# GULP energy per Si atom -5583.438441 kJ/mol
# Density = 2.137985 g / cm^3
# Si number density = 21.428626 Si / 1000 Ang^3
#
#
#
# Elastic Constant Matrix: (Units=GPa)
#
#
# Indices 1 2 3 4 5 6 
#
# 1 42.2244 3.8156 -8.6971 0.0000 0.0000 0.0000
# 2 3.8156 102.1361 10.6477 0.0000 0.0000 0.0000
# 3 -8.6971 10.6477 85.5743 0.0000 0.0000 0.0000
# 4 0.0000 0.0000 0.0000 39.0145 0.0000 0.0000
# 5 0.0000 0.0000 0.0000 0.0000 176.2089 0.0000
# 6 0.0000 0.0000 0.0000 0.0000 0.0000 -0.6708
#
#
#
# Elastic Compliance Matrix: (Units=1/GPa)
#
#
# Indices 1 2 3 4 5 6 
#
# 1 0.024329 -0.001182 0.002620 0.000000 0.000000 0.000000
# 2 -0.001182 0.009977 -0.001362 0.000000 0.000000 0.000000
# 3 0.002620 -0.001362 0.012121 0.000000 0.000000 0.000000
# 4 0.000000 0.000000 0.000000 0.025631 0.000000 0.000000
# 5 0.000000 0.000000 0.000000 0.000000 0.005675 0.000000
# 6 0.000000 0.000000 0.000000 0.000000 0.000000 -1.490774
#
#
# Mechanical properties :
#
#
# Convention : Reuss Voigt Hill
#
# Bulk Modulus (GPa) = 21.46837 26.82969 24.14903
# Shear Modulus (GPa) = -3.57740 57.85510 27.13885
#
# Velocity S-wave (km/s) = -1.29347 5.20169 3.56262
# Velocity P-wave (km/s) = 2.79455 6.97312 5.31197
#
# Compressibility (1/GPa) = 0.04658016
#
# Stress axis : x y z
#
# Youngs Moduli (GPa) = 41.10251 100.23102 82.49869
#
# Poissons Ratio (x) = 0.11847 -0.21612
# Poissons Ratio (y) = 0.04858 0.11232
# Poissons Ratio (z) = -0.10768 0.13647
#
# Static dielectric constant tensor:
#      x y z
#    x 1.684650 0.000000 0.000000 
#    y 0.000000 1.811880 0.000000 
#    z 0.000000 0.000000 1.751060 
# 
# From -- ./inp_files/4924.got.cif
#   From: 2010.05.17/outbox.cif.g08.bks.cpg/sg31_3_cif.got.tgz:4924.got - 2010.06.03 17:08:30.
