data_PCOD9343224
_publ_section_title
;
Structure prediction by ZEFSAII (Michael W. Deem and Ramdas Pophale) SiO2 
 PCOD9343224
Probable space group: P M N 21
;
_chemical_formula_sum "Si O2"
_cell_formula_units_Z 24
_cell_length_a 9.008660
_cell_length_b 11.207170
_cell_length_c 12.997241
_cell_angle_alpha 90.000000
_cell_angle_beta 90.000000
_cell_angle_gamma 90.000000
_cell_volume 1312.222040
_symmetry_space_group_name_H-M "P M N 21"
_symmetry_group_IT_number 31
_symmetry_cell_setting 'orthorhombic'
loop_
_space_group_symop_operation_xyz
x,y,z
1/2-x,-y,1/2+z
-x,y,z
1/2+x,-y,1/2+z
loop_
_atom_site_type_symbol
_atom_site_label
_atom_site_fract_x
_atom_site_fract_y
_atom_site_fract_z
Si Si1 0.174270 0.504922 0.188390
Si Si2 0.823515 0.706179 0.785213
Si Si3 0.673929 0.724057 0.576429
Si Si4 0.677537 0.133352 0.894949
Si Si5 0.678733 0.219289 0.667672
Si Si6 0.822676 0.136540 0.459974
O O1 0.267785 0.430608 0.272018
O O2 0.188731 0.419972 0.087644
O O3 0.218226 0.640229 0.170858
O O4 0.000000 0.502852 0.217764
O O5 0.758291 0.766120 0.680359
O O6 0.753307 0.769869 0.883000
O O7 0.000000 0.712315 0.787015
O O8 0.500000 0.753320 0.584137
O O9 0.743196 0.779587 0.475404
O O10 0.500000 0.149530 0.905042
O O11 0.717350 0.163205 0.777764
O O12 0.713324 0.997146 0.922759
O O13 0.500000 0.210419 0.653406
O O14 0.760833 0.157133 0.573805
O O15 0.000000 0.151508 0.457000
#
# Coordination Sequence:
#
# PCOD9343224 Si02
#       6
#     4   4   4   4   4   4
#     4   8  18  37  60  89 120 151 193 246 296 352
#     4  10  20  37  62  88 116 156 199 236 294 355
#     4   9  19  37  61  87 117 153 193 240 295 347
#     4  10  23  40  60  86 119 158 199 245 294 352
#     4  10  22  41  61  87 119 156 201 246 298 353
#     4  11  24  40  58  87 123 158 201 247 295 349
#
# _framework density 18.289588999999999
#
# number of rings (size 3 to 8) (size 9 to 14) (size 15 to 20)
#    1.000    1.333    0.000    2.000    2.333    4.000 
#    0.000    3.333    0.000    0.000    0.000    0.000 
#    0.000    0.000    0.000    0.000    0.000    0.000 
#
# Total GULP energy -133777.585351 kJ/mol
# GULP energy per Si atom -5574.066056 kJ/mol
# Density = 1.824796 g / cm^3
# Si number density = 18.289589 Si / 1000 Ang^3
#
#
#
# Elastic Constant Matrix: (Units=GPa)
#
#
# Indices 1 2 3 4 5 6 
#
# 1 68.3879 59.7754 57.8242 0.0000 0.0000 0.0000
# 2 59.7754 104.0430 62.8479 0.0000 0.0000 0.0000
# 3 57.8242 62.8479 128.3226 0.0000 0.0000 0.0000
# 4 0.0000 0.0000 0.0000 31.6587 0.0000 0.0000
# 5 0.0000 0.0000 0.0000 0.0000 32.0595 0.0000
# 6 0.0000 0.0000 0.0000 0.0000 0.0000 -9.5660
#
#
#
# Elastic Compliance Matrix: (Units=1/GPa)
#
#
# Indices 1 2 3 4 5 6 
#
# 1 0.034691 -0.014894 -0.008337 0.000000 0.000000 0.000000
# 2 -0.014894 0.020045 -0.003105 0.000000 0.000000 0.000000
# 3 -0.008337 -0.003105 0.013071 0.000000 0.000000 0.000000
# 4 0.000000 0.000000 0.000000 0.031587 0.000000 0.000000
# 5 0.000000 0.000000 0.000000 0.000000 0.031192 0.000000
# 6 0.000000 0.000000 0.000000 0.000000 0.000000 -0.104537
#
#
# Mechanical properties :
#
#
# Convention : Reuss Voigt Hill
#
# Bulk Modulus (GPa) = 66.08765 73.51651 69.80208
# Shear Modulus (GPa) = 59.68957 18.85083 39.27020
#
# Velocity S-wave (km/s) = 5.71897 3.21391 4.63874
# Velocity P-wave (km/s) = 8.93428 7.35224 8.18159
#
# Compressibility (1/GPa) = 0.01513142
#
# Stress axis : x y z
#
# Youngs Moduli (GPa) = 28.82614 49.88893 76.50661
#
# Poissons Ratio (x) = 0.74307 0.63787
# Poissons Ratio (y) = 0.42935 0.23759
# Poissons Ratio (z) = 0.24034 0.15493
#
# Static dielectric constant tensor:
#      x y z
#    x 1.612060 0.000000 0.000000 
#    y 0.000000 1.631130 0.000000 
#    z 0.000000 0.000000 1.607880 
# 
# From -- ./inp_files/3446.got.cif
#   From: 2010.05.17/outbox.cif.g08.bks.cpg/sg31_2_cif.got.tgz:3446.got - 2010.06.03 17:08:30.
