data_PCOD9343803
_publ_section_title
;
Structure prediction by ZEFSAII (Michael W. Deem and Ramdas Pophale) SiO2 
 PCOD9343803
Probable space group: P B A 2
;
_chemical_formula_sum "Si O2"
_cell_formula_units_Z 28
_cell_length_a 9.933661
_cell_length_b 16.604725
_cell_length_c 8.601246
_cell_angle_alpha 90.000000
_cell_angle_beta 90.000000
_cell_angle_gamma 90.000000
_cell_volume 1418.738621
_symmetry_space_group_name_H-M "P B A 2"
_symmetry_group_IT_number 32
_symmetry_cell_setting 'orthorhombic'
loop_
_space_group_symop_operation_xyz
x,y,z
-x,-y,z
1/2-x,1/2+y,z
1/2+x,1/2-y,z
loop_
_atom_site_type_symbol
_atom_site_label
_atom_site_fract_x
_atom_site_fract_y
_atom_site_fract_z
Si Si1 0.113965 0.644641 0.729220
Si Si2 0.743420 0.116107 0.395786
Si Si3 0.835170 0.439526 0.395786
Si Si4 0.045175 0.136377 0.395786
Si Si5 0.886035 0.355359 0.062352
Si Si6 0.358169 0.759328 0.647580
Si Si7 0.358169 0.759328 0.143992
O O1 0.115425 0.598348 0.561296
O O2 0.239369 0.707023 0.722937
O O3 0.974675 0.693361 0.735239
O O4 0.126643 0.598597 0.895786
O O5 0.901019 0.095611 0.395786
O O6 0.712137 0.173204 0.541109
O O7 0.712137 0.173204 0.250462
O O8 0.653956 0.035835 0.395786
O O9 0.675849 0.419103 0.395786
O O10 0.884575 0.401652 0.230275
O O11 0.061091 0.195629 0.541648
O O12 0.061091 0.195629 0.249924
O O13 0.760631 0.292977 0.068634
O O14 0.025325 0.306639 0.056333
#
# Coordination Sequence:
#
# PCOD9343803 Si02
#       7
#     4   4   4   4   4   4   4
#     4  11  22  40  60  87 120 154 199 246 291 346
#     4  11  19  36  63  90 120 154 198 238 296 358
#     4  10  23  37  60  89 121 162 187 236 303 359
#     4   9  17  35  61  86 116 155 197 236 289 344
#     4  11  22  40  60  87 120 154 199 246 291 346
#     4  10  20  35  62  88 113 153 203 245 285 341
#     4  10  20  35  62  88 113 153 203 245 285 341
#
# _framework density 19.735841000000001
#
# number of rings (size 3 to 8) (size 9 to 14) (size 15 to 20)
#    0.000    1.714    2.857    3.857    0.000    2.286 
#    0.000    4.286    0.000    3.429    0.000    0.000 
#    0.000    0.000    0.000    0.000    0.000    0.000 
#
# Total GULP energy -155975.725762 kJ/mol
# GULP energy per Si atom -5570.561634 kJ/mol
# Density = 1.969092 g / cm^3
# Si number density = 19.735841 Si / 1000 Ang^3
#
#
#
# Elastic Constant Matrix: (Units=GPa)
#
#
# Indices 1 2 3 4 5 6 
#
# 1 95.0880 -3.3842 30.4209 0.0000 0.0000 0.0000
# 2 -3.3842 73.1290 40.7759 0.0000 0.0000 0.0000
# 3 30.4209 40.7759 155.0116 0.0000 0.0000 0.0000
# 4 0.0000 0.0000 0.0000 2.3840 0.0000 0.0000
# 5 0.0000 0.0000 0.0000 0.0000 -45.3699 0.0000
# 6 0.0000 0.0000 0.0000 0.0000 0.0000 26.5205
#
#
#
# Elastic Compliance Matrix: (Units=1/GPa)
#
#
# Indices 1 2 3 4 5 6 
#
# 1 0.011489 0.002096 -0.002806 0.000000 0.000000 0.000000
# 2 0.002096 0.016407 -0.004727 0.000000 0.000000 0.000000
# 3 -0.002806 -0.004727 0.008245 0.000000 0.000000 0.000000
# 4 0.000000 0.000000 0.000000 0.419464 0.000000 0.000000
# 5 0.000000 0.000000 0.000000 0.000000 -0.022041 0.000000
# 6 0.000000 0.000000 0.000000 0.000000 0.000000 0.037707
#
#
# Mechanical properties :
#
#
# Convention : Reuss Voigt Hill
#
# Bulk Modulus (GPa) = 39.57675 50.98378 45.28026
# Shear Modulus (GPa) = 10.19226 13.73466 11.96346
#
# Velocity S-wave (km/s) = 2.27498 2.64090 2.46474
# Velocity P-wave (km/s) = 5.19591 5.93197 5.57610
#
# Compressibility (1/GPa) = 0.02526736
#
# Stress axis : x y z
#
# Youngs Moduli (GPa) = 87.04021 60.94805 121.28004
#
# Poissons Ratio (x) = -0.12777 0.34033
# Poissons Ratio (y) = -0.18247 0.57334
# Poissons Ratio (z) = 0.24425 0.28813
#
# Static dielectric constant tensor:
#      x y z
#    x 1.695760 0.000000 0.000000 
#    y 0.000000 1.672460 0.000000 
#    z 0.000000 0.000000 1.741460 
# 
# From -- ./inp_files/2468.got.cif
#   From: 2010.05.17/outbox.cif.g08.bks.cpg/sg32_2_cif.got.tgz:2468.got - 2010.06.03 17:12:27.
