data_PCOD9343815
_publ_section_title
;
Structure prediction by ZEFSAII (Michael W. Deem and Ramdas Pophale) SiO2 
 PCOD9343815
Probable space group: P B A 2
;
_chemical_formula_sum "Si O2"
_cell_formula_units_Z 28
_cell_length_a 9.255628
_cell_length_b 19.250799
_cell_length_c 8.434469
_cell_angle_alpha 90.000000
_cell_angle_beta 90.000000
_cell_angle_gamma 90.000000
_cell_volume 1502.838793
_symmetry_space_group_name_H-M "P B A 2"
_symmetry_group_IT_number 32
_symmetry_cell_setting 'orthorhombic'
loop_
_space_group_symop_operation_xyz
x,y,z
-x,-y,z
1/2-x,1/2+y,z
1/2+x,1/2-y,z
loop_
_atom_site_type_symbol
_atom_site_label
_atom_site_fract_x
_atom_site_fract_y
_atom_site_fract_z
Si Si1 0.234837 0.223542 0.181660
Si Si2 0.998908 0.208961 0.745673
Si Si3 0.350234 0.602685 0.972481
Si Si4 0.195552 0.321587 0.894284
Si Si5 0.454883 0.291262 0.382552
Si Si6 0.337064 0.974311 0.013933
Si Si7 0.911201 0.064121 0.238291
O O1 0.335333 0.235625 0.332166
O O2 0.075553 0.220670 0.250507
O O3 0.250696 0.153819 0.078598
O O4 0.244915 0.288339 0.062365
O O5 0.090920 0.146718 0.825023
O O6 0.058584 0.277724 0.833227
O O7 0.831374 0.193661 0.781332
O O8 0.014256 0.216152 0.558286
O O9 0.258404 0.534806 0.932201
O O10 0.488392 0.583339 0.083860
O O11 0.164122 0.402349 0.917456
O O12 0.401007 0.369810 0.352073
O O13 0.500000 0.000000 0.040396
O O14 0.244476 0.959163 0.173644
O O15 0.000000 0.000000 0.313022
#
# Coordination Sequence:
#
# PCOD9343815 Si02
#       7
#     4   4   4   4   4   4   4
#     4  10  20  36  63  86 113 156 205 249 295 361
#     4  11  23  38  61  91 125 161 201 260 308 366
#     4   9  20  37  60  85 120 159 205 249 299 366
#     4  11  22  40  61  90 119 159 208 249 299 361
#     4  11  21  37  60  90 119 157 194 255 310 361
#     4  11  22  35  63  93 116 155 209 261 295 357
#     4   9  18  39  57  85 117 154 205 244 296 368
#
# _framework density 18.631406999999999
#
# number of rings (size 3 to 8) (size 9 to 14) (size 15 to 20)
#    0.000    1.714    2.857    2.571    6.000    0.000 
#    2.571    0.000    0.000    0.857    0.000    0.000 
#    0.000    0.000    0.000    0.000    0.000    0.000 
#
# Total GULP energy -156206.182334 kJ/mol
# GULP energy per Si atom -5578.792226 kJ/mol
# Density = 1.858900 g / cm^3
# Si number density = 18.631407 Si / 1000 Ang^3
#
#
#
# Elastic Constant Matrix: (Units=GPa)
#
#
# Indices 1 2 3 4 5 6 
#
# 1 41.5765 16.5784 23.7124 0.0000 0.0000 0.0000
# 2 16.5784 102.2144 30.0737 0.0000 0.0000 0.0000
# 3 23.7124 30.0737 38.8219 0.0000 0.0000 0.0000
# 4 0.0000 0.0000 0.0000 15.5997 0.0000 0.0000
# 5 0.0000 0.0000 0.0000 0.0000 23.7791 0.0000
# 6 0.0000 0.0000 0.0000 0.0000 0.0000 28.6269
#
#
#
# Elastic Compliance Matrix: (Units=1/GPa)
#
#
# Indices 1 2 3 4 5 6 
#
# 1 0.036965 0.000839 -0.023228 0.000000 0.000000 0.000000
# 2 0.000839 0.012690 -0.010343 0.000000 0.000000 0.000000
# 3 -0.023228 -0.010343 0.047959 0.000000 0.000000 0.000000
# 4 0.000000 0.000000 0.000000 0.064104 0.000000 0.000000
# 5 0.000000 0.000000 0.000000 0.000000 0.042054 0.000000
# 6 0.000000 0.000000 0.000000 0.000000 0.000000 0.034932
#
#
# Mechanical properties :
#
#
# Convention : Reuss Voigt Hill
#
# Bulk Modulus (GPa) = 31.10459 35.92686 33.51573
# Shear Modulus (GPa) = 15.87877 21.08436 18.48157
#
# Velocity S-wave (km/s) = 2.92251 3.36766 3.15295
# Velocity P-wave (km/s) = 5.30274 5.86910 5.59309
#
# Compressibility (1/GPa) = 0.03214959
#
# Stress axis : x y z
#
# Youngs Moduli (GPa) = 27.05233 78.79917 20.85125
#
# Poissons Ratio (x) = -0.06609 0.48434
# Poissons Ratio (y) = -0.02269 0.21567
# Poissons Ratio (z) = 0.62838 0.81503
#
# Static dielectric constant tensor:
#      x y z
#    x 1.680350 0.000000 0.000000 
#    y 0.000000 1.687180 0.000000 
#    z 0.000000 0.000000 1.609870 
# 
# From -- ./inp_files/2516.got.cif
#   From: 2010.05.17/outbox.cif.g08.bks.cpg/sg32_2_cif.got.tgz:2516.got - 2010.06.03 17:12:27.
