data_PCOD9343914
_publ_section_title
;
Structure prediction by ZEFSAII (Michael W. Deem and Ramdas Pophale) SiO2 
 PCOD9343914
Probable space group: P B A 2
;
_chemical_formula_sum "Si O2"
_cell_formula_units_Z 30
_cell_length_a 5.288303
_cell_length_b 36.689628
_cell_length_c 6.967571
_cell_angle_alpha 90.000000
_cell_angle_beta 90.000000
_cell_angle_gamma 90.000000
_cell_volume 1351.889024
_symmetry_space_group_name_H-M "P B A 2"
_symmetry_group_IT_number 32
_symmetry_cell_setting 'orthorhombic'
loop_
_space_group_symop_operation_xyz
x,y,z
-x,-y,z
1/2-x,1/2+y,z
1/2+x,1/2-y,z
loop_
_atom_site_type_symbol
_atom_site_label
_atom_site_fract_x
_atom_site_fract_y
_atom_site_fract_z
Si Si1 0.249523 0.480154 0.638290
Si Si2 0.189116 0.156814 0.082735
Si Si3 0.000000 0.000000 0.009799
Si Si4 0.188098 0.334867 0.341593
Si Si5 0.353287 0.727263 0.826189
Si Si6 0.143379 0.256642 0.408660
Si Si7 0.382328 0.911579 0.421632
Si Si8 0.884428 0.922661 0.181256
O O1 0.500000 0.500000 0.555048
O O2 0.209989 0.438726 0.584220
O O3 0.000000 0.500000 0.566965
O O4 0.286994 0.484717 0.864610
O O5 0.958282 0.164168 0.233376
O O6 0.459969 0.163145 0.186248
O O7 0.160031 0.186669 0.913982
O O8 0.169484 0.112782 0.044617
O O9 0.884701 0.964403 0.110100
O O10 0.158380 0.298549 0.463628
O O11 0.147830 0.369688 0.474805
O O12 0.609074 0.748599 0.878541
O O13 0.352709 0.730188 0.591753
O O14 0.892066 0.251263 0.292378
O O15 0.664267 0.919035 0.342992
O O16 0.170826 0.917328 0.256526
#
# Coordination Sequence:
#
# PCOD9343914 Si02
#       8
#     4   4   2   4   4   4   4   4
#     4  10  23  40  58  92 127 159 199 252 312 370
#     4  10  21  39  59  89 121 156 201 251 303 354
#     4  10  26  40  62  98 128 160 210 258 316 370
#     4  10  21  38  61  86 119 152 204 253 291 354
#     4  10  21  37  56  85 118 156 198 238 301 366
#     4  10  21  37  55  87 116 153 199 237 300 353
#     4  10  22  41  63  91 118 165 205 247 312 366
#     4  10  23  39  66  91 122 163 207 256 309 368
#
# _framework density 22.191172000000002
#
# number of rings (size 3 to 8) (size 9 to 14) (size 15 to 20)
#    0.400    1.600    0.000    2.400    4.667    3.200 
#    4.800    2.667    0.000    0.000    0.000    0.000 
#    0.000    0.000    0.000    0.000    0.000    0.000 
#
# Total GULP energy -167210.977969 kJ/mol
# GULP energy per Si atom -5573.699266 kJ/mol
# Density = 2.214066 g / cm^3
# Si number density = 22.191172 Si / 1000 Ang^3
#
#
#
# Elastic Constant Matrix: (Units=GPa)
#
#
# Indices 1 2 3 4 5 6 
#
# 1 158.1497 16.6557 -0.2832 0.0000 0.0000 0.0000
# 2 16.6557 130.6793 7.7502 0.0000 0.0000 0.0000
# 3 -0.2832 7.7502 31.9786 0.0000 0.0000 0.0000
# 4 0.0000 0.0000 0.0000 -85.1993 0.0000 0.0000
# 5 0.0000 0.0000 0.0000 0.0000 -7.6570 0.0000
# 6 0.0000 0.0000 0.0000 0.0000 0.0000 23.1992
#
#
#
# Elastic Compliance Matrix: (Units=1/GPa)
#
#
# Indices 1 2 3 4 5 6 
#
# 1 0.006411 -0.000832 0.000259 0.000000 0.000000 0.000000
# 2 -0.000832 0.007872 -0.001915 0.000000 0.000000 0.000000
# 3 0.000259 -0.001915 0.031737 0.000000 0.000000 0.000000
# 4 0.000000 0.000000 0.000000 -0.011737 0.000000 0.000000
# 5 0.000000 0.000000 0.000000 0.000000 -0.130600 0.000000
# 6 0.000000 0.000000 0.000000 0.000000 0.000000 0.043105
#
#
# Mechanical properties :
#
#
# Convention : Reuss Voigt Hill
#
# Bulk Modulus (GPa) = 24.36508 41.00590 32.68549
# Shear Modulus (GPa) = -144.70637 5.84758 -69.42940
#
# Velocity S-wave (km/s) = -8.08397 1.62506 -5.59954
# Velocity P-wave (km/s) = 8.72528 4.69464 5.20053
#
# Compressibility (1/GPa) = 0.04104235
#
# Stress axis : x y z
#
# Youngs Moduli (GPa) = 155.97558 127.03233 31.50856
#
# Poissons Ratio (x) = 0.10575 -0.00815
# Poissons Ratio (y) = 0.12985 0.06035
# Poissons Ratio (z) = -0.04032 0.24329
#
# Static dielectric constant tensor:
#      x y z
#    x 1.929610 0.000000 0.000000 
#    y 0.000000 1.955260 0.000000 
#    z 0.000000 0.000000 1.818010 
# 
# From -- ./inp_files/2061.got.cif
#   From: 2010.05.17/outbox.cif.g08.bks.cpg/sg32_2_cif.got.tgz:2061.got - 2010.06.03 17:12:27.
