data_PCOD9343021
_publ_section_title
;
Structure prediction by ZEFSAII (Michael W. Deem and Ramdas Pophale) SiO2 
 PCOD9343021
Probable space group: P M N 21
;
_chemical_formula_sum "Si O2"
_cell_formula_units_Z 24
_cell_length_a 20.392465
_cell_length_b 7.389767
_cell_length_c 9.116712
_cell_angle_alpha 90.000000
_cell_angle_beta 90.000000
_cell_angle_gamma 90.000000
_cell_volume 1373.848065
_symmetry_space_group_name_H-M "P M N 21"
_symmetry_group_IT_number 31
_symmetry_cell_setting 'orthorhombic'
loop_
_space_group_symop_operation_xyz
x,y,z
1/2-x,-y,1/2+z
-x,y,z
1/2+x,-y,1/2+z
loop_
_atom_site_type_symbol
_atom_site_label
_atom_site_fract_x
_atom_site_fract_y
_atom_site_fract_z
Si Si1 0.701535 0.595916 0.477780
Si Si2 0.125468 0.187820 0.400086
Si Si3 0.926153 0.896796 0.219961
Si Si4 0.794525 0.054230 0.152965
Si Si5 0.424912 0.523719 0.670430
Si Si6 0.790610 0.306408 0.644249
O O1 0.724863 0.791012 0.539873
O O2 0.629687 0.562324 0.547619
O O3 0.749192 0.443334 0.542925
O O4 0.700923 0.605046 0.303120
O O5 0.193865 0.147122 0.312281
O O6 0.089458 0.339408 0.303511
O O7 0.142622 0.255896 0.559889
O O8 0.086479 0.000854 0.373905
O O9 0.916816 0.682512 0.225163
O O10 0.000000 0.934986 0.169980
O O11 0.868670 0.982129 0.120389
O O12 0.748355 0.882264 0.160776
O O13 0.500000 0.546294 0.620427
#
# Coordination Sequence:
#
# PCOD9343021 Si02
#       6
#     4   4   4   4   4   4
#     4  11  22  35  56  83 112 150 180 232 276 334
#     4   9  20  33  55  81 108 145 179 231 273 331
#     4   9  18  35  60  79 102 140 190 227 268 324
#     4   9  20  34  56  81 107 145 185 226 277 325
#     4  10  19  37  60  82 108 146 193 229 272 332
#     4  12  22  36  53  84 120 144 185 223 288 334
#
# _framework density 17.469180999999999
#
# number of rings (size 3 to 8) (size 9 to 14) (size 15 to 20)
#    1.000    1.000    1.667    3.500    0.000    0.000 
#    0.000    1.667    0.000    0.000    0.000    0.000 
#    0.000    0.000    0.000    0.000    0.000    0.000 
#
# Total GULP energy -133623.918279 kJ/mol
# GULP energy per Si atom -5567.663262 kJ/mol
# Density = 1.742942 g / cm^3
# Si number density = 17.469181 Si / 1000 Ang^3
#
#
#
# Elastic Constant Matrix: (Units=GPa)
#
#
# Indices 1 2 3 4 5 6 
#
# 1 56.3550 30.9849 16.9171 0.0000 0.0000 0.0000
# 2 30.9849 109.5991 36.2657 0.0000 0.0000 0.0000
# 3 16.9171 36.2657 89.8560 0.0000 0.0000 0.0000
# 4 0.0000 0.0000 0.0000 15.1398 0.0000 0.0000
# 5 0.0000 0.0000 0.0000 0.0000 15.2452 0.0000
# 6 0.0000 0.0000 0.0000 0.0000 0.0000 22.4728
#
#
#
# Elastic Compliance Matrix: (Units=1/GPa)
#
#
# Indices 1 2 3 4 5 6 
#
# 1 0.021265 -0.005410 -0.001820 0.000000 0.000000 0.000000
# 2 -0.005410 0.011907 -0.003787 0.000000 0.000000 0.000000
# 3 -0.001820 -0.003787 0.013000 0.000000 0.000000 0.000000
# 4 0.000000 0.000000 0.000000 0.066051 0.000000 0.000000
# 5 0.000000 0.000000 0.000000 0.000000 0.065594 0.000000
# 6 0.000000 0.000000 0.000000 0.000000 0.000000 0.044498
#
#
# Mechanical properties :
#
#
# Convention : Reuss Voigt Hill
#
# Bulk Modulus (GPa) = 41.42817 47.12728 44.27773
# Shear Modulus (GPa) = 19.81017 22.01440 20.91229
#
# Velocity S-wave (km/s) = 3.37115 3.55376 3.46366
# Velocity P-wave (km/s) = 6.23854 6.62381 6.43406
#
# Compressibility (1/GPa) = 0.02413816
#
# Stress axis : x y z
#
# Youngs Moduli (GPa) = 47.02476 83.98685 76.92277
#
# Poissons Ratio (x) = 0.45434 0.14002
# Poissons Ratio (y) = 0.25439 0.29131
# Poissons Ratio (z) = 0.08560 0.31806
#
# Static dielectric constant tensor:
#      x y z
#    x 1.607220 0.000000 0.000000 
#    y 0.000000 1.617580 0.000000 
#    z 0.000000 0.000000 1.591800 
# 
# From -- ./inp_files/2930.got.cif
#   From: 2010.05.17/outbox.cif.g08.bks.cpg/sg31_2_cif.got.tgz:2930.got - 2010.06.03 17:08:30.
