data_PCOD9343410
_publ_section_title
;
Structure prediction by ZEFSAII (Michael W. Deem and Ramdas Pophale) SiO2 
 PCOD9343410
Probable space group: P M N 21
;
_chemical_formula_sum "Si O2"
_cell_formula_units_Z 32
_cell_length_a 14.395147
_cell_length_b 9.578671
_cell_length_c 11.983598
_cell_angle_alpha 90.000000
_cell_angle_beta 90.000000
_cell_angle_gamma 90.000000
_cell_volume 1652.374913
_symmetry_space_group_name_H-M "P M N 21"
_symmetry_group_IT_number 31
_symmetry_cell_setting 'orthorhombic'
loop_
_space_group_symop_operation_xyz
x,y,z
1/2-x,-y,1/2+z
-x,y,z
1/2+x,-y,1/2+z
loop_
_atom_site_type_symbol
_atom_site_label
_atom_site_fract_x
_atom_site_fract_y
_atom_site_fract_z
Si Si1 0.274121 0.627734 0.225720
Si Si2 0.770937 0.133280 0.892871
Si Si3 0.608469 0.926988 0.837763
Si Si4 0.607990 0.795090 0.595242
Si Si5 0.389519 0.066469 0.239760
Si Si6 0.890904 0.163469 0.574682
Si Si7 0.892959 0.540810 0.074119
Si Si8 0.387950 0.373259 0.318144
O O1 0.265442 0.712893 0.340642
O O2 0.330925 0.727938 0.142899
O O3 0.176854 0.598029 0.166525
O O4 0.332347 0.489264 0.249989
O O5 0.675418 0.056421 0.862044
O O6 0.846467 0.042264 0.825836
O O7 0.813253 0.140996 0.015951
O O8 0.500000 0.968222 0.842169
O O9 0.624220 0.849952 0.720674
O O10 0.625835 0.826780 0.943325
O O11 0.500000 0.834135 0.565510
O O12 0.612897 0.627834 0.580021
O O13 0.500000 0.069810 0.251643
O O14 0.357918 0.221646 0.271885
O O15 0.369946 0.993560 0.120298
O O16 0.000000 0.187957 0.596457
O O17 0.000000 0.579531 0.097023
O O18 0.870265 0.600102 0.950237
O O19 0.500000 0.388431 0.303245
#
# Coordination Sequence:
#
# PCOD9343410 Si02
#       8
#     4   4   4   4   4   4   4   4
#     4  11  23  37  62  94 123 166 205 257 318 379
#     4  11  23  37  65  93 124 159 212 259 314 382
#     4  10  24  41  62  89 126 166 210 262 319 380
#     4  10  22  43  67  92 125 171 216 264 320 380
#     4   9  20  36  62  94 124 157 201 266 321 367
#     4   9  20  40  61  90 127 163 207 260 319 380
#     4  10  23  40  62  93 133 167 210 265 318 381
#     4  10  21  40  63  93 126 163 211 265 315 375
#
# _framework density 19.366066
#
# number of rings (size 3 to 8) (size 9 to 14) (size 15 to 20)
#    0.000    2.000    1.250    0.750    7.000    1.500 
#    0.000    2.500    0.000    1.500    0.000    0.000 
#    0.000    0.000    0.000    0.000    0.000    0.000 
#
# Total GULP energy -178557.549961 kJ/mol
# GULP energy per Si atom -5579.923436 kJ/mol
# Density = 1.932199 g / cm^3
# Si number density = 19.366066 Si / 1000 Ang^3
#
#
#
# Elastic Constant Matrix: (Units=GPa)
#
#
# Indices 1 2 3 4 5 6 
#
# 1 66.3111 38.0451 63.5332 0.0000 0.0000 0.0000
# 2 38.0451 83.7357 36.7113 0.0000 0.0000 0.0000
# 3 63.5332 36.7113 127.3335 0.0000 0.0000 0.0000
# 4 0.0000 0.0000 0.0000 12.4889 0.0000 0.0000
# 5 0.0000 0.0000 0.0000 0.0000 29.7109 0.0000
# 6 0.0000 0.0000 0.0000 0.0000 0.0000 31.9469
#
#
#
# Elastic Compliance Matrix: (Units=1/GPa)
#
#
# Indices 1 2 3 4 5 6 
#
# 1 0.034140 -0.009207 -0.014380 0.000000 0.000000 0.000000
# 2 -0.009207 0.016153 -0.000063 0.000000 0.000000 0.000000
# 3 -0.014380 -0.000063 0.015046 0.000000 0.000000 0.000000
# 4 0.000000 0.000000 0.000000 0.080071 0.000000 0.000000
# 5 0.000000 0.000000 0.000000 0.000000 0.033658 0.000000
# 6 0.000000 0.000000 0.000000 0.000000 0.000000 0.031302
#
#
# Mechanical properties :
#
#
# Convention : Reuss Voigt Hill
#
# Bulk Modulus (GPa) = 55.43345 61.55105 58.49225
# Shear Modulus (GPa) = 18.96205 24.10206 21.53206
#
# Velocity S-wave (km/s) = 3.13251 3.53165 3.33805
# Velocity P-wave (km/s) = 6.46295 6.96290 6.71758
#
# Compressibility (1/GPa) = 0.01803965
#
# Stress axis : x y z
#
# Youngs Moduli (GPa) = 29.29075 61.90681 66.46064
#
# Poissons Ratio (x) = 0.56999 0.95570
# Poissons Ratio (y) = 0.26969 0.00420
# Poissons Ratio (z) = 0.42120 0.00391
#
# Static dielectric constant tensor:
#      x y z
#    x 1.694110 0.000000 0.000000 
#    y 0.000000 1.656300 0.000000 
#    z 0.000000 0.000000 1.682070 
# 
# From -- ./inp_files/4285.got.cif
#   From: 2010.05.17/outbox.cif.g08.bks.cpg/sg31_3_cif.got.tgz:4285.got - 2010.06.03 17:08:30.
