data_PCOD9343461
_publ_section_title
;
Structure prediction by ZEFSAII (Michael W. Deem and Ramdas Pophale) SiO2 
 PCOD9343461
Probable space group: P M N 21
;
_chemical_formula_sum "Si O2"
_cell_formula_units_Z 24
_cell_length_a 21.451941
_cell_length_b 5.033987
_cell_length_c 8.385764
_cell_angle_alpha 90.000000
_cell_angle_beta 90.000000
_cell_angle_gamma 90.000000
_cell_volume 905.568525
_symmetry_space_group_name_H-M "P M N 21"
_symmetry_group_IT_number 31
_symmetry_cell_setting 'orthorhombic'
loop_
_space_group_symop_operation_xyz
x,y,z
1/2-x,-y,1/2+z
-x,y,z
1/2+x,-y,1/2+z
loop_
_atom_site_type_symbol
_atom_site_label
_atom_site_fract_x
_atom_site_fract_y
_atom_site_fract_z
Si Si1 0.246932 0.399916 0.617140
Si Si2 0.927666 0.319829 0.134129
Si Si3 0.574928 0.181290 0.791994
Si Si4 0.906271 0.040094 0.801853
Si Si5 0.897498 0.538658 0.624620
Si Si6 0.731114 0.884398 0.416588
O O1 0.177086 0.511356 0.643414
O O2 0.282645 0.654804 0.546875
O O3 0.270674 0.271826 0.782644
O O4 0.243816 0.151703 0.495366
O O5 0.903339 0.618437 0.151173
O O6 0.000000 0.355173 0.178389
O O7 0.898221 0.110116 0.258107
O O8 0.927859 0.175086 0.964598
O O9 0.500000 0.145936 0.786839
O O10 0.589865 0.328348 0.955657
O O11 0.924467 0.744243 0.755111
O O12 0.922593 0.244964 0.660106
O O13 0.831805 0.036021 0.826052
#
# Coordination Sequence:
#
# PCOD9343461 Si02
#       6
#     4   4   4   4   4   4
#     4  11  23  40  59  85 118 153 194 239 286 341
#     4  10  22  40  61  88 119 151 192 239 287 344
#     4  10  22  40  61  88 119 151 192 239 287 344
#     4  11  23  40  60  87 119 152 194 240 287 343
#     4  11  23  40  60  87 119 152 194 240 287 343
#     4  11  23  40  59  85 118 153 194 239 286 341
#
# _framework density 26.502687000000002
#
# number of rings (size 3 to 8) (size 9 to 14) (size 15 to 20)
#    0.000    1.333    0.000    7.000    0.000    5.333 
#    0.000    0.000    0.000    0.000    0.000    0.000 
#    0.000    0.000    0.000    0.000    0.000    0.000 
#
# Total GULP energy -134375.485762 kJ/mol
# GULP energy per Si atom -5598.978573 kJ/mol
# Density = 2.644237 g / cm^3
# Si number density = 26.502687 Si / 1000 Ang^3
#
#
#
# Elastic Constant Matrix: (Units=GPa)
#
#
# Indices 1 2 3 4 5 6 
#
# 1 56.9492 12.3969 -8.0922 0.0000 0.0000 0.0000
# 2 12.3969 170.6119 30.0593 0.0000 0.0000 0.0000
# 3 -8.0922 30.0593 77.8815 0.0000 0.0000 0.0000
# 4 0.0000 0.0000 0.0000 62.9866 0.0000 0.0000
# 5 0.0000 0.0000 0.0000 0.0000 -612.0021 0.0000
# 6 0.0000 0.0000 0.0000 0.0000 0.0000 -9.8485
#
#
#
# Elastic Compliance Matrix: (Units=1/GPa)
#
#
# Indices 1 2 3 4 5 6 
#
# 1 0.018317 -0.001788 0.002593 0.000000 0.000000 0.000000
# 2 -0.001788 0.006463 -0.002680 0.000000 0.000000 0.000000
# 3 0.002593 -0.002680 0.014144 0.000000 0.000000 0.000000
# 4 0.000000 0.000000 0.000000 0.015876 0.000000 0.000000
# 5 0.000000 0.000000 0.000000 0.000000 -0.001634 0.000000
# 6 0.000000 0.000000 0.000000 0.000000 0.000000 -0.101539
#
#
# Mechanical properties :
#
#
# Convention : Reuss Voigt Hill
#
# Bulk Modulus (GPa) = 28.42955 41.57450 35.00203
# Shear Modulus (GPa) = -151.99091 -93.70089 -122.84590
#
# Velocity S-wave (km/s) = -7.58114 -5.95248 -6.81563
# Velocity P-wave (km/s) = 8.11673 5.61442 6.97865
#
# Compressibility (1/GPa) = 0.03517466
#
# Stress axis : x y z
#
# Youngs Moduli (GPa) = 54.59351 154.71716 70.70135
#
# Poissons Ratio (x) = 0.27661 -0.18335
# Poissons Ratio (y) = 0.09760 0.18951
# Poissons Ratio (z) = -0.14158 0.41470
#
# Static dielectric constant tensor:
#      x y z
#    x 2.312840 0.000000 0.000000 
#    y 0.000000 2.048660 0.000000 
#    z 0.000000 0.000000 2.114820 
# 
# From -- ./inp_files/3050.got.cif
#   From: 2010.05.17/outbox.cif.g08.bks.cpg/sg31_2_cif.got.tgz:3050.got - 2010.06.03 17:08:30.
