data_PCOD9343907
_publ_section_title
;
Structure prediction by ZEFSAII (Michael W. Deem and Ramdas Pophale) SiO2 
 PCOD9343907
Probable space group: P B A 2
;
_chemical_formula_sum "Si O2"
_cell_formula_units_Z 28
_cell_length_a 4.901709
_cell_length_b 10.321778
_cell_length_c 20.112689
_cell_angle_alpha 90.000000
_cell_angle_beta 90.000000
_cell_angle_gamma 90.000000
_cell_volume 1017.588469
_symmetry_space_group_name_H-M "P B A 2"
_symmetry_group_IT_number 32
_symmetry_cell_setting 'orthorhombic'
loop_
_space_group_symop_operation_xyz
x,y,z
-x,-y,z
1/2-x,1/2+y,z
1/2+x,1/2-y,z
loop_
_atom_site_type_symbol
_atom_site_label
_atom_site_fract_x
_atom_site_fract_y
_atom_site_fract_z
Si Si1 0.317580 0.841000 0.511210
Si Si2 0.500000 0.000000 0.261955
Si Si3 0.682419 0.159000 0.788735
Si Si4 0.225201 0.169790 0.149973
Si Si5 0.813054 0.161450 0.369158
Si Si6 0.500000 0.000000 0.037991
Si Si7 0.686945 0.661450 0.930788
Si Si8 0.182291 0.842618 0.649973
O O1 0.622409 0.786479 0.511678
O O2 0.250226 0.903566 0.440562
O O3 0.248338 0.910902 0.580284
O O4 0.327397 0.094405 0.214581
O O5 0.122110 0.209762 0.366767
O O6 0.377589 0.213521 0.788268
O O7 0.749773 0.096436 0.859383
O O8 0.751662 0.089099 0.719661
O O9 0.404526 0.302045 0.149973
O O10 0.327395 0.094404 0.085364
O O11 0.708561 0.076962 0.308739
O O12 0.708559 0.076964 0.991207
O O13 0.377887 0.709760 0.933179
O O14 0.381711 0.716679 0.649972
#
# Coordination Sequence:
#
# PCOD9343907 Si02
#       8
#     4   2   4   4   4   2   4   4
#     4   8  14  25  42  67 100 136 177 223 266 314
#     4  11  24  40  66  87 114 152 182 223 280 330
#     4   8  14  25  42  67 100 136 177 223 266 314
#     4  11  26  45  64  90 118 145 184 227 270 330
#     4  10  21  36  55  83 115 146 186 231 274 327
#     4  11  24  40  66  87 114 152 182 223 280 330
#     4  10  21  36  55  83 115 146 186 231 274 327
#     4   8  12  20  38  63  92 133 178 216 264 315
#
# _framework density 27.516033
#
# number of rings (size 3 to 8) (size 9 to 14) (size 15 to 20)
#    0.000    2.571    0.000    1.714    0.000    5.714 
#    0.000    0.000    0.000    0.857    0.000    0.000 
#    0.000   34.286    0.000    0.000    0.000    4.571 
#
# Total GULP energy -157118.242885 kJ/mol
# GULP energy per Si atom -5611.365817 kJ/mol
# Density = 2.745341 g / cm^3
# Si number density = 27.516033 Si / 1000 Ang^3
#
#
#
# Elastic Constant Matrix: (Units=GPa)
#
#
# Indices 1 2 3 4 5 6 
#
# 1 114.9754 29.5002 11.9799 0.0000 0.0000 0.0000
# 2 29.5002 69.0902 46.1389 0.0000 0.0000 0.0000
# 3 11.9799 46.1389 252.5276 0.0000 0.0000 0.0000
# 4 0.0000 0.0000 0.0000 -445.7155 0.0000 0.0000
# 5 0.0000 0.0000 0.0000 0.0000 131.4024 0.0000
# 6 0.0000 0.0000 0.0000 0.0000 0.0000 49.3835
#
#
#
# Elastic Compliance Matrix: (Units=1/GPa)
#
#
# Indices 1 2 3 4 5 6 
#
# 1 0.009793 -0.004409 0.000341 0.000000 0.000000 0.000000
# 2 -0.004409 0.018470 -0.003166 0.000000 0.000000 0.000000
# 3 0.000341 -0.003166 0.004522 0.000000 0.000000 0.000000
# 4 0.000000 0.000000 0.000000 -0.002244 0.000000 0.000000
# 5 0.000000 0.000000 0.000000 0.000000 0.007610 0.000000
# 6 0.000000 0.000000 0.000000 0.000000 0.000000 0.020250
#
#
# Mechanical properties :
#
#
# Convention : Reuss Voigt Hill
#
# Bulk Modulus (GPa) = 54.59013 67.98124 61.28569
# Shear Modulus (GPa) = 63.31039 -29.72097 16.79471
#
# Velocity S-wave (km/s) = 4.80193 -3.29010 2.47323
# Velocity P-wave (km/s) = 7.11527 3.21351 5.52059
#
# Compressibility (1/GPa) = 0.01831833
#
# Stress axis : x y z
#
# Youngs Moduli (GPa) = 102.11048 54.14046 221.13353
#
# Poissons Ratio (x) = 0.23872 -0.07541
# Poissons Ratio (y) = 0.45024 0.70001
# Poissons Ratio (z) = -0.03482 0.17138
#
# Static dielectric constant tensor:
#      x y z
#    x 2.014870 0.000000 0.000000 
#    y 0.000000 2.105000 0.000000 
#    z 0.000000 0.000000 2.162180 
# 
# From -- ./inp_files/4261.got.cif
#   From: 2010.05.17/outbox.cif.g08.bks.cpg/sg32_3_cif.got.tgz:4261.got - 2010.06.03 17:12:27.
