data_PCOD9343600
_publ_section_title
;
Structure prediction by ZEFSAII (Michael W. Deem and Ramdas Pophale) SiO2 
 PCOD9343600
Probable space group: P M N 21
;
_chemical_formula_sum "Si O2"
_cell_formula_units_Z 32
_cell_length_a 9.000000
_cell_length_b 12.000000
_cell_length_c 15.000000
_cell_angle_alpha 90.000000
_cell_angle_beta 90.000000
_cell_angle_gamma 90.000000
_cell_volume 1620.000000
_symmetry_space_group_name_H-M "P M N 21"
_symmetry_group_IT_number 31
_symmetry_cell_setting 'orthorhombic'
loop_
_space_group_symop_operation_xyz
x,y,z
1/2-x,-y,1/2+z
-x,y,z
1/2+x,-y,1/2+z
loop_
_atom_site_type_symbol
_atom_site_label
_atom_site_fract_x
_atom_site_fract_y
_atom_site_fract_z
Si Si1 0.677316 0.620370 0.805400
Si Si2 0.821683 0.660802 0.627258
Si Si3 0.335080 0.076267 0.915815
Si Si4 0.179805 0.577122 0.432143
Si Si5 0.327651 0.819529 0.920142
Si Si6 0.324327 0.894530 0.594293
Si Si7 0.320490 0.150418 0.606719
Si Si8 0.171542 0.734906 0.276792
O O1 0.500000 0.614309 0.789011
O O2 0.759014 0.595175 0.713017
O O3 0.710005 0.543662 0.891411
O O4 0.720987 0.742235 0.839667
O O5 0.770573 0.609061 0.531615
O O6 0.759723 0.787251 0.632451
O O7 0.000000 0.661169 0.629138
O O8 0.500000 0.096137 0.957471
O O9 0.331114 0.147639 0.827461
O O10 0.322615 0.947781 0.892847
O O11 0.213299 0.107977 0.988550
O O12 0.238903 0.655344 0.351987
O O13 0.000000 0.592422 0.434832
O O14 0.500000 0.790694 0.940156
O O15 0.234105 0.812198 0.010101
O O16 0.500000 0.883902 0.611194
O O17 0.275333 0.020337 0.621822
O O18 0.500000 0.150422 0.610291
O O19 0.262390 0.236506 0.681091
O O20 0.000000 0.696503 0.262859
#
# Coordination Sequence:
#
# PCOD9343600 Si02
#       8
#     4   4   4   4   4   4   4   4
#     4  10  22  39  59  83 109 145 189 231 278 331
#     4  11  22  38  59  83 110 146 187 230 277 333
#     4   9  16  30  53  76 105 145 184 218 267 334
#     4   9  19  37  59  80 107 144 187 227 270 328
#     4   9  19  34  53  77 111 147 178 221 279 333
#     4  10  19  32  52  81 115 144 180 231 280 323
#     4   9  19  32  53  82 114 149 187 229 274 328
#     4   9  16  30  54  80 105 144 188 223 269 330
#
# _framework density 19.753086
#
# number of rings (size 3 to 8) (size 9 to 14) (size 15 to 20)
#    0.000    2.500    1.250    0.750    1.750    2.000 
#    0.000    1.875    0.000    0.000    0.000    0.000 
#    0.000    0.000    0.000    0.000    0.000    0.000 
#
# Total GULP energy -178241.051421 kJ/mol
# GULP energy per Si atom -5570.032857 kJ/mol
# Density = 1.970813 g / cm^3
# Si number density = 19.753086 Si / 1000 Ang^3
#
#
#
# Elastic Constant Matrix: (Units=GPa)
#
#
# Indices 1 2 3 4 5 6 
#
# 1 22.1029 18.0145 6.8767 0.0000 0.0000 0.0000
# 2 18.0145 31.4789 45.1911 0.0000 0.0000 0.0000
# 3 6.8767 45.1911 46.2138 0.0000 0.0000 0.0000
# 4 0.0000 0.0000 0.0000 17.5729 0.0000 0.0000
# 5 0.0000 0.0000 0.0000 0.0000 27.4325 0.0000
# 6 0.0000 0.0000 0.0000 0.0000 0.0000 13.7046
#
#
#
# Elastic Compliance Matrix: (Units=1/GPa)
#
#
# Indices 1 2 3 4 5 6 
#
# 1 0.032148 0.028551 -0.032703 0.000000 0.000000 0.000000
# 2 0.028551 -0.053308 0.047880 0.000000 0.000000 0.000000
# 3 -0.032703 0.047880 -0.020315 0.000000 0.000000 0.000000
# 4 0.000000 0.000000 0.000000 0.056906 0.000000 0.000000
# 5 0.000000 0.000000 0.000000 0.000000 0.036453 0.000000
# 6 0.000000 0.000000 0.000000 0.000000 0.000000 0.072968
#
#
# Mechanical properties :
#
#
# Convention : Reuss Voigt Hill
#
# Bulk Modulus (GPa) = 21.74850 26.66226 24.20538
# Shear Modulus (GPa) = 94.83512 13.72287 54.27900
#
# Velocity S-wave (km/s) = 6.93646 2.63861 5.24770
# Velocity P-wave (km/s) = 8.67103 4.77599 6.99989
#
# Compressibility (1/GPa) = 0.04598018
#
# Stress axis : x y z
#
# Youngs Moduli (GPa) = 31.10650 -18.75902 -49.22400
#
# Poissons Ratio (x) = 0.53559 -1.60977
# Poissons Ratio (y) = -0.88812 2.35683
# Poissons Ratio (z) = 1.01727 0.89817
#
# Static dielectric constant tensor:
#      x y z
#    x 1.686520 0.000000 0.000000 
#    y 0.000000 1.771810 0.000000 
#    z 0.000000 0.000000 1.691050 
# 
# From -- ./inp_files/4993.got.cif
#   From: 2010.05.17/outbox.ucp.g08.bks.cvg/sg31_3_cif.got.tgz:4993.got - 2010.06.11 10:34:26.
