data_PCOD9343061
_publ_section_title
;
Structure prediction by ZEFSAII (Michael W. Deem and Ramdas Pophale) SiO2 
 PCOD9343061
Probable space group: P M N 21
;
_chemical_formula_sum "Si O2"
_cell_formula_units_Z 32
_cell_length_a 8.055049
_cell_length_b 12.715811
_cell_length_c 12.828231
_cell_angle_alpha 90.000000
_cell_angle_beta 90.000000
_cell_angle_gamma 90.000000
_cell_volume 1313.950555
_symmetry_space_group_name_H-M "P M N 21"
_symmetry_group_IT_number 31
_symmetry_cell_setting 'orthorhombic'
loop_
_space_group_symop_operation_xyz
x,y,z
1/2-x,-y,1/2+z
-x,y,z
1/2+x,-y,1/2+z
loop_
_atom_site_type_symbol
_atom_site_label
_atom_site_fract_x
_atom_site_fract_y
_atom_site_fract_z
Si Si1 0.300071 0.331689 0.734890
Si Si2 0.804926 0.108561 0.745325
Si Si3 0.689506 0.390445 0.505958
Si Si4 0.801782 0.167454 0.070223
Si Si5 0.193779 0.433979 0.286153
Si Si6 0.185877 0.609679 0.563674
Si Si7 0.809396 0.113599 0.299218
Si Si8 0.700281 0.938766 0.010498
O O1 0.500000 0.322199 0.732837
O O2 0.226743 0.226186 0.783106
O O3 0.239627 0.344599 0.614288
O O4 0.261473 0.441806 0.791373
O O5 0.000000 0.082181 0.756598
O O6 0.698638 0.013683 0.791376
O O7 0.758019 0.107811 0.622795
O O8 0.500000 0.356519 0.496045
O O9 0.778218 0.376960 0.395541
O O10 0.696426 0.516407 0.526560
O O11 0.725297 0.273634 0.026010
O O12 0.736694 0.151970 0.189767
O O13 0.762179 0.058982 0.012476
O O14 0.000000 0.179573 0.073492
O O15 0.295269 0.388747 0.189237
O O16 0.000000 0.427316 0.258057
O O17 0.000000 0.579187 0.532579
O O18 0.000000 0.150571 0.300084
O O19 0.733272 0.129047 0.413444
O O20 0.500000 0.940443 0.002801
#
# Coordination Sequence:
#
# PCOD9343061 Si02
#       8
#     4   4   4   4   4   4   4   4
#     4   9  20  37  55  77 108 142 176 215 264 318
#     4  10  20  33  53  80 107 135 174 220 263 311
#     4  10  21  38  58  82 110 141 181 228 272 323
#     4  10  20  35  55  80 107 139 178 222 270 320
#     4  10  21  38  58  81 110 144 181 225 272 323
#     4  11  22  37  57  81 110 146 183 224 272 322
#     4   9  19  36  56  75 103 141 177 216 267 321
#     4   9  19  36  54  76 105 138 176 218 264 318
#
# _framework density 24.354036000000001
#
# number of rings (size 3 to 8) (size 9 to 14) (size 15 to 20)
#    0.000    2.250    0.000    3.375    0.000    6.500 
#    0.000    2.500    0.000    0.000    0.000    0.000 
#    0.000    0.000    0.000    0.000    0.000    0.000 
#
# Total GULP energy -178898.902857 kJ/mol
# GULP energy per Si atom -5590.590714 kJ/mol
# Density = 2.429861 g / cm^3
# Si number density = 24.354036 Si / 1000 Ang^3
#
#
#
# Elastic Constant Matrix: (Units=GPa)
#
#
# Indices 1 2 3 4 5 6 
#
# 1 38.3966 -1.5196 -0.3441 0.0000 0.0000 0.0000
# 2 -1.5196 107.9229 -27.9631 0.0000 0.0000 0.0000
# 3 -0.3441 -27.9631 74.0321 0.0000 0.0000 0.0000
# 4 0.0000 0.0000 0.0000 -8.7221 0.0000 0.0000
# 5 0.0000 0.0000 0.0000 0.0000 -9.3641 0.0000
# 6 0.0000 0.0000 0.0000 0.0000 0.0000 21.3042
#
#
#
# Elastic Compliance Matrix: (Units=1/GPa)
#
#
# Indices 1 2 3 4 5 6 
#
# 1 0.026064 0.000442 0.000288 0.000000 0.000000 0.000000
# 2 0.000442 0.010279 0.003884 0.000000 0.000000 0.000000
# 3 0.000288 0.003884 0.014976 0.000000 0.000000 0.000000
# 4 0.000000 0.000000 0.000000 -0.114651 0.000000 0.000000
# 5 0.000000 0.000000 0.000000 0.000000 -0.106790 0.000000
# 6 0.000000 0.000000 0.000000 0.000000 0.000000 0.046939
#
#
# Mechanical properties :
#
#
# Convention : Reuss Voigt Hill
#
# Bulk Modulus (GPa) = 16.51618 17.85534 17.18576
# Shear Modulus (GPa) = -44.55178 17.32215 -13.61482
#
# Velocity S-wave (km/s) = -4.28172 2.66985 -2.36696
# Velocity P-wave (km/s) = 4.20092 4.10507 0.63092
#
# Compressibility (1/GPa) = 0.06054670
#
# Stress axis : x y z
#
# Youngs Moduli (GPa) = 38.36704 97.28984 66.77259
#
# Poissons Ratio (x) = -0.04296 -0.01923
# Poissons Ratio (y) = -0.01694 -0.25937
# Poissons Ratio (z) = -0.01105 -0.37792
#
# Static dielectric constant tensor:
#      x y z
#    x 1.850880 0.000000 0.000000 
#    y 0.000000 1.918770 0.000000 
#    z 0.000000 0.000000 2.002960 
# 
# From -- ./inp_files/5122.got.cif
#   From: 2010.05.17/outbox.cif.g08.bks.cpg/sg31_3_cif.got.tgz:5122.got - 2010.06.03 17:08:30.
