data_PCOD9343681
_publ_section_title
;
Structure prediction by ZEFSAII (Michael W. Deem and Ramdas Pophale) SiO2 
 PCOD9343681
Probable space group: P B A 2
;
_chemical_formula_sum "Si O2"
_cell_formula_units_Z 26
_cell_length_a 5.047026
_cell_length_b 18.611866
_cell_length_c 11.639405
_cell_angle_alpha 90.000000
_cell_angle_beta 90.000000
_cell_angle_gamma 90.000000
_cell_volume 1093.342522
_symmetry_space_group_name_H-M "P B A 2"
_symmetry_group_IT_number 32
_symmetry_cell_setting 'orthorhombic'
loop_
_space_group_symop_operation_xyz
x,y,z
-x,-y,z
1/2-x,1/2+y,z
1/2+x,1/2-y,z
loop_
_atom_site_type_symbol
_atom_site_label
_atom_site_fract_x
_atom_site_fract_y
_atom_site_fract_z
Si Si1 0.083386 0.207601 0.033960
Si Si2 0.397091 0.094805 0.168181
Si Si3 0.000000 0.000000 0.286163
Si Si4 0.368466 0.919047 0.405294
Si Si5 0.605016 0.082321 0.663782
Si Si6 0.000000 0.000000 0.809231
Si Si7 0.277700 0.702089 0.768037
Si Si8 0.500000 0.000000 0.972708
O O1 0.774879 0.223280 0.051299
O O2 0.182787 0.150835 0.124938
O O3 0.170276 0.189025 0.904121
O O4 0.525199 0.118259 0.289300
O O5 0.233756 0.023737 0.205088
O O6 0.548836 0.069521 0.053358
O O7 0.066740 0.934910 0.370058
O O8 0.374914 0.889644 0.532885
O O9 0.500000 0.000000 0.410553
O O10 0.393773 0.134297 0.724047
O O11 0.500000 0.000000 0.657067
O O12 0.881659 0.065559 0.730749
O O13 0.246376 0.014721 0.893671
O O14 0.071112 0.767724 0.736400
#
# Coordination Sequence:
#
# PCOD9343681 Si02
#       8
#     4   4   2   4   4   2   4   2
#     4  10  24  41  64  89 129 180 217 269 333 408
#     4  11  22  39  64  95 133 172 227 266 343 408
#     4  10  18  38  64  98 132 176 210 280 346 400
#     4   9  20  39  63  96 133 180 216 280 345 400
#     4  11  24  44  70 104 140 177 238 291 342 406
#     4  12  26  38  62 104 138 164 216 288 340 386
#     4  10  24  47  69  94 137 186 227 274 353 422
#     4  12  24  38  62 100 134 164 208 286 336 388
#
# _framework density 23.780287000000001
#
# number of rings (size 3 to 8) (size 9 to 14) (size 15 to 20)
#    0.000    1.538    3.077    1.846    4.308    2.462 
#    0.000    1.538    0.000    0.000    0.000    0.000 
#    0.000    0.000    0.000    0.000    0.000    0.000 
#
# Total GULP energy -144873.805986 kJ/mol
# GULP energy per Si atom -5572.069461 kJ/mol
# Density = 2.372616 g / cm^3
# Si number density = 23.780287 Si / 1000 Ang^3
#
#
#
# Elastic Constant Matrix: (Units=GPa)
#
#
# Indices 1 2 3 4 5 6 
#
# 1 112.2240 2.1119 22.8542 0.0000 0.0000 0.0000
# 2 2.1119 45.2750 11.3716 0.0000 0.0000 0.0000
# 3 22.8542 11.3716 125.3911 0.0000 0.0000 0.0000
# 4 0.0000 0.0000 0.0000 26.2186 0.0000 0.0000
# 5 0.0000 0.0000 0.0000 0.0000 15.9363 0.0000
# 6 0.0000 0.0000 0.0000 0.0000 0.0000 24.7259
#
#
#
# Elastic Compliance Matrix: (Units=1/GPa)
#
#
# Indices 1 2 3 4 5 6 
#
# 1 0.009254 -0.000008 -0.001686 0.000000 0.000000 0.000000
# 2 -0.000008 0.022602 -0.002048 0.000000 0.000000 0.000000
# 3 -0.001686 -0.002048 0.008468 0.000000 0.000000 0.000000
# 4 0.000000 0.000000 0.000000 0.038141 0.000000 0.000000
# 5 0.000000 0.000000 0.000000 0.000000 0.062750 0.000000
# 6 0.000000 0.000000 0.000000 0.000000 0.000000 0.040443
#
#
# Mechanical properties :
#
#
# Convention : Reuss Voigt Hill
#
# Bulk Modulus (GPa) = 30.45112 39.50729 34.97920
# Shear Modulus (GPa) = 24.98875 29.81297 27.40086
#
# Velocity S-wave (km/s) = 3.24515 3.54458 3.39816
# Velocity P-wave (km/s) = 5.18404 5.77941 5.48981
#
# Compressibility (1/GPa) = 0.03283951
#
# Stress axis : x y z
#
# Youngs Moduli (GPa) = 108.05847 44.24374 118.09030
#
# Poissons Ratio (x) = 0.00036 0.19910
# Poissons Ratio (y) = 0.00089 0.24188
# Poissons Ratio (z) = 0.18218 0.09062
#
# Static dielectric constant tensor:
#      x y z
#    x 2.023120 0.000000 0.000000 
#    y 0.000000 2.089480 0.000000 
#    z 0.000000 0.000000 1.924640 
# 
# From -- ./inp_files/3543.got.cif
#   From: 2010.05.17/outbox.cif.g08.bks.cpg/sg32_2_cif.got.tgz:3543.got - 2010.06.03 17:12:27.
