data_PCOD9343913
_publ_section_title
;
Structure prediction by ZEFSAII (Michael W. Deem and Ramdas Pophale) SiO2 
 PCOD9343913
Probable space group: P B A 2
;
_chemical_formula_sum "Si O2"
_cell_formula_units_Z 32
_cell_length_a 5.356605
_cell_length_b 18.364501
_cell_length_c 13.972637
_cell_angle_alpha 90.000000
_cell_angle_beta 90.000000
_cell_angle_gamma 90.000000
_cell_volume 1374.507554
_symmetry_space_group_name_H-M "P B A 2"
_symmetry_group_IT_number 32
_symmetry_cell_setting 'orthorhombic'
loop_
_space_group_symop_operation_xyz
x,y,z
-x,-y,z
1/2-x,1/2+y,z
1/2+x,1/2-y,z
loop_
_atom_site_type_symbol
_atom_site_label
_atom_site_fract_x
_atom_site_fract_y
_atom_site_fract_z
Si Si1 0.999528 0.920301 0.339780
Si Si2 0.377719 0.726304 0.414531
Si Si3 0.312737 0.785603 0.629353
Si Si4 0.878161 0.273653 0.137071
Si Si5 0.750987 0.542269 0.659808
Si Si6 0.000059 0.579691 0.211572
Si Si7 0.686827 0.714354 0.922271
Si Si8 0.250993 0.457735 0.891600
O O1 0.749637 0.918814 0.275767
O O2 0.972426 0.855893 0.414698
O O3 0.249644 0.911271 0.275584
O O4 0.000000 0.000000 0.385297
O O5 0.604393 0.770707 0.367969
O O6 0.332210 0.760629 0.518464
O O7 0.578125 0.759210 0.670579
O O8 0.267122 0.871915 0.635176
O O9 0.604966 0.270625 0.183720
O O10 0.972429 0.355889 0.136695
O O11 0.832698 0.239182 0.033219
O O12 0.500000 0.500000 0.628014
O O13 0.749999 0.539371 0.775704
O O14 0.000000 0.500000 0.625581
O O15 0.000000 0.500000 0.166034
O O16 0.421325 0.740730 0.881130
O O17 0.732773 0.628069 0.916264
O O18 0.500000 0.500000 0.925830
O O19 0.000000 0.500000 0.923390
#
# Coordination Sequence:
#
# PCOD9343913 Si02
#       8
#     4   4   4   4   4   4   4   4
#     4  10  21  37  58  83 111 147 191 239 290 344
#     4  10  21  37  55  82 115 149 190 233 288 349
#     4  10  21  38  58  86 121 156 198 242 296 358
#     4  10  21  37  55  82 115 149 190 233 288 349
#     4  10  21  38  61  89 121 158 200 247 299 356
#     4  10  21  37  58  83 111 147 191 239 290 344
#     4  10  21  38  58  86 121 156 198 242 296 358
#     4  10  21  38  61  89 121 158 200 247 299 356
#
# _framework density 23.281065000000002
#
# number of rings (size 3 to 8) (size 9 to 14) (size 15 to 20)
#    0.000    2.000    0.000    3.000    0.000    4.000 
#    0.000   15.000    0.000    0.000    0.000    0.000 
#    0.000    0.000    0.000    0.000    0.000    0.000 
#
# Total GULP energy -178755.124830 kJ/mol
# GULP energy per Si atom -5586.097651 kJ/mol
# Density = 2.322808 g / cm^3
# Si number density = 23.281065 Si / 1000 Ang^3
#
#
#
# Elastic Constant Matrix: (Units=GPa)
#
#
# Indices 1 2 3 4 5 6 
#
# 1 254.3584 90.5383 30.1170 0.0000 0.0000 0.0000
# 2 90.5383 239.0424 24.6390 0.0000 0.0000 0.0000
# 3 30.1170 24.6390 62.6558 0.0000 0.0000 0.0000
# 4 0.0000 0.0000 0.0000 41.8626 0.0000 0.0000
# 5 0.0000 0.0000 0.0000 0.0000 9.6309 0.0000
# 6 0.0000 0.0000 0.0000 0.0000 0.0000 41.9470
#
#
#
# Elastic Compliance Matrix: (Units=1/GPa)
#
#
# Indices 1 2 3 4 5 6 
#
# 1 0.004697 -0.001612 -0.001624 0.000000 0.000000 0.000000
# 2 -0.001612 0.004913 -0.001157 0.000000 0.000000 0.000000
# 3 -0.001624 -0.001157 0.017196 0.000000 0.000000 0.000000
# 4 0.000000 0.000000 0.000000 0.023888 0.000000 0.000000
# 5 0.000000 0.000000 0.000000 0.000000 0.103832 0.000000
# 6 0.000000 0.000000 0.000000 0.000000 0.000000 0.023840
#
#
# Mechanical properties :
#
#
# Convention : Reuss Voigt Hill
#
# Bulk Modulus (GPa) = 55.49344 94.07168 74.78256
# Shear Modulus (GPa) = 25.88541 46.07226 35.97884
#
# Velocity S-wave (km/s) = 3.33808 4.45337 3.93544
# Velocity P-wave (km/s) = 6.22456 8.18157 7.26922
#
# Compressibility (1/GPa) = 0.01802015
#
# Stress axis : x y z
#
# Youngs Moduli (GPa) = 212.88041 203.53682 58.15306
#
# Poissons Ratio (x) = 0.32806 0.09445
# Poissons Ratio (y) = 0.34312 0.06730
# Poissons Ratio (z) = 0.34575 0.23555
#
# Static dielectric constant tensor:
#      x y z
#    x 1.938710 0.000000 0.000000 
#    y 0.000000 1.850730 0.000000 
#    z 0.000000 0.000000 4.125700 
# 
# From -- ./inp_files/4230.got.cif
#   From: 2010.05.17/outbox.cif.g08.bks.cpg/sg32_3_cif.got.tgz:4230.got - 2010.06.03 17:12:27.
