data_PCOD9343395
_publ_section_title
;
Structure prediction by ZEFSAII (Michael W. Deem and Ramdas Pophale) SiO2 
 PCOD9343395
Probable space group: P M N 21
;
_chemical_formula_sum "Si O2"
_cell_formula_units_Z 24
_cell_length_a 8.523430
_cell_length_b 12.263917
_cell_length_c 12.195910
_cell_angle_alpha 90.000000
_cell_angle_beta 90.000000
_cell_angle_gamma 90.000000
_cell_volume 1274.846254
_symmetry_space_group_name_H-M "P M N 21"
_symmetry_group_IT_number 31
_symmetry_cell_setting 'orthorhombic'
loop_
_space_group_symop_operation_xyz
x,y,z
1/2-x,-y,1/2+z
-x,y,z
1/2+x,-y,1/2+z
loop_
_atom_site_type_symbol
_atom_site_label
_atom_site_fract_x
_atom_site_fract_y
_atom_site_fract_z
Si Si1 0.310059 0.662588 0.166460
Si Si2 0.311504 0.275897 0.905408
Si Si3 0.313826 0.917613 0.548785
Si Si4 0.312501 0.845312 0.990602
Si Si5 0.809466 0.580653 0.610457
Si Si6 0.812178 0.785727 0.752602
O O1 0.500000 0.660876 0.170531
O O2 0.247300 0.696447 0.284967
O O3 0.254597 0.541243 0.134103
O O4 0.263291 0.750829 0.075271
O O5 0.500000 0.269233 0.906920
O O6 0.243839 0.162979 0.952378
O O7 0.261981 0.368860 0.993320
O O8 0.500000 0.908865 0.559778
O O9 0.234662 0.873534 0.660147
O O10 0.265060 0.040412 0.522692
O O11 0.500000 0.857435 0.997198
O O12 0.265250 0.811933 0.868039
O O13 0.762038 0.668517 0.702723
O O14 0.000000 0.578802 0.610483
O O15 0.000000 0.785617 0.764547
#
# Coordination Sequence:
#
# PCOD9343395 Si02
#       6
#     4   4   4   4   4   4
#     4  10  22  39  60  88 123 159 200 243 294 354
#     4  10  21  39  63  89 121 156 199 248 301 354
#     4  11  23  41  64  87 118 158 203 247 302 358
#     4  11  24  39  60  89 123 158 201 248 298 355
#     4   8  18  38  61  86 119 158 194 243 297 353
#     4  10  21  40  64  89 122 157 199 247 300 354
#
# _framework density 18.825800000000001
#
# number of rings (size 3 to 8) (size 9 to 14) (size 15 to 20)
#    0.000    2.000    0.000    4.000    4.667    1.333 
#    0.000    4.167    0.000    0.000    0.000    0.000 
#    0.000    0.000    0.000    0.000    0.000    0.000 
#
# Total GULP energy -134085.095194 kJ/mol
# GULP energy per Si atom -5586.878966 kJ/mol
# Density = 1.878295 g / cm^3
# Si number density = 18.825800 Si / 1000 Ang^3
#
#
#
# Elastic Constant Matrix: (Units=GPa)
#
#
# Indices 1 2 3 4 5 6 
#
# 1 24.5915 8.5078 -6.7297 0.0000 0.0000 0.0000
# 2 8.5078 146.2362 64.4737 0.0000 0.0000 0.0000
# 3 -6.7297 64.4737 100.1645 0.0000 0.0000 0.0000
# 4 0.0000 0.0000 0.0000 12.4039 0.0000 0.0000
# 5 0.0000 0.0000 0.0000 0.0000 35.3741 0.0000
# 6 0.0000 0.0000 0.0000 0.0000 0.0000 17.8422
#
#
#
# Elastic Compliance Matrix: (Units=1/GPa)
#
#
# Indices 1 2 3 4 5 6 
#
# 1 0.044316 -0.005433 0.006474 0.000000 0.000000 0.000000
# 2 -0.005433 0.010214 -0.006939 0.000000 0.000000 0.000000
# 3 0.006474 -0.006939 0.014885 0.000000 0.000000 0.000000
# 4 0.000000 0.000000 0.000000 0.080620 0.000000 0.000000
# 5 0.000000 0.000000 0.000000 0.000000 0.028269 0.000000
# 6 0.000000 0.000000 0.000000 0.000000 0.000000 0.056047
#
#
# Mechanical properties :
#
#
# Convention : Reuss Voigt Hill
#
# Bulk Modulus (GPa) = 17.35527 44.83286 31.09407
# Shear Modulus (GPa) = 18.84283 26.77340 22.80811
#
# Velocity S-wave (km/s) = 3.16714 3.77525 3.48449
# Velocity P-wave (km/s) = 4.75534 6.54749 5.72201
#
# Compressibility (1/GPa) = 0.05761938
#
# Stress axis : x y z
#
# Youngs Moduli (GPa) = 22.56532 97.90665 67.18033
#
# Poissons Ratio (x) = 0.53189 -0.43495
# Poissons Ratio (y) = 0.12259 0.46619
# Poissons Ratio (z) = -0.14609 0.67941
#
# Static dielectric constant tensor:
#      x y z
#    x 1.639700 0.000000 0.000000 
#    y 0.000000 1.639400 0.000000 
#    z 0.000000 0.000000 1.612970 
# 
# From -- ./inp_files/3440.got.cif
#   From: 2010.05.17/outbox.cif.g08.bks.cpg/sg31_2_cif.got.tgz:3440.got - 2010.06.03 17:08:30.
