data_PCOD9343709
_publ_section_title
;
Structure prediction by ZEFSAII (Michael W. Deem and Ramdas Pophale) SiO2 
 PCOD9343709
Probable space group: P B A 2
;
_chemical_formula_sum "Si O2"
_cell_formula_units_Z 30
_cell_length_a 4.916667
_cell_length_b 12.176034
_cell_length_c 20.375239
_cell_angle_alpha 90.000000
_cell_angle_beta 90.000000
_cell_angle_gamma 90.000000
_cell_volume 1219.773963
_symmetry_space_group_name_H-M "P B A 2"
_symmetry_group_IT_number 32
_symmetry_cell_setting 'orthorhombic'
loop_
_space_group_symop_operation_xyz
x,y,z
-x,-y,z
1/2-x,1/2+y,z
1/2+x,1/2-y,z
loop_
_atom_site_type_symbol
_atom_site_label
_atom_site_fract_x
_atom_site_fract_y
_atom_site_fract_z
Si Si1 0.812746 0.829861 0.128620
Si Si2 0.081527 0.822918 0.542654
Si Si3 0.260519 0.433620 0.672903
Si Si4 0.572803 0.331326 0.407821
Si Si5 0.760608 0.670878 0.939396
Si Si6 0.249780 0.673081 0.275243
Si Si7 0.000000 0.500000 0.039022
Si Si8 0.066983 0.317126 0.801812
O O1 0.607861 0.725191 0.120702
O O2 0.795281 0.875094 0.203480
O O3 0.702909 0.924906 0.081991
O O4 0.396517 0.786786 0.540110
O O5 0.073383 0.878142 0.613375
O O6 0.952466 0.884785 0.479686
O O7 0.500000 0.500000 0.707915
O O8 0.132996 0.361014 0.730142
O O9 0.000000 0.500000 0.645917
O O10 0.786620 0.230914 0.406203
O O11 0.162316 0.108136 0.341062
O O12 0.465807 0.725002 0.946091
O O13 0.825998 0.622278 0.866864
O O14 0.828074 0.581519 0.993279
O O15 0.443913 0.781577 0.277093
O O16 0.248659 0.206324 0.806523
#
# Coordination Sequence:
#
# PCOD9343709 Si02
#       8
#     4   4   4   4   4   4   2   4
#     4  10  22  38  59  90 127 163 207 259 316 376
#     4  10  19  34  55  82 112 153 201 244 294 366
#     4  12  24  36  56  87 121 156 198 249 313 375
#     4   8  14  25  48  79 105 139 192 234 279 344
#     4  10  24  43  63  91 124 163 215 265 319 381
#     4   8  14  28  49  79 112 145 185 241 289 341
#     4  12  24  40  66  92 128 172 210 264 322 388
#     4  10  21  42  63  82 113 157 204 259 308 362
#
# _framework density 24.594721
#
# number of rings (size 3 to 8) (size 9 to 14) (size 15 to 20)
#    0.000    2.133    0.000    3.200    0.933    2.133 
#    0.000    0.000    0.000    0.000   36.400    0.000 
#    0.000    0.000    0.000    1.067    0.000    0.000 
#
# Total GULP energy -167408.416449 kJ/mol
# GULP energy per Si atom -5580.280548 kJ/mol
# Density = 2.453874 g / cm^3
# Si number density = 24.594721 Si / 1000 Ang^3
#
#
#
# Elastic Constant Matrix: (Units=GPa)
#
#
# Indices 1 2 3 4 5 6 
#
# 1 98.5253 4.2679 13.9467 0.0000 0.0000 0.0000
# 2 4.2679 32.9650 38.0990 0.0000 0.0000 0.0000
# 3 13.9467 38.0990 200.3055 0.0000 0.0000 0.0000
# 4 0.0000 0.0000 0.0000 -59.9071 0.0000 0.0000
# 5 0.0000 0.0000 0.0000 0.0000 38.7457 0.0000
# 6 0.0000 0.0000 0.0000 0.0000 0.0000 10.0545
#
#
#
# Elastic Compliance Matrix: (Units=1/GPa)
#
#
# Indices 1 2 3 4 5 6 
#
# 1 0.010261 -0.000644 -0.000592 0.000000 0.000000 0.000000
# 2 -0.000644 0.038923 -0.007358 0.000000 0.000000 0.000000
# 3 -0.000592 -0.007358 0.006433 0.000000 0.000000 0.000000
# 4 0.000000 0.000000 0.000000 -0.016693 0.000000 0.000000
# 5 0.000000 0.000000 0.000000 0.000000 0.025809 0.000000
# 6 0.000000 0.000000 0.000000 0.000000 0.000000 0.099458
#
#
# Mechanical properties :
#
#
# Convention : Reuss Voigt Hill
#
# Bulk Modulus (GPa) = 26.02261 49.38031 37.70146
# Shear Modulus (GPa) = 25.74781 16.14412 20.94596
#
# Velocity S-wave (km/s) = 3.23907 2.56482 2.92146
# Velocity P-wave (km/s) = 4.95906 5.37515 5.17129
#
# Compressibility (1/GPa) = 0.03842812
#
# Stress axis : x y z
#
# Youngs Moduli (GPa) = 97.45285 25.69166 155.44364
#
# Poissons Ratio (x) = 0.01656 0.09201
# Poissons Ratio (y) = 0.06280 1.14383
# Poissons Ratio (z) = 0.05768 0.18905
#
# Static dielectric constant tensor:
#      x y z
#    x 1.897320 0.000000 0.000000 
#    y 0.000000 1.981800 0.000000 
#    z 0.000000 0.000000 2.125070 
# 
# From -- ./inp_files/4262.got.cif
#   From: 2010.05.17/outbox.cif.g08.bks.cpg/sg32_3_cif.got.tgz:4262.got - 2010.06.03 17:12:27.
