data_PCOD9343456
_publ_section_title
;
Structure prediction by ZEFSAII (Michael W. Deem and Ramdas Pophale) SiO2 
 PCOD9343456
Probable space group: P M N 21
;
_chemical_formula_sum "Si O2"
_cell_formula_units_Z 20
_cell_length_a 28.097429
_cell_length_b 5.163924
_cell_length_c 4.831558
_cell_angle_alpha 90.000000
_cell_angle_beta 90.000000
_cell_angle_gamma 90.000000
_cell_volume 701.025187
_symmetry_space_group_name_H-M "P M N 21"
_symmetry_group_IT_number 31
_symmetry_cell_setting 'orthorhombic'
loop_
_space_group_symop_operation_xyz
x,y,z
1/2-x,-y,1/2+z
-x,y,z
1/2+x,-y,1/2+z
loop_
_atom_site_type_symbol
_atom_site_label
_atom_site_fract_x
_atom_site_fract_y
_atom_site_fract_z
Si Si1 0.949785 0.811755 0.021500
Si Si2 0.645399 0.319247 0.488660
Si Si3 0.552272 0.688796 0.906678
Si Si4 0.753364 0.664328 0.780082
Si Si5 0.848888 0.170417 0.348302
O O1 0.948230 0.587506 0.254676
O O2 0.000000 0.785736 0.871437
O O3 0.948343 0.089751 0.166939
O O4 0.903963 0.746786 0.839854
O O5 0.693394 0.242744 0.333606
O O6 0.647799 0.608940 0.605975
O O7 0.643854 0.118355 0.742911
O O8 0.500000 0.716537 0.050417
O O9 0.605202 0.744697 0.033060
O O10 0.748289 0.603455 0.457637
O O11 0.707608 0.807388 0.908822
#
# Coordination Sequence:
#
# PCOD9343456 Si02
#       5
#     4   4   4   4   4
#     4   8  13  23  42  69 100 134 173 218 268 322
#     4   9  18  32  51  77 108 143 183 227 276 330
#     4   8  13  23  42  69 100 134 173 218 268 322
#     4  10  22  40  60  84 116 152 192 236 284 338
#     4   9  18  32  51  77 108 143 183 227 276 330
#
# _framework density 28.529646
#
# number of rings (size 3 to 8) (size 9 to 14) (size 15 to 20)
#    0.000    3.200    0.000    0.000    0.000    6.400 
#    0.000    0.000    0.000    1.200    0.000    0.000 
#    0.000   72.000    0.000    0.000    0.000   18.000 
#
# Total GULP energy -111725.990100 kJ/mol
# GULP energy per Si atom -5586.299505 kJ/mol
# Density = 2.846471 g / cm^3
# Si number density = 28.529646 Si / 1000 Ang^3
#
#
#
# Elastic Constant Matrix: (Units=GPa)
#
#
# Indices 1 2 3 4 5 6 
#
# 1 292.0402 5.7935 19.1119 0.0000 0.0000 0.0000
# 2 5.7935 157.3763 51.6751 0.0000 0.0000 0.0000
# 3 19.1119 51.6751 83.4452 0.0000 0.0000 0.0000
# 4 0.0000 0.0000 0.0000 49.4021 0.0000 0.0000
# 5 0.0000 0.0000 0.0000 0.0000 4.7584 0.0000
# 6 0.0000 0.0000 0.0000 0.0000 0.0000 31.1054
#
#
#
# Elastic Compliance Matrix: (Units=1/GPa)
#
#
# Indices 1 2 3 4 5 6 
#
# 1 0.003480 0.000168 -0.000901 0.000000 0.000000 0.000000
# 2 0.000168 0.007984 -0.004983 0.000000 0.000000 0.000000
# 3 -0.000901 -0.004983 0.015276 0.000000 0.000000 0.000000
# 4 0.000000 0.000000 0.000000 0.020242 0.000000 0.000000
# 5 0.000000 0.000000 0.000000 0.000000 0.210155 0.000000
# 6 0.000000 0.000000 0.000000 0.000000 0.000000 0.032149
#
#
# Mechanical properties :
#
#
# Convention : Reuss Voigt Hill
#
# Bulk Modulus (GPa) = 65.32509 76.22475 70.77492
# Shear Modulus (GPa) = 16.34950 47.47194 31.91072
#
# Velocity S-wave (km/s) = 2.39649 4.08358 3.34804
# Velocity P-wave (km/s) = 5.53213 7.00071 6.30930
#
# Compressibility (1/GPa) = 0.01530805
#
# Stress axis : x y z
#
# Youngs Moduli (GPa) = 287.37176 125.24859 65.46260
#
# Poissons Ratio (x) = -0.02100 0.05897
# Poissons Ratio (y) = -0.04819 0.32618
# Poissons Ratio (z) = 0.25888 0.62408
#
# Static dielectric constant tensor:
#      x y z
#    x 2.438170 0.000000 0.000000 
#    y 0.000000 2.140290 0.000000 
#    z 0.000000 0.000000 2.248740 
# 
# From -- ./inp_files/1278.got.cif
#   From: 2010.05.17/outbox.cif.g08.bks.cpg/sg31_1_cif.got.tgz:1278.got - 2010.06.03 17:08:30.
