data_PCOD9343050
_publ_section_title
;
Structure prediction by ZEFSAII (Michael W. Deem and Ramdas Pophale) SiO2 
 PCOD9343050
Probable space group: P M N 21
;
_chemical_formula_sum "Si O2"
_cell_formula_units_Z 32
_cell_length_a 9.197809
_cell_length_b 11.816447
_cell_length_c 17.577718
_cell_angle_alpha 90.000000
_cell_angle_beta 90.000000
_cell_angle_gamma 90.000000
_cell_volume 1910.441709
_symmetry_space_group_name_H-M "P M N 21"
_symmetry_group_IT_number 31
_symmetry_cell_setting 'orthorhombic'
loop_
_space_group_symop_operation_xyz
x,y,z
1/2-x,-y,1/2+z
-x,y,z
1/2+x,-y,1/2+z
loop_
_atom_site_type_symbol
_atom_site_label
_atom_site_fract_x
_atom_site_fract_y
_atom_site_fract_z
Si Si1 0.835591 0.325638 0.236330
Si Si2 0.825816 0.235705 0.857393
Si Si3 0.673555 0.218894 0.008916
Si Si4 0.324185 0.893745 0.653666
Si Si5 0.166432 0.470362 0.792718
Si Si6 0.167148 0.362880 0.622263
Si Si7 0.826737 0.126950 0.691845
Si Si8 0.334703 0.566595 0.566120
O O1 0.780030 0.199801 0.217526
O O2 0.748713 0.411213 0.289532
O O3 0.838822 0.384596 0.152641
O O4 0.000000 0.317020 0.264287
O O5 0.777955 0.366266 0.843322
O O6 0.803822 0.170110 0.778155
O O7 0.000000 0.235798 0.872634
O O8 0.736612 0.185204 0.926990
O O9 0.500000 0.211565 0.013361
O O10 0.749636 0.146366 0.075362
O O11 0.729533 0.347301 0.022873
O O12 0.500000 0.888724 0.646804
O O13 0.266765 0.016930 0.674669
O O14 0.167176 0.419118 0.706793
O O15 0.000000 0.490801 0.813880
O O16 0.209541 0.232908 0.636688
O O17 0.270975 0.440619 0.571684
O O18 0.000000 0.367606 0.595255
O O19 0.000000 0.104493 0.683261
O O20 0.500000 0.570544 0.536689
#
# Coordination Sequence:
#
# PCOD9343050 Si02
#       8
#     4   4   4   4   4   4   4   4
#     4   8  15  26  41  64  92 119 148 187 231 274
#     4   9  18  33  50  71 100 128 157 200 253 304
#     4  11  21  32  49  72  97 128 166 207 253 301
#     4  10  20  33  49  71 100 133 170 211 251 294
#     4   8  14  25  44  67  90 118 147 180 228 283
#     4   8  14  26  44  68  95 120 150 188 230 278
#     4   9  18  32  51  74 100 132 169 208 248 295
#     4   9  16  27  44  67  94 122 151 187 236 287
#
# _framework density 16.750053000000001
#
# number of rings (size 3 to 8) (size 9 to 14) (size 15 to 20)
#    0.000    3.000    0.000    4.125    0.000    5.000 
#    0.000    2.500    0.000    1.500    0.000    7.000 
#    0.000    0.000    0.000    0.000    0.000    0.000 
#
# Total GULP energy -178167.373472 kJ/mol
# GULP energy per Si atom -5567.730421 kJ/mol
# Density = 1.671193 g / cm^3
# Si number density = 16.750053 Si / 1000 Ang^3
#
#
#
# Elastic Constant Matrix: (Units=GPa)
#
#
# Indices 1 2 3 4 5 6 
#
# 1 76.9793 57.0329 31.2041 0.0000 0.0000 0.0000
# 2 57.0329 123.9790 22.0295 0.0000 0.0000 0.0000
# 3 31.2041 22.0295 38.7641 0.0000 0.0000 0.0000
# 4 0.0000 0.0000 0.0000 11.1121 0.0000 0.0000
# 5 0.0000 0.0000 0.0000 0.0000 14.0895 0.0000
# 6 0.0000 0.0000 0.0000 0.0000 0.0000 30.5611
#
#
#
# Elastic Compliance Matrix: (Units=1/GPa)
#
#
# Indices 1 2 3 4 5 6 
#
# 1 0.026313 -0.009278 -0.015909 0.000000 0.000000 0.000000
# 2 -0.009278 0.012243 0.000511 0.000000 0.000000 0.000000
# 3 -0.015909 0.000511 0.038313 0.000000 0.000000 0.000000
# 4 0.000000 0.000000 0.000000 0.089992 0.000000 0.000000
# 5 0.000000 0.000000 0.000000 0.000000 0.070975 0.000000
# 6 0.000000 0.000000 0.000000 0.000000 0.000000 0.032721
#
#
# Mechanical properties :
#
#
# Convention : Reuss Voigt Hill
#
# Bulk Modulus (GPa) = 36.34070 51.13948 43.74009
# Shear Modulus (GPa) = 15.19382 19.78295 17.48839
#
# Velocity S-wave (km/s) = 3.01506 3.44040 3.23473
# Velocity P-wave (km/s) = 5.81926 6.81021 6.33414
#
# Compressibility (1/GPa) = 0.02751736
#
# Stress axis : x y z
#
# Youngs Moduli (GPa) = 38.00409 81.67875 26.10079
#
# Poissons Ratio (x) = 0.75779 0.41523
# Poissons Ratio (y) = 0.35259 -0.01333
# Poissons Ratio (z) = 0.60460 -0.04171
#
# Static dielectric constant tensor:
#      x y z
#    x 1.564340 0.000000 0.000000 
#    y 0.000000 1.574840 0.000000 
#    z 0.000000 0.000000 1.579240 
# 
# From -- ./inp_files/5886.got.cif
#   From: 2010.05.17/outbox.cif.g08.bks.cpg/sg31_3_cif.got.tgz:5886.got - 2010.06.03 17:08:30.
