data_PCOD9343283
_publ_section_title
;
Structure prediction by ZEFSAII (Michael W. Deem and Ramdas Pophale) SiO2 
 PCOD9343283
Probable space group: P M N 21
;
_chemical_formula_sum "Si O2"
_cell_formula_units_Z 24
_cell_length_a 15.941923
_cell_length_b 13.330586
_cell_length_c 4.946782
_cell_angle_alpha 90.000000
_cell_angle_beta 90.000000
_cell_angle_gamma 90.000000
_cell_volume 1051.266245
_symmetry_space_group_name_H-M "P M N 21"
_symmetry_group_IT_number 31
_symmetry_cell_setting 'orthorhombic'
loop_
_space_group_symop_operation_xyz
x,y,z
1/2-x,-y,1/2+z
-x,y,z
1/2+x,-y,1/2+z
loop_
_atom_site_type_symbol
_atom_site_label
_atom_site_fract_x
_atom_site_fract_y
_atom_site_fract_z
Si Si1 0.360962 0.731005 0.861140
Si Si2 0.500000 0.497748 0.034026
Si Si3 0.807025 0.476237 0.615840
Si Si4 0.500000 0.617106 0.536645
Si Si5 0.000000 0.001496 0.166173
Si Si6 0.000000 0.139178 0.656991
Si Si7 0.253142 0.134471 0.976743
Si Si8 0.832477 0.914733 0.970440
O O1 0.421852 0.676530 0.647462
O O2 0.303664 0.795476 0.660226
O O3 0.320373 0.639015 0.023836
O O4 0.417254 0.800295 0.060996
O O5 0.599462 0.469112 0.100711
O O6 0.500000 0.598171 0.220691
O O7 0.500000 0.514441 0.711880
O O8 0.738313 0.520016 0.405754
O O9 0.000000 0.041299 0.468627
O O10 0.920517 0.935528 0.099840
O O11 0.000000 0.099433 0.964036
O O12 0.334637 0.123144 0.166360
O O13 0.210062 0.025024 0.964919
O O14 0.278655 0.156068 0.670793
#
# Coordination Sequence:
#
# PCOD9343283 Si02
#       8
#     4   2   4   2   2   2   4   4
#     4  10  22  39  61  94 127 159 209 255 321 379
#     4  10  20  41  62  91 132 161 200 265 325 388
#     4  11  24  41  65  95 130 172 211 262 331 390
#     4   9  20  34  60  94 124 154 183 263 334 376
#     4  12  22  39  58  89 123 162 201 246 317 386
#     4  11  24  34  64  96 119 155 190 262 332 384
#     4  10  21  36  56  82 118 159 197 246 291 364
#     4  10  22  36  54  82 119 160 198 237 300 360
#
# _framework density 22.829612000000001
#
# number of rings (size 3 to 8) (size 9 to 14) (size 15 to 20)
#    0.000    1.667    1.667    3.500    4.667   10.667 
#    0.000    0.000    0.000    6.000    0.000    0.000 
#    0.000    0.000    0.000    0.000    0.000    0.000 
#
# Total GULP energy -133946.984287 kJ/mol
# GULP energy per Si atom -5581.124345 kJ/mol
# Density = 2.277765 g / cm^3
# Si number density = 22.829612 Si / 1000 Ang^3
#
#
#
# Elastic Constant Matrix: (Units=GPa)
#
#
# Indices 1 2 3 4 5 6 
#
# 1 93.6615 7.2682 21.0096 0.0000 0.0000 0.0000
# 2 7.2682 28.9226 2.8174 0.0000 0.0000 0.0000
# 3 21.0096 2.8174 96.6834 0.0000 0.0000 0.0000
# 4 0.0000 0.0000 0.0000 26.3776 0.0000 0.0000
# 5 0.0000 0.0000 0.0000 0.0000 5235.6699 0.0000
# 6 0.0000 0.0000 0.0000 0.0000 0.0000 19.4311
#
#
#
# Elastic Compliance Matrix: (Units=1/GPa)
#
#
# Indices 1 2 3 4 5 6 
#
# 1 0.011421 -0.002636 -0.002405 0.000000 0.000000 0.000000
# 2 -0.002636 0.035282 -0.000455 0.000000 0.000000 0.000000
# 3 -0.002405 -0.000455 0.010879 0.000000 0.000000 0.000000
# 4 0.000000 0.000000 0.000000 0.037911 0.000000 0.000000
# 5 0.000000 0.000000 0.000000 0.000000 0.000191 0.000000
# 6 0.000000 0.000000 0.000000 0.000000 0.000000 0.051464
#
#
# Mechanical properties :
#
#
# Convention : Reuss Voigt Hill
#
# Bulk Modulus (GPa) = 21.46416 31.27310 26.36863
# Shear Modulus (GPa) = 28.79034 1068.84053 548.81544
#
# Velocity S-wave (km/s) = 3.55504 21.66098 15.52154
# Velocity P-wave (km/s) = 5.12576 25.28489 18.24279
#
# Compressibility (1/GPa) = 0.04658929
#
# Stress axis : x y z
#
# Youngs Moduli (GPa) = 87.55993 28.34323 91.92098
#
# Poissons Ratio (x) = 0.07471 0.22107
# Poissons Ratio (y) = 0.23079 0.04186
# Poissons Ratio (z) = 0.21058 0.01291
#
# Static dielectric constant tensor:
#      x y z
#    x -6.517900 0.000000 0.000000 
#    y 0.000000 1.858170 0.000000 
#    z 0.000000 0.000000 1.842840 
# 
# From -- ./inp_files/642.got.cif
#   From: 2010.05.17/outbox.cif.g08.bks.cpg/sg31_1_cif.got.tgz:642.got - 2010.06.03 17:08:30.
