data_PCOD9343994
_publ_section_title
;
Structure prediction by ZEFSAII (Michael W. Deem and Ramdas Pophale) SiO2 
 PCOD9343994
Probable space group: P B A 2
;
_chemical_formula_sum "Si O2"
_cell_formula_units_Z 30
_cell_length_a 12.093426
_cell_length_b 18.683405
_cell_length_c 4.819799
_cell_angle_alpha 90.000000
_cell_angle_beta 90.000000
_cell_angle_gamma 90.000000
_cell_volume 1089.016116
_symmetry_space_group_name_H-M "P B A 2"
_symmetry_group_IT_number 32
_symmetry_cell_setting 'orthorhombic'
loop_
_space_group_symop_operation_xyz
x,y,z
-x,-y,z
1/2-x,1/2+y,z
1/2+x,1/2-y,z
loop_
_atom_site_type_symbol
_atom_site_label
_atom_site_fract_x
_atom_site_fract_y
_atom_site_fract_z
Si Si1 0.734592 0.502572 0.074070
Si Si2 0.462750 0.823979 0.510686
Si Si3 0.199631 0.214767 0.660754
Si Si4 0.256850 0.900892 0.554159
Si Si5 0.377062 0.265746 0.275119
Si Si6 0.613814 0.868347 0.968720
Si Si7 0.500000 0.500000 0.852613
Si Si8 0.468439 0.341710 0.700883
O O1 0.734054 0.526979 0.388054
O O2 0.823070 0.439461 0.040215
O O3 0.762244 0.569326 0.867684
O O4 0.608949 0.478375 0.022667
O O5 0.361215 0.788499 0.730231
O O6 0.365066 0.873162 0.386924
O O7 0.521974 0.739079 0.513179
O O8 0.530607 0.875402 0.717822
O O9 0.259811 0.228319 0.364662
O O10 0.105364 0.156862 0.682156
O O11 0.299423 0.190026 0.851050
O O12 0.156802 0.841483 0.493157
O O13 0.444300 0.176463 0.218231
O O14 0.422407 0.309629 0.004297
O O15 0.459990 0.428874 0.701023
#
# Coordination Sequence:
#
# PCOD9343994 Si02
#       8
#     4   4   4   4   4   4   2   4
#     4  11  27  46  76 109 144 204 241 316 372 460
#     4  10  24  45  66 101 144 190 240 310 363 448
#     4  10  21  44  71 100 145 180 248 308 376 446
#     4  11  26  48  73 108 151 190 256 300 383 445
#     4  10  23  41  70 103 140 192 248 304 378 441
#     4  11  25  44  71 106 145 197 253 307 380 451
#     4  10  22  46  76 110 154 192 254 320 390 462
#     4  10  21  44  72 107 145 194 244 316 378 450
#
# _framework density 27.547801
#
# number of rings (size 3 to 8) (size 9 to 14) (size 15 to 20)
#    0.000    1.600    2.667    0.000    5.600    6.933 
#    4.800    0.000    0.000    0.000    0.000    0.000 
#    0.000    0.000    0.000    0.000    0.000    0.000 
#
# Total GULP energy -167151.877721 kJ/mol
# GULP energy per Si atom -5571.729257 kJ/mol
# Density = 2.748510 g / cm^3
# Si number density = 27.547801 Si / 1000 Ang^3
#
#
#
# Elastic Constant Matrix: (Units=GPa)
#
#
# Indices 1 2 3 4 5 6 
#
# 1 206.0581 61.9245 62.3466 0.0000 0.0000 0.0000
# 2 61.9245 120.9422 33.7243 0.0000 0.0000 0.0000
# 3 62.3466 33.7243 159.3020 0.0000 0.0000 0.0000
# 4 0.0000 0.0000 0.0000 46.2447 0.0000 0.0000
# 5 0.0000 0.0000 0.0000 0.0000 23.2224 0.0000
# 6 0.0000 0.0000 0.0000 0.0000 0.0000 67.0495
#
#
#
# Elastic Compliance Matrix: (Units=1/GPa)
#
#
# Indices 1 2 3 4 5 6 
#
# 1 0.006219 -0.002663 -0.001870 0.000000 0.000000 0.000000
# 2 -0.002663 0.009927 -0.001059 0.000000 0.000000 0.000000
# 3 -0.001870 -0.001059 0.007234 0.000000 0.000000 0.000000
# 4 0.000000 0.000000 0.000000 0.021624 0.000000 0.000000
# 5 0.000000 0.000000 0.000000 0.000000 0.043062 0.000000
# 6 0.000000 0.000000 0.000000 0.000000 0.000000 0.014914
#
#
# Mechanical properties :
#
#
# Convention : Reuss Voigt Hill
#
# Bulk Modulus (GPa) = 82.00113 89.14368 85.57240
# Shear Modulus (GPa) = 42.29032 49.19045 45.74039
#
# Velocity S-wave (km/s) = 3.92236 4.23027 4.07922
# Velocity P-wave (km/s) = 7.09540 7.50267 7.30188
#
# Compressibility (1/GPa) = 0.01219495
#
# Stress axis : x y z
#
# Youngs Moduli (GPa) = 160.79498 100.73315 138.24280
#
# Poissons Ratio (x) = 0.26823 0.25855
# Poissons Ratio (y) = 0.42816 0.14646
# Poissons Ratio (z) = 0.30073 0.10672
#
# Static dielectric constant tensor:
#      x y z
#    x 2.520280 0.000000 0.000000 
#    y 0.000000 2.457710 0.000000 
#    z 0.000000 0.000000 2.302480 
# 
# From -- ./inp_files/1046.got.cif
#   From: 2010.05.17/outbox.cif.g08.bks.cpg/sg32_1_cif.got.tgz:1046.got - 2010.06.03 17:12:27.
