data_PCOD9343700
_publ_section_title
;
Structure prediction by ZEFSAII (Michael W. Deem and Ramdas Pophale) SiO2 
 PCOD9343700
Probable space group: P B A 2
;
_chemical_formula_sum "Si O2"
_cell_formula_units_Z 24
_cell_length_a 4.934363
_cell_length_b 13.861680
_cell_length_c 15.036887
_cell_angle_alpha 90.000000
_cell_angle_beta 90.000000
_cell_angle_gamma 90.000000
_cell_volume 1028.501431
_symmetry_space_group_name_H-M "P B A 2"
_symmetry_group_IT_number 32
_symmetry_cell_setting 'orthorhombic'
loop_
_space_group_symop_operation_xyz
x,y,z
-x,-y,z
1/2-x,1/2+y,z
1/2+x,1/2-y,z
loop_
_atom_site_type_symbol
_atom_site_label
_atom_site_fract_x
_atom_site_fract_y
_atom_site_fract_z
Si Si1 0.034446 0.816658 0.733830
Si Si2 0.740944 0.434974 0.578045
Si Si3 0.003833 0.115098 0.304919
Si Si4 0.040637 0.181975 0.928213
Si Si5 0.636411 0.686121 0.110664
Si Si6 0.998773 0.617946 0.410880
O O1 0.340629 0.778255 0.727453
O O2 0.419369 0.615174 0.657705
O O3 0.003316 0.863596 0.831710
O O4 0.500000 0.500000 0.534433
O O5 0.869699 0.360605 0.506447
O O6 0.000000 0.500000 0.606935
O O7 0.921916 0.140708 0.205513
O O8 0.302654 0.147435 0.331302
O O9 0.796994 0.149659 0.381478
O O10 0.000000 0.000000 0.308977
O O11 0.843079 0.276235 0.928311
O O12 0.955945 0.131344 0.020443
O O13 0.446852 0.781716 0.107448
O O14 0.000000 0.500000 0.413432
#
# Coordination Sequence:
#
# PCOD9343700 Si02
#       6
#     4   4   4   4   4   4
#     4  10  20  36  56  80 107 140 180 224 271 326
#     4  11  21  36  57  80 107 144 186 227 271 327
#     4  10  19  33  52  73  98 132 172 210 250 305
#     4   8  16  31  52  72  99 137 171 201 256 329
#     4  10  19  33  52  76 102 133 170 212 259 312
#     4   9  18  33  52  71  98 138 173 200 252 323
#
# _framework density 23.334924999999998
#
# number of rings (size 3 to 8) (size 9 to 14) (size 15 to 20)
#    0.000    2.333    0.000    4.500    0.000    0.000 
#    0.000    5.833    0.000    3.000    0.000    0.000 
#    0.000    0.000    0.000    0.000    0.000    0.000 
#
# Total GULP energy -133948.350540 kJ/mol
# GULP energy per Si atom -5581.181273 kJ/mol
# Density = 2.328181 g / cm^3
# Si number density = 23.334925 Si / 1000 Ang^3
#
#
#
# Elastic Constant Matrix: (Units=GPa)
#
#
# Indices 1 2 3 4 5 6 
#
# 1 91.1989 -6.5955 6.2828 0.0000 0.0000 0.0000
# 2 -6.5955 39.6875 13.1983 0.0000 0.0000 0.0000
# 3 6.2828 13.1983 161.4588 0.0000 0.0000 0.0000
# 4 0.0000 0.0000 0.0000 -23.4009 0.0000 0.0000
# 5 0.0000 0.0000 0.0000 0.0000 42.4307 0.0000
# 6 0.0000 0.0000 0.0000 0.0000 0.0000 12.3992
#
#
#
# Elastic Compliance Matrix: (Units=1/GPa)
#
#
# Indices 1 2 3 4 5 6 
#
# 1 0.011155 0.002054 -0.000602 0.000000 0.000000 0.000000
# 2 0.002054 0.026279 -0.002228 0.000000 0.000000 0.000000
# 3 -0.000602 -0.002228 0.006399 0.000000 0.000000 0.000000
# 4 0.000000 0.000000 0.000000 -0.042733 0.000000 0.000000
# 5 0.000000 0.000000 0.000000 0.000000 0.023568 0.000000
# 6 0.000000 0.000000 0.000000 0.000000 0.000000 0.080650
#
#
# Mechanical properties :
#
#
# Convention : Reuss Voigt Hill
#
# Bulk Modulus (GPa) = 23.65119 35.34628 29.49874
# Shear Modulus (GPa) = 41.33459 24.91644 33.12551
#
# Velocity S-wave (km/s) = 4.21332 3.27123 3.77180
# Velocity P-wave (km/s) = 5.81610 5.42662 5.62473
#
# Compressibility (1/GPa) = 0.04228117
#
# Stress axis : x y z
#
# Youngs Moduli (GPa) = 89.64538 38.05295 156.27223
#
# Poissons Ratio (x) = -0.07816 0.09407
# Poissons Ratio (y) = -0.18413 0.34819
# Poissons Ratio (z) = 0.05396 0.08479
#
# Static dielectric constant tensor:
#      x y z
#    x 1.843280 0.000000 0.000000 
#    y 0.000000 1.916060 0.000000 
#    z 0.000000 0.000000 1.964110 
# 
# From -- ./inp_files/4095.got.cif
#   From: 2010.05.17/outbox.cif.g08.bks.cpg/sg32_3_cif.got.tgz:4095.got - 2010.06.03 17:12:27.
