data_PCOD9343949
_publ_section_title
;
Structure prediction by ZEFSAII (Michael W. Deem and Ramdas Pophale) SiO2 
 PCOD9343949
Probable space group: P B A 2
;
_chemical_formula_sum "Si O2"
_cell_formula_units_Z 32
_cell_length_a 15.101040
_cell_length_b 9.185956
_cell_length_c 10.413012
_cell_angle_alpha 90.000000
_cell_angle_beta 90.000000
_cell_angle_gamma 90.000000
_cell_volume 1444.466878
_symmetry_space_group_name_H-M "P B A 2"
_symmetry_group_IT_number 32
_symmetry_cell_setting 'orthorhombic'
loop_
_space_group_symop_operation_xyz
x,y,z
-x,-y,z
1/2-x,1/2+y,z
1/2+x,1/2-y,z
loop_
_atom_site_type_symbol
_atom_site_label
_atom_site_fract_x
_atom_site_fract_y
_atom_site_fract_z
Si Si1 0.419370 0.390397 0.869770
Si Si2 0.082500 0.561455 0.796215
Si Si3 0.173213 0.776752 0.107435
Si Si4 0.225675 0.216569 0.511998
Si Si5 0.907755 0.649884 0.324362
Si Si6 0.602262 0.805637 0.376280
Si Si7 0.641629 0.065837 0.055460
Si Si8 0.240781 0.967830 0.681942
O O1 0.500000 0.500000 0.852547
O O2 0.440837 0.226463 0.828296
O O3 0.334107 0.438405 0.786283
O O4 0.391415 0.370503 0.017799
O O5 0.180572 0.563800 0.740213
O O6 0.000000 0.500000 0.715064
O O7 0.093791 0.451229 0.918751
O O8 0.141327 0.780875 0.254055
O O9 0.269812 0.837900 0.069789
O O10 0.167820 0.603404 0.079394
O O11 0.173113 0.259438 0.383539
O O12 0.331004 0.230157 0.489503
O O13 0.203145 0.056618 0.560922
O O14 0.207953 0.327938 0.627032
O O15 0.890130 0.481422 0.360856
O O16 0.917824 0.633837 0.169941
O O17 0.997421 0.714239 0.383811
#
# Coordination Sequence:
#
# PCOD9343949 Si02
#       8
#     4   4   4   4   4   4   4   4
#     4  11  26  45  67 103 141 178 228 291 349 413
#     4  11  26  43  69 103 136 181 231 282 355 421
#     4  10  21  41  67  97 131 170 215 275 344 409
#     4  12  24  43  69  95 132 186 237 286 341 410
#     4  10  22  41  68  99 133 176 222 287 345 412
#     4  10  22  42  67 100 135 173 228 277 350 416
#     4  10  21  39  69  96 130 167 218 276 344 408
#     4  12  26  45  67  96 135 185 242 285 340 414
#
# _framework density 22.153502
#
# number of rings (size 3 to 8) (size 9 to 14) (size 15 to 20)
#    0.000    1.250    5.000    0.000    7.000    3.000 
#    0.000    0.000    0.000    0.000    0.000    0.000 
#    0.000    0.000    0.000    0.000    0.000    0.000 
#
# Total GULP energy -178590.227225 kJ/mol
# GULP energy per Si atom -5580.944601 kJ/mol
# Density = 2.210308 g / cm^3
# Si number density = 22.153502 Si / 1000 Ang^3
#
#
#
# Elastic Constant Matrix: (Units=GPa)
#
#
# Indices 1 2 3 4 5 6 
#
# 1 107.8191 39.4090 25.0801 0.0000 0.0000 0.0000
# 2 39.4090 60.5280 23.4944 0.0000 0.0000 0.0000
# 3 25.0801 23.4944 69.0761 0.0000 0.0000 0.0000
# 4 0.0000 0.0000 0.0000 13.1702 0.0000 0.0000
# 5 0.0000 0.0000 0.0000 0.0000 10.6648 0.0000
# 6 0.0000 0.0000 0.0000 0.0000 0.0000 38.6210
#
#
#
# Elastic Compliance Matrix: (Units=1/GPa)
#
#
# Indices 1 2 3 4 5 6 
#
# 1 0.012412 -0.007295 -0.002025 0.000000 0.000000 0.000000
# 2 -0.007295 0.023322 -0.005284 0.000000 0.000000 0.000000
# 3 -0.002025 -0.005284 0.017009 0.000000 0.000000 0.000000
# 4 0.000000 0.000000 0.000000 0.075929 0.000000 0.000000
# 5 0.000000 0.000000 0.000000 0.000000 0.093766 0.000000
# 6 0.000000 0.000000 0.000000 0.000000 0.000000 0.025893
#
#
# Mechanical properties :
#
#
# Convention : Reuss Voigt Hill
#
# Bulk Modulus (GPa) = 42.48981 45.93224 44.21102
# Shear Modulus (GPa) = 17.52018 22.45385 19.98702
#
# Velocity S-wave (km/s) = 2.81526 3.18710 3.00693
# Velocity P-wave (km/s) = 5.45793 5.85850 5.66176
#
# Compressibility (1/GPa) = 0.02353506
#
# Stress axis : x y z
#
# Youngs Moduli (GPa) = 80.56407 42.87780 58.79164
#
# Poissons Ratio (x) = 0.31281 0.11908
# Poissons Ratio (y) = 0.58775 0.31063
# Poissons Ratio (z) = 0.16317 0.22655
#
# Static dielectric constant tensor:
#      x y z
#    x 1.828200 0.000000 0.000000 
#    y 0.000000 1.792160 0.000000 
#    z 0.000000 0.000000 1.849310 
# 
# From -- ./inp_files/3784.got.cif
#   From: 2010.05.17/outbox.cif.g08.bks.cpg/sg32_2_cif.got.tgz:3784.got - 2010.06.03 17:12:27.
