data_PCOD9343049
_publ_section_title
;
Structure prediction by ZEFSAII (Michael W. Deem and Ramdas Pophale) SiO2 
 PCOD9343049
Probable space group: P M N 21
;
_chemical_formula_sum "Si O2"
_cell_formula_units_Z 32
_cell_length_a 22.415639
_cell_length_b 7.133198
_cell_length_c 8.401949
_cell_angle_alpha 90.000000
_cell_angle_beta 90.000000
_cell_angle_gamma 90.000000
_cell_volume 1343.431243
_symmetry_space_group_name_H-M "P M N 21"
_symmetry_group_IT_number 31
_symmetry_cell_setting 'orthorhombic'
loop_
_space_group_symop_operation_xyz
x,y,z
1/2-x,-y,1/2+z
-x,y,z
1/2+x,-y,1/2+z
loop_
_atom_site_type_symbol
_atom_site_label
_atom_site_fract_x
_atom_site_fract_y
_atom_site_fract_z
Si Si1 0.813116 0.589581 0.186750
Si Si2 0.687865 0.525222 0.343182
Si Si3 0.934276 0.473696 0.755144
Si Si4 0.563267 0.393042 0.624859
Si Si5 0.189400 0.032832 0.104538
Si Si6 0.565224 0.985551 0.722505
Si Si7 0.683954 0.089750 0.261072
Si Si8 0.434621 0.126220 0.085838
O O1 0.754634 0.559739 0.287016
O O2 0.881356 0.556334 0.237568
O O3 0.811646 0.810110 0.145919
O O4 0.809662 0.456739 0.032517
O O5 0.632082 0.616864 0.248522
O O6 0.675924 0.303428 0.317752
O O7 0.933561 0.654432 0.637965
O O8 0.000000 0.382701 0.728816
O O9 0.934050 0.529968 0.944609
O O10 0.500000 0.444687 0.697923
O O11 0.563904 0.167219 0.607407
O O12 0.127964 0.111975 0.180952
O O13 0.253400 0.092736 0.169735
O O14 0.188472 0.042874 0.914331
O O15 0.500000 0.889782 0.704841
O O16 0.567610 0.074144 0.899470
O O17 0.625259 0.043211 0.161088
O O18 0.500000 0.059445 0.144745
#
# Coordination Sequence:
#
# PCOD9343049 Si02
#       8
#     4   4   4   4   4   4   4   4
#     4   9  18  30  46  69  94 121 152 187 229 276
#     4   9  18  30  46  69  94 121 152 187 229 276
#     4   8  14  26  43  63  88 117 151 191 229 265
#     4   8  14  26  43  63  88 117 151 191 229 265
#     4  10  20  33  49  70  95 124 159 196 235 278
#     4   9  16  26  43  68  94 119 150 189 232 277
#     4  10  20  33  49  70  95 124 159 196 235 278
#     4   9  16  26  43  68  94 119 150 189 232 277
#
# _framework density 23.819604999999999
#
# number of rings (size 3 to 8) (size 9 to 14) (size 15 to 20)
#    0.000    3.000    0.000    3.000    0.000    6.500 
#    0.000    0.000    0.000    1.500    0.000    7.000 
#    0.000    0.000    0.000    0.000    0.000    0.000 
#
# Total GULP energy -178297.783097 kJ/mol
# GULP energy per Si atom -5571.805722 kJ/mol
# Density = 2.376539 g / cm^3
# Si number density = 23.819605 Si / 1000 Ang^3
#
#
#
# Elastic Constant Matrix: (Units=GPa)
#
#
# Indices 1 2 3 4 5 6 
#
# 1 295.9548 6.7801 60.2474 0.0000 0.0000 0.0000
# 2 6.7801 52.9852 -1.6393 0.0000 0.0000 0.0000
# 3 60.2474 -1.6393 53.2291 0.0000 0.0000 0.0000
# 4 0.0000 0.0000 0.0000 14.9553 0.0000 0.0000
# 5 0.0000 0.0000 0.0000 0.0000 41.0800 0.0000
# 6 0.0000 0.0000 0.0000 0.0000 0.0000 11.9027
#
#
#
# Elastic Compliance Matrix: (Units=1/GPa)
#
#
# Indices 1 2 3 4 5 6 
#
# 1 0.004418 -0.000721 -0.005023 0.000000 0.000000 0.000000
# 2 -0.000721 0.019009 0.001401 0.000000 0.000000 0.000000
# 3 -0.005023 0.001401 0.024515 0.000000 0.000000 0.000000
# 4 0.000000 0.000000 0.000000 0.066866 0.000000 0.000000
# 5 0.000000 0.000000 0.000000 0.000000 0.024343 0.000000
# 6 0.000000 0.000000 0.000000 0.000000 0.000000 0.084014
#
#
# Mechanical properties :
#
#
# Convention : Reuss Voigt Hill
#
# Bulk Modulus (GPa) = 25.47317 59.21619 42.34468
# Shear Modulus (GPa) = 20.41365 36.03966 28.22666
#
# Velocity S-wave (km/s) = 2.93065 3.89398 3.44614
# Velocity P-wave (km/s) = 4.70840 6.71801 5.80089
#
# Compressibility (1/GPa) = 0.03925699
#
# Stress axis : x y z
#
# Youngs Moduli (GPa) = 226.35505 52.60735 40.79201
#
# Poissons Ratio (x) = 0.03791 0.20488
# Poissons Ratio (y) = 0.16313 -0.05715
# Poissons Ratio (z) = 1.13687 -0.07371
#
# Static dielectric constant tensor:
#      x y z
#    x 1.989970 0.000000 0.000000 
#    y 0.000000 1.998280 0.000000 
#    z 0.000000 0.000000 1.888200 
# 
# From -- ./inp_files/3004.got.cif
#   From: 2010.05.17/outbox.cif.g08.bks.cpg/sg31_2_cif.got.tgz:3004.got - 2010.06.03 17:08:30.
