data_PCOD9343873
_publ_section_title
;
Structure prediction by ZEFSAII (Michael W. Deem and Ramdas Pophale) SiO2 
 PCOD9343873
Probable space group: P B A 2
;
_chemical_formula_sum "Si O2"
_cell_formula_units_Z 26
_cell_length_a 26.622584
_cell_length_b 8.453374
_cell_length_c 5.000677
_cell_angle_alpha 90.000000
_cell_angle_beta 90.000000
_cell_angle_gamma 90.000000
_cell_volume 1125.405656
_symmetry_space_group_name_H-M "P B A 2"
_symmetry_group_IT_number 32
_symmetry_cell_setting 'orthorhombic'
loop_
_space_group_symop_operation_xyz
x,y,z
-x,-y,z
1/2-x,1/2+y,z
1/2+x,1/2-y,z
loop_
_atom_site_type_symbol
_atom_site_label
_atom_site_fract_x
_atom_site_fract_y
_atom_site_fract_z
Si Si1 0.278394 0.000390 0.194830
Si Si2 0.923421 0.456444 0.045750
Si Si3 0.484533 0.727263 0.023413
Si Si4 0.305495 0.444892 0.540752
Si Si5 0.637174 0.859736 0.553087
Si Si6 0.500000 0.500000 0.539346
Si Si7 0.727216 0.268265 0.847760
O O1 0.218293 0.978839 0.252051
O O2 0.312440 0.063483 0.431379
O O3 0.298274 0.838893 0.071930
O O4 0.273511 0.139624 0.982728
O O5 0.942429 0.636597 0.056065
O O6 0.879236 0.430131 0.833611
O O7 0.966512 0.333502 0.952450
O O8 0.904907 0.402711 0.336315
O O9 0.472042 0.606546 0.778401
O O10 0.497867 0.639022 0.304627
O O11 0.352244 0.328910 0.558178
O O12 0.308029 0.610831 0.692130
O O13 0.256928 0.350567 0.655314
#
# Coordination Sequence:
#
# PCOD9343873 Si02
#       7
#     4   4   4   4   4   2   4
#     4  11  21  38  60  86 120 176 222 280 333 390
#     4  11  25  44  69 100 136 180 222 275 320 430
#     4  10  22  46  74 104 136 176 214 260 360 396
#     4  11  21  38  60  86 120 176 222 280 333 390
#     4  12  24  39  66  97 132 174 236 276 326 390
#     4  10  20  40  84 100 128 168 216 264 320 440
#     4  10  21  36  61  82 120 174 224 273 340 395
#
# _framework density 23.102784
#
# number of rings (size 3 to 8) (size 9 to 14) (size 15 to 20)
#    0.000    1.231    3.077    2.769    4.308    2.462 
#    0.000    6.154    6.769    0.000    0.000    0.000 
#    0.000    0.000    0.000    0.000    0.000    0.000 
#
# Total GULP energy -144791.796076 kJ/mol
# GULP energy per Si atom -5568.915234 kJ/mol
# Density = 2.305020 g / cm^3
# Si number density = 23.102784 Si / 1000 Ang^3
#
#
#
# Elastic Constant Matrix: (Units=GPa)
#
#
# Indices 1 2 3 4 5 6 
#
# 1 25.2841 -8.3617 1.3534 0.0000 0.0000 0.0000
# 2 -8.3617 73.1457 22.4327 0.0000 0.0000 0.0000
# 3 1.3534 22.4327 93.4579 0.0000 0.0000 0.0000
# 4 0.0000 0.0000 0.0000 49.1306 0.0000 0.0000
# 5 0.0000 0.0000 0.0000 0.0000 28.7971 0.0000
# 6 0.0000 0.0000 0.0000 0.0000 0.0000 21.5419
#
#
#
# Elastic Compliance Matrix: (Units=1/GPa)
#
#
# Indices 1 2 3 4 5 6 
#
# 1 0.041406 0.005308 -0.001874 0.000000 0.000000 0.000000
# 2 0.005308 0.015438 -0.003782 0.000000 0.000000 0.000000
# 3 -0.001874 -0.003782 0.011635 0.000000 0.000000 0.000000
# 4 0.000000 0.000000 0.000000 0.020354 0.000000 0.000000
# 5 0.000000 0.000000 0.000000 0.000000 0.034726 0.000000
# 6 0.000000 0.000000 0.000000 0.000000 0.000000 0.046421
#
#
# Mechanical properties :
#
#
# Convention : Reuss Voigt Hill
#
# Bulk Modulus (GPa) = 14.75292 24.74849 19.75071
# Shear Modulus (GPa) = 25.87040 31.65814 28.76427
#
# Velocity S-wave (km/s) = 3.34997 3.70580 3.53236
# Velocity P-wave (km/s) = 4.62198 5.38945 5.02040
#
# Compressibility (1/GPa) = 0.06778318
#
# Stress axis : x y z
#
# Youngs Moduli (GPa) = 24.15093 64.77448 85.94726
#
# Poissons Ratio (x) = -0.34383 0.16104
# Poissons Ratio (y) = -0.12819 0.32509
# Poissons Ratio (z) = 0.04525 0.24501
#
# Static dielectric constant tensor:
#      x y z
#    x 1.911800 0.000000 0.000000 
#    y 0.000000 1.888310 0.000000 
#    z 0.000000 0.000000 1.905230 
# 
# From -- ./inp_files/1740.got.cif
#   From: 2010.05.17/outbox.cif.g08.bks.cpg/sg32_1_cif.got.tgz:1740.got - 2010.06.03 17:12:27.
