data_PCOD9343985
_publ_section_title
;
Structure prediction by ZEFSAII (Michael W. Deem and Ramdas Pophale) SiO2 
 PCOD9343985
Probable space group: P B A 2
;
_chemical_formula_sum "Si O2"
_cell_formula_units_Z 20
_cell_length_a 13.655454
_cell_length_b 12.873285
_cell_length_c 4.973036
_cell_angle_alpha 90.000000
_cell_angle_beta 90.000000
_cell_angle_gamma 90.000000
_cell_volume 874.212739
_symmetry_space_group_name_H-M "P B A 2"
_symmetry_group_IT_number 32
_symmetry_cell_setting 'orthorhombic'
loop_
_space_group_symop_operation_xyz
x,y,z
-x,-y,z
1/2-x,1/2+y,z
1/2+x,1/2-y,z
loop_
_atom_site_type_symbol
_atom_site_label
_atom_site_fract_x
_atom_site_fract_y
_atom_site_fract_z
Si Si1 0.510429 0.766607 0.012800
Si Si2 0.897104 0.559679 0.768713
Si Si3 0.080059 0.927268 0.276214
Si Si4 0.874020 0.285439 0.504268
Si Si5 0.718879 0.977023 0.273793
O O1 0.519531 0.642737 0.059367
O O2 0.532674 0.812909 0.308637
O O3 0.420148 0.823226 0.871477
O O4 0.600152 0.794362 0.814148
O O5 0.827231 0.546560 0.514019
O O6 0.000000 0.500000 0.715002
O O7 0.847305 0.501772 0.018382
O O8 0.131979 0.836515 0.447039
O O9 0.170966 0.996488 0.189407
O O10 0.000000 0.000000 0.415562
O O11 0.791003 0.360532 0.393561
#
# Coordination Sequence:
#
# PCOD9343985 Si02
#       5
#     4   4   4   4   4
#     4  10  22  42  68  94 142 171 230 279 352 418
#     4  12  21  41  71 104 134 176 224 302 347 403
#     4  10  27  48  67  99 148 192 227 292 356 425
#     4  10  21  43  65 103 132 174 240 281 335 437
#     4  12  24  41  73 104 135 183 242 286 352 416
#
# _framework density 22.877728000000001
#
# number of rings (size 3 to 8) (size 9 to 14) (size 15 to 20)
#    1.200    0.000    4.000    1.800    2.800    2.400 
#    0.000    0.000    0.000    0.000    0.000    0.000 
#    0.000    0.000    0.000    0.000    0.000    0.000 
#
# Total GULP energy -111386.585583 kJ/mol
# GULP energy per Si atom -5569.329279 kJ/mol
# Density = 2.282566 g / cm^3
# Si number density = 22.877728 Si / 1000 Ang^3
#
#
#
# Elastic Constant Matrix: (Units=GPa)
#
#
# Indices 1 2 3 4 5 6 
#
# 1 89.1138 59.7537 10.8632 0.0000 0.0000 0.0000
# 2 59.7537 128.4654 13.3446 0.0000 0.0000 0.0000
# 3 10.8632 13.3446 95.9521 0.0000 0.0000 0.0000
# 4 0.0000 0.0000 0.0000 16.9511 0.0000 0.0000
# 5 0.0000 0.0000 0.0000 0.0000 -2.7118 0.0000
# 6 0.0000 0.0000 0.0000 0.0000 0.0000 22.6989
#
#
#
# Elastic Compliance Matrix: (Units=1/GPa)
#
#
# Indices 1 2 3 4 5 6 
#
# 1 0.016369 -0.007530 -0.000806 0.000000 0.000000 0.000000
# 2 -0.007530 0.011362 -0.000728 0.000000 0.000000 0.000000
# 3 -0.000806 -0.000728 0.010614 0.000000 0.000000 0.000000
# 4 0.000000 0.000000 0.000000 0.058993 0.000000 0.000000
# 5 0.000000 0.000000 0.000000 0.000000 -0.368761 0.000000
# 6 0.000000 0.000000 0.000000 0.000000 0.000000 0.044055
#
#
# Mechanical properties :
#
#
# Convention : Reuss Voigt Hill
#
# Bulk Modulus (GPa) = 49.46055 53.49493 51.47774
# Shear Modulus (GPa) = -24.69136 22.69231 -0.99952
#
# Velocity S-wave (km/s) = -3.28880 3.15285 -0.66170
# Velocity P-wave (km/s) = 2.69163 6.05704 4.68682
#
# Compressibility (1/GPa) = 0.02021813
#
# Stress axis : x y z
#
# Youngs Moduli (GPa) = 61.09105 88.01047 94.21238
#
# Poissons Ratio (x) = 0.66273 0.07593
# Poissons Ratio (y) = 0.46002 0.06856
# Poissons Ratio (z) = 0.04924 0.06405
#
# Static dielectric constant tensor:
#      x y z
#    x 1.811000 0.000000 0.000000 
#    y 0.000000 1.975860 0.000000 
#    z 0.000000 0.000000 1.829690 
# 
# From -- ./inp_files/819.got.cif
#   From: 2010.05.17/outbox.cif.g08.bks.cpg/sg32_1_cif.got.tgz:819.got - 2010.06.03 17:12:27.
