data_PCOD9343482
_publ_section_title
;
Structure prediction by ZEFSAII (Michael W. Deem and Ramdas Pophale) SiO2 
 PCOD9343482
Probable space group: P M N 21
;
_chemical_formula_sum "Si O2"
_cell_formula_units_Z 16
_cell_length_a 19.967155
_cell_length_b 5.044409
_cell_length_c 4.865798
_cell_angle_alpha 90.000000
_cell_angle_beta 90.000000
_cell_angle_gamma 90.000000
_cell_volume 490.095321
_symmetry_space_group_name_H-M "P M N 21"
_symmetry_group_IT_number 31
_symmetry_cell_setting 'orthorhombic'
loop_
_space_group_symop_operation_xyz
x,y,z
1/2-x,-y,1/2+z
-x,y,z
1/2+x,-y,1/2+z
loop_
_atom_site_type_symbol
_atom_site_label
_atom_site_fract_x
_atom_site_fract_y
_atom_site_fract_z
Si Si1 0.500000 0.495578 0.055540
Si Si2 0.146428 0.034654 0.987384
Si Si3 0.252940 0.250000 0.252306
Si Si4 0.646428 0.534655 0.017227
Si Si5 0.500000 0.004417 0.449071
O O1 0.500000 0.749994 0.252310
O O2 0.500000 0.249994 0.252301
O O3 0.571565 0.479582 0.907516
O O4 0.231616 0.972275 0.020424
O O5 0.139961 0.249999 0.752305
O O6 0.071565 0.979581 0.097095
O O7 0.168374 0.250000 0.252305
O O8 0.231616 0.527725 0.484187
O O9 0.340052 0.250001 0.252306
#
# Coordination Sequence:
#
# PCOD9343482 Si02
#       5
#     2   4   4   4   2
#     4  10  22  41  66  93 133 176 215 269 336 391
#     4  11  23  39  64  93 129 171 218 270 332 390
#     4  12  22  38  66  94 126 170 222 272 326 394
#     4  11  23  39  64  93 129 171 218 270 332 390
#     4  10  22  41  66  93 133 176 215 269 336 391
#
# _framework density 32.646711000000003
#
# number of rings (size 3 to 8) (size 9 to 14) (size 15 to 20)
#    0.000    1.000    7.500    0.000    0.000    1.000 
#    0.000    0.000    0.000    9.000    0.000    0.000 
#    0.000    0.000    0.000    0.000    0.000    0.000 
#
# Total GULP energy -89375.793059 kJ/mol
# GULP energy per Si atom -5585.987066 kJ/mol
# Density = 3.257241 g / cm^3
# Si number density = 32.646711 Si / 1000 Ang^3
#
#
#
# Elastic Constant Matrix: (Units=GPa)
#
#
# Indices 1 2 3 4 5 6 
#
# 1 504.9615 105.6073 99.7598 0.0000 0.0000 0.0000
# 2 105.6073 327.0602 88.5940 0.0000 0.0000 0.0000
# 3 99.7598 88.5940 237.0107 0.0000 0.0000 0.0000
# 4 0.0000 0.0000 0.0000 119.3790 0.0000 0.0000
# 5 0.0000 0.0000 0.0000 0.0000 -25.0474 0.0000
# 6 0.0000 0.0000 0.0000 0.0000 0.0000 -35.4740
#
#
#
# Elastic Compliance Matrix: (Units=1/GPa)
#
#
# Indices 1 2 3 4 5 6 
#
# 1 0.002237 -0.000520 -0.000747 0.000000 0.000000 0.000000
# 2 -0.000520 0.003523 -0.001098 0.000000 0.000000 0.000000
# 3 -0.000747 -0.001098 0.004944 0.000000 0.000000 0.000000
# 4 0.000000 0.000000 0.000000 0.008377 0.000000 0.000000
# 5 0.000000 0.000000 0.000000 0.000000 -0.039924 0.000000
# 6 0.000000 0.000000 0.000000 0.000000 0.000000 -0.028190
#
#
# Mechanical properties :
#
#
# Convention : Reuss Voigt Hill
#
# Bulk Modulus (GPa) = 167.40133 184.10605 175.75369
# Shear Modulus (GPa) = -118.16826 63.44295 -27.36266
#
# Velocity S-wave (km/s) = -6.02284 4.41309 -2.89821
# Velocity P-wave (km/s) = 1.73832 9.08202 6.53853
#
# Compressibility (1/GPa) = 0.00597367
#
# Stress axis : x y z
#
# Youngs Moduli (GPa) = 447.09372 283.86291 202.26029
#
# Poissons Ratio (x) = 0.14756 0.15111
# Poissons Ratio (y) = 0.23242 0.22209
# Poissons Ratio (z) = 0.33403 0.31169
#
# Static dielectric constant tensor:
#      x y z
#    x 2.402120 0.000000 0.000000 
#    y 0.000000 3.742870 0.000000 
#    z 0.000000 0.000000 3.166050 
# 
# From -- ./inp_files/1170.got.cif
#   From: 2010.05.17/outbox.cif.g08.bks.cpg/sg31_1_cif.got.tgz:1170.got - 2010.06.03 17:08:30.
