data_PCOD9343140
_publ_section_title
;
Structure prediction by ZEFSAII (Michael W. Deem and Ramdas Pophale) SiO2 
 PCOD9343140
Probable space group: P M N 21
;
_chemical_formula_sum "Si O2"
_cell_formula_units_Z 32
_cell_length_a 14.929896
_cell_length_b 11.996091
_cell_length_c 9.445974
_cell_angle_alpha 90.000000
_cell_angle_beta 90.000000
_cell_angle_gamma 90.000000
_cell_volume 1691.777637
_symmetry_space_group_name_H-M "P M N 21"
_symmetry_group_IT_number 31
_symmetry_cell_setting 'orthorhombic'
loop_
_space_group_symop_operation_xyz
x,y,z
1/2-x,-y,1/2+z
-x,y,z
1/2+x,-y,1/2+z
loop_
_atom_site_type_symbol
_atom_site_label
_atom_site_fract_x
_atom_site_fract_y
_atom_site_fract_z
Si Si1 0.100381 0.547834 0.255340
Si Si2 0.103359 0.062859 0.847410
Si Si3 0.784792 0.393360 0.855951
Si Si4 0.603711 0.184506 0.226094
Si Si5 0.895759 0.264164 0.634346
Si Si6 0.282152 0.806355 0.563442
Si Si7 0.897365 0.605207 0.928254
Si Si8 0.896133 0.284080 0.301331
O O1 0.178603 0.599304 0.347085
O O2 0.115640 0.413936 0.256767
O O3 0.000000 0.565904 0.309864
O O4 0.106689 0.601685 0.098900
O O5 0.115274 0.144936 0.712035
O O6 0.000000 0.080927 0.897675
O O7 0.112319 0.936075 0.798992
O O8 0.175454 0.097415 0.965923
O O9 0.828226 0.346345 0.712886
O O10 0.827211 0.513121 0.880349
O O11 0.807480 0.305935 0.978100
O O12 0.500000 0.196564 0.177941
O O13 0.677451 0.189973 0.102076
O O14 0.619886 0.280307 0.344601
O O15 0.879442 0.267715 0.467643
O O16 0.000000 0.297878 0.657449
O O17 0.333171 0.795441 0.711387
O O18 0.000000 0.570985 0.892886
O O19 0.000000 0.257255 0.272932
#
# Coordination Sequence:
#
# PCOD9343140 Si02
#       8
#     4   4   4   4   4   4   4   4
#     4  10  22  36  53  81 122 158 193 242 295 359
#     4   9  20  42  64  87 118 155 200 252 306 362
#     4  11  22  35  58  87 119 151 197 240 298 356
#     4  10  23  41  62  86 122 164 204 245 302 370
#     4   9  20  36  60  88 116 149 191 250 307 353
#     4  11  22  37  62  91 114 154 198 251 301 356
#     4  10  21  38  60  85 119 162 197 239 298 366
#     4  10  20  35  57  89 120 149 192 251 307 352
#
# _framework density 18.915016999999999
#
# number of rings (size 3 to 8) (size 9 to 14) (size 15 to 20)
#    0.000    2.000    1.250    1.500    3.500    2.500 
#    2.250    2.500    0.000    0.750    0.000    0.000 
#    0.000    0.000    0.000    0.000    0.000    0.000 
#
# Total GULP energy -178553.965480 kJ/mol
# GULP energy per Si atom -5579.811421 kJ/mol
# Density = 1.887197 g / cm^3
# Si number density = 18.915017 Si / 1000 Ang^3
#
#
#
# Elastic Constant Matrix: (Units=GPa)
#
#
# Indices 1 2 3 4 5 6 
#
# 1 61.8048 12.3127 37.5182 0.0000 0.0000 0.0000
# 2 12.3127 37.4008 7.9285 0.0000 0.0000 0.0000
# 3 37.5182 7.9285 47.0620 0.0000 0.0000 0.0000
# 4 0.0000 0.0000 0.0000 11.5501 0.0000 0.0000
# 5 0.0000 0.0000 0.0000 0.0000 32.6247 0.0000
# 6 0.0000 0.0000 0.0000 0.0000 0.0000 16.6947
#
#
#
# Elastic Compliance Matrix: (Units=1/GPa)
#
#
# Indices 1 2 3 4 5 6 
#
# 1 0.032363 -0.005377 -0.024894 0.000000 0.000000 0.000000
# 2 -0.005377 0.028621 -0.000535 0.000000 0.000000 0.000000
# 3 -0.024894 -0.000535 0.041185 0.000000 0.000000 0.000000
# 4 0.000000 0.000000 0.000000 0.086580 0.000000 0.000000
# 5 0.000000 0.000000 0.000000 0.000000 0.030652 0.000000
# 6 0.000000 0.000000 0.000000 0.000000 0.000000 0.059899
#
#
# Mechanical properties :
#
#
# Convention : Reuss Voigt Hill
#
# Bulk Modulus (GPa) = 24.65734 29.08737 26.87235
# Shear Modulus (GPa) = 14.10714 18.07446 16.09080
#
# Velocity S-wave (km/s) = 2.73393 3.09457 2.91982
# Velocity P-wave (km/s) = 4.79895 5.30846 5.06013
#
# Compressibility (1/GPa) = 0.04055588
#
# Stress axis : x y z
#
# Youngs Moduli (GPa) = 30.89939 34.93937 24.28091
#
# Poissons Ratio (x) = 0.18787 0.60446
# Poissons Ratio (y) = 0.16614 0.01300
# Poissons Ratio (z) = 0.76922 0.01870
#
# Static dielectric constant tensor:
#      x y z
#    x 1.678670 0.000000 0.000000 
#    y 0.000000 1.632710 0.000000 
#    z 0.000000 0.000000 1.648820 
# 
# From -- ./inp_files/2573.got.cif
#   From: 2010.05.17/outbox.cif.g08.bks.cpg/sg31_2_cif.got.tgz:2573.got - 2010.06.03 17:08:30.
