data_PCOD9343979
_publ_section_title
;
Structure prediction by ZEFSAII (Michael W. Deem and Ramdas Pophale) SiO2 
 PCOD9343979
Probable space group: P B A 2
;
_chemical_formula_sum "Si O2"
_cell_formula_units_Z 22
_cell_length_a 5.432111
_cell_length_b 13.456207
_cell_length_c 12.938660
_cell_angle_alpha 90.000000
_cell_angle_beta 90.000000
_cell_angle_gamma 90.000000
_cell_volume 945.759246
_symmetry_space_group_name_H-M "P B A 2"
_symmetry_group_IT_number 32
_symmetry_cell_setting 'orthorhombic'
loop_
_space_group_symop_operation_xyz
x,y,z
-x,-y,z
1/2-x,1/2+y,z
1/2+x,1/2-y,z
loop_
_atom_site_type_symbol
_atom_site_label
_atom_site_fract_x
_atom_site_fract_y
_atom_site_fract_z
Si Si1 0.144881 0.234115 0.441580
Si Si2 0.344894 0.182882 0.963424
Si Si3 0.132856 0.688805 0.724616
Si Si4 0.000000 0.500000 0.101135
Si Si5 0.248065 0.552885 0.530233
Si Si6 0.154246 0.308909 0.213357
O O1 0.390985 0.262274 0.500950
O O2 0.186657 0.118432 0.428551
O O3 0.148784 0.297825 0.338453
O O4 0.600561 0.247420 0.978821
O O5 0.344683 0.151699 0.842824
O O6 0.353730 0.080712 0.030332
O O7 0.358225 0.767002 0.714873
O O8 0.178947 0.608019 0.636655
O O9 0.151617 0.421472 0.172328
O O10 0.500000 0.500000 0.553809
O O11 0.000000 0.500000 0.500097
O O12 0.400928 0.248609 0.182723
#
# Coordination Sequence:
#
# PCOD9343979 Si02
#       6
#     4   4   4   2   4   4
#     4  10  21  44  64  89 135 176 216 286 336 405
#     4  10  24  43  67 102 141 177 230 280 343 413
#     4  10  21  42  65  92 137 186 215 278 346 405
#     4  12  24  44  76 100 136 190 226 290 348 404
#     4  12  24  38  66 103 136 176 235 280 341 411
#     4  10  24  45  67  99 137 172 234 285 341 410
#
# _framework density 23.261731999999999
#
# number of rings (size 3 to 8) (size 9 to 14) (size 15 to 20)
#    0.000    1.455    0.000    4.364    1.273    2.909 
#   19.636    0.000    0.000    0.000    0.000    0.000 
#    0.000    0.000    0.000    0.000    0.000    0.000 
#
# Total GULP energy -122613.362187 kJ/mol
# GULP energy per Si atom -5573.334645 kJ/mol
# Density = 2.320879 g / cm^3
# Si number density = 23.261732 Si / 1000 Ang^3
#
#
#
# Elastic Constant Matrix: (Units=GPa)
#
#
# Indices 1 2 3 4 5 6 
#
# 1 193.5550 53.7174 32.7003 0.0000 0.0000 0.0000
# 2 53.7174 130.6940 56.0164 0.0000 0.0000 0.0000
# 3 32.7003 56.0164 113.5951 0.0000 0.0000 0.0000
# 4 0.0000 0.0000 0.0000 62.9520 0.0000 0.0000
# 5 0.0000 0.0000 0.0000 0.0000 31.4001 0.0000
# 6 0.0000 0.0000 0.0000 0.0000 0.0000 41.8403
#
#
#
# Elastic Compliance Matrix: (Units=1/GPa)
#
#
# Indices 1 2 3 4 5 6 
#
# 1 0.005867 -0.002140 -0.000634 0.000000 0.000000 0.000000
# 2 -0.002140 0.010483 -0.004553 0.000000 0.000000 0.000000
# 3 -0.000634 -0.004553 0.011231 0.000000 0.000000 0.000000
# 4 0.000000 0.000000 0.000000 0.015885 0.000000 0.000000
# 5 0.000000 0.000000 0.000000 0.000000 0.031847 0.000000
# 6 0.000000 0.000000 0.000000 0.000000 0.000000 0.023900
#
#
# Mechanical properties :
#
#
# Convention : Reuss Voigt Hill
#
# Bulk Modulus (GPa) = 77.35692 80.30135 78.82914
# Shear Modulus (GPa) = 42.30964 46.93248 44.62106
#
# Velocity S-wave (km/s) = 4.26943 4.49662 4.38450
# Velocity P-wave (km/s) = 7.59152 7.84572 7.71966
#
# Compressibility (1/GPa) = 0.01292709
#
# Stress axis : x y z
#
# Youngs Moduli (GPa) = 170.43108 95.39664 89.03998
#
# Poissons Ratio (x) = 0.20415 0.05643
# Poissons Ratio (y) = 0.36472 0.40541
# Poissons Ratio (z) = 0.10802 0.43436
#
# Static dielectric constant tensor:
#      x y z
#    x 2.006350 0.000000 0.000000 
#    y 0.000000 1.993050 0.000000 
#    z 0.000000 0.000000 1.971820 
# 
# From -- ./inp_files/4072.got.cif
#   From: 2010.05.17/outbox.cif.g08.bks.cpg/sg32_3_cif.got.tgz:4072.got - 2010.06.03 17:12:27.
