data_PCOD9343015
_publ_section_title
;
Structure prediction by ZEFSAII (Michael W. Deem and Ramdas Pophale) SiO2 
 PCOD9343015
Probable space group: P M N 21
;
_chemical_formula_sum "Si O2"
_cell_formula_units_Z 32
_cell_length_a 8.982140
_cell_length_b 15.957361
_cell_length_c 11.092541
_cell_angle_alpha 90.000000
_cell_angle_beta 90.000000
_cell_angle_gamma 90.000000
_cell_volume 1589.907773
_symmetry_space_group_name_H-M "P M N 21"
_symmetry_group_IT_number 31
_symmetry_cell_setting 'orthorhombic'
loop_
_space_group_symop_operation_xyz
x,y,z
1/2-x,-y,1/2+z
-x,y,z
1/2+x,-y,1/2+z
loop_
_atom_site_type_symbol
_atom_site_label
_atom_site_fract_x
_atom_site_fract_y
_atom_site_fract_z
Si Si1 0.321109 0.559093 0.807650
Si Si2 0.668086 0.856555 0.680668
Si Si3 0.673436 0.155854 0.800697
Si Si4 0.325676 0.834002 0.049017
Si Si5 0.674746 0.264591 0.356248
Si Si6 0.324330 0.022176 0.008687
Si Si7 0.666668 0.722513 0.463597
Si Si8 0.823196 0.469206 0.038227
O O1 0.500000 0.559616 0.809496
O O2 0.261230 0.654026 0.809749
O O3 0.275640 0.517619 0.678361
O O4 0.259215 0.516644 0.929559
O O5 0.500000 0.867741 0.728346
O O6 0.777056 0.814923 0.776296
O O7 0.729094 0.940211 0.618514
O O8 0.663038 0.787305 0.574356
O O9 0.500000 0.152570 0.766740
O O10 0.778928 0.153734 0.686365
O O11 0.705289 0.078941 0.891566
O O12 0.711951 0.240746 0.873091
O O13 0.500000 0.815142 0.035984
O O14 0.229958 0.760931 0.988753
O O15 0.294814 0.924677 0.989437
O O16 0.500000 0.279343 0.351233
O O17 0.500000 0.031802 0.037085
O O18 0.500000 0.723475 0.408288
O O19 0.695787 0.629711 0.511068
O O20 0.000000 0.488569 0.030672
#
# Coordination Sequence:
#
# PCOD9343015 Si02
#       8
#     4   4   4   4   4   4   4   4
#     4  11  24  44  68  97 133 171 216 269 329 394
#     4  10  19  36  63  90 119 157 200 249 301 360
#     4  10  21  38  58  87 123 157 203 260 315 371
#     4  11  24  41  60  86 123 166 210 257 317 378
#     4  12  25  41  63  91 124 164 210 259 317 377
#     4   9  21  39  59  88 121 159 205 255 306 367
#     4   9  18  37  63  87 117 159 202 247 304 370
#     4  10  22  42  66  96 132 169 214 266 321 391
#
# _framework density 20.126953
#
# number of rings (size 3 to 8) (size 9 to 14) (size 15 to 20)
#    0.000    1.750    1.250    2.625    1.750    4.500 
#    0.000    2.500    0.000    0.000    0.000    0.000 
#    0.000    0.000    0.000    0.000    0.000    0.000 
#
# Total GULP energy -178719.512762 kJ/mol
# GULP energy per Si atom -5584.984774 kJ/mol
# Density = 2.008114 g / cm^3
# Si number density = 20.126953 Si / 1000 Ang^3
#
#
#
# Elastic Constant Matrix: (Units=GPa)
#
#
# Indices 1 2 3 4 5 6 
#
# 1 59.6974 27.7888 45.3932 0.0000 0.0000 0.0000
# 2 27.7888 39.1917 34.5481 0.0000 0.0000 0.0000
# 3 45.3932 34.5481 96.3326 0.0000 0.0000 0.0000
# 4 0.0000 0.0000 0.0000 21.8780 0.0000 0.0000
# 5 0.0000 0.0000 0.0000 0.0000 32.7401 0.0000
# 6 0.0000 0.0000 0.0000 0.0000 0.0000 23.3849
#
#
#
# Elastic Compliance Matrix: (Units=1/GPa)
#
#
# Indices 1 2 3 4 5 6 
#
# 1 0.029971 -0.012870 -0.009507 0.000000 0.000000 0.000000
# 2 -0.012870 0.042838 -0.009298 0.000000 0.000000 0.000000
# 3 -0.009507 -0.009298 0.018195 0.000000 0.000000 0.000000
# 4 0.000000 0.000000 0.000000 0.045708 0.000000 0.000000
# 5 0.000000 0.000000 0.000000 0.000000 0.030544 0.000000
# 6 0.000000 0.000000 0.000000 0.000000 0.000000 0.042763
#
#
# Mechanical properties :
#
#
# Convention : Reuss Voigt Hill
#
# Bulk Modulus (GPa) = 36.16281 45.63131 40.89706
# Shear Modulus (GPa) = 17.69357 21.43337 19.56347
#
# Velocity S-wave (km/s) = 2.96818 3.26683 3.12108
# Velocity P-wave (km/s) = 5.45464 6.07870 5.77511
#
# Compressibility (1/GPa) = 0.02765272
#
# Stress axis : x y z
#
# Youngs Moduli (GPa) = 33.36520 23.34374 54.95917
#
# Poissons Ratio (x) = 0.30044 0.52250
# Poissons Ratio (y) = 0.42942 0.51104
# Poissons Ratio (z) = 0.31721 0.21706
#
# Static dielectric constant tensor:
#      x y z
#    x 1.678130 0.000000 0.000000 
#    y 0.000000 1.692750 0.000000 
#    z 0.000000 0.000000 1.747660 
# 
# From -- ./inp_files/3560.got.cif
#   From: 2010.05.17/outbox.cif.g08.bks.cpg/sg31_2_cif.got.tgz:3560.got - 2010.06.03 17:08:30.
