data_PCOD9343741
_publ_section_title
;
Structure prediction by ZEFSAII (Michael W. Deem and Ramdas Pophale) SiO2 
 PCOD9343741
Probable space group: P B A 2
;
_chemical_formula_sum "Si O2"
_cell_formula_units_Z 28
_cell_length_a 8.208284
_cell_length_b 25.245167
_cell_length_c 4.912186
_cell_angle_alpha 90.000000
_cell_angle_beta 90.000000
_cell_angle_gamma 90.000000
_cell_volume 1017.900729
_symmetry_space_group_name_H-M "P B A 2"
_symmetry_group_IT_number 32
_symmetry_cell_setting 'orthorhombic'
loop_
_space_group_symop_operation_xyz
x,y,z
-x,-y,z
1/2-x,1/2+y,z
1/2+x,1/2-y,z
loop_
_atom_site_type_symbol
_atom_site_label
_atom_site_fract_x
_atom_site_fract_y
_atom_site_fract_z
Si Si1 0.355479 0.529191 0.502000
Si Si2 0.465239 0.391115 0.100764
Si Si3 0.770378 0.314517 0.133558
Si Si4 0.327257 0.337277 0.589788
Si Si5 0.345410 0.736287 0.645625
Si Si6 0.595036 0.049816 0.353827
Si Si7 0.573598 0.906906 0.824298
O O1 0.500000 0.500000 0.667197
O O2 0.433332 0.563040 0.256506
O O3 0.265480 0.479872 0.355396
O O4 0.241509 0.567128 0.693319
O O5 0.606716 0.347795 0.095285
O O6 0.332590 0.369100 0.309822
O O7 0.374140 0.382740 0.813134
O O8 0.773870 0.297314 0.444231
O O9 0.730721 0.264514 0.947834
O O10 0.898163 0.351928 0.983420
O O11 0.482818 0.294938 0.612072
O O12 0.173869 0.297787 0.579066
O O13 0.546455 0.094829 0.567427
O O14 0.500000 0.000000 0.489723
O O15 0.513351 0.059537 0.063022
#
# Coordination Sequence:
#
# PCOD9343741 Si02
#       7
#     4   4   4   4   4   4   4
#     4  11  24  43  68  99 134 182 236 280 335 406
#     4  10  21  38  60  85 124 167 205 255 324 399
#     4  10  19  36  63  89 117 164 213 252 312 403
#     4  10  21  39  61  88 118 157 204 259 322 388
#     4  10  20  36  62  90 118 156 204 255 320 398
#     4  10  21  38  61  88 124 172 224 277 325 376
#     4  11  21  40  64  91 128 172 223 278 327 384
#
# _framework density 27.507595999999999
#
# number of rings (size 3 to 8) (size 9 to 14) (size 15 to 20)
#    0.000    1.714    0.000    7.286    0.000    1.143 
#    0.000   22.143    0.000    1.714    0.000    0.000 
#    0.000    0.000    0.000    0.000    0.000    0.000 
#
# Total GULP energy -156261.057222 kJ/mol
# GULP energy per Si atom -5580.752044 kJ/mol
# Density = 2.744499 g / cm^3
# Si number density = 27.507596 Si / 1000 Ang^3
#
#
#
# Elastic Constant Matrix: (Units=GPa)
#
#
# Indices 1 2 3 4 5 6 
#
# 1 70.9818 16.3436 13.0021 0.0000 0.0000 0.0000
# 2 16.3436 94.4539 -2.2531 0.0000 0.0000 0.0000
# 3 13.0021 -2.2531 115.8978 0.0000 0.0000 0.0000
# 4 0.0000 0.0000 0.0000 34.8345 0.0000 0.0000
# 5 0.0000 0.0000 0.0000 0.0000 29.4700 0.0000
# 6 0.0000 0.0000 0.0000 0.0000 0.0000 25.0558
#
#
#
# Elastic Compliance Matrix: (Units=1/GPa)
#
#
# Indices 1 2 3 4 5 6 
#
# 1 0.015014 -0.002639 -0.001736 0.000000 0.000000 0.000000
# 2 -0.002639 0.011056 0.000511 0.000000 0.000000 0.000000
# 3 -0.001736 0.000511 0.008833 0.000000 0.000000 0.000000
# 4 0.000000 0.000000 0.000000 0.028707 0.000000 0.000000
# 5 0.000000 0.000000 0.000000 0.000000 0.033933 0.000000
# 6 0.000000 0.000000 0.000000 0.000000 0.000000 0.039911
#
#
# Mechanical properties :
#
#
# Convention : Reuss Voigt Hill
#
# Bulk Modulus (GPa) = 36.79859 37.27985 37.03922
# Shear Modulus (GPa) = 32.41708 34.82147 33.61927
#
# Velocity S-wave (km/s) = 3.43662 3.56179 3.49976
# Velocity P-wave (km/s) = 5.39943 5.52242 5.46127
#
# Compressibility (1/GPa) = 0.02717496
#
# Stress axis : x y z
#
# Youngs Moduli (GPa) = 66.60565 90.44826 113.21262
#
# Poissons Ratio (x) = 0.23872 0.19650
# Poissons Ratio (y) = 0.17579 -0.05785
# Poissons Ratio (z) = 0.11560 -0.04622
#
# Static dielectric constant tensor:
#      x y z
#    x 2.408700 0.000000 0.000000 
#    y 0.000000 2.232770 0.000000 
#    z 0.000000 0.000000 2.140070 
# 
# From -- ./inp_files/596.got.cif
#   From: 2010.05.17/outbox.cif.g08.bks.cpg/sg32_1_cif.got.tgz:596.got - 2010.06.03 17:12:27.
