data_PCOD9343573
_publ_section_title
;
Structure prediction by ZEFSAII (Michael W. Deem and Ramdas Pophale) SiO2 
 PCOD9343573
Probable space group: P M N 21
;
_chemical_formula_sum "Si O2"
_cell_formula_units_Z 20
_cell_length_a 27.916564
_cell_length_b 4.864002
_cell_length_c 5.444415
_cell_angle_alpha 90.000000
_cell_angle_beta 90.000000
_cell_angle_gamma 90.000000
_cell_volume 739.276550
_symmetry_space_group_name_H-M "P M N 21"
_symmetry_group_IT_number 31
_symmetry_cell_setting 'orthorhombic'
loop_
_space_group_symop_operation_xyz
x,y,z
1/2-x,-y,1/2+z
-x,y,z
1/2+x,-y,1/2+z
loop_
_atom_site_type_symbol
_atom_site_label
_atom_site_fract_x
_atom_site_fract_y
_atom_site_fract_z
Si Si1 0.896535 0.518622 0.333900
Si Si2 0.097521 0.030528 0.620195
Si Si3 0.500000 0.785834 0.355515
Si Si4 0.205057 0.761210 0.261720
Si Si5 0.196012 0.112319 0.770093
Si Si6 0.000000 0.713233 0.126322
O O1 0.899253 0.192359 0.363355
O O2 0.842462 0.576558 0.238530
O O3 0.947920 0.617444 0.227016
O O4 0.896317 0.707910 0.581852
O O5 0.047042 0.108221 0.726305
O O6 0.139943 0.174722 0.771245
O O7 0.500000 0.459371 0.372325
O O8 0.500000 0.958546 0.609293
O O9 0.261092 0.663391 0.263553
O O10 0.199495 0.935858 0.515205
O O11 0.203717 0.946394 0.019092
#
# Coordination Sequence:
#
# PCOD9343573 Si02
#       6
#     4   4   2   4   4   2
#     4  11  23  42  64  93 130 176 221 273 331 396
#     4  11  23  42  64  93 130 176 221 273 331 396
#     4  12  24  40  64  96 130 174 221 276 333 396
#     4   9  19  39  66  97 133 174 221 273 330 393
#     4   9  19  39  66  97 133 174 221 273 330 393
#     4  12  24  40  64  96 130 174 221 276 333 396
#
# _framework density 27.053473
#
# number of rings (size 3 to 8) (size 9 to 14) (size 15 to 20)
#    0.000    1.600    0.000    4.800    0.000    3.200 
#    0.000   18.000    0.000    0.000    0.000    0.000 
#    0.000    0.000    0.000    0.000    0.000    0.000 
#
# Total GULP energy -111618.983094 kJ/mol
# GULP energy per Si atom -5580.949155 kJ/mol
# Density = 2.699190 g / cm^3
# Si number density = 27.053473 Si / 1000 Ang^3
#
#
#
# Elastic Constant Matrix: (Units=GPa)
#
#
# Indices 1 2 3 4 5 6 
#
# 1 241.4675 17.1306 2.0219 0.0000 0.0000 0.0000
# 2 17.1306 91.8771 20.6584 0.0000 0.0000 0.0000
# 3 2.0219 20.6584 91.0368 0.0000 0.0000 0.0000
# 4 0.0000 0.0000 0.0000 36.7428 0.0000 0.0000
# 5 0.0000 0.0000 0.0000 0.0000 59.8704 0.0000
# 6 0.0000 0.0000 0.0000 0.0000 0.0000 -121.5075
#
#
#
# Elastic Compliance Matrix: (Units=1/GPa)
#
#
# Indices 1 2 3 4 5 6 
#
# 1 0.004198 -0.000803 0.000089 0.000000 0.000000 0.000000
# 2 -0.000803 0.011623 -0.002620 0.000000 0.000000 0.000000
# 3 0.000089 -0.002620 0.011577 0.000000 0.000000 0.000000
# 4 0.000000 0.000000 0.000000 0.027216 0.000000 0.000000
# 5 0.000000 0.000000 0.000000 0.000000 0.016703 0.000000
# 6 0.000000 0.000000 0.000000 0.000000 0.000000 -0.008230
#
#
# Mechanical properties :
#
#
# Convention : Reuss Voigt Hill
#
# Bulk Modulus (GPa) = 48.23781 56.00035 52.11908
# Shear Modulus (GPa) = 65.22022 20.65917 42.93970
#
# Velocity S-wave (km/s) = 4.91531 2.76641 3.98831
# Velocity P-wave (km/s) = 7.07693 5.56317 6.36521
#
# Compressibility (1/GPa) = 0.02073063
#
# Stress axis : x y z
#
# Youngs Moduli (GPa) = 238.23469 86.03795 86.37774
#
# Poissons Ratio (x) = 0.06906 -0.00768
# Poissons Ratio (y) = 0.19121 0.22628
# Poissons Ratio (z) = -0.02118 0.22539
#
# Static dielectric constant tensor:
#      x y z
#    x 2.225760 0.000000 0.000000 
#    y 0.000000 2.062950 0.000000 
#    z 0.000000 0.000000 2.239810 
# 
# From -- ./inp_files/1203.got.cif
#   From: 2010.05.17/outbox.cif.g08.bks.cpg/sg31_1_cif.got.tgz:1203.got - 2010.06.03 17:08:30.
