data_PCOD9343695
_publ_section_title
;
Structure prediction by ZEFSAII (Michael W. Deem and Ramdas Pophale) SiO2 
 PCOD9343695
Probable space group: P B A 2
;
_chemical_formula_sum "Si O2"
_cell_formula_units_Z 32
_cell_length_a 35.218422
_cell_length_b 7.029207
_cell_length_c 5.402723
_cell_angle_alpha 90.000000
_cell_angle_beta 90.000000
_cell_angle_gamma 90.000000
_cell_volume 1337.485023
_symmetry_space_group_name_H-M "P B A 2"
_symmetry_group_IT_number 32
_symmetry_cell_setting 'orthorhombic'
loop_
_space_group_symop_operation_xyz
x,y,z
-x,-y,z
1/2-x,1/2+y,z
1/2+x,1/2-y,z
loop_
_atom_site_type_symbol
_atom_site_label
_atom_site_fract_x
_atom_site_fract_y
_atom_site_fract_z
Si Si1 0.530726 0.280808 0.446840
Si Si2 0.071498 0.168182 0.946840
Si Si3 0.692914 0.321279 0.446832
Si Si4 0.945415 0.332335 0.446840
Si Si5 0.219968 0.742261 0.446832
Si Si6 0.842652 0.883571 0.946832
Si Si7 0.316210 0.187359 0.946832
Si Si8 0.595552 0.888255 0.946840
O O1 0.548010 0.366561 0.697566
O O2 0.485283 0.277361 0.446839
O O3 0.543362 0.057295 0.446840
O O4 0.548011 0.366562 0.196116
O O5 0.112755 0.073367 0.946838
O O6 0.081723 0.393231 0.946841
O O7 0.734919 0.236589 0.446837
O O8 0.700716 0.549504 0.446831
O O9 0.669450 0.278720 0.695155
O O10 0.669451 0.278718 0.198506
O O11 0.921395 0.299164 0.695642
O O12 0.921395 0.299164 0.198040
O O13 0.206262 0.639989 0.697064
O O14 0.206263 0.639990 0.196595
O O15 0.820586 0.083137 0.946831
O O16 0.359150 0.115171 0.946838
#
# Coordination Sequence:
#
# PCOD9343695 Si02
#       8
#     4   4   4   4   4   4   4   4
#     4   9  17  30  49  74 102 129 162 207 251 287
#     4  10  19  31  51  76  98 128 169 205 241 289
#     4  10  21  36  54  75  99 130 165 201 245 293
#     4   9  17  30  49  74 102 129 162 207 251 287
#     4  10  21  36  54  75  99 130 165 201 245 293
#     4  10  21  36  52  73 103 134 161 197 249 297
#     4  10  21  36  52  73 103 134 161 197 249 297
#     4  10  19  31  51  76  98 128 169 205 241 289
#
# _framework density 23.925501000000001
#
# number of rings (size 3 to 8) (size 9 to 14) (size 15 to 20)
#    0.000    2.250    0.000    3.000    0.000    5.000 
#    0.000    0.000    0.000    4.500    0.000    0.000 
#    0.000    0.000    0.000    0.000    0.000    0.000 
#
# Total GULP energy -179214.259924 kJ/mol
# GULP energy per Si atom -5600.445623 kJ/mol
# Density = 2.387105 g / cm^3
# Si number density = 23.925501 Si / 1000 Ang^3
#
#
#
# Elastic Constant Matrix: (Units=GPa)
#
#
# Indices 1 2 3 4 5 6 
#
# 1 163.4909 4.4381 131.6888 0.0000 0.0000 0.0000
# 2 4.4381 57.0498 26.4031 0.0000 0.0000 0.0000
# 3 131.6888 26.4031 287.8080 0.0000 0.0000 0.0000
# 4 0.0000 0.0000 0.0000 -9.3206 0.0000 0.0000
# 5 0.0000 0.0000 0.0000 0.0000 53.5221 0.0000
# 6 0.0000 0.0000 0.0000 0.0000 0.0000 5.6701
#
#
#
# Elastic Compliance Matrix: (Units=1/GPa)
#
#
# Indices 1 2 3 4 5 6 
#
# 1 0.009788 0.001369 -0.004604 0.000000 0.000000 0.000000
# 2 0.001369 0.018497 -0.002324 0.000000 0.000000 0.000000
# 3 -0.004604 -0.002324 0.005794 0.000000 0.000000 0.000000
# 4 0.000000 0.000000 0.000000 -0.107289 0.000000 0.000000
# 5 0.000000 0.000000 0.000000 0.000000 0.018684 0.000000
# 6 0.000000 0.000000 0.000000 0.000000 0.000000 0.176364
#
#
# Mechanical properties :
#
#
# Convention : Reuss Voigt Hill
#
# Bulk Modulus (GPa) = 43.54805 92.60096 68.07450
# Shear Modulus (GPa) = 35.55941 33.02891 34.29416
#
# Velocity S-wave (km/s) = 3.85938 3.71952 3.79010
# Velocity P-wave (km/s) = 6.17258 7.56534 6.90417
#
# Compressibility (1/GPa) = 0.02296314
#
# Stress axis : x y z
#
# Youngs Moduli (GPa) = 102.16642 54.06176 172.58123
#
# Poissons Ratio (x) = -0.07403 0.79460
# Poissons Ratio (y) = -0.13991 0.40099
# Poissons Ratio (z) = 0.47039 0.12561
#
# Static dielectric constant tensor:
#      x y z
#    x 1.805650 0.000000 0.000000 
#    y 0.000000 1.990410 0.000000 
#    z 0.000000 0.000000 1.879880 
# 
# From -- ./inp_files/1828.got.cif
#   From: 2010.05.17/outbox.cif.g08.bks.cpg/sg32_1_cif.got.tgz:1828.got - 2010.06.03 17:12:27.
