data_PCOD9343934
_publ_section_title
;
Structure prediction by ZEFSAII (Michael W. Deem and Ramdas Pophale) SiO2 
 PCOD9343934
Probable space group: P B A 2
;
_chemical_formula_sum "Si O2"
_cell_formula_units_Z 24
_cell_length_a 25.476520
_cell_length_b 7.112528
_cell_length_c 5.184681
_cell_angle_alpha 90.000000
_cell_angle_beta 90.000000
_cell_angle_gamma 90.000000
_cell_volume 939.476961
_symmetry_space_group_name_H-M "P B A 2"
_symmetry_group_IT_number 32
_symmetry_cell_setting 'orthorhombic'
loop_
_space_group_symop_operation_xyz
x,y,z
-x,-y,z
1/2-x,1/2+y,z
1/2+x,1/2-y,z
loop_
_atom_site_type_symbol
_atom_site_label
_atom_site_fract_x
_atom_site_fract_y
_atom_site_fract_z
Si Si1 0.675717 0.720598 0.824790
Si Si2 0.296959 0.841555 0.832477
Si Si3 0.856621 0.716985 0.317338
Si Si4 0.028545 0.202206 0.222373
Si Si5 0.618891 0.769860 0.339797
Si Si6 0.984098 0.219948 0.701413
O O1 0.734370 0.644613 0.848296
O O2 0.659968 0.674770 0.532592
O O3 0.682566 0.945706 0.829235
O O4 0.632034 0.691231 0.051629
O O5 0.327806 0.748641 0.590715
O O6 0.314489 0.746889 0.096384
O O7 0.909181 0.818007 0.209124
O O8 0.872292 0.494295 0.318801
O O9 0.025302 0.303779 0.499318
O O10 0.000000 0.000000 0.249058
O O11 0.996194 0.294905 0.987468
O O12 0.567723 0.740721 0.525733
O O13 0.000000 0.000000 0.739459
#
# Coordination Sequence:
#
# PCOD9343934 Si02
#       6
#     4   4   4   4   4   4
#     4  10  21  40  61  92 124 159 209 260 309 379
#     4  10  21  40  61  92 124 159 209 260 309 379
#     4  10  21  39  63  86 125 167 205 252 318 372
#     4  10  21  39  59  88 127 156 210 259 307 374
#     4  10  21  39  63  86 125 167 205 252 318 372
#     4  10  21  39  59  88 127 156 210 259 307 374
#
# _framework density 25.546129000000001
#
# number of rings (size 3 to 8) (size 9 to 14) (size 15 to 20)
#    0.000    2.000    0.000    3.000    0.000    0.667 
#   18.000    1.667    0.000    0.000    0.000    0.000 
#    0.000    0.000    0.000    0.000    0.000    0.000 
#
# Total GULP energy -133668.919420 kJ/mol
# GULP energy per Si atom -5569.538309 kJ/mol
# Density = 2.548799 g / cm^3
# Si number density = 25.546129 Si / 1000 Ang^3
#
#
#
# Elastic Constant Matrix: (Units=GPa)
#
#
# Indices 1 2 3 4 5 6 
#
# 1 82.6315 6.4223 -5.9098 0.0000 0.0000 0.0000
# 2 6.4223 108.7250 11.1029 0.0000 0.0000 0.0000
# 3 -5.9098 11.1029 163.2617 0.0000 0.0000 0.0000
# 4 0.0000 0.0000 0.0000 40.5485 0.0000 0.0000
# 5 0.0000 0.0000 0.0000 0.0000 75.6548 0.0000
# 6 0.0000 0.0000 0.0000 0.0000 0.0000 18.6439
#
#
#
# Elastic Compliance Matrix: (Units=1/GPa)
#
#
# Indices 1 2 3 4 5 6 
#
# 1 0.012197 -0.000771 0.000494 0.000000 0.000000 0.000000
# 2 -0.000771 0.009311 -0.000661 0.000000 0.000000 0.000000
# 3 0.000494 -0.000661 0.006188 0.000000 0.000000 0.000000
# 4 0.000000 0.000000 0.000000 0.024662 0.000000 0.000000
# 5 0.000000 0.000000 0.000000 0.000000 0.013218 0.000000
# 6 0.000000 0.000000 0.000000 0.000000 0.000000 0.053637
#
#
# Mechanical properties :
#
#
# Convention : Reuss Voigt Hill
#
# Bulk Modulus (GPa) = 38.73030 41.98323 40.35676
# Shear Modulus (GPa) = 38.55202 49.83630 44.19416
#
# Velocity S-wave (km/s) = 3.88895 4.42162 4.16381
# Velocity P-wave (km/s) = 5.94635 6.52208 6.24086
#
# Compressibility (1/GPa) = 0.02581958
#
# Stress axis : x y z
#
# Youngs Moduli (GPa) = 81.98629 107.40489 161.60379
#
# Poissons Ratio (x) = 0.08280 -0.07982
# Poissons Ratio (y) = 0.06320 0.10683
# Poissons Ratio (z) = -0.04050 0.07100
#
# Static dielectric constant tensor:
#      x y z
#    x 1.746410 0.000000 0.000000 
#    y 0.000000 -2.172630 0.000000 
#    z 0.000000 0.000000 2.106060 
# 
# From -- ./inp_files/1642.got.cif
#   From: 2010.05.17/outbox.cif.g08.bks.cpg/sg32_1_cif.got.tgz:1642.got - 2010.06.03 17:12:27.
