data_PCOD9343620
_publ_section_title
;
Structure prediction by ZEFSAII (Michael W. Deem and Ramdas Pophale) SiO2 
 PCOD9343620
Probable space group: P M N 21
;
_chemical_formula_sum "Si O2"
_cell_formula_units_Z 32
_cell_length_a 9.000000
_cell_length_b 15.000000
_cell_length_c 12.000000
_cell_angle_alpha 90.000000
_cell_angle_beta 90.000000
_cell_angle_gamma 90.000000
_cell_volume 1620.000000
_symmetry_space_group_name_H-M "P M N 21"
_symmetry_group_IT_number 31
_symmetry_cell_setting 'orthorhombic'
loop_
_space_group_symop_operation_xyz
x,y,z
1/2-x,-y,1/2+z
-x,y,z
1/2+x,-y,1/2+z
loop_
_atom_site_type_symbol
_atom_site_label
_atom_site_fract_x
_atom_site_fract_y
_atom_site_fract_z
Si Si1 0.668425 0.157459 0.664730
Si Si2 0.320440 0.075677 0.433950
Si Si3 0.678581 0.769466 0.805076
Si Si4 0.323379 0.568634 0.389579
Si Si5 0.676392 0.601695 0.956005
Si Si6 0.667925 0.366087 0.678042
Si Si7 0.321749 0.873855 0.396200
Si Si8 0.819128 0.283456 0.058867
O O1 0.500000 0.124001 0.684728
O O2 0.728284 0.113017 0.553409
O O3 0.660063 0.262667 0.646655
O O4 0.765724 0.142189 0.772514
O O5 0.500000 0.082092 0.428143
O O6 0.251778 0.137568 0.338748
O O7 0.275669 0.973248 0.427859
O O8 0.500000 0.779836 0.801775
O O9 0.713749 0.695473 0.898262
O O10 0.728718 0.732750 0.685100
O O11 0.500000 0.553923 0.392716
O O12 0.233709 0.477568 0.378938
O O13 0.275840 0.625307 0.282713
O O14 0.276112 0.624882 0.498527
O O15 0.500000 0.598283 0.972505
O O16 0.762410 0.587280 0.071170
O O17 0.500000 0.397308 0.702951
O O18 0.500000 0.870163 0.398808
O O19 0.267249 0.798065 0.480915
O O20 0.000000 0.283143 0.058826
#
# Coordination Sequence:
#
# PCOD9343620 Si02
#       8
#     4   4   4   4   4   4   4   4
#     4  10  21  38  61  86 117 154 199 251 300 349
#     4  10  22  39  59  88 120 155 196 246 300 352
#     4  10  22  40  62  85 117 159 198 242 294 357
#     4  11  23  40  64  90 120 159 201 251 305 361
#     4  11  24  40  61  92 123 156 203 252 301 364
#     4  11  22  40  64  87 119 160 203 254 304 358
#     4  10  21  38  61  86 118 156 199 245 295 357
#     4   9  20  39  60  84 116 157 197 237 293 354
#
# _framework density 19.753086
#
# number of rings (size 3 to 8) (size 9 to 14) (size 15 to 20)
#    0.000    1.750    2.500    1.125    3.500    2.000 
#    0.000    1.875    0.000    0.000    0.000    0.000 
#    0.000    0.000    0.000    0.000    0.000    0.000 
#
# Total GULP energy -178567.138249 kJ/mol
# GULP energy per Si atom -5580.223070 kJ/mol
# Density = 1.970813 g / cm^3
# Si number density = 19.753086 Si / 1000 Ang^3
#
#
#
# Elastic Constant Matrix: (Units=GPa)
#
#
# Indices 1 2 3 4 5 6 
#
# 1 -9.7076 9.9755 -8.9688 0.0000 0.0000 0.0000
# 2 9.9755 63.0743 -4.2345 0.0000 0.0000 0.0000
# 3 -8.9688 -4.2345 53.9668 0.0000 0.0000 0.0000
# 4 0.0000 0.0000 0.0000 18.7542 0.0000 0.0000
# 5 0.0000 0.0000 0.0000 0.0000 66.3579 0.0000
# 6 0.0000 0.0000 0.0000 0.0000 0.0000 22.6199
#
#
#
# Elastic Compliance Matrix: (Units=1/GPa)
#
#
# Indices 1 2 3 4 5 6 
#
# 1 -0.079565 0.011758 -0.012300 0.000000 0.000000 0.000000
# 2 0.011758 0.014201 0.003068 0.000000 0.000000 0.000000
# 3 -0.012300 0.003068 0.016726 0.000000 0.000000 0.000000
# 4 0.000000 0.000000 0.000000 0.053321 0.000000 0.000000
# 5 0.000000 0.000000 0.000000 0.000000 0.015070 0.000000
# 6 0.000000 0.000000 0.000000 0.000000 0.000000 0.044209
#
#
# Mechanical properties :
#
#
# Convention : Reuss Voigt Hill
#
# Bulk Modulus (GPa) = -22.94290 11.20867 -5.86712
# Shear Modulus (GPa) = 112.65876 28.91713 70.78794
#
# Velocity S-wave (km/s) = 7.56025 3.83028 5.99285
# Velocity P-wave (km/s) = 8.03553 5.02475 6.70141
#
# Compressibility (1/GPa) = -0.04358646
#
# Stress axis : x y z
#
# Youngs Moduli (GPa) = -12.56831 70.41886 59.78559
#
# Poissons Ratio (x) = -0.82798 0.73539
# Poissons Ratio (y) = 0.14778 -0.18344
# Poissons Ratio (z) = -0.15460 -0.21607
#
# Static dielectric constant tensor:
#      x y z
#    x 1.520110 0.000000 0.000000 
#    y 0.000000 1.740650 0.000000 
#    z 0.000000 0.000000 1.690380 
# 
# From -- ./inp_files/3604.got.cif
#   From: 2010.05.17/outbox.ucp.g08.bks.cvg/sg31_2_cif.got.tgz:3604.got - 2010.06.11 10:34:26.
