data_PCOD9343880
_publ_section_title
;
Structure prediction by ZEFSAII (Michael W. Deem and Ramdas Pophale) SiO2 
 PCOD9343880
Probable space group: P B A 2
;
_chemical_formula_sum "Si O2"
_cell_formula_units_Z 30
_cell_length_a 9.154637
_cell_length_b 12.424385
_cell_length_c 13.980107
_cell_angle_alpha 90.000000
_cell_angle_beta 90.000000
_cell_angle_gamma 90.000000
_cell_volume 1590.107640
_symmetry_space_group_name_H-M "P B A 2"
_symmetry_group_IT_number 32
_symmetry_cell_setting 'orthorhombic'
loop_
_space_group_symop_operation_xyz
x,y,z
-x,-y,z
1/2-x,1/2+y,z
1/2+x,1/2-y,z
loop_
_atom_site_type_symbol
_atom_site_label
_atom_site_fract_x
_atom_site_fract_y
_atom_site_fract_z
Si Si1 0.000000 0.500000 0.871220
Si Si2 0.007081 0.129706 0.274863
Si Si3 0.149262 0.444955 0.569770
Si Si4 0.994120 0.620438 0.057241
Si Si5 0.979003 0.758389 0.675974
Si Si6 0.756799 0.253809 0.159239
Si Si7 0.930334 0.117179 0.485050
Si Si8 0.226708 0.604720 0.734021
O O1 0.143988 0.527182 0.809288
O O2 0.022465 0.400412 0.943921
O O3 0.157318 0.173007 0.229078
O O4 0.871453 0.181010 0.217589
O O5 0.988113 0.163572 0.385594
O O6 0.000000 0.000000 0.270562
O O7 0.112660 0.345459 0.639901
O O8 0.256420 0.402447 0.488434
O O9 0.223699 0.537207 0.634988
O O10 0.000000 0.500000 0.534658
O O11 0.858339 0.683213 0.100420
O O12 0.000000 0.500000 0.099418
O O13 0.143597 0.677718 0.086828
O O14 0.886332 0.842149 0.739478
O O15 0.029067 0.814729 0.577939
O O16 0.117652 0.706281 0.726845
O O17 0.000000 0.000000 0.495154
#
# Coordination Sequence:
#
# PCOD9343880 Si02
#       8
#     2   4   4   4   4   4   4   4
#     4  10  22  40  60  90 120 146 206 256 306 368
#     4  10  23  38  62  91 127 152 210 258 286 380
#     4  10  21  38  56  81 122 168 198 245 301 350
#     4   9  21  39  66  87 121 152 197 258 312 382
#     4  11  21  34  61  78 121 167 193 240 297 351
#     4  10  20  42  65  88 117 167 194 244 338 364
#     4  11  22  37  56  91 121 161 209 245 285 350
#     4  11  21  38  58  84 117 158 201 250 299 354
#
# _framework density 18.866647
#
# number of rings (size 3 to 8) (size 9 to 14) (size 15 to 20)
#    0.400    1.333    4.667    0.800    1.867    1.067 
#    2.400    0.667    0.000    3.200    0.000    0.000 
#    0.000    0.000    0.000    0.000    0.000    0.000 
#
# Total GULP energy -167201.340340 kJ/mol
# GULP energy per Si atom -5573.378011 kJ/mol
# Density = 1.882371 g / cm^3
# Si number density = 18.866647 Si / 1000 Ang^3
#
#
#
# Elastic Constant Matrix: (Units=GPa)
#
#
# Indices 1 2 3 4 5 6 
#
# 1 101.0103 39.1774 40.2359 0.0000 0.0000 0.0000
# 2 39.1774 73.4957 26.8388 0.0000 0.0000 0.0000
# 3 40.2359 26.8388 90.4966 0.0000 0.0000 0.0000
# 4 0.0000 0.0000 0.0000 56.7135 0.0000 0.0000
# 5 0.0000 0.0000 0.0000 0.0000 27.1903 0.0000
# 6 0.0000 0.0000 0.0000 0.0000 0.0000 28.5562
#
#
#
# Elastic Compliance Matrix: (Units=1/GPa)
#
#
# Indices 1 2 3 4 5 6 
#
# 1 0.013929 -0.005790 -0.004476 0.000000 0.000000 0.000000
# 2 -0.005790 0.017666 -0.002665 0.000000 0.000000 0.000000
# 3 -0.004476 -0.002665 0.013830 0.000000 0.000000 0.000000
# 4 0.000000 0.000000 0.000000 0.017632 0.000000 0.000000
# 5 0.000000 0.000000 0.000000 0.000000 0.036778 0.000000
# 6 0.000000 0.000000 0.000000 0.000000 0.000000 0.035019
#
#
# Mechanical properties :
#
#
# Convention : Reuss Voigt Hill
#
# Bulk Modulus (GPa) = 51.11568 53.05631 52.08599
# Shear Modulus (GPa) = 29.89781 33.07536 31.48659
#
# Velocity S-wave (km/s) = 3.98514 4.19156 4.08965
# Velocity P-wave (km/s) = 6.95177 7.18390 7.06878
#
# Compressibility (1/GPa) = 0.01956347
#
# Stress axis : x y z
#
# Youngs Moduli (GPa) = 71.79488 56.60613 72.30494
#
# Poissons Ratio (x) = 0.32777 0.32360
# Poissons Ratio (y) = 0.41572 0.19268
# Poissons Ratio (z) = 0.32132 0.15084
#
# Static dielectric constant tensor:
#      x y z
#    x 1.719830 0.000000 0.000000 
#    y 0.000000 1.649480 0.000000 
#    z 0.000000 0.000000 1.657820 
# 
# From -- ./inp_files/4124.got.cif
#   From: 2010.05.17/outbox.cif.g08.bks.cpg/sg32_3_cif.got.tgz:4124.got - 2010.06.03 17:12:27.
