data_PCOD9343665
_publ_section_title
;
Structure prediction by ZEFSAII (Michael W. Deem and Ramdas Pophale) SiO2 
 PCOD9343665
Probable space group: P B A 2
;
_chemical_formula_sum "Si O2"
_cell_formula_units_Z 24
_cell_length_a 18.674205
_cell_length_b 5.488326
_cell_length_c 10.850017
_cell_angle_alpha 90.000000
_cell_angle_beta 90.000000
_cell_angle_gamma 90.000000
_cell_volume 1112.019597
_symmetry_space_group_name_H-M "P B A 2"
_symmetry_group_IT_number 32
_symmetry_cell_setting 'orthorhombic'
loop_
_space_group_symop_operation_xyz
x,y,z
-x,-y,z
1/2-x,1/2+y,z
1/2+x,1/2-y,z
loop_
_atom_site_type_symbol
_atom_site_label
_atom_site_fract_x
_atom_site_fract_y
_atom_site_fract_z
Si Si1 0.341523 0.282192 0.034450
Si Si2 0.165047 0.445110 0.660096
Si Si3 0.171169 0.944572 0.756117
Si Si4 0.203116 0.396969 0.382903
Si Si5 0.001625 0.250890 0.960789
Si Si6 0.142116 0.282570 0.130188
O O1 0.427737 0.253088 0.036113
O O2 0.326193 0.508727 0.124171
O O3 0.317729 0.004393 0.058678
O O4 0.322348 0.375457 0.898775
O O5 0.134456 0.710438 0.693169
O O6 0.249161 0.468522 0.699112
O O7 0.164923 0.392093 0.515494
O O8 0.137112 0.210283 0.734833
O O9 0.244948 0.657540 0.376326
O O10 0.147415 0.370274 0.270416
O O11 0.067197 0.256169 0.056961
O O12 0.000000 0.500000 0.886772
O O13 0.000000 0.000000 0.887833
#
# Coordination Sequence:
#
# PCOD9343665 Si02
#       6
#     4   4   4   4   4   4
#     4  10  19  35  54  84 107 139 177 226 280 329
#     4  10  19  35  51  71 106 147 186 213 258 307
#     4  10  18  33  53  73 105 144 176 219 261 318
#     4  12  21  38  54  74 114 153 182 225 259 321
#     4   8  16  32  54  74 104 133 175 216 270 324
#     4  10  21  35  52  84 108 144 178 223 278 325
#
# _framework density 21.582352
#
# number of rings (size 3 to 8) (size 9 to 14) (size 15 to 20)
#    0.000    2.000    3.333    2.000    0.000    0.000 
#   18.000    0.000    0.000    0.000    0.000   63.000 
#    0.000    0.000    0.000    0.000    0.000    0.000 
#
# Total GULP energy -133697.050849 kJ/mol
# GULP energy per Si atom -5570.710452 kJ/mol
# Density = 2.153323 g / cm^3
# Si number density = 21.582352 Si / 1000 Ang^3
#
#
#
# Elastic Constant Matrix: (Units=GPa)
#
#
# Indices 1 2 3 4 5 6 
#
# 1 60.8589 -9.0370 -11.4537 0.0000 0.0000 0.0000
# 2 -9.0370 210.9629 -7.6171 0.0000 0.0000 0.0000
# 3 -11.4537 -7.6171 83.9381 0.0000 0.0000 0.0000
# 4 0.0000 0.0000 0.0000 36.2258 0.0000 0.0000
# 5 0.0000 0.0000 0.0000 0.0000 20.8519 0.0000
# 6 0.0000 0.0000 0.0000 0.0000 0.0000 -15.5361
#
#
#
# Elastic Compliance Matrix: (Units=1/GPa)
#
#
# Indices 1 2 3 4 5 6 
#
# 1 0.017003 0.000815 0.002394 0.000000 0.000000 0.000000
# 2 0.000815 0.004795 0.000546 0.000000 0.000000 0.000000
# 3 0.002394 0.000546 0.012290 0.000000 0.000000 0.000000
# 4 0.000000 0.000000 0.000000 0.027605 0.000000 0.000000
# 5 0.000000 0.000000 0.000000 0.000000 0.047957 0.000000
# 6 0.000000 0.000000 0.000000 0.000000 0.000000 -0.064366
#
#
# Mechanical properties :
#
#
# Convention : Reuss Voigt Hill
#
# Bulk Modulus (GPa) = 24.03967 33.28270 28.66118
# Shear Modulus (GPa) = 96.82639 33.89952 65.36295
#
# Velocity S-wave (km/s) = 6.70530 3.96751 5.50918
# Velocity P-wave (km/s) = 8.43273 6.03680 7.33327
#
# Compressibility (1/GPa) = 0.04159792
#
# Stress axis : x y z
#
# Youngs Moduli (GPa) = 58.81309 208.55936 81.36837
#
# Poissons Ratio (x) = -0.16993 -0.19480
# Poissons Ratio (y) = -0.04792 -0.04445
# Poissons Ratio (z) = -0.14080 -0.11394
#
# Static dielectric constant tensor:
#      x y z
#    x 1.837040 0.000000 0.000000 
#    y 0.000000 1.951330 0.000000 
#    z 0.000000 0.000000 1.749910 
# 
# From -- ./inp_files/1965.got.cif
#   From: 2010.05.17/outbox.cif.g08.bks.cpg/sg32_1_cif.got.tgz:1965.got - 2010.06.03 17:12:27.
