data_PCOD9343842
_publ_section_title
;
Structure prediction by ZEFSAII (Michael W. Deem and Ramdas Pophale) SiO2 
 PCOD9343842
Probable space group: P B A 2
;
_chemical_formula_sum "Si O2"
_cell_formula_units_Z 32
_cell_length_a 8.035422
_cell_length_b 14.481631
_cell_length_c 11.457900
_cell_angle_alpha 90.000000
_cell_angle_beta 90.000000
_cell_angle_gamma 90.000000
_cell_volume 1333.310179
_symmetry_space_group_name_H-M "P B A 2"
_symmetry_group_IT_number 32
_symmetry_cell_setting 'orthorhombic'
loop_
_space_group_symop_operation_xyz
x,y,z
-x,-y,z
1/2-x,1/2+y,z
1/2+x,1/2-y,z
loop_
_atom_site_type_symbol
_atom_site_label
_atom_site_fract_x
_atom_site_fract_y
_atom_site_fract_z
Si Si1 0.819973 0.598550 0.395220
Si Si2 0.975107 0.242711 0.404704
Si Si3 0.036442 0.266030 0.664174
Si Si4 0.816821 0.541977 0.647034
Si Si5 0.262429 0.627808 0.767403
Si Si6 0.514151 0.280311 0.138312
Si Si7 0.828738 0.379672 0.028552
Si Si8 0.815152 0.045990 0.153148
O O1 0.002782 0.645500 0.401286
O O2 0.699197 0.688617 0.401540
O O3 0.784277 0.538873 0.509126
O O4 0.775653 0.547337 0.277525
O O5 0.042677 0.221276 0.534901
O O6 0.049155 0.215081 0.277606
O O7 0.168359 0.350219 0.675608
O O8 0.073208 0.190053 0.761806
O O9 0.860714 0.317502 0.679544
O O10 0.703216 0.474858 0.721863
O O11 0.000000 0.500000 0.668443
O O12 0.167816 0.625283 0.889719
O O13 0.663262 0.325403 0.068586
O O14 0.470796 0.177718 0.095041
O O15 0.356890 0.348910 0.118691
O O16 0.795412 0.484505 0.067492
O O17 0.000000 0.000000 0.164275
#
# Coordination Sequence:
#
# PCOD9343842 Si02
#       8
#     4   4   4   4   4   4   4   4
#     4  10  20  38  64  94 126 158 198 254 314 372
#     4  10  20  38  64  94 122 152 198 252 312 370
#     4  10  21  40  63  89 120 156 201 256 308 358
#     4   9  21  38  58  87 122 157 198 251 306 364
#     4  11  23  40  61  86 120 164 208 250 299 360
#     4  10  21  40  63  89 120 156 201 256 308 358
#     4  11  23  40  61  86 120 164 208 250 299 360
#     4   9  21  38  58  87 122 157 198 251 306 364
#
# _framework density 24.000416999999999
#
# number of rings (size 3 to 8) (size 9 to 14) (size 15 to 20)
#    0.000    2.000    0.000    3.750    0.000    7.000 
#    0.000   13.750    0.000    0.000    0.000    0.000 
#    0.000    0.000    0.000    0.000    0.000    0.000 
#
# Total GULP energy -178675.957835 kJ/mol
# GULP energy per Si atom -5583.623682 kJ/mol
# Density = 2.394579 g / cm^3
# Si number density = 24.000417 Si / 1000 Ang^3
#
#
#
# Elastic Constant Matrix: (Units=GPa)
#
#
# Indices 1 2 3 4 5 6 
#
# 1 41.0952 19.6059 10.9643 0.0000 0.0000 0.0000
# 2 19.6059 108.7047 32.6271 0.0000 0.0000 0.0000
# 3 10.9643 32.6271 104.1428 0.0000 0.0000 0.0000
# 4 0.0000 0.0000 0.0000 15.2898 0.0000 0.0000
# 5 0.0000 0.0000 0.0000 0.0000 21.0900 0.0000
# 6 0.0000 0.0000 0.0000 0.0000 0.0000 27.5333
#
#
#
# Elastic Compliance Matrix: (Units=1/GPa)
#
#
# Indices 1 2 3 4 5 6 
#
# 1 0.026820 -0.004404 -0.001444 0.000000 0.000000 0.000000
# 2 -0.004404 0.010877 -0.002944 0.000000 0.000000 0.000000
# 3 -0.001444 -0.002944 0.010677 0.000000 0.000000 0.000000
# 4 0.000000 0.000000 0.000000 0.065403 0.000000 0.000000
# 5 0.000000 0.000000 0.000000 0.000000 0.047416 0.000000
# 6 0.000000 0.000000 0.000000 0.000000 0.000000 0.036320
#
#
# Mechanical properties :
#
#
# Convention : Reuss Voigt Hill
#
# Bulk Modulus (GPa) = 32.47814 42.25972 37.36893
# Shear Modulus (GPa) = 22.18679 25.49898 23.84289
#
# Velocity S-wave (km/s) = 3.04375 3.26304 3.15530
# Velocity P-wave (km/s) = 5.09060 5.64294 5.37387
#
# Compressibility (1/GPa) = 0.03078995
#
# Stress axis : x y z
#
# Youngs Moduli (GPa) = 37.28564 91.93581 93.66293
#
# Poissons Ratio (x) = 0.40487 0.13525
# Poissons Ratio (y) = 0.16420 0.27575
# Poissons Ratio (z) = 0.05384 0.27067
#
# Static dielectric constant tensor:
#      x y z
#    x 2.015090 0.000000 0.000000 
#    y 0.000000 1.949280 0.000000 
#    z 0.000000 0.000000 1.863890 
# 
# From -- ./inp_files/3759.got.cif
#   From: 2010.05.17/outbox.cif.g08.bks.cpg/sg32_2_cif.got.tgz:3759.got - 2010.06.03 17:12:27.
