data_PCOD9343714
_publ_section_title
;
Structure prediction by ZEFSAII (Michael W. Deem and Ramdas Pophale) SiO2 
 PCOD9343714
Probable space group: P B A 2
;
_chemical_formula_sum "Si O2"
_cell_formula_units_Z 26
_cell_length_a 12.555897
_cell_length_b 13.708127
_cell_length_c 5.373016
_cell_angle_alpha 90.000000
_cell_angle_beta 90.000000
_cell_angle_gamma 90.000000
_cell_volume 924.791858
_symmetry_space_group_name_H-M "P B A 2"
_symmetry_group_IT_number 32
_symmetry_cell_setting 'orthorhombic'
loop_
_space_group_symop_operation_xyz
x,y,z
-x,-y,z
1/2-x,1/2+y,z
1/2+x,1/2-y,z
loop_
_atom_site_type_symbol
_atom_site_label
_atom_site_fract_x
_atom_site_fract_y
_atom_site_fract_z
Si Si1 0.189676 0.043125 0.629460
Si Si2 0.752465 0.689621 0.243349
Si Si3 0.000000 0.000000 0.881004
Si Si4 0.802593 0.415002 0.129121
Si Si5 0.911486 0.735484 0.617642
Si Si6 0.036510 0.375631 0.980930
Si Si7 0.517203 0.678815 0.143496
O O1 0.253683 0.035761 0.373834
O O2 0.126800 0.146573 0.634888
O O3 0.095160 0.967524 0.699399
O O4 0.265845 0.044444 0.865768
O O5 0.737047 0.801698 0.144773
O O6 0.789561 0.701005 0.526166
O O7 0.638124 0.648442 0.176224
O O8 0.849941 0.634857 0.108326
O O9 0.042000 0.081292 0.072763
O O10 0.931658 0.416345 0.103049
O O11 0.947663 0.617681 0.690203
O O12 0.986320 0.755748 0.375026
O O13 0.014361 0.254044 0.916150
#
# Coordination Sequence:
#
# PCOD9343714 Si02
#       7
#     4   4   2   4   4   4   4
#     4  11  22  39  57  89 125 171 211 254 318 384
#     4   9  19  34  55  90 125 161 204 266 326 383
#     4  12  22  42  62  86 136 178 222 264 318 414
#     4  10  22  35  60  89 126 159 208 266 325 379
#     4  10  19  34  58  89 128 163 210 265 335 386
#     4  10  19  36  60  89 126 160 207 273 332 383
#     4  10  22  36  57  93 126 172 210 265 323 391
#
# _framework density 28.114433999999999
#
# number of rings (size 3 to 8) (size 9 to 14) (size 15 to 20)
#    0.000    1.846    3.077    1.846    8.615    2.462 
#    0.000    0.000    0.000    0.923    0.000    4.308 
#    0.000    0.000    0.000    0.000    0.000    0.000 
#
# Total GULP energy -144908.295162 kJ/mol
# GULP energy per Si atom -5573.395968 kJ/mol
# Density = 2.805044 g / cm^3
# Si number density = 28.114434 Si / 1000 Ang^3
#
#
#
# Elastic Constant Matrix: (Units=GPa)
#
#
# Indices 1 2 3 4 5 6 
#
# 1 197.7717 28.3534 83.4696 0.0000 0.0000 0.0000
# 2 28.3534 51.0450 21.6877 0.0000 0.0000 0.0000
# 3 83.4696 21.6877 175.1146 0.0000 0.0000 0.0000
# 4 0.0000 0.0000 0.0000 31.3562 0.0000 0.0000
# 5 0.0000 0.0000 0.0000 0.0000 46.7435 0.0000
# 6 0.0000 0.0000 0.0000 0.0000 0.0000 57.9037
#
#
#
# Elastic Compliance Matrix: (Units=1/GPa)
#
#
# Indices 1 2 3 4 5 6 
#
# 1 0.006611 -0.002463 -0.002846 0.000000 0.000000 0.000000
# 2 -0.002463 0.021596 -0.001501 0.000000 0.000000 0.000000
# 3 -0.002846 -0.001501 0.007253 0.000000 0.000000 0.000000
# 4 0.000000 0.000000 0.000000 0.031892 0.000000 0.000000
# 5 0.000000 0.000000 0.000000 0.000000 0.021393 0.000000
# 6 0.000000 0.000000 0.000000 0.000000 0.000000 0.017270
#
#
# Mechanical properties :
#
#
# Convention : Reuss Voigt Hill
#
# Bulk Modulus (GPa) = 45.78602 76.77250 61.27926
# Shear Modulus (GPa) = 39.39684 46.56206 42.97945
#
# Velocity S-wave (km/s) = 3.74746 4.07401 3.91414
# Velocity P-wave (km/s) = 5.91993 7.03538 6.50162
#
# Compressibility (1/GPa) = 0.02184073
#
# Stress axis : x y z
#
# Youngs Moduli (GPa) = 151.27373 46.30463 137.87475
#
# Poissons Ratio (x) = 0.11403 0.39239
# Poissons Ratio (y) = 0.37254 0.20692
# Poissons Ratio (z) = 0.43052 0.06949
#
# Static dielectric constant tensor:
#      x y z
#    x 2.244810 0.000000 0.000000 
#    y 0.000000 2.641180 0.000000 
#    z 0.000000 0.000000 2.282890 
# 
# From -- ./inp_files/925.got.cif
#   From: 2010.05.17/outbox.cif.g08.bks.cpg/sg32_1_cif.got.tgz:925.got - 2010.06.03 17:12:27.
