data_PCOD9343260
_publ_section_title
;
Structure prediction by ZEFSAII (Michael W. Deem and Ramdas Pophale) SiO2 
 PCOD9343260
Probable space group: P M N 21
;
_chemical_formula_sum "Si O2"
_cell_formula_units_Z 32
_cell_length_a 7.529826
_cell_length_b 15.600179
_cell_length_c 12.490149
_cell_angle_alpha 90.000000
_cell_angle_beta 90.000000
_cell_angle_gamma 90.000000
_cell_volume 1467.175754
_symmetry_space_group_name_H-M "P M N 21"
_symmetry_group_IT_number 31
_symmetry_cell_setting 'orthorhombic'
loop_
_space_group_symop_operation_xyz
x,y,z
1/2-x,-y,1/2+z
-x,y,z
1/2+x,-y,1/2+z
loop_
_atom_site_type_symbol
_atom_site_label
_atom_site_fract_x
_atom_site_fract_y
_atom_site_fract_z
Si Si1 0.289623 0.746572 0.530280
Si Si2 0.282431 0.751129 0.774923
Si Si3 0.285329 0.105099 0.862643
Si Si4 0.713426 0.914843 0.914025
Si Si5 0.209879 0.387154 0.858519
Si Si6 0.297465 0.644334 0.125892
Si Si7 0.784688 0.417549 0.405226
Si Si8 0.709906 0.168137 0.631005
O O1 0.500000 0.732108 0.543416
O O2 0.220870 0.753903 0.651450
O O3 0.265394 0.831827 0.459154
O O4 0.216814 0.668116 0.457731
O O5 0.500000 0.752571 0.776164
O O6 0.222939 0.834239 0.842902
O O7 0.227082 0.662214 0.831674
O O8 0.500000 0.103420 0.859311
O O9 0.223825 0.141312 0.748063
O O10 0.221604 0.007957 0.877747
O O11 0.500000 0.915357 0.904629
O O12 0.758874 0.900131 0.038065
O O13 0.286456 0.361048 0.743052
O O14 0.232109 0.488438 0.868213
O O15 0.000000 0.366069 0.856082
O O16 0.500000 0.612483 0.136555
O O17 0.299378 0.743837 0.094826
O O18 0.215910 0.595229 0.026182
O O19 0.000000 0.413866 0.407669
O O20 0.500000 0.184135 0.638355
#
# Coordination Sequence:
#
# PCOD9343260 Si02
#       8
#     4   4   4   4   4   4   4   4
#     4  10  21  38  61  84 113 153 192 232 280 342
#     4   9  19  37  60  83 110 150 194 229 276 344
#     4  10  23  39  58  87 118 151 189 236 289 337
#     4  10  21  40  61  81 116 157 189 229 287 349
#     4  10  22  37  56  85 115 146 190 238 285 336
#     4  10  20  39  61  81 110 155 197 232 288 353
#     4  10  21  37  59  82 109 150 193 231 283 344
#     4  11  22  37  60  89 115 144 194 249 286 329
#
# _framework density 21.810608999999999
#
# number of rings (size 3 to 8) (size 9 to 14) (size 15 to 20)
#    0.000    2.000    2.500    0.375    3.500    2.500 
#    0.000    1.250    0.000    0.000    0.000    0.000 
#    0.000    0.000    0.000    0.000    0.000    0.000 
#
# Total GULP energy -178731.409840 kJ/mol
# GULP energy per Si atom -5585.356557 kJ/mol
# Density = 2.176097 g / cm^3
# Si number density = 21.810609 Si / 1000 Ang^3
#
#
#
# Elastic Constant Matrix: (Units=GPa)
#
#
# Indices 1 2 3 4 5 6 
#
# 1 55.4744 -10.6974 1.8601 0.0000 0.0000 0.0000
# 2 -10.6974 109.0227 36.0400 0.0000 0.0000 0.0000
# 3 1.8601 36.0400 138.5715 0.0000 0.0000 0.0000
# 4 0.0000 0.0000 0.0000 35.0209 0.0000 0.0000
# 5 0.0000 0.0000 0.0000 0.0000 0.9709 0.0000
# 6 0.0000 0.0000 0.0000 0.0000 0.0000 63.9434
#
#
#
# Elastic Compliance Matrix: (Units=1/GPa)
#
#
# Indices 1 2 3 4 5 6 
#
# 1 0.018452 0.002070 -0.000786 0.000000 0.000000 0.000000
# 2 0.002070 0.010267 -0.002698 0.000000 0.000000 0.000000
# 3 -0.000786 -0.002698 0.007929 0.000000 0.000000 0.000000
# 4 0.000000 0.000000 0.000000 0.028554 0.000000 0.000000
# 5 0.000000 0.000000 0.000000 0.000000 1.030002 0.000000
# 6 0.000000 0.000000 0.000000 0.000000 0.000000 0.015639
#
#
# Mechanical properties :
#
#
# Convention : Reuss Voigt Hill
#
# Bulk Modulus (GPa) = 29.56799 39.71933 34.64366
# Shear Modulus (GPa) = 4.44466 38.37810 21.41138
#
# Velocity S-wave (km/s) = 1.42908 4.19932 3.13660
# Velocity P-wave (km/s) = 4.03846 6.46242 5.38851
#
# Compressibility (1/GPa) = 0.03382035
#
# Stress axis : x y z
#
# Youngs Moduli (GPa) = 54.19482 97.39472 126.12253
#
# Poissons Ratio (x) = -0.20165 0.09915
# Poissons Ratio (y) = -0.11221 0.34030
# Poissons Ratio (z) = 0.04261 0.26279
#
# Static dielectric constant tensor:
#      x y z
#    x 1.836610 0.000000 0.000000 
#    y 0.000000 1.746920 0.000000 
#    z 0.000000 0.000000 1.786760 
# 
# From -- ./inp_files/3608.got.cif
#   From: 2010.05.17/outbox.cif.g08.bks.cpg/sg31_2_cif.got.tgz:3608.got - 2010.06.03 17:08:30.
