data_PCOD9343556
_publ_section_title
;
Structure prediction by ZEFSAII (Michael W. Deem and Ramdas Pophale) SiO2 
 PCOD9343556
Probable space group: P M N 21
;
_chemical_formula_sum "Si O2"
_cell_formula_units_Z 32
_cell_length_a 8.579946
_cell_length_b 14.719700
_cell_length_c 12.468668
_cell_angle_alpha 90.000000
_cell_angle_beta 90.000000
_cell_angle_gamma 90.000000
_cell_volume 1574.720838
_symmetry_space_group_name_H-M "P M N 21"
_symmetry_group_IT_number 31
_symmetry_cell_setting 'orthorhombic'
loop_
_space_group_symop_operation_xyz
x,y,z
1/2-x,-y,1/2+z
-x,y,z
1/2+x,-y,1/2+z
loop_
_atom_site_type_symbol
_atom_site_label
_atom_site_fract_x
_atom_site_fract_y
_atom_site_fract_z
Si Si1 0.816992 0.659173 0.918960
Si Si2 0.322452 0.147274 0.681286
Si Si3 0.311083 0.238010 0.012066
Si Si4 0.182637 0.362157 0.188169
Si Si5 0.318265 0.542675 0.114455
Si Si6 0.318684 0.854347 0.958287
Si Si7 0.321527 0.341125 0.798548
Si Si8 0.688726 0.053407 0.900508
O O1 0.767378 0.625042 0.801882
O O2 0.000000 0.648053 0.936458
O O3 0.730426 0.607247 0.015727
O O4 0.772469 0.765553 0.920802
O O5 0.500000 0.126555 0.644151
O O6 0.201585 0.143744 0.586091
O O7 0.327617 0.247765 0.730992
O O8 0.279349 0.082164 0.778945
O O9 0.500000 0.237866 0.015400
O O10 0.244519 0.275139 0.122801
O O11 0.267817 0.308182 0.915825
O O12 0.258472 0.136690 0.976772
O O13 0.220953 0.450130 0.116521
O O14 0.000000 0.353786 0.207362
O O15 0.500000 0.521101 0.106099
O O16 0.281324 0.592153 0.227528
O O17 0.500000 0.845236 0.927417
O O18 0.254953 0.951949 0.921323
O O19 0.500000 0.376696 0.806529
O O20 0.500000 0.051349 0.912186
#
# Coordination Sequence:
#
# PCOD9343556 Si02
#       8
#     4   4   4   4   4   4   4   4
#     4  12  26  46  67  92 127 168 217 265 319 381
#     4   9  17  34  57  82 115 161 209 255 311 371
#     4   9  19  40  65  91 127 170 213 258 314 375
#     4  12  27  45  65  93 131 171 212 263 322 382
#     4  12  25  42  66  95 126 162 208 260 319 382
#     4  11  21  36  60  93 128 163 207 264 322 378
#     4   9  18  35  62  89 119 159 206 257 309 367
#     4   8  18  36  60  89 125 168 214 260 314 378
#
# _framework density 20.321064
#
# number of rings (size 3 to 8) (size 9 to 14) (size 15 to 20)
#    0.000    1.750    1.250    5.250    1.750    1.500 
#    0.000    6.875    0.000    0.000    0.000    0.000 
#    0.000    0.000    0.000    0.000    0.000    0.000 
#
# Total GULP energy -178733.101410 kJ/mol
# GULP energy per Si atom -5585.409419 kJ/mol
# Density = 2.027481 g / cm^3
# Si number density = 20.321064 Si / 1000 Ang^3
#
#
#
# Elastic Constant Matrix: (Units=GPa)
#
#
# Indices 1 2 3 4 5 6 
#
# 1 31.3881 -5.2359 -2.5774 0.0000 0.0000 0.0000
# 2 -5.2359 73.6209 23.6335 0.0000 0.0000 0.0000
# 3 -2.5774 23.6335 41.1120 0.0000 0.0000 0.0000
# 4 0.0000 0.0000 0.0000 16.3204 0.0000 0.0000
# 5 0.0000 0.0000 0.0000 0.0000 -11.1515 0.0000
# 6 0.0000 0.0000 0.0000 0.0000 0.0000 24.5027
#
#
#
# Elastic Compliance Matrix: (Units=1/GPa)
#
#
# Indices 1 2 3 4 5 6 
#
# 1 0.032267 0.002018 0.000863 0.000000 0.000000 0.000000
# 2 0.002018 0.016783 -0.009521 0.000000 0.000000 0.000000
# 3 0.000863 -0.009521 0.029851 0.000000 0.000000 0.000000
# 4 0.000000 0.000000 0.000000 0.061273 0.000000 0.000000
# 5 0.000000 0.000000 0.000000 0.000000 -0.089674 0.000000
# 6 0.000000 0.000000 0.000000 0.000000 0.000000 0.040812
#
#
# Mechanical properties :
#
#
# Convention : Reuss Voigt Hill
#
# Bulk Modulus (GPa) = 15.23932 19.75128 17.49530
# Shear Modulus (GPa) = 39.53608 14.62102 27.07855
#
# Velocity S-wave (km/s) = 4.41565 2.68526 3.65435
# Velocity P-wave (km/s) = 5.78903 4.39942 5.14139
#
# Compressibility (1/GPa) = 0.06561973
#
# Stress axis : x y z
#
# Youngs Moduli (GPa) = 30.99172 59.58367 33.49939
#
# Poissons Ratio (x) = -0.12023 -0.02891
# Poissons Ratio (y) = -0.06253 0.31896
# Poissons Ratio (z) = -0.02674 0.56732
#
# Static dielectric constant tensor:
#      x y z
#    x 1.692560 0.000000 0.000000 
#    y 0.000000 1.752070 0.000000 
#    z 0.000000 0.000000 1.722950 
# 
# From -- ./inp_files/3677.got.cif
#   From: 2010.05.17/outbox.cif.g08.bks.cpg/sg31_2_cif.got.tgz:3677.got - 2010.06.03 17:08:30.
