data_PCOD9343005
_publ_section_title
;
Structure prediction by ZEFSAII (Michael W. Deem and Ramdas Pophale) SiO2 
 PCOD9343005
Probable space group: P M N 21
;
_chemical_formula_sum "Si O2"
_cell_formula_units_Z 24
_cell_length_a 8.055591
_cell_length_b 4.925709
_cell_length_c 25.680320
_cell_angle_alpha 90.000000
_cell_angle_beta 90.000000
_cell_angle_gamma 90.000000
_cell_volume 1018.982183
_symmetry_space_group_name_H-M "P M N 21"
_symmetry_group_IT_number 31
_symmetry_cell_setting 'orthorhombic'
loop_
_space_group_symop_operation_xyz
x,y,z
1/2-x,-y,1/2+z
-x,y,z
1/2+x,-y,1/2+z
loop_
_atom_site_type_symbol
_atom_site_label
_atom_site_fract_x
_atom_site_fract_y
_atom_site_fract_z
Si Si1 0.808071 0.388096 0.364800
Si Si2 0.305867 0.912429 0.761764
Si Si3 0.298051 0.861839 0.094298
Si Si4 0.694262 0.587682 0.200506
Si Si5 0.688777 0.899718 0.423565
Si Si6 0.200530 0.637975 0.531094
O O1 0.741131 0.234272 0.313863
O O2 0.718644 0.662294 0.381417
O O3 0.000000 0.458915 0.355034
O O4 0.797550 0.162656 0.410266
O O5 0.500000 0.976056 0.769447
O O6 0.284315 0.686806 0.716943
O O7 0.215389 0.186655 0.745355
O O8 0.500000 0.860689 0.097205
O O9 0.240207 0.733938 0.148385
O O10 0.248176 0.663159 0.047153
O O11 0.249986 0.164088 0.078718
O O12 0.500000 0.520920 0.193176
O O13 0.500000 0.992869 0.422409
O O14 0.729543 0.759226 0.478270
O O15 0.000000 0.642051 0.526714
#
# Coordination Sequence:
#
# PCOD9343005 Si02
#       6
#     4   4   4   4   4   4
#     4  11  24  43  64  85 117 164 207 238 287 365
#     4  11  24  41  61  89 123 158 199 246 297 355
#     4   9  19  35  58  86 114 152 201 242 278 344
#     4  11  22  39  64  92 121 156 201 248 295 348
#     4  12  25  40  61  93 125 150 193 256 309 347
#     4  10  19  36  60  83 114 158 201 236 284 353
#
# _framework density 23.552916
#
# number of rings (size 3 to 8) (size 9 to 14) (size 15 to 20)
#    0.000    1.333    0.000    6.000    0.000   10.667 
#    0.000    5.000    0.000    0.000    0.000    0.000 
#    0.000    0.000    0.000    0.000    0.000    0.000 
#
# Total GULP energy -134375.251185 kJ/mol
# GULP energy per Si atom -5598.968799 kJ/mol
# Density = 2.349931 g / cm^3
# Si number density = 23.552916 Si / 1000 Ang^3
#
#
#
# Elastic Constant Matrix: (Units=GPa)
#
#
# Indices 1 2 3 4 5 6 
#
# 1 35.1249 -2.6245 -2.6357 0.0000 0.0000 0.0000
# 2 -2.6245 88.1692 -9.0821 0.0000 0.0000 0.0000
# 3 -2.6357 -9.0821 63.8711 0.0000 0.0000 0.0000
# 4 0.0000 0.0000 0.0000 37.9662 0.0000 0.0000
# 5 0.0000 0.0000 0.0000 0.0000 16.4708 0.0000
# 6 0.0000 0.0000 0.0000 0.0000 0.0000 224.9883
#
#
#
# Elastic Compliance Matrix: (Units=1/GPa)
#
#
# Indices 1 2 3 4 5 6 
#
# 1 0.028643 0.000989 0.001323 0.000000 0.000000 0.000000
# 2 0.000989 0.011545 0.001682 0.000000 0.000000 0.000000
# 3 0.001323 0.001682 0.015950 0.000000 0.000000 0.000000
# 4 0.000000 0.000000 0.000000 0.026339 0.000000 0.000000
# 5 0.000000 0.000000 0.000000 0.000000 0.060713 0.000000
# 6 0.000000 0.000000 0.000000 0.000000 0.000000 0.004445
#
#
# Mechanical properties :
#
#
# Convention : Reuss Voigt Hill
#
# Bulk Modulus (GPa) = 15.59441 17.60894 16.60168
# Shear Modulus (GPa) = 31.05153 69.31891 50.18522
#
# Velocity S-wave (km/s) = 3.63488 5.43093 4.62101
# Velocity P-wave (km/s) = 4.92462 6.84246 5.96117
#
# Compressibility (1/GPa) = 0.06412554
#
# Stress axis : x y z
#
# Youngs Moduli (GPa) = 34.91256 86.62089 62.69462
#
# Poissons Ratio (x) = -0.08566 -0.08292
# Poissons Ratio (y) = -0.03452 -0.10548
# Poissons Ratio (z) = -0.04618 -0.14573
#
# Static dielectric constant tensor:
#      x y z
#    x 1.817430 0.000000 0.000000 
#    y 0.000000 1.820980 0.000000 
#    z 0.000000 0.000000 1.934720 
# 
# From -- ./inp_files/6425.got.cif
#   From: 2010.05.17/outbox.cif.g08.bks.cpg/sg31_4_cif.got.tgz:6425.got - 2010.06.03 17:08:30.
