data_PCOD9343901
_publ_section_title
;
Structure prediction by ZEFSAII (Michael W. Deem and Ramdas Pophale) SiO2 
 PCOD9343901
Probable space group: P B A 2
;
_chemical_formula_sum "Si O2"
_cell_formula_units_Z 32
_cell_length_a 27.888848
_cell_length_b 9.964231
_cell_length_c 5.434306
_cell_angle_alpha 90.000000
_cell_angle_beta 90.000000
_cell_angle_gamma 90.000000
_cell_volume 1510.144315
_symmetry_space_group_name_H-M "P B A 2"
_symmetry_group_IT_number 32
_symmetry_cell_setting 'orthorhombic'
loop_
_space_group_symop_operation_xyz
x,y,z
-x,-y,z
1/2-x,1/2+y,z
1/2+x,1/2-y,z
loop_
_atom_site_type_symbol
_atom_site_label
_atom_site_fract_x
_atom_site_fract_y
_atom_site_fract_z
Si Si1 0.148341 0.503892 0.444520
Si Si2 0.300555 0.675917 0.936477
Si Si3 0.204391 0.500873 0.944681
Si Si4 0.447510 0.934669 0.377104
Si Si5 0.040938 0.885122 0.016002
Si Si6 0.441979 0.477120 0.512959
Si Si7 0.525599 0.142094 0.881540
Si Si8 0.858316 0.819745 0.435732
O O1 0.173885 0.537386 0.700076
O O2 0.092743 0.545890 0.429786
O O3 0.141366 0.342078 0.438906
O O4 0.177230 0.538322 0.198511
O O5 0.253349 0.584211 0.937037
O O6 0.289366 0.837618 0.940766
O O7 0.329706 0.645667 0.686279
O O8 0.330795 0.644590 0.183087
O O9 0.451592 0.839711 0.615339
O O10 0.500000 0.000000 0.349338
O O11 0.438440 0.866090 0.111718
O O12 0.072727 0.926234 0.782971
O O13 0.013171 0.752029 0.944517
O O14 0.064320 0.877073 0.283263
O O15 0.000000 0.000000 0.042888
O O16 0.500000 0.500000 0.535979
O O17 0.408689 0.602120 0.442320
O O18 0.500000 0.000000 0.858442
#
# Coordination Sequence:
#
# PCOD9343901 Si02
#       8
#     4   4   4   4   4   4   4   4
#     4  10  21  35  63  92 114 153 212 241 285 364
#     4  10  21  40  67  89 118 150 196 247 313 357
#     4  10  21  40  65  93 116 152 192 253 307 363
#     4  10  21  36  59  84 117 162 201 245 286 335
#     4  10  21  32  53  80 105 152 199 231 283 323
#     4  10  21  35  53  86 122 153 195 244 282 329
#     4  10  21  36  55  74 109 160 199 233 283 335
#     4  10  21  36  61  92 116 158 200 242 291 366
#
# _framework density 21.190028000000002
#
# number of rings (size 3 to 8) (size 9 to 14) (size 15 to 20)
#    0.000    2.000    0.000    3.000    7.000    0.000 
#    0.000    0.000   33.000    0.000    0.000    0.000 
#    0.000    0.000    0.000    0.000    0.000    0.000 
#
# Total GULP energy -178517.540291 kJ/mol
# GULP energy per Si atom -5578.673134 kJ/mol
# Density = 2.114180 g / cm^3
# Si number density = 21.190028 Si / 1000 Ang^3
#
#
#
# Elastic Constant Matrix: (Units=GPa)
#
#
# Indices 1 2 3 4 5 6 
#
# 1 106.8691 24.6582 50.6824 0.0000 0.0000 0.0000
# 2 24.6582 53.5718 -2.7471 0.0000 0.0000 0.0000
# 3 50.6824 -2.7471 104.8233 0.0000 0.0000 0.0000
# 4 0.0000 0.0000 0.0000 7.5357 0.0000 0.0000
# 5 0.0000 0.0000 0.0000 0.0000 41.8149 0.0000
# 6 0.0000 0.0000 0.0000 0.0000 0.0000 18.8818
#
#
#
# Elastic Compliance Matrix: (Units=1/GPa)
#
#
# Indices 1 2 3 4 5 6 
#
# 1 0.014339 -0.006965 -0.007115 0.000000 0.000000 0.000000
# 2 -0.006965 0.022075 0.003946 0.000000 0.000000 0.000000
# 3 -0.007115 0.003946 0.013084 0.000000 0.000000 0.000000
# 4 0.000000 0.000000 0.000000 0.132701 0.000000 0.000000
# 5 0.000000 0.000000 0.000000 0.000000 0.023915 0.000000
# 6 0.000000 0.000000 0.000000 0.000000 0.000000 0.052961
#
#
# Mechanical properties :
#
#
# Convention : Reuss Voigt Hill
#
# Bulk Modulus (GPa) = 34.21294 45.60569 39.90931
# Shear Modulus (GPa) = 17.29595 26.49120 21.89357
#
# Velocity S-wave (km/s) = 2.86007 3.53961 3.21783
# Velocity P-wave (km/s) = 5.20457 6.18661 5.71671
#
# Compressibility (1/GPa) = 0.02922871
#
# Stress axis : x y z
#
# Youngs Moduli (GPa) = 69.74167 45.30093 76.43197
#
# Poissons Ratio (x) = 0.31551 0.54384
# Poissons Ratio (y) = 0.48573 -0.30160
# Poissons Ratio (z) = 0.49623 -0.17876
#
# Static dielectric constant tensor:
#      x y z
#    x 1.831440 0.000000 0.000000 
#    y 0.000000 1.762010 0.000000 
#    z 0.000000 0.000000 1.863500 
# 
# From -- ./inp_files/1689.got.cif
#   From: 2010.05.17/outbox.cif.g08.bks.cpg/sg32_1_cif.got.tgz:1689.got - 2010.06.03 17:12:27.
