data_PCOD9343109
_publ_section_title
;
Structure prediction by ZEFSAII (Michael W. Deem and Ramdas Pophale) SiO2 
 PCOD9343109
Probable space group: P M N 21
;
_chemical_formula_sum "Si O2"
_cell_formula_units_Z 24
_cell_length_a 14.306533
_cell_length_b 15.614321
_cell_length_c 5.481381
_cell_angle_alpha 90.000000
_cell_angle_beta 90.000000
_cell_angle_gamma 90.000000
_cell_volume 1224.468154
_symmetry_space_group_name_H-M "P M N 21"
_symmetry_group_IT_number 31
_symmetry_cell_setting 'orthorhombic'
loop_
_space_group_symop_operation_xyz
x,y,z
1/2-x,-y,1/2+z
-x,y,z
1/2+x,-y,1/2+z
loop_
_atom_site_type_symbol
_atom_site_label
_atom_site_fract_x
_atom_site_fract_y
_atom_site_fract_z
Si Si1 0.706185 0.467887 0.885960
Si Si2 0.894941 0.002639 0.506411
Si Si3 0.000000 0.551802 0.311794
Si Si4 0.330219 0.276115 0.044167
Si Si5 0.000000 0.660448 0.813893
Si Si6 0.901305 0.840954 0.151298
Si Si7 0.250384 0.116254 0.276644
O O1 0.762610 0.485671 0.636378
O O2 0.599776 0.494367 0.819110
O O3 0.709157 0.366765 0.956232
O O4 0.849352 0.081534 0.360320
O O5 0.000000 0.019173 0.607124
O O6 0.904538 0.924999 0.318149
O O7 0.815405 0.964103 0.687427
O O8 0.000000 0.600837 0.571835
O O9 0.000000 0.608751 0.065400
O O10 0.400690 0.291676 0.272416
O O11 0.258157 0.198261 0.097612
O O12 0.395337 0.238822 0.831380
O O13 0.000000 0.840518 0.009494
O O14 0.806697 0.849122 0.006671
#
# Coordination Sequence:
#
# PCOD9343109 Si02
#       7
#     4   4   2   4   2   4   4
#     4  11  24  42  66  95 129 167 211 262 325 386
#     4  10  21  38  54  86 117 161 210 247 309 372
#     4  10  22  40  66  96 126 163 202 265 328 386
#     4  10  23  34  58  93 123 158 205 257 324 376
#     4  10  20  36  60  96 132 153 200 267 338 384
#     4  10  20  34  58  88 121 150 196 261 317 374
#     4  11  21  35  58  85 124 160 204 261 309 374
#
# _framework density 19.600346999999999
#
# number of rings (size 3 to 8) (size 9 to 14) (size 15 to 20)
#    0.000    1.667    2.500    2.500    9.333    0.000 
#    0.000    0.000    3.667    0.000    0.000    0.000 
#    0.000    0.000    0.000    0.000    0.000    0.000 
#
# Total GULP energy -133689.743821 kJ/mol
# GULP energy per Si atom -5570.405993 kJ/mol
# Density = 1.955574 g / cm^3
# Si number density = 19.600347 Si / 1000 Ang^3
#
#
#
# Elastic Constant Matrix: (Units=GPa)
#
#
# Indices 1 2 3 4 5 6 
#
# 1 95.8793 48.4005 36.9722 0.0000 0.0000 0.0000
# 2 48.4005 82.7030 30.8824 0.0000 0.0000 0.0000
# 3 36.9722 30.8824 95.3531 0.0000 0.0000 0.0000
# 4 0.0000 0.0000 0.0000 32.3664 0.0000 0.0000
# 5 0.0000 0.0000 0.0000 0.0000 36.7081 0.0000
# 6 0.0000 0.0000 0.0000 0.0000 0.0000 307.7220
#
#
#
# Elastic Compliance Matrix: (Units=1/GPa)
#
#
# Indices 1 2 3 4 5 6 
#
# 1 0.015800 -0.007916 -0.003562 0.000000 0.000000 0.000000
# 2 -0.007916 0.017721 -0.002670 0.000000 0.000000 0.000000
# 3 -0.003562 -0.002670 0.012733 0.000000 0.000000 0.000000
# 4 0.000000 0.000000 0.000000 0.030896 0.000000 0.000000
# 5 0.000000 0.000000 0.000000 0.000000 0.027242 0.000000
# 6 0.000000 0.000000 0.000000 0.000000 0.000000 0.003250
#
#
# Mechanical properties :
#
#
# Convention : Reuss Voigt Hill
#
# Bulk Modulus (GPa) = 55.68809 56.27173 55.97991
# Shear Modulus (GPa) = 35.22987 85.87132 60.55059
#
# Velocity S-wave (km/s) = 4.24419 6.62618 5.56414
# Velocity P-wave (km/s) = 7.24507 9.34417 8.36076
#
# Compressibility (1/GPa) = 0.01795716
#
# Stress axis : x y z
#
# Youngs Moduli (GPa) = 63.29264 56.42915 78.53408
#
# Poissons Ratio (x) = 0.44671 0.27976
# Poissons Ratio (y) = 0.50104 0.20969
# Poissons Ratio (z) = 0.22547 0.15067
#
# Static dielectric constant tensor:
#      x y z
#    x 1.721350 0.000000 0.000000 
#    y 0.000000 1.728850 0.000000 
#    z 0.000000 0.000000 1.772030 
# 
# From -- ./inp_files/628.got.cif
#   From: 2010.05.17/outbox.cif.g08.bks.cpg/sg31_1_cif.got.tgz:628.got - 2010.06.03 17:08:30.
