data_PCOD9343172
_publ_section_title
;
Structure prediction by ZEFSAII (Michael W. Deem and Ramdas Pophale) SiO2 
 PCOD9343172
Probable space group: P M N 21
;
_chemical_formula_sum "Si O2"
_cell_formula_units_Z 32
_cell_length_a 9.451488
_cell_length_b 5.331143
_cell_length_c 28.969646
_cell_angle_alpha 90.000000
_cell_angle_beta 90.000000
_cell_angle_gamma 90.000000
_cell_volume 1459.700335
_symmetry_space_group_name_H-M "P M N 21"
_symmetry_group_IT_number 31
_symmetry_cell_setting 'orthorhombic'
loop_
_space_group_symop_operation_xyz
x,y,z
1/2-x,-y,1/2+z
-x,y,z
1/2+x,-y,1/2+z
loop_
_atom_site_type_symbol
_atom_site_label
_atom_site_fract_x
_atom_site_fract_y
_atom_site_fract_z
Si Si1 0.172896 0.174010 0.388130
Si Si2 0.654642 0.706206 0.603226
Si Si3 0.330352 0.818364 0.779324
Si Si4 0.150678 0.014730 0.009784
Si Si5 0.831634 0.330151 0.924003
Si Si6 0.156446 0.051124 0.651504
Si Si7 0.152322 0.310337 0.554016
Si Si8 0.828138 0.676786 0.225394
O O1 0.201594 0.202307 0.333299
O O2 0.248886 0.415233 0.411534
O O3 0.000000 0.168446 0.395139
O O4 0.248831 0.912978 0.403034
O O5 0.500000 0.621964 0.618324
O O6 0.636504 0.917043 0.563567
O O7 0.743555 0.810621 0.645886
O O8 0.737111 0.503417 0.574049
O O9 0.500000 0.810266 0.775891
O O10 0.289089 0.085362 0.757909
O O11 0.280870 0.578987 0.749999
O O12 0.170060 0.258302 0.978392
O O13 0.000000 0.896527 0.994809
O O14 0.285472 0.836027 0.010362
O O15 0.000000 0.341195 0.910789
O O16 0.244758 0.259250 0.678697
O O17 0.000000 0.007115 0.671426
O O18 0.134539 0.132243 0.598551
O O19 0.000000 0.427400 0.543705
O O20 0.000000 0.676673 0.219165
#
# Coordination Sequence:
#
# PCOD9343172 Si02
#       8
#     4   4   4   4   4   4   4   4
#     4  11  23  43  69  97 128 167 214 265 321 385
#     4  10  20  36  59  82 110 156 206 246 292 362
#     4   9  20  39  63  89 121 156 202 257 308 362
#     4   9  21  39  57  81 115 159 205 248 299 362
#     4  11  24  42  65  96 134 170 210 265 323 383
#     4  10  22  38  53  81 120 155 192 247 308 357
#     4  10  21  36  56  82 118 155 193 249 307 357
#     4  10  20  37  62  90 116 156 206 253 300 364
#
# _framework density 21.922305000000001
#
# number of rings (size 3 to 8) (size 9 to 14) (size 15 to 20)
#    0.000    2.000    0.000    2.625    3.500    5.000 
#    0.000    3.750    0.000    0.000    0.000    0.000 
#    0.000    0.000    0.000    0.000    0.000    0.000 
#
# Total GULP energy -178456.794769 kJ/mol
# GULP energy per Si atom -5576.774837 kJ/mol
# Density = 2.187241 g / cm^3
# Si number density = 21.922305 Si / 1000 Ang^3
#
#
#
# Elastic Constant Matrix: (Units=GPa)
#
#
# Indices 1 2 3 4 5 6 
#
# 1 147.0497 48.8739 24.8978 0.0000 0.0000 0.0000
# 2 48.8739 104.0933 32.4942 0.0000 0.0000 0.0000
# 3 24.8978 32.4942 82.2895 0.0000 0.0000 0.0000
# 4 0.0000 0.0000 0.0000 35.0410 0.0000 0.0000
# 5 0.0000 0.0000 0.0000 0.0000 2.7500 0.0000
# 6 0.0000 0.0000 0.0000 0.0000 0.0000 24.9222
#
#
#
# Elastic Compliance Matrix: (Units=1/GPa)
#
#
# Indices 1 2 3 4 5 6 
#
# 1 0.008142 -0.003483 -0.001088 0.000000 0.000000 0.000000
# 2 -0.003483 0.012448 -0.003861 0.000000 0.000000 0.000000
# 3 -0.001088 -0.003861 0.014006 0.000000 0.000000 0.000000
# 4 0.000000 0.000000 0.000000 0.028538 0.000000 0.000000
# 5 0.000000 0.000000 0.000000 0.000000 0.363639 0.000000
# 6 0.000000 0.000000 0.000000 0.000000 0.000000 0.040125
#
#
# Mechanical properties :
#
#
# Convention : Reuss Voigt Hill
#
# Bulk Modulus (GPa) = 56.39955 60.66271 58.53113
# Shear Modulus (GPa) = 10.21088 27.68708 18.94898
#
# Velocity S-wave (km/s) = 2.16053 3.55768 2.94321
# Velocity P-wave (km/s) = 5.65745 6.67891 6.18929
#
# Compressibility (1/GPa) = 0.01773064
#
# Stress axis : x y z
#
# Youngs Moduli (GPa) = 122.81404 80.33653 71.39696
#
# Poissons Ratio (x) = 0.27984 0.07769
# Poissons Ratio (y) = 0.42780 0.27569
# Poissons Ratio (z) = 0.13363 0.31021
#
# Static dielectric constant tensor:
#      x y z
#    x 1.977700 0.000000 0.000000 
#    y 0.000000 1.848290 0.000000 
#    z 0.000000 0.000000 1.834090 
# 
# From -- ./inp_files/6625.got.cif
#   From: 2010.05.17/outbox.cif.g08.bks.cpg/sg31_4_cif.got.tgz:6625.got - 2010.06.03 17:08:30.
