data_PCOD9343885
_publ_section_title
;
Structure prediction by ZEFSAII (Michael W. Deem and Ramdas Pophale) SiO2 
 PCOD9343885
Probable space group: P B A 2
;
_chemical_formula_sum "Si O2"
_cell_formula_units_Z 28
_cell_length_a 14.832958
_cell_length_b 14.478519
_cell_length_c 6.279571
_cell_angle_alpha 90.000000
_cell_angle_beta 90.000000
_cell_angle_gamma 90.000000
_cell_volume 1348.596048
_symmetry_space_group_name_H-M "P B A 2"
_symmetry_group_IT_number 32
_symmetry_cell_setting 'orthorhombic'
loop_
_space_group_symop_operation_xyz
x,y,z
-x,-y,z
1/2-x,1/2+y,z
1/2+x,1/2-y,z
loop_
_atom_site_type_symbol
_atom_site_label
_atom_site_fract_x
_atom_site_fract_y
_atom_site_fract_z
Si Si1 0.091870 0.631852 0.002310
Si Si2 0.138430 0.974284 0.757580
Si Si3 0.500000 0.500000 0.127401
Si Si4 0.572392 0.726403 0.646624
Si Si5 0.281695 0.169603 0.358920
Si Si6 0.083608 0.143513 0.444636
Si Si7 0.336988 0.999605 0.634805
Si Si8 0.000000 0.500000 0.342914
O O1 0.180525 0.668431 0.122130
O O2 0.033941 0.582009 0.186438
O O3 0.057819 0.718511 0.865974
O O4 0.117167 0.555521 0.827276
O O5 0.093990 0.881254 0.670842
O O6 0.110153 0.065912 0.623792
O O7 0.246323 0.956973 0.738875
O O8 0.089668 0.984998 0.985193
O O9 0.473623 0.587405 0.270508
O O10 0.653997 0.769327 0.509870
O O11 0.478134 0.725788 0.527118
O O12 0.176432 0.187245 0.364119
O O13 0.294875 0.068238 0.458724
O O14 0.420932 0.960420 0.497750
#
# Coordination Sequence:
#
# PCOD9343885 Si02
#       8
#     4   4   2   4   4   4   4   2
#     4  10  21  41  66  92 131 171 214 263 323 389
#     4  11  22  40  65  98 128 170 213 273 322 380
#     4  12  20  36  70  98 122 176 226 258 322 398
#     4  11  22  41  62  97 137 165 211 275 324 378
#     4   9  22  40  61  87 129 171 208 264 324 377
#     4  11  22  42  67  95 131 173 216 265 324 385
#     4   9  20  40  66  85 129 163 215 266 311 385
#     4  10  20  42  68  94 120 178 220 260 324 390
#
# _framework density 20.762333000000002
#
# number of rings (size 3 to 8) (size 9 to 14) (size 15 to 20)
#    0.000    1.714    2.857    1.286    2.000    0.000 
#   10.286    0.000    0.000    0.000    0.000    0.000 
#    0.000    0.000    0.000    0.000    0.000    0.000 
#
# Total GULP energy -156040.137492 kJ/mol
# GULP energy per Si atom -5572.862053 kJ/mol
# Density = 2.071508 g / cm^3
# Si number density = 20.762333 Si / 1000 Ang^3
#
#
#
# Elastic Constant Matrix: (Units=GPa)
#
#
# Indices 1 2 3 4 5 6 
#
# 1 162.6730 36.7229 67.6808 0.0000 0.0000 0.0000
# 2 36.7229 35.3436 15.1871 0.0000 0.0000 0.0000
# 3 67.6808 15.1871 112.5444 0.0000 0.0000 0.0000
# 4 0.0000 0.0000 0.0000 22.3497 0.0000 0.0000
# 5 0.0000 0.0000 0.0000 0.0000 6.2066 0.0000
# 6 0.0000 0.0000 0.0000 0.0000 0.0000 21.2323
#
#
#
# Elastic Compliance Matrix: (Units=1/GPa)
#
#
# Indices 1 2 3 4 5 6 
#
# 1 0.010090 -0.008361 -0.004939 0.000000 0.000000 0.000000
# 2 -0.008361 0.036964 0.000040 0.000000 0.000000 0.000000
# 3 -0.004939 0.000040 0.011850 0.000000 0.000000 0.000000
# 4 0.000000 0.000000 0.000000 0.044743 0.000000 0.000000
# 5 0.000000 0.000000 0.000000 0.000000 0.161119 0.000000
# 6 0.000000 0.000000 0.000000 0.000000 0.000000 0.047098
#
#
# Mechanical properties :
#
#
# Convention : Reuss Voigt Hill
#
# Bulk Modulus (GPa) = 30.88023 61.08251 45.98137
# Shear Modulus (GPa) = 14.31925 22.68905 18.50415
#
# Velocity S-wave (km/s) = 2.62901 3.30934 2.98860
# Velocity P-wave (km/s) = 4.91132 6.63973 5.83983
#
# Compressibility (1/GPa) = 0.03238318
#
# Stress axis : x y z
#
# Youngs Moduli (GPa) = 99.10896 27.05339 84.38517
#
# Poissons Ratio (x) = 0.22620 0.41682
# Poissons Ratio (y) = 0.82867 -0.00339
# Poissons Ratio (z) = 0.48955 -0.00109
#
# Static dielectric constant tensor:
#      x y z
#    x 1.833110 0.000000 0.000000 
#    y 0.000000 1.751890 0.000000 
#    z 0.000000 0.000000 1.761710 
# 
# From -- ./inp_files/1270.got.cif
#   From: 2010.05.17/outbox.cif.g08.bks.cpg/sg32_1_cif.got.tgz:1270.got - 2010.06.03 17:12:27.
