data_PCOD9343628
_publ_section_title
;
Structure prediction by ZEFSAII (Michael W. Deem and Ramdas Pophale) SiO2 
 PCOD9343628
Probable space group: P M N 21
;
_chemical_formula_sum "Si O2"
_cell_formula_units_Z 32
_cell_length_a 9.000000
_cell_length_b 12.000000
_cell_length_c 15.000000
_cell_angle_alpha 90.000000
_cell_angle_beta 90.000000
_cell_angle_gamma 90.000000
_cell_volume 1620.000000
_symmetry_space_group_name_H-M "P M N 21"
_symmetry_group_IT_number 31
_symmetry_cell_setting 'orthorhombic'
loop_
_space_group_symop_operation_xyz
x,y,z
1/2-x,-y,1/2+z
-x,y,z
1/2+x,-y,1/2+z
loop_
_atom_site_type_symbol
_atom_site_label
_atom_site_fract_x
_atom_site_fract_y
_atom_site_fract_z
Si Si1 0.669516 0.256827 0.635330
Si Si2 0.679653 0.662387 0.584297
Si Si3 0.822391 0.498243 0.919351
Si Si4 0.827029 0.510813 0.233887
Si Si5 0.828498 0.076476 0.739685
Si Si6 0.174286 0.957745 0.924090
Si Si7 0.675700 0.094559 0.082542
Si Si8 0.674706 0.737002 0.953327
O O1 0.500000 0.236868 0.605315
O O2 0.678367 0.382751 0.669341
O O3 0.715596 0.172607 0.712553
O O4 0.784417 0.238300 0.555937
O O5 0.500000 0.671712 0.583530
O O6 0.721918 0.588083 0.497582
O O7 0.721069 0.594618 0.674167
O O8 0.751400 0.783756 0.582247
O O9 0.769044 0.464566 0.820986
O O10 0.749250 0.618763 0.933967
O O11 0.000000 0.508585 0.923212
O O12 0.000000 0.494316 0.260366
O O13 0.000000 0.113599 0.726077
O O14 0.810645 0.039051 0.840523
O O15 0.804233 0.970201 0.675751
O O16 0.251108 0.840061 0.902385
O O17 0.000000 0.939651 0.940995
O O18 0.249997 0.016741 0.007991
O O19 0.500000 0.103990 0.065513
O O20 0.500000 0.732849 0.938159
#
# Coordination Sequence:
#
# PCOD9343628 Si02
#       8
#     4   4   4   4   4   4   4   4
#     4  11  22  41  68  94 125 165 209 260 317 376
#     4  10  23  44  64  88 127 170 208 254 313 377
#     4  11  24  43  66  93 126 168 214 259 314 375
#     4  10  23  43  64  94 128 161 208 261 315 376
#     4  10  24  43  63  92 128 164 208 260 312 374
#     4  11  24  43  66  93 127 168 211 258 316 376
#     4  11  24  42  63  93 128 165 210 261 313 371
#     4  12  24  41  66  95 127 163 210 265 318 371
#
# _framework density 19.753086
#
# number of rings (size 3 to 8) (size 9 to 14) (size 15 to 20)
#    0.000    1.250    2.500    2.625    3.500    4.000 
#    0.000    0.000    0.000    0.000    0.000    0.000 
#    0.000    0.000    0.000    0.000    0.000    0.000 
#
# Total GULP energy -178872.377148 kJ/mol
# GULP energy per Si atom -5589.761786 kJ/mol
# Density = 1.970813 g / cm^3
# Si number density = 19.753086 Si / 1000 Ang^3
#
#
#
# Elastic Constant Matrix: (Units=GPa)
#
#
# Indices 1 2 3 4 5 6 
#
# 1 46.1417 10.7250 0.8318 0.0000 0.0000 0.0000
# 2 10.7250 63.8994 -21.8232 0.0000 0.0000 0.0000
# 3 0.8318 -21.8232 42.5103 0.0000 0.0000 0.0000
# 4 0.0000 0.0000 0.0000 19.8608 0.0000 0.0000
# 5 0.0000 0.0000 0.0000 0.0000 17.5923 0.0000
# 6 0.0000 0.0000 0.0000 0.0000 0.0000 35.9194
#
#
#
# Elastic Compliance Matrix: (Units=1/GPa)
#
#
# Indices 1 2 3 4 5 6 
#
# 1 0.022849 -0.004836 -0.002929 0.000000 0.000000 0.000000
# 2 -0.004836 0.020000 0.010362 0.000000 0.000000 0.000000
# 3 -0.002929 0.010362 0.028900 0.000000 0.000000 0.000000
# 4 0.000000 0.000000 0.000000 0.050350 0.000000 0.000000
# 5 0.000000 0.000000 0.000000 0.000000 0.056843 0.000000
# 6 0.000000 0.000000 0.000000 0.000000 0.000000 0.027840
#
#
# Mechanical properties :
#
#
# Convention : Reuss Voigt Hill
#
# Bulk Modulus (GPa) = 12.99659 14.66875 13.83267
# Shear Modulus (GPa) = 22.00346 25.52905 23.76626
#
# Velocity S-wave (km/s) = 3.34117 3.59891 3.47243
# Velocity P-wave (km/s) = 4.63448 4.97109 4.80573
#
# Compressibility (1/GPa) = 0.07694326
#
# Stress axis : x y z
#
# Youngs Moduli (GPa) = 43.76535 49.99993 34.60159
#
# Poissons Ratio (x) = 0.24178 0.10137
# Poissons Ratio (y) = 0.21163 -0.35854
# Poissons Ratio (z) = 0.12821 -0.51809
#
# Static dielectric constant tensor:
#      x y z
#    x 1.678460 0.000000 0.000000 
#    y 0.000000 1.685460 0.000000 
#    z 0.000000 0.000000 1.710150 
# 
# From -- ./inp_files/4979.got.cif
#   From: 2010.05.17/outbox.ucp.g08.bks.cvg/sg31_3_cif.got.tgz:4979.got - 2010.06.11 10:34:26.
