data_PCOD9343776
_publ_section_title
;
Structure prediction by ZEFSAII (Michael W. Deem and Ramdas Pophale) SiO2 
 PCOD9343776
Probable space group: P B A 2
;
_chemical_formula_sum "Si O2"
_cell_formula_units_Z 26
_cell_length_a 8.123764
_cell_length_b 18.220956
_cell_length_c 7.397150
_cell_angle_alpha 90.000000
_cell_angle_beta 90.000000
_cell_angle_gamma 90.000000
_cell_volume 1094.946459
_symmetry_space_group_name_H-M "P B A 2"
_symmetry_group_IT_number 32
_symmetry_cell_setting 'orthorhombic'
loop_
_space_group_symop_operation_xyz
x,y,z
-x,-y,z
1/2-x,1/2+y,z
1/2+x,1/2-y,z
loop_
_atom_site_type_symbol
_atom_site_label
_atom_site_fract_x
_atom_site_fract_y
_atom_site_fract_z
Si Si1 0.235933 0.986401 0.542790
Si Si2 0.066382 0.855348 0.424753
Si Si3 0.589442 0.219506 0.332382
Si Si4 0.067961 0.844879 0.858409
Si Si5 0.951712 0.683509 0.942482
Si Si6 0.500000 0.500000 0.876010
Si Si7 0.442652 0.115175 0.597407
O O1 0.118701 0.940882 0.407314
O O2 0.154198 0.994615 0.739345
O O3 0.396045 0.935229 0.566190
O O4 0.296669 0.068760 0.507486
O O5 0.227216 0.809594 0.362626
O O6 0.043975 0.852401 0.642164
O O7 0.925279 0.807471 0.329818
O O8 0.482977 0.191073 0.500901
O O9 0.522371 0.178109 0.155757
O O10 0.262182 0.835704 0.898227
O O11 0.003002 0.918506 0.958999
O O12 0.979774 0.769612 0.907949
O O13 0.065547 0.635087 0.809725
#
# Coordination Sequence:
#
# PCOD9343776 Si02
#       7
#     4   4   4   4   4   2   4
#     4   9  20  37  64  89 127 172 215 260 334 394
#     4  10  19  41  61  92 126 169 212 271 323 389
#     4  11  22  37  67  93 128 163 217 273 320 387
#     4  11  22  40  66  97 130 172 217 274 330 399
#     4  12  23  40  66 100 126 171 220 272 330 399
#     4  10  20  38  64  96 124 174 218 266 326 398
#     4  10  20  41  63  93 126 169 215 270 327 394
#
# _framework density 23.745453000000001
#
# number of rings (size 3 to 8) (size 9 to 14) (size 15 to 20)
#    0.000    1.538    6.154    0.923    2.154    2.462 
#    0.000    6.154    0.000   23.077    0.000    0.000 
#    0.000    0.000    0.000    0.000    0.000    0.000 
#
# Total GULP energy -145053.850680 kJ/mol
# GULP energy per Si atom -5578.994257 kJ/mol
# Density = 2.369141 g / cm^3
# Si number density = 23.745453 Si / 1000 Ang^3
#
#
#
# Elastic Constant Matrix: (Units=GPa)
#
#
# Indices 1 2 3 4 5 6 
#
# 1 43.0681 53.2561 -3.8246 0.0000 0.0000 0.0000
# 2 53.2561 164.2376 -5.0931 0.0000 0.0000 0.0000
# 3 -3.8246 -5.0931 67.1369 0.0000 0.0000 0.0000
# 4 0.0000 0.0000 0.0000 12.3932 0.0000 0.0000
# 5 0.0000 0.0000 0.0000 0.0000 11.4527 0.0000
# 6 0.0000 0.0000 0.0000 0.0000 0.0000 48.2558
#
#
#
# Elastic Compliance Matrix: (Units=1/GPa)
#
#
# Indices 1 2 3 4 5 6 
#
# 1 0.038867 -0.012564 0.001261 0.000000 0.000000 0.000000
# 2 -0.012564 0.010165 0.000055 0.000000 0.000000 0.000000
# 3 0.001261 0.000055 0.014971 0.000000 0.000000 0.000000
# 4 0.000000 0.000000 0.000000 0.080690 0.000000 0.000000
# 5 0.000000 0.000000 0.000000 0.000000 0.087315 0.000000
# 6 0.000000 0.000000 0.000000 0.000000 0.000000 0.020723
#
#
# Mechanical properties :
#
#
# Convention : Reuss Voigt Hill
#
# Bulk Modulus (GPa) = 24.09211 40.34659 32.21935
# Shear Modulus (GPa) = 17.29734 29.76062 23.52898
#
# Velocity S-wave (km/s) = 2.70191 3.54406 3.15125
# Velocity P-wave (km/s) = 4.46114 5.81166 5.18059
#
# Compressibility (1/GPa) = 0.04150737
#
# Stress axis : x y z
#
# Youngs Moduli (GPa) = 25.72861 98.38151 66.79592
#
# Poissons Ratio (x) = 1.23607 -0.08423
# Poissons Ratio (y) = 0.32326 -0.00370
# Poissons Ratio (z) = -0.03245 -0.00544
#
# Static dielectric constant tensor:
#      x y z
#    x 1.958870 0.000000 0.000000 
#    y 0.000000 1.968790 0.000000 
#    z 0.000000 0.000000 1.892470 
# 
# From -- ./inp_files/2458.got.cif
#   From: 2010.05.17/outbox.cif.g08.bks.cpg/sg32_2_cif.got.tgz:2458.got - 2010.06.03 17:12:27.
