data_PCOD9343512
_publ_section_title
;
Structure prediction by ZEFSAII (Michael W. Deem and Ramdas Pophale) SiO2 
 PCOD9343512
Probable space group: P M N 21
;
_chemical_formula_sum "Si O2"
_cell_formula_units_Z 24
_cell_length_a 8.402644
_cell_length_b 14.695425
_cell_length_c 8.407018
_cell_angle_alpha 90.000000
_cell_angle_beta 90.000000
_cell_angle_gamma 90.000000
_cell_volume 1038.102153
_symmetry_space_group_name_H-M "P M N 21"
_symmetry_group_IT_number 31
_symmetry_cell_setting 'orthorhombic'
loop_
_space_group_symop_operation_xyz
x,y,z
1/2-x,-y,1/2+z
-x,y,z
1/2+x,-y,1/2+z
loop_
_atom_site_type_symbol
_atom_site_label
_atom_site_fract_x
_atom_site_fract_y
_atom_site_fract_z
Si Si1 0.317862 0.301167 0.262190
Si Si2 0.307854 0.964657 0.259940
Si Si3 0.812693 0.133143 0.430504
Si Si4 0.185308 0.455691 0.451828
Si Si5 0.187331 0.632661 0.267046
Si Si6 0.813790 0.208639 0.949668
O O1 0.500000 0.330608 0.264588
O O2 0.283888 0.223994 0.394133
O O3 0.210820 0.387733 0.303487
O O4 0.278117 0.252773 0.096293
O O5 0.500000 0.977204 0.264423
O O6 0.261956 0.891453 0.395516
O O7 0.223065 0.059550 0.293045
O O8 0.267300 0.917401 0.093182
O O9 0.000000 0.155138 0.434949
O O10 0.233751 0.556167 0.397160
O O11 0.280701 0.412675 0.597206
O O12 0.000000 0.458269 0.495661
O O13 0.285652 0.723406 0.301414
O O14 0.000000 0.652214 0.283879
O O15 0.000000 0.205361 0.989329
#
# Coordination Sequence:
#
# PCOD9343512 Si02
#       6
#     4   4   4   4   4   4
#     4  12  25  41  63  91 124 160 205 258 309 366
#     4  10  23  41  61  89 122 159 203 250 302 363
#     4  11  23  40  63  90 122 160 203 251 306 368
#     4  11  24  42  64  91 125 164 206 252 306 367
#     4  11  24  41  64  94 126 162 206 255 306 361
#     4  11  23  41  65  91 125 165 205 252 307 367
#
# _framework density 23.119112999999999
#
# number of rings (size 3 to 8) (size 9 to 14) (size 15 to 20)
#    0.000    1.000    0.000    6.500    0.000   12.000 
#    0.000    0.000    0.000    0.000    0.000    0.000 
#    0.000    0.000    0.000    0.000    0.000    0.000 
#
# Total GULP energy -134480.940126 kJ/mol
# GULP energy per Si atom -5603.372505 kJ/mol
# Density = 2.306649 g / cm^3
# Si number density = 23.119113 Si / 1000 Ang^3
#
#
#
# Elastic Constant Matrix: (Units=GPa)
#
#
# Indices 1 2 3 4 5 6 
#
# 1 26.8039 2.2144 -3.2563 0.0000 0.0000 0.0000
# 2 2.2144 84.1009 -15.8104 0.0000 0.0000 0.0000
# 3 -3.2563 -15.8104 66.9305 0.0000 0.0000 0.0000
# 4 0.0000 0.0000 0.0000 36.4106 0.0000 0.0000
# 5 0.0000 0.0000 0.0000 0.0000 20.5237 0.0000
# 6 0.0000 0.0000 0.0000 0.0000 0.0000 25.9329
#
#
#
# Elastic Compliance Matrix: (Units=1/GPa)
#
#
# Indices 1 2 3 4 5 6 
#
# 1 0.037567 -0.000676 0.001668 0.000000 0.000000 0.000000
# 2 -0.000676 0.012455 0.002909 0.000000 0.000000 0.000000
# 3 0.001668 0.002909 0.015709 0.000000 0.000000 0.000000
# 4 0.000000 0.000000 0.000000 0.027465 0.000000 0.000000
# 5 0.000000 0.000000 0.000000 0.000000 0.048724 0.000000
# 6 0.000000 0.000000 0.000000 0.000000 0.000000 0.038561
#
#
# Mechanical properties :
#
#
# Convention : Reuss Voigt Hill
#
# Bulk Modulus (GPa) = 13.59901 16.01451 14.80676
# Shear Modulus (GPa) = 25.35644 29.55261 27.45453
#
# Velocity S-wave (km/s) = 3.31535 3.57918 3.44979
# Velocity P-wave (km/s) = 4.53325 4.90129 4.72086
#
# Compressibility (1/GPa) = 0.07353476
#
# Stress axis : x y z
#
# Youngs Moduli (GPa) = 26.61944 80.28776 63.65665
#
# Poissons Ratio (x) = 0.05424 -0.10619
# Poissons Ratio (y) = 0.01798 -0.18520
# Poissons Ratio (z) = -0.04440 -0.23358
#
# Static dielectric constant tensor:
#      x y z
#    x 1.795530 0.000000 0.000000 
#    y 0.000000 1.822600 0.000000 
#    z 0.000000 0.000000 1.926750 
# 
# From -- ./inp_files/1711.got.cif
#   From: 2010.05.17/outbox.cif.g08.bks.cpg/sg31_1_cif.got.tgz:1711.got - 2010.06.03 17:08:30.
