data_PCOD9343798
_publ_section_title
;
Structure prediction by ZEFSAII (Michael W. Deem and Ramdas Pophale) SiO2 
 PCOD9343798
Probable space group: P B A 2
;
_chemical_formula_sum "Si O2"
_cell_formula_units_Z 26
_cell_length_a 22.232559
_cell_length_b 5.341667
_cell_length_c 11.079603
_cell_angle_alpha 90.000000
_cell_angle_beta 90.000000
_cell_angle_gamma 90.000000
_cell_volume 1315.801761
_symmetry_space_group_name_H-M "P B A 2"
_symmetry_group_IT_number 32
_symmetry_cell_setting 'orthorhombic'
loop_
_space_group_symop_operation_xyz
x,y,z
-x,-y,z
1/2-x,1/2+y,z
1/2+x,1/2-y,z
loop_
_atom_site_type_symbol
_atom_site_label
_atom_site_fract_x
_atom_site_fract_y
_atom_site_fract_z
Si Si1 0.401603 0.860101 0.298110
Si Si2 0.230514 0.358679 0.400937
Si Si3 0.595625 0.798938 0.078260
Si Si4 0.500000 0.000000 0.462645
Si Si5 0.000000 0.000000 0.211563
Si Si6 0.500000 0.500000 0.613648
Si Si7 0.219094 0.914651 0.130466
Si Si8 0.462846 0.259373 0.838008
O O1 0.338689 0.824146 0.364381
O O2 0.445821 0.625003 0.284977
O O3 0.388883 0.966180 0.163914
O O4 0.442471 0.049718 0.376842
O O5 0.242089 0.619971 0.465938
O O6 0.267813 0.396780 0.274654
O O7 0.531590 0.708896 0.129584
O O8 0.648793 0.604782 0.105947
O O9 0.587388 0.816846 0.935027
O O10 0.515235 0.251468 0.537875
O O11 0.550092 0.614680 0.707097
O O12 0.251064 0.665369 0.081847
O O13 0.500000 0.500000 0.891391
O O14 0.500000 0.000000 0.819599
#
# Coordination Sequence:
#
# PCOD9343798 Si02
#       8
#     4   4   4   2   2   2   4   4
#     4  12  24  33  57  92 128 160 191 247 316 374
#     4  10  20  37  53  75 122 165 197 226 280 376
#     4  12  22  34  58  89 129 154 197 238 318 372
#     4  12  24  38  60  88 122 160 194 256 296 360
#     4  12  20  34  46  88 132 152 184 234 304 386
#     4  10  22  46  56  78 124 154 222 232 292 358
#     4  10  20  35  52  77 121 164 191 229 280 374
#     4  10  21  39  60  82 114 158 193 249 287 362
#
# _framework density 19.759815
#
# number of rings (size 3 to 8) (size 9 to 14) (size 15 to 20)
#    0.462    0.615    6.154    3.231    0.000    0.000 
#    0.000    0.000    0.000    0.000    0.000    6.462 
#    0.000    0.000    0.000    0.000    0.000    0.000 
#
# Total GULP energy -144738.604238 kJ/mol
# GULP energy per Si atom -5566.869394 kJ/mol
# Density = 1.971484 g / cm^3
# Si number density = 19.759815 Si / 1000 Ang^3
#
#
#
# Elastic Constant Matrix: (Units=GPa)
#
#
# Indices 1 2 3 4 5 6 
#
# 1 89.9265 26.7553 10.1300 0.0000 0.0000 0.0000
# 2 26.7553 150.8193 19.0618 0.0000 0.0000 0.0000
# 3 10.1300 19.0618 69.9181 0.0000 0.0000 0.0000
# 4 0.0000 0.0000 0.0000 15.9010 0.0000 0.0000
# 5 0.0000 0.0000 0.0000 0.0000 3.1670 0.0000
# 6 0.0000 0.0000 0.0000 0.0000 0.0000 29.7996
#
#
#
# Elastic Compliance Matrix: (Units=1/GPa)
#
#
# Indices 1 2 3 4 5 6 
#
# 1 0.011834 -0.001950 -0.001183 0.000000 0.000000 0.000000
# 2 -0.001950 0.007188 -0.001677 0.000000 0.000000 0.000000
# 3 -0.001183 -0.001677 0.014931 0.000000 0.000000 0.000000
# 4 0.000000 0.000000 0.000000 0.062889 0.000000 0.000000
# 5 0.000000 0.000000 0.000000 0.000000 0.315756 0.000000
# 6 0.000000 0.000000 0.000000 0.000000 0.000000 0.033557
#
#
# Mechanical properties :
#
#
# Convention : Reuss Voigt Hill
#
# Bulk Modulus (GPa) = 41.09635 46.95092 44.02363
# Shear Modulus (GPa) = 10.77850 26.75464 18.76657
#
# Velocity S-wave (km/s) = 2.33808 3.68366 3.08512
# Velocity P-wave (km/s) = 5.30395 6.47339 5.91763
#
# Compressibility (1/GPa) = 0.02433306
#
# Stress axis : x y z
#
# Youngs Moduli (GPa) = 84.50554 139.11449 66.97425
#
# Poissons Ratio (x) = 0.27124 0.07923
# Poissons Ratio (y) = 0.16477 0.11233
# Poissons Ratio (z) = 0.09996 0.23333
#
# Static dielectric constant tensor:
#      x y z
#    x 1.694830 0.000000 0.000000 
#    y 0.000000 1.845520 0.000000 
#    z 0.000000 0.000000 1.747360 
# 
# From -- ./inp_files/3561.got.cif
#   From: 2010.05.17/outbox.cif.g08.bks.cpg/sg32_2_cif.got.tgz:3561.got - 2010.06.03 17:12:27.
