data_PCOD9343041
_publ_section_title
;
Structure prediction by ZEFSAII (Michael W. Deem and Ramdas Pophale) SiO2 
 PCOD9343041
Probable space group: P M N 21
;
_chemical_formula_sum "Si O2"
_cell_formula_units_Z 32
_cell_length_a 7.268452
_cell_length_b 7.624739
_cell_length_c 22.210943
_cell_angle_alpha 90.000000
_cell_angle_beta 90.000000
_cell_angle_gamma 90.000000
_cell_volume 1230.931559
_symmetry_space_group_name_H-M "P M N 21"
_symmetry_group_IT_number 31
_symmetry_cell_setting 'orthorhombic'
loop_
_space_group_symop_operation_xyz
x,y,z
1/2-x,-y,1/2+z
-x,y,z
1/2+x,-y,1/2+z
loop_
_atom_site_type_symbol
_atom_site_label
_atom_site_fract_x
_atom_site_fract_y
_atom_site_fract_z
Si Si1 0.276455 0.344684 0.231330
Si Si2 0.707754 0.694432 0.467549
Si Si3 0.223724 0.932620 0.827721
Si Si4 0.723978 0.727380 0.272666
Si Si5 0.718565 0.825454 0.141208
Si Si6 0.775199 0.670342 0.932921
Si Si7 0.723273 0.442595 0.099538
Si Si8 0.718648 0.042219 0.519026
O O1 0.500000 0.349327 0.231134
O O2 0.222206 0.174088 0.267949
O O3 0.217995 0.525001 0.265204
O O4 0.221989 0.346159 0.161511
O O5 0.500000 0.720735 0.443887
O O6 0.789547 0.530114 0.431647
O O7 0.699938 0.625749 0.536883
O O8 0.793846 0.884364 0.478328
O O9 0.281137 0.803066 0.880798
O O10 0.000000 0.936176 0.830201
O O11 0.282917 0.135624 0.824174
O O12 0.500000 0.720348 0.275541
O O13 0.781499 0.821185 0.209857
O O14 0.500000 0.816446 0.146526
O O15 0.782308 0.641937 0.112728
O O16 0.752595 0.970554 0.090432
O O17 0.000000 0.658538 0.932043
O O18 0.715672 0.772296 0.993133
O O19 0.500000 0.435230 0.094891
O O20 0.500000 0.038063 0.510262
#
# Coordination Sequence:
#
# PCOD9343041 Si02
#       8
#     4   4   4   4   4   4   4   4
#     4   8  15  26  40  65  96 119 147 191 237 282
#     4  10  20  32  47  69  97 130 163 196 236 282
#     4   9  16  26  44  65  89 127 158 185 236 284
#     4   8  15  26  40  65  96 119 147 191 237 282
#     4   9  17  30  49  73 100 126 155 195 242 288
#     4   9  18  32  45  63  95 129 164 199 232 280
#     4   9  17  30  49  73 100 126 155 195 242 288
#     4  10  20  32  47  69  97 130 163 196 236 282
#
# _framework density 25.996569000000001
#
# number of rings (size 3 to 8) (size 9 to 14) (size 15 to 20)
#    0.000    3.000    1.250    1.500    1.750    1.500 
#    0.000    5.000    0.000    0.000    0.000    3.500 
#    0.000    4.000    0.000    0.000    0.000    0.000 
#
# Total GULP energy -178719.091500 kJ/mol
# GULP energy per Si atom -5584.971609 kJ/mol
# Density = 2.593740 g / cm^3
# Si number density = 25.996569 Si / 1000 Ang^3
#
#
#
# Elastic Constant Matrix: (Units=GPa)
#
#
# Indices 1 2 3 4 5 6 
#
# 1 116.4116 -2.6124 -10.7782 0.0000 0.0000 0.0000
# 2 -2.6124 124.3785 2.3996 0.0000 0.0000 0.0000
# 3 -10.7782 2.3996 38.5940 0.0000 0.0000 0.0000
# 4 0.0000 0.0000 0.0000 42.4313 0.0000 0.0000
# 5 0.0000 0.0000 0.0000 0.0000 5.6665 0.0000
# 6 0.0000 0.0000 0.0000 0.0000 0.0000 -8.0664
#
#
#
# Elastic Compliance Matrix: (Units=1/GPa)
#
#
# Indices 1 2 3 4 5 6 
#
# 1 0.008821 0.000138 0.002455 0.000000 0.000000 0.000000
# 2 0.000138 0.008052 -0.000462 0.000000 0.000000 0.000000
# 3 0.002455 -0.000462 0.026625 0.000000 0.000000 0.000000
# 4 0.000000 0.000000 0.000000 0.023567 0.000000 0.000000
# 5 0.000000 0.000000 0.000000 0.000000 0.176477 0.000000
# 6 0.000000 0.000000 0.000000 0.000000 0.000000 -0.123972
#
#
# Mechanical properties :
#
#
# Convention : Reuss Voigt Hill
#
# Bulk Modulus (GPa) = 20.93868 28.60024 24.76946
# Shear Modulus (GPa) = 38.10148 27.36463 32.73306
#
# Velocity S-wave (km/s) = 3.83251 3.24794 3.55227
# Velocity P-wave (km/s) = 5.25891 5.00908 5.13551
#
# Compressibility (1/GPa) = 0.04775851
#
# Stress axis : x y z
#
# Youngs Moduli (GPa) = 113.37124 124.19603 37.55862
#
# Poissons Ratio (x) = -0.01713 -0.09220
# Poissons Ratio (y) = -0.01563 0.01736
# Poissons Ratio (z) = -0.27830 0.05739
#
# Static dielectric constant tensor:
#      x y z
#    x 1.997470 0.000000 0.000000 
#    y 0.000000 2.038590 0.000000 
#    z 0.000000 0.000000 2.062290 
# 
# From -- ./inp_files/6363.got.cif
#   From: 2010.05.17/outbox.cif.g08.bks.cpg/sg31_4_cif.got.tgz:6363.got - 2010.06.03 17:08:30.
