data_PCOD9343197
_publ_section_title
;
Structure prediction by ZEFSAII (Michael W. Deem and Ramdas Pophale) SiO2 
 PCOD9343197
Probable space group: P M N 21
;
_chemical_formula_sum "Si O2"
_cell_formula_units_Z 32
_cell_length_a 25.192313
_cell_length_b 5.083143
_cell_length_c 11.002378
_cell_angle_alpha 90.000000
_cell_angle_beta 90.000000
_cell_angle_gamma 90.000000
_cell_volume 1408.921942
_symmetry_space_group_name_H-M "P M N 21"
_symmetry_group_IT_number 31
_symmetry_cell_setting 'orthorhombic'
loop_
_space_group_symop_operation_xyz
x,y,z
1/2-x,-y,1/2+z
-x,y,z
1/2+x,-y,1/2+z
loop_
_atom_site_type_symbol
_atom_site_label
_atom_site_fract_x
_atom_site_fract_y
_atom_site_fract_z
Si Si1 0.760196 0.969905 0.073000
Si Si2 0.156305 0.645924 0.222645
Si Si3 0.383556 0.700755 0.120720
Si Si4 0.356356 0.925827 0.454090
Si Si5 0.670615 0.207611 0.222282
Si Si6 0.560389 0.242282 0.570452
Si Si7 0.443243 0.590887 0.335693
Si Si8 0.334160 0.841004 0.886411
O O1 0.799935 0.750910 0.126627
O O2 0.726952 0.094988 0.181999
O O3 0.716830 0.883179 0.973842
O O4 0.801821 0.169737 0.010725
O O5 0.099296 0.592934 0.157781
O O6 0.175313 0.385141 0.288890
O O7 0.151936 0.884975 0.320535
O O8 0.371158 0.001425 0.161519
O O9 0.434289 0.576370 0.190740
O O10 0.338145 0.494557 0.165958
O O11 0.379908 0.726430 0.976113
O O12 0.338794 0.166687 0.365485
O O13 0.389135 0.731993 0.371161
O O14 0.401201 0.993315 0.553062
O O15 0.500000 0.205060 0.613140
O O16 0.555891 0.353421 0.431975
O O17 0.500000 0.730100 0.356899
#
# Coordination Sequence:
#
# PCOD9343197 Si02
#       8
#     4   4   4   4   4   4   4   4
#     4  10  23  39  63  93 129 180 214 260 320 393
#     4  11  26  43  65  99 133 174 226 268 329 406
#     4  10  21  40  64  90 127 166 214 266 323 384
#     4  10  20  38  60  93 130 165 214 273 326 390
#     4  10  20  37  57  91 122 168 208 260 314 379
#     4  10  22  42  66  95 126 171 221 284 337 386
#     4  10  21  40  68  98 126 168 224 286 335 382
#     4  11  24  45  64  95 138 178 218 267 330 406
#
# _framework density 22.712399999999999
#
# number of rings (size 3 to 8) (size 9 to 14) (size 15 to 20)
#    0.000    1.750    1.250    2.625    3.500    5.000 
#    9.000    1.250    0.000    0.000    0.000    0.000 
#    0.000    0.000    0.000    0.000    0.000    0.000 
#
# Total GULP energy -178327.139113 kJ/mol
# GULP energy per Si atom -5572.723097 kJ/mol
# Density = 2.266071 g / cm^3
# Si number density = 22.712400 Si / 1000 Ang^3
#
#
#
# Elastic Constant Matrix: (Units=GPa)
#
#
# Indices 1 2 3 4 5 6 
#
# 1 156.1040 26.2667 49.1363 0.0000 0.0000 0.0000
# 2 26.2667 87.2079 27.0010 0.0000 0.0000 0.0000
# 3 49.1363 27.0010 94.2621 0.0000 0.0000 0.0000
# 4 0.0000 0.0000 0.0000 36.6782 0.0000 0.0000
# 5 0.0000 0.0000 0.0000 0.0000 33.5734 0.0000
# 6 0.0000 0.0000 0.0000 0.0000 0.0000 14.9293
#
#
#
# Elastic Compliance Matrix: (Units=1/GPa)
#
#
# Indices 1 2 3 4 5 6 
#
# 1 0.007775 -0.001193 -0.003711 0.000000 0.000000 0.000000
# 2 -0.001193 0.012766 -0.003035 0.000000 0.000000 0.000000
# 3 -0.003711 -0.003035 0.013413 0.000000 0.000000 0.000000
# 4 0.000000 0.000000 0.000000 0.027264 0.000000 0.000000
# 5 0.000000 0.000000 0.000000 0.000000 0.029785 0.000000
# 6 0.000000 0.000000 0.000000 0.000000 0.000000 0.066982
#
#
# Mechanical properties :
#
#
# Convention : Reuss Voigt Hill
#
# Bulk Modulus (GPa) = 55.32351 60.26469 57.79410
# Shear Modulus (GPa) = 27.79508 32.71418 30.25463
#
# Velocity S-wave (km/s) = 3.50206 3.79933 3.65372
# Velocity P-wave (km/s) = 6.38465 6.77038 6.58034
#
# Compressibility (1/GPa) = 0.01807550
#
# Stress axis : x y z
#
# Youngs Moduli (GPa) = 128.62025 78.33446 74.55668
#
# Poissons Ratio (x) = 0.09343 0.27669
# Poissons Ratio (y) = 0.15341 0.22628
# Poissons Ratio (z) = 0.47733 0.23774
#
# Static dielectric constant tensor:
#      x y z
#    x 1.868960 0.000000 0.000000 
#    y 0.000000 1.895410 0.000000 
#    z 0.000000 0.000000 2.024510 
# 
# From -- ./inp_files/4553.got.cif
#   From: 2010.05.17/outbox.cif.g08.bks.cpg/sg31_3_cif.got.tgz:4553.got - 2010.06.03 17:08:30.
