data_PCOD9343439
_publ_section_title
;
Structure prediction by ZEFSAII (Michael W. Deem and Ramdas Pophale) SiO2 
 PCOD9343439
Probable space group: P M N 21
;
_chemical_formula_sum "Si O2"
_cell_formula_units_Z 28
_cell_length_a 24.699965
_cell_length_b 4.953102
_cell_length_c 9.538858
_cell_angle_alpha 90.000000
_cell_angle_beta 90.000000
_cell_angle_gamma 90.000000
_cell_volume 1166.997681
_symmetry_space_group_name_H-M "P M N 21"
_symmetry_group_IT_number 31
_symmetry_cell_setting 'orthorhombic'
loop_
_space_group_symop_operation_xyz
x,y,z
1/2-x,-y,1/2+z
-x,y,z
1/2+x,-y,1/2+z
loop_
_atom_site_type_symbol
_atom_site_label
_atom_site_fract_x
_atom_site_fract_y
_atom_site_fract_z
Si Si1 0.562941 0.420068 0.921090
Si Si2 0.763518 0.156184 0.487123
Si Si3 0.872936 0.501518 0.061304
Si Si4 0.647410 0.974528 0.396511
Si Si5 0.344289 0.207247 0.104972
Si Si6 0.261061 0.486187 0.726725
Si Si7 0.438966 0.922909 0.739183
O O1 0.500000 0.345496 0.953466
O O2 0.561960 0.731761 0.876679
O O3 0.581221 0.216884 0.792574
O O4 0.607782 0.377670 0.038330
O O5 0.711333 0.007053 0.426946
O O6 0.750076 0.198729 0.652415
O O7 0.766816 0.421455 0.387504
O O8 0.818814 0.992097 0.487601
O O9 0.818827 0.455335 0.154034
O O10 0.915394 0.297949 0.131778
O O11 0.878673 0.811360 0.009371
O O12 0.863517 0.339488 0.916818
O O13 0.633123 0.054012 0.240047
O O14 0.291871 0.365400 0.164283
O O15 0.500000 0.978130 0.691654
#
# Coordination Sequence:
#
# PCOD9343439 Si02
#       7
#     4   4   4   4   4   4   4
#     4  10  23  41  64  95 123 158 214 265 310 373
#     4  10  22  38  57  88 124 168 206 257 309 378
#     4  11  21  42  58  89 126 159 202 260 312 369
#     4  10  24  38  58  90 126 159 206 255 301 386
#     4  11  23  38  61  85 127 169 207 254 324 367
#     4  10  23  35  58  89 123 166 209 255 314 383
#     4  10  22  42  68  94 121 159 212 266 314 372
#
# _framework density 23.993193000000002
#
# number of rings (size 3 to 8) (size 9 to 14) (size 15 to 20)
#    0.000    1.714    1.429    1.714   10.000    0.000 
#    0.000    1.429    0.000    0.000    0.000    0.000 
#    0.000    0.000    0.000    0.000    0.000    0.000 
#
# Total GULP energy -156158.476401 kJ/mol
# GULP energy per Si atom -5577.088443 kJ/mol
# Density = 2.393858 g / cm^3
# Si number density = 23.993193 Si / 1000 Ang^3
#
#
#
# Elastic Constant Matrix: (Units=GPa)
#
#
# Indices 1 2 3 4 5 6 
#
# 1 29.8802 -13.2189 -6.9072 0.0000 0.0000 0.0000
# 2 -13.2189 85.3506 9.0179 0.0000 0.0000 0.0000
# 3 -6.9072 9.0179 58.1775 0.0000 0.0000 0.0000
# 4 0.0000 0.0000 0.0000 24.6744 0.0000 0.0000
# 5 0.0000 0.0000 0.0000 0.0000 26.0778 0.0000
# 6 0.0000 0.0000 0.0000 0.0000 0.0000 17.4543
#
#
#
# Elastic Compliance Matrix: (Units=1/GPa)
#
#
# Indices 1 2 3 4 5 6 
#
# 1 0.036627 0.005300 0.003527 0.000000 0.000000 0.000000
# 2 0.005300 0.012678 -0.001336 0.000000 0.000000 0.000000
# 3 0.003527 -0.001336 0.017815 0.000000 0.000000 0.000000
# 4 0.000000 0.000000 0.000000 0.040528 0.000000 0.000000
# 5 0.000000 0.000000 0.000000 0.000000 0.038347 0.000000
# 6 0.000000 0.000000 0.000000 0.000000 0.000000 0.057292
#
#
# Mechanical properties :
#
#
# Convention : Reuss Voigt Hill
#
# Bulk Modulus (GPa) = 12.17992 16.79908 14.48950
# Shear Modulus (GPa) = 23.18333 25.94241 24.56287
#
# Velocity S-wave (km/s) = 3.11182 3.29179 3.20307
# Velocity P-wave (km/s) = 4.24248 4.63299 4.44203
#
# Compressibility (1/GPa) = 0.08210233
#
# Stress axis : x y z
#
# Youngs Moduli (GPa) = 27.30227 78.87435 56.13363
#
# Poissons Ratio (x) = -0.41804 -0.19799
# Poissons Ratio (y) = -0.14470 0.07499
# Poissons Ratio (z) = -0.09630 0.10537
#
# Static dielectric constant tensor:
#      x y z
#    x 1.922640 0.000000 0.000000 
#    y 0.000000 1.992800 0.000000 
#    z 0.000000 0.000000 1.989300 
# 
# From -- ./inp_files/3132.got.cif
#   From: 2010.05.17/outbox.cif.g08.bks.cpg/sg31_2_cif.got.tgz:3132.got - 2010.06.03 17:08:30.
