data_PCOD9343828
_publ_section_title
;
Structure prediction by ZEFSAII (Michael W. Deem and Ramdas Pophale) SiO2 
 PCOD9343828
Probable space group: P B A 2
;
_chemical_formula_sum "Si O2"
_cell_formula_units_Z 30
_cell_length_a 25.729325
_cell_length_b 9.227503
_cell_length_c 6.079017
_cell_angle_alpha 90.000000
_cell_angle_beta 90.000000
_cell_angle_gamma 90.000000
_cell_volume 1443.264554
_symmetry_space_group_name_H-M "P B A 2"
_symmetry_group_IT_number 32
_symmetry_cell_setting 'orthorhombic'
loop_
_space_group_symop_operation_xyz
x,y,z
-x,-y,z
1/2-x,1/2+y,z
1/2+x,1/2-y,z
loop_
_atom_site_type_symbol
_atom_site_label
_atom_site_fract_x
_atom_site_fract_y
_atom_site_fract_z
Si Si1 0.000000 0.000000 0.945331
Si Si2 0.354283 0.771044 0.325427
Si Si3 0.912331 0.948341 0.613412
Si Si4 0.339524 0.544538 0.995411
Si Si5 0.843297 0.405158 0.242688
Si Si6 0.420590 0.341588 0.238806
Si Si7 0.231110 0.523014 0.853004
Si Si8 0.244131 0.765879 0.529846
O O1 0.043111 0.075164 0.792561
O O2 0.970790 0.117340 0.096691
O O3 0.399582 0.684646 0.452568
O O4 0.351780 0.707215 0.077405
O O5 0.297846 0.722907 0.414418
O O6 0.356301 0.942400 0.359034
O O7 0.927861 0.092838 0.481118
O O8 0.859427 0.975344 0.748160
O O9 0.374436 0.441390 0.142312
O O10 0.280118 0.499065 0.012426
O O11 0.896856 0.316908 0.221343
O O12 0.802932 0.295673 0.373046
O O13 0.818443 0.463794 0.012796
O O14 0.236259 0.682299 0.756443
O O15 0.242081 0.424528 0.635095
#
# Coordination Sequence:
#
# PCOD9343828 Si02
#       8
#     2   4   4   4   4   4   4   4
#     4  10  22  46  76 100 116 164 234 290 346 406
#     4  11  23  39  58  95 136 177 218 275 328 395
#     4  10  21  42  73  95 126 167 222 284 343 402
#     4  10  20  37  62  90 130 179 223 263 322 390
#     4  12  26  39  61  99 145 175 225 276 328 406
#     4  10  23  41  69  99 127 167 223 288 339 402
#     4  12  23  37  59  88 137 188 225 260 319 393
#     4  12  24  37  56  91 137 188 228 260 319 397
#
# _framework density 20.786211000000002
#
# number of rings (size 3 to 8) (size 9 to 14) (size 15 to 20)
#    0.000    1.067    4.000    2.800    3.733    1.067 
#    0.000    0.000    0.000   19.200    0.000    0.000 
#    0.000    0.000    0.000    0.000    0.000    0.000 
#
# Total GULP energy -167103.792198 kJ/mol
# GULP energy per Si atom -5570.126407 kJ/mol
# Density = 2.073890 g / cm^3
# Si number density = 20.786211 Si / 1000 Ang^3
#
#
#
# Elastic Constant Matrix: (Units=GPa)
#
#
# Indices 1 2 3 4 5 6 
#
# 1 56.3312 16.1892 16.2446 0.0000 0.0000 0.0000
# 2 16.1892 97.3078 20.0310 0.0000 0.0000 0.0000
# 3 16.2446 20.0310 63.4726 0.0000 0.0000 0.0000
# 4 0.0000 0.0000 0.0000 24.9394 0.0000 0.0000
# 5 0.0000 0.0000 0.0000 0.0000 38.1371 0.0000
# 6 0.0000 0.0000 0.0000 0.0000 0.0000 23.6253
#
#
#
# Elastic Compliance Matrix: (Units=1/GPa)
#
#
# Indices 1 2 3 4 5 6 
#
# 1 0.019674 -0.002392 -0.004280 0.000000 0.000000 0.000000
# 2 -0.002392 0.011282 -0.002948 0.000000 0.000000 0.000000
# 3 -0.004280 -0.002948 0.017781 0.000000 0.000000 0.000000
# 4 0.000000 0.000000 0.000000 0.040097 0.000000 0.000000
# 5 0.000000 0.000000 0.000000 0.000000 0.026221 0.000000
# 6 0.000000 0.000000 0.000000 0.000000 0.000000 0.042327
#
#
# Mechanical properties :
#
#
# Convention : Reuss Voigt Hill
#
# Bulk Modulus (GPa) = 33.90370 35.78233 34.84302
# Shear Modulus (GPa) = 26.81619 28.31682 27.56651
#
# Velocity S-wave (km/s) = 3.59569 3.69492 3.64564
# Velocity P-wave (km/s) = 5.79523 5.95442 5.87536
#
# Compressibility (1/GPa) = 0.02949530
#
# Stress axis : x y z
#
# Youngs Moduli (GPa) = 50.82864 88.64063 56.24092
#
# Poissons Ratio (x) = 0.21203 0.24073
# Poissons Ratio (y) = 0.12159 0.16580
# Poissons Ratio (z) = 0.21756 0.26132
#
# Static dielectric constant tensor:
#      x y z
#    x 1.772250 0.000000 0.000000 
#    y 0.000000 1.791090 0.000000 
#    z 0.000000 0.000000 1.828070 
# 
# From -- ./inp_files/624.got.cif
#   From: 2010.05.17/outbox.cif.g08.bks.cpg/sg32_1_cif.got.tgz:624.got - 2010.06.03 17:12:27.
