data_PCOD9343735
_publ_section_title
;
Structure prediction by ZEFSAII (Michael W. Deem and Ramdas Pophale) SiO2 
 PCOD9343735
Probable space group: P B A 2
;
_chemical_formula_sum "Si O2"
_cell_formula_units_Z 22
_cell_length_a 8.733902
_cell_length_b 15.314057
_cell_length_c 7.696644
_cell_angle_alpha 90.000000
_cell_angle_beta 90.000000
_cell_angle_gamma 90.000000
_cell_volume 1029.437473
_symmetry_space_group_name_H-M "P B A 2"
_symmetry_group_IT_number 32
_symmetry_cell_setting 'orthorhombic'
loop_
_space_group_symop_operation_xyz
x,y,z
-x,-y,z
1/2-x,1/2+y,z
1/2+x,1/2-y,z
loop_
_atom_site_type_symbol
_atom_site_label
_atom_site_fract_x
_atom_site_fract_y
_atom_site_fract_z
Si Si1 0.352477 0.833666 0.940350
Si Si2 0.732638 0.222095 0.300942
Si Si3 0.994915 0.851836 0.856282
Si Si4 0.000000 0.500000 0.998765
Si Si5 0.780352 0.908230 0.162013
Si Si6 0.031096 0.141095 0.464599
O O1 0.424057 0.745465 0.866747
O O2 0.450757 0.916952 0.886122
O O3 0.174758 0.845712 0.894926
O O4 0.357105 0.828559 0.151012
O O5 0.786091 0.309666 0.194604
O O6 0.624387 0.266678 0.444257
O O7 0.867119 0.165421 0.382482
O O8 0.973307 0.886823 0.662447
O O9 0.901505 0.903149 0.004271
O O10 0.854575 0.471982 0.112955
O O11 0.874962 0.923240 0.338431
#
# Coordination Sequence:
#
# PCOD9343735 Si02
#       6
#     4   4   4   2   4   4
#     4  11  21  39  65  95 125 170 214 265 327 383
#     4   9  17  37  61  92 118 152 217 258 300 381
#     4  11  21  40  69  93 122 166 224 265 310 385
#     4  12  24  40  66  88 138 180 202 272 336 384
#     4   9  22  39  61  94 124 165 212 254 324 383
#     4  10  19  35  66  94 117 154 212 269 307 358
#
# _framework density 21.370894
#
# number of rings (size 3 to 8) (size 9 to 14) (size 15 to 20)
#    1.091    0.727    1.818    4.364    0.000    0.727 
#    0.000    0.909   12.000    0.000    0.000    0.000 
#    0.000    0.000    0.000    0.000    0.000    0.000 
#
# Total GULP energy -122776.901445 kJ/mol
# GULP energy per Si atom -5580.768247 kJ/mol
# Density = 2.132225 g / cm^3
# Si number density = 21.370894 Si / 1000 Ang^3
#
#
#
# Elastic Constant Matrix: (Units=GPa)
#
#
# Indices 1 2 3 4 5 6 
#
# 1 106.5743 15.1403 34.2361 0.0000 0.0000 0.0000
# 2 15.1403 63.6193 4.1872 0.0000 0.0000 0.0000
# 3 34.2361 4.1872 121.1900 0.0000 0.0000 0.0000
# 4 0.0000 0.0000 0.0000 2.1890 0.0000 0.0000
# 5 0.0000 0.0000 0.0000 0.0000 18.8913 0.0000
# 6 0.0000 0.0000 0.0000 0.0000 0.0000 43.1651
#
#
#
# Elastic Compliance Matrix: (Units=1/GPa)
#
#
# Indices 1 2 3 4 5 6 
#
# 1 0.010657 -0.002343 -0.002930 0.000000 0.000000 0.000000
# 2 -0.002343 0.016270 0.000100 0.000000 0.000000 0.000000
# 3 -0.002930 0.000100 0.009076 0.000000 0.000000 0.000000
# 4 0.000000 0.000000 0.000000 0.456839 0.000000 0.000000
# 5 0.000000 0.000000 0.000000 0.000000 0.052934 0.000000
# 6 0.000000 0.000000 0.000000 0.000000 0.000000 0.023167
#
#
# Mechanical properties :
#
#
# Convention : Reuss Voigt Hill
#
# Bulk Modulus (GPa) = 38.97715 44.27901 41.62808
# Shear Modulus (GPa) = 8.50571 28.70374 18.60472
#
# Velocity S-wave (km/s) = 1.99717 3.66884 2.95373
# Velocity P-wave (km/s) = 4.85760 6.22185 5.58156
#
# Compressibility (1/GPa) = 0.02565606
#
# Stress axis : x y z
#
# Youngs Moduli (GPa) = 93.83354 61.46430 110.18445
#
# Poissons Ratio (x) = 0.14404 0.32281
# Poissons Ratio (y) = 0.21989 -0.01101
# Poissons Ratio (z) = 0.27490 -0.00614
#
# Static dielectric constant tensor:
#      x y z
#    x 1.762410 0.000000 0.000000 
#    y 0.000000 1.826130 0.000000 
#    z 0.000000 0.000000 1.747420 
# 
# From -- ./inp_files/2381.got.cif
#   From: 2010.05.17/outbox.cif.g08.bks.cpg/sg32_2_cif.got.tgz:2381.got - 2010.06.03 17:12:27.
