data_PCOD9343569
_publ_section_title
;
Structure prediction by ZEFSAII (Michael W. Deem and Ramdas Pophale) SiO2 
 PCOD9343569
Probable space group: P M N 21
;
_chemical_formula_sum "Si O2"
_cell_formula_units_Z 24
_cell_length_a 21.848401
_cell_length_b 4.909259
_cell_length_c 10.084080
_cell_angle_alpha 90.000000
_cell_angle_beta 90.000000
_cell_angle_gamma 90.000000
_cell_volume 1081.612968
_symmetry_space_group_name_H-M "P M N 21"
_symmetry_group_IT_number 31
_symmetry_cell_setting 'orthorhombic'
loop_
_space_group_symop_operation_xyz
x,y,z
1/2-x,-y,1/2+z
-x,y,z
1/2+x,-y,1/2+z
loop_
_atom_site_type_symbol
_atom_site_label
_atom_site_fract_x
_atom_site_fract_y
_atom_site_fract_z
Si Si1 0.635122 0.993495 0.372150
Si Si2 0.879567 0.443950 0.465673
Si Si3 0.000000 0.141657 0.769719
Si Si4 0.685264 0.508461 0.226695
Si Si5 0.217515 0.822101 0.090158
Si Si6 0.314597 0.028290 0.872028
Si Si7 0.000000 0.648440 0.578588
O O1 0.563362 0.925657 0.348750
O O2 0.660732 0.211492 0.264234
O O3 0.654016 0.141060 0.510111
O O4 0.673944 0.713571 0.349882
O O5 0.860715 0.376866 0.616211
O O6 0.832762 0.664889 0.406993
O O7 0.943185 0.587282 0.485167
O O8 0.873041 0.168154 0.385437
O O9 0.000000 0.946224 0.641058
O O10 0.000000 0.445157 0.707305
O O11 0.750691 0.551365 0.154262
O O12 0.210341 0.990590 0.224504
O O13 0.266110 0.920971 0.979983
#
# Coordination Sequence:
#
# PCOD9343569 Si02
#       7
#     4   4   2   4   4   4   2
#     4  12  24  42  67 100 138 173 229 280 335 403
#     4  11  23  41  64  98 129 169 223 279 329 392
#     4  12  22  42  66 104 134 182 228 280 334 398
#     4  11  23  40  64  98 132 169 218 280 330 395
#     4  11  26  44  68 101 139 179 220 282 348 409
#     4  11  26  41  67  97 137 170 222 274 347 402
#     4  12  22  40  70  94 132 174 236 278 324 400
#
# _framework density 22.189081000000002
#
# number of rings (size 3 to 8) (size 9 to 14) (size 15 to 20)
#    0.000    0.667    5.000    3.000    4.667    4.000 
#    0.000    1.667    0.000    0.000    0.000    0.000 
#    0.000    0.000    0.000    0.000    0.000    0.000 
#
# Total GULP energy -133926.934535 kJ/mol
# GULP energy per Si atom -5580.288939 kJ/mol
# Density = 2.213858 g / cm^3
# Si number density = 22.189081 Si / 1000 Ang^3
#
#
#
# Elastic Constant Matrix: (Units=GPa)
#
#
# Indices 1 2 3 4 5 6 
#
# 1 90.2417 -6.1813 31.3543 0.0000 0.0000 0.0000
# 2 -6.1813 86.2466 4.7169 0.0000 0.0000 0.0000
# 3 31.3543 4.7169 94.2054 0.0000 0.0000 0.0000
# 4 0.0000 0.0000 0.0000 21.6943 0.0000 0.0000
# 5 0.0000 0.0000 0.0000 0.0000 27.0159 0.0000
# 6 0.0000 0.0000 0.0000 0.0000 0.0000 23.4882
#
#
#
# Elastic Compliance Matrix: (Units=1/GPa)
#
#
# Indices 1 2 3 4 5 6 
#
# 1 0.012641 0.001139 -0.004264 0.000000 0.000000 0.000000
# 2 0.001139 0.011729 -0.000966 0.000000 0.000000 0.000000
# 3 -0.004264 -0.000966 0.012083 0.000000 0.000000 0.000000
# 4 0.000000 0.000000 0.000000 0.046095 0.000000 0.000000
# 5 0.000000 0.000000 0.000000 0.000000 0.037015 0.000000
# 6 0.000000 0.000000 0.000000 0.000000 0.000000 0.042574
#
#
# Mechanical properties :
#
#
# Convention : Reuss Voigt Hill
#
# Bulk Modulus (GPa) = 35.37341 36.71927 36.04634
# Shear Modulus (GPa) = 27.81729 30.49326 29.15528
#
# Velocity S-wave (km/s) = 3.54453 3.71110 3.62877
# Velocity P-wave (km/s) = 5.72084 5.91163 5.81702
#
# Compressibility (1/GPa) = 0.02826982
#
# Stress axis : x y z
#
# Youngs Moduli (GPa) = 79.10751 85.25752 82.76238
#
# Poissons Ratio (x) = -0.09713 0.35293
# Poissons Ratio (y) = -0.09012 0.07999
# Poissons Ratio (z) = 0.33734 0.08240
#
# Static dielectric constant tensor:
#      x y z
#    x 1.927070 0.000000 0.000000 
#    y 0.000000 1.857640 0.000000 
#    z 0.000000 0.000000 1.828460 
# 
# From -- ./inp_files/3066.got.cif
#   From: 2010.05.17/outbox.cif.g08.bks.cpg/sg31_2_cif.got.tgz:3066.got - 2010.06.03 17:08:30.
