data_PCOD9343847
_publ_section_title
;
Structure prediction by ZEFSAII (Michael W. Deem and Ramdas Pophale) SiO2 
 PCOD9343847
Probable space group: P B A 2
;
_chemical_formula_sum "Si O2"
_cell_formula_units_Z 22
_cell_length_a 5.004931
_cell_length_b 15.973558
_cell_length_c 11.533775
_cell_angle_alpha 90.000000
_cell_angle_beta 90.000000
_cell_angle_gamma 90.000000
_cell_volume 922.085584
_symmetry_space_group_name_H-M "P B A 2"
_symmetry_group_IT_number 32
_symmetry_cell_setting 'orthorhombic'
loop_
_space_group_symop_operation_xyz
x,y,z
-x,-y,z
1/2-x,1/2+y,z
1/2+x,1/2-y,z
loop_
_atom_site_type_symbol
_atom_site_label
_atom_site_fract_x
_atom_site_fract_y
_atom_site_fract_z
Si Si1 0.748419 0.938867 0.433470
Si Si2 0.356203 0.073910 0.821662
Si Si3 0.606839 0.309990 0.636575
Si Si4 0.500000 0.500000 0.023449
Si Si5 0.636856 0.197941 0.985873
Si Si6 0.354029 0.090064 0.176562
O O1 0.828211 0.869449 0.527284
O O2 0.677728 0.893723 0.311821
O O3 0.500000 0.000000 0.464465
O O4 0.000000 0.000000 0.413323
O O5 0.156756 0.128303 0.745107
O O6 0.224938 0.024095 0.929242
O O7 0.500000 0.000000 0.750532
O O8 0.558726 0.138955 0.879512
O O9 0.318994 0.266482 0.637662
O O10 0.432298 0.574153 0.114884
O O11 0.943789 0.221933 0.976946
O O12 0.527500 0.154872 0.102940
O O13 0.500000 0.000000 0.165799
#
# Coordination Sequence:
#
# PCOD9343847 Si02
#       6
#     4   4   4   2   4   4
#     4  11  24  45  75 102 136 183 242 288 345 414
#     4  11  26  41  71  96 136 185 237 285 340 415
#     4  12  28  48  71 104 145 181 230 294 362 419
#     4  10  20  38  66  98 130 170 232 284 332 396
#     4  11  25  39  61  95 139 177 219 275 349 408
#     4  10  23  41  68  99 137 179 234 287 332 410
#
# _framework density 23.858955000000002
#
# number of rings (size 3 to 8) (size 9 to 14) (size 15 to 20)
#    0.000    1.091    0.909    4.909   14.000    1.455 
#    0.000    0.000    0.000    0.000    0.000    0.000 
#    0.000    0.000    0.000    0.000    0.000    0.000 
#
# Total GULP energy -122997.597733 kJ/mol
# GULP energy per Si atom -5590.799897 kJ/mol
# Density = 2.380465 g / cm^3
# Si number density = 23.858955 Si / 1000 Ang^3
#
#
#
# Elastic Constant Matrix: (Units=GPa)
#
#
# Indices 1 2 3 4 5 6 
#
# 1 71.8835 11.6276 -0.5315 0.0000 0.0000 0.0000
# 2 11.6276 60.9192 22.2573 0.0000 0.0000 0.0000
# 3 -0.5315 22.2573 136.0724 0.0000 0.0000 0.0000
# 4 0.0000 0.0000 0.0000 93.8926 0.0000 0.0000
# 5 0.0000 0.0000 0.0000 0.0000 6.9960 0.0000
# 6 0.0000 0.0000 0.0000 0.0000 0.0000 18.5384
#
#
#
# Elastic Compliance Matrix: (Units=1/GPa)
#
#
# Indices 1 2 3 4 5 6 
#
# 1 0.014391 -0.002943 0.000538 0.000000 0.000000 0.000000
# 2 -0.002943 0.018060 -0.002966 0.000000 0.000000 0.000000
# 3 0.000538 -0.002966 0.007836 0.000000 0.000000 0.000000
# 4 0.000000 0.000000 0.000000 0.010650 0.000000 0.000000
# 5 0.000000 0.000000 0.000000 0.000000 0.142939 0.000000
# 6 0.000000 0.000000 0.000000 0.000000 0.000000 0.053942
#
#
# Mechanical properties :
#
#
# Convention : Reuss Voigt Hill
#
# Bulk Modulus (GPa) = 33.84602 37.28686 35.56644
# Shear Modulus (GPa) = 18.62819 39.58686 29.10752
#
# Velocity S-wave (km/s) = 2.79725 4.07775 3.49662
# Velocity P-wave (km/s) = 4.96482 6.15083 5.58937
#
# Compressibility (1/GPa) = 0.02954557
#
# Stress axis : x y z
#
# Youngs Moduli (GPa) = 69.48558 55.36951 127.61265
#
# Poissons Ratio (x) = 0.16297 -0.06861
# Poissons Ratio (y) = 0.20452 0.37845
# Poissons Ratio (z) = -0.03736 0.16421
#
# Static dielectric constant tensor:
#      x y z
#    x 1.981790 0.000000 0.000000 
#    y 0.000000 1.931960 0.000000 
#    z 0.000000 0.000000 1.893380 
# 
# From -- ./inp_files/3500.got.cif
#   From: 2010.05.17/outbox.cif.g08.bks.cpg/sg32_2_cif.got.tgz:3500.got - 2010.06.03 17:12:27.
