data_PCOD9343100
_publ_section_title
;
Structure prediction by ZEFSAII (Michael W. Deem and Ramdas Pophale) SiO2 
 PCOD9343100
Probable space group: P M N 21
;
_chemical_formula_sum "Si O2"
_cell_formula_units_Z 32
_cell_length_a 23.837474
_cell_length_b 8.844663
_cell_length_c 8.555509
_cell_angle_alpha 90.000000
_cell_angle_beta 90.000000
_cell_angle_gamma 90.000000
_cell_volume 1803.795815
_symmetry_space_group_name_H-M "P M N 21"
_symmetry_group_IT_number 31
_symmetry_cell_setting 'orthorhombic'
loop_
_space_group_symop_operation_xyz
x,y,z
1/2-x,-y,1/2+z
-x,y,z
1/2+x,-y,1/2+z
loop_
_atom_site_type_symbol
_atom_site_label
_atom_site_fract_x
_atom_site_fract_y
_atom_site_fract_z
Si Si1 0.762234 0.038038 0.239990
Si Si2 0.742750 0.676571 0.949893
Si Si3 0.563959 0.965225 0.665858
Si Si4 0.364623 0.179512 0.833739
Si Si5 0.837612 0.192078 0.680138
Si Si6 0.156793 0.238260 0.032714
Si Si7 0.313583 0.468705 0.717643
Si Si8 0.064957 0.024212 0.523397
O O1 0.744358 0.167502 0.361894
O O2 0.793624 0.130798 0.101765
O O3 0.809093 0.925716 0.314948
O O4 0.709078 0.941261 0.187845
O O5 0.734081 0.544076 0.825269
O O6 0.683975 0.702057 0.040578
O O7 0.786956 0.632343 0.080832
O O8 0.500000 0.981461 0.617828
O O9 0.600370 0.856391 0.560154
O O10 0.565709 0.905447 0.846708
O O11 0.595623 0.124981 0.690010
O O12 0.349594 0.353503 0.820487
O O13 0.399698 0.128840 0.986347
O O14 0.898014 0.123939 0.638551
O O15 0.835727 0.267026 0.850008
O O16 0.156474 0.389706 0.135472
O O17 0.000000 0.001460 0.566459
#
# Coordination Sequence:
#
# PCOD9343100 Si02
#       8
#     4   4   4   4   4   4   4   4
#     4  10  20  34  56  82 112 147 200 233 285 342
#     4  11  22  36  52  83 121 159 189 231 289 365
#     4   8  17  38  60  80 104 143 203 247 275 331
#     4   9  17  34  59  78 108 145 195 243 277 337
#     4  12  20  33  58  82 119 151 188 241 288 344
#     4  10  22  33  52  89 115 151 186 230 303 357
#     4  11  22  35  53  82 127 153 191 228 299 363
#     4   9  19  35  58  82 105 145 198 247 280 325
#
# _framework density 17.740368
#
# number of rings (size 3 to 8) (size 9 to 14) (size 15 to 20)
#    0.750    1.250    2.500    2.250    1.750    1.500 
#    0.000    1.250    0.000    1.500    0.000    0.000 
#    0.000    0.000    0.000    0.000    0.000    0.000 
#
# Total GULP energy -178271.551553 kJ/mol
# GULP energy per Si atom -5570.985986 kJ/mol
# Density = 1.769999 g / cm^3
# Si number density = 17.740368 Si / 1000 Ang^3
#
#
#
# Elastic Constant Matrix: (Units=GPa)
#
#
# Indices 1 2 3 4 5 6 
#
# 1 69.4649 8.0137 -10.3302 0.0000 0.0000 0.0000
# 2 8.0137 51.7408 -3.8805 0.0000 0.0000 0.0000
# 3 -10.3302 -3.8805 36.3223 0.0000 0.0000 0.0000
# 4 0.0000 0.0000 0.0000 23.0501 0.0000 0.0000
# 5 0.0000 0.0000 0.0000 0.0000 22.7283 0.0000
# 6 0.0000 0.0000 0.0000 0.0000 0.0000 13.8550
#
#
#
# Elastic Compliance Matrix: (Units=1/GPa)
#
#
# Indices 1 2 3 4 5 6 
#
# 1 0.015245 -0.002052 0.004116 0.000000 0.000000 0.000000
# 2 -0.002052 0.019760 0.001527 0.000000 0.000000 0.000000
# 3 0.004116 0.001527 0.028865 0.000000 0.000000 0.000000
# 4 0.000000 0.000000 0.000000 0.043384 0.000000 0.000000
# 5 0.000000 0.000000 0.000000 0.000000 0.043998 0.000000
# 6 0.000000 0.000000 0.000000 0.000000 0.000000 0.072176
#
#
# Mechanical properties :
#
#
# Convention : Reuss Voigt Hill
#
# Bulk Modulus (GPa) = 14.07420 16.12599 15.10010
# Shear Modulus (GPa) = 20.83950 22.84166 21.84058
#
# Velocity S-wave (km/s) = 3.43110 3.59214 3.51254
# Velocity P-wave (km/s) = 4.86284 5.12975 4.99808
#
# Compressibility (1/GPa) = 0.07105199
#
# Stress axis : x y z
#
# Youngs Moduli (GPa) = 65.59667 50.60848 34.64381
#
# Poissons Ratio (x) = 0.10387 -0.14261
# Poissons Ratio (y) = 0.13463 -0.05291
# Poissons Ratio (z) = -0.27002 -0.07730
#
# Static dielectric constant tensor:
#      x y z
#    x 1.607750 0.000000 0.000000 
#    y 0.000000 1.602090 0.000000 
#    z 0.000000 0.000000 1.645570 
# 
# From -- ./inp_files/3097.got.cif
#   From: 2010.05.17/outbox.cif.g08.bks.cpg/sg31_2_cif.got.tgz:3097.got - 2010.06.03 17:08:30.
